REMARK SMILES COc1ccccc1Nc1nc(C)c(C(=O)OCCOCCOCCOCCOC(=O)c2ccc(-c3c4nc(c(-c5c(F)cc(S(=O)(=O)[O-])cc5F)c5ccc([nH]5)c(-c5c(F)cc(S(=O)(=O)[O-])cc5F)c5nc(c(-c6c(F)cc(S(=O)(=O)[O-])cc6F)c6ccc3[nH]6)C=C5)C=C4)cc2)s1
REMARK SMILES IDX 23 1 22 2 21 3 20 4 19 5 18 6 17 7 15 8 16 9 14 10 10 11
REMARK SMILES IDX 11 12 98 13 12 14 13 15 9 16 8 18 3 19 4 20 5 21 7 22 6 23
REMARK SMILES IDX 2 24 1 25 24 26 25 27 26 28 27 29 28 30 29 31 30 32 31 33
REMARK SMILES IDX 32 34 33 35 97 36 34 37 96 38 35 39 36 40 37 41 90 42 38 43
REMARK SMILES IDX 95 44 89 45 91 46 39 47 94 48 88 49 87 50 40 52 74 53 53 54
REMARK SMILES IDX 73 55 54 56 57 57 72 58 92 59 55 60 56 61 71 63 93 64 58 65
REMARK SMILES IDX 41 66 42 67 51 68 43 69 44 70 50 71 52 72 45 73 46 74 47 75
REMARK SMILES IDX 48 76 49 77 75 78 76 79 85 80 77 81 78 82 84 83 86 84 79 85
REMARK SMILES IDX 80 86 81 87 82 88 83 89 59 90 60 91 69 92 61 93 62 94 68 95
REMARK SMILES IDX 70 96 63 97 64 98 65 99 66 100 67 101
REMARK H PARENT 9 17 91 51 57 62
REMARK Flexibility Score: inf
ROOT
ATOM      1  O   UNL     1       9.230   3.001  -3.179  1.00  0.00    -0.377 OA
ENDROOT
BRANCH   1   2
ATOM      2  C   UNL     1       7.909   3.508  -3.078  1.00  0.00     0.188 C 
BRANCH   2   3
ATOM      3  C   UNL     1       7.826   4.723  -2.139  1.00  0.00     0.188 C 
BRANCH   3   4
ATOM      4  O   UNL     1       9.106   5.203  -1.725  1.00  0.00    -0.376 OA
BRANCH   4   5
ATOM      5  C   UNL     1       9.508   4.867  -0.399  1.00  0.00     0.202 C 
BRANCH   5   6
ATOM      6  C   UNL     1       9.911   3.405  -0.156  1.00  0.00     0.261 C 
BRANCH   6   7
ATOM      7  O   UNL     1       8.879   2.435  -0.395  1.00  0.00    -0.459 OA
BRANCH   7   8
ATOM      8  C   UNL     1       7.749   2.475   0.351  1.00  0.00     0.350 C 
ATOM      9  O   UNL     1       7.576   3.235   1.297  1.00  0.00    -0.245 OA
BRANCH   8  10
ATOM     10  C   UNL     1       6.763   1.597  -0.240  1.00  0.00     0.137 A 
ATOM     11  C   UNL     1       4.681   0.665  -1.110  1.00  0.00     0.188 A 
ATOM     12  N   UNL     1       5.690  -0.118  -1.402  1.00  0.00    -0.224 NA
ATOM     13  S   UNL     1       5.102   2.044  -0.170  1.00  0.00    -0.089 S 
ATOM     14  C   UNL     1       6.893   0.432  -0.983  1.00  0.00     0.065 A 
ATOM     15  C   UNL     1       8.132  -0.300  -1.368  1.00  0.00     0.069 C 
BRANCH  11  16
ATOM     16  N   UNL     1       3.410   0.338  -1.418  1.00  0.00    -0.328 N 
ATOM     17  H   UNL     1       3.089  -0.523  -1.064  1.00  0.00     0.169 HD
BRANCH  16  18
ATOM     18  C   UNL     1       2.480   1.075  -2.183  1.00  0.00     0.083 A 
ATOM     19  C   UNL     1       1.115   0.727  -2.126  1.00  0.00     0.142 A 
ATOM     20  C   UNL     1       0.173   1.327  -2.964  1.00  0.00     0.048 A 
ATOM     21  C   UNL     1       0.572   2.331  -3.842  1.00  0.00     0.004 A 
ATOM     22  C   UNL     1       2.853   2.114  -3.046  1.00  0.00     0.030 A 
ATOM     23  C   UNL     1       1.907   2.732  -3.874  1.00  0.00     0.002 A 
BRANCH  19  24
ATOM     24  O   UNL     1       0.658  -0.266  -1.290  1.00  0.00    -0.495 OA
ATOM     25  C   UNL     1       0.685   0.174   0.071  1.00  0.00     0.278 C 
ENDBRANCH  19  24
ENDBRANCH  16  18
ENDBRANCH  11  16
ENDBRANCH   8  10
ENDBRANCH   7   8
ENDBRANCH   6   7
ENDBRANCH   5   6
ENDBRANCH   4   5
ENDBRANCH   3   4
ENDBRANCH   2   3
ENDBRANCH   1   2
BRANCH   1  26
ATOM     26  C   UNL     1      10.039   3.526  -4.230  1.00  0.00     0.188 C 
BRANCH  26  27
ATOM     27  C   UNL     1       9.896   5.007  -4.637  1.00  0.00     0.188 C 
BRANCH  27  28
ATOM     28  O   UNL     1       8.574   5.360  -5.057  1.00  0.00    -0.376 OA
BRANCH  28  29
ATOM     29  C   UNL     1       8.390   5.549  -6.457  1.00  0.00     0.202 C 
BRANCH  29  30
ATOM     30  C   UNL     1       8.233   4.238  -7.239  1.00  0.00     0.261 C 
BRANCH  30  31
ATOM     31  O   UNL     1       9.413   3.422  -7.282  1.00  0.00    -0.460 OA
BRANCH  31  32
ATOM     32  C   UNL     1      10.515   3.971  -7.839  1.00  0.00     0.338 C 
ATOM     33  O   UNL     1      10.601   5.058  -8.380  1.00  0.00    -0.246 OA
BRANCH  32  34
ATOM     34  C   UNL     1      11.666   3.104  -7.521  1.00  0.00     0.060 A 
ATOM     35  C   UNL     1      12.791   3.679  -6.917  1.00  0.00     0.016 A 
ATOM     36  C   UNL     1      11.641   1.743  -7.835  1.00  0.00     0.016 A 
ATOM     37  C   UNL     1      13.919   2.896  -6.668  1.00  0.00     0.010 A 
ATOM     38  C   UNL     1      12.776   0.966  -7.599  1.00  0.00     0.010 A 
ATOM     39  C   UNL     1      13.930   1.547  -7.049  1.00  0.00    -0.014 A 
BRANCH  39  40
ATOM     40  C   UNL     1      15.203   0.789  -7.054  1.00  0.00     0.031 A 
ATOM     41  C   UNL     1      16.000   0.747  -8.329  1.00  0.00     0.074 A 
ATOM     42  C   UNL     1      15.635   0.144  -5.956  1.00  0.00     0.049 A 
ATOM     43  N   UNL     1      17.112   0.111  -8.590  1.00  0.00    -0.248 NA
ATOM     44  C   UNL     1      15.469   1.523  -9.463  1.00  0.00     0.031 C 
ATOM     45  C   UNL     1      14.958   0.129  -4.660  1.00  0.00     0.029 A 
ATOM     46  N   UNL     1      16.746  -0.637  -5.765  1.00  0.00    -0.354 N 
ATOM     47  C   UNL     1      17.412   0.406  -9.915  1.00  0.00     0.074 A 
ATOM     48  C   UNL     1      16.355   1.260 -10.412  1.00  0.00     0.031 C 
ATOM     49  C   UNL     1      15.662  -0.641  -3.811  1.00  0.00     0.029 A 
ATOM     50  C   UNL     1      16.823  -1.189  -4.509  1.00  0.00     0.049 A 
ATOM     51  H   UNL     1      17.424  -0.789  -6.463  1.00  0.00     0.167 HD
ATOM     52  C   UNL     1      18.476   0.007 -10.649  1.00  0.00     0.037 A 
ATOM     53  C   UNL     1      17.721  -2.053  -3.994  1.00  0.00     0.037 A 
ATOM     54  C   UNL     1      19.524  -0.843 -10.154  1.00  0.00     0.049 A 
ATOM     55  C   UNL     1      18.869  -2.526  -4.850  1.00  0.00     0.074 A 
ATOM     56  C   UNL     1      20.658  -1.284 -10.814  1.00  0.00     0.029 A 
ATOM     57  N   UNL     1      19.563  -1.388  -8.880  1.00  0.00    -0.354 N 
ATOM     58  N   UNL     1      19.162  -2.206  -6.088  1.00  0.00    -0.248 NA
ATOM     59  C   UNL     1      19.809  -3.477  -4.238  1.00  0.00     0.031 C 
ATOM     60  C   UNL     1      21.365  -2.127  -9.949  1.00  0.00     0.029 A 
ATOM     61  C   UNL     1      20.691  -2.178  -8.739  1.00  0.00     0.049 A 
ATOM     62  H   UNL     1      18.889  -1.236  -8.179  1.00  0.00     0.167 HD
ATOM     63  C   UNL     1      20.334  -2.892  -6.392  1.00  0.00     0.074 A 
ATOM     64  C   UNL     1      20.700  -3.640  -5.207  1.00  0.00     0.031 C 
ATOM     65  C   UNL     1      21.046  -2.901  -7.546  1.00  0.00     0.037 A 
BRANCH  52  66
ATOM     66  C   UNL     1      18.552   0.475 -12.072  1.00  0.00     0.058 A 
ATOM     67  C   UNL     1      18.911   1.793 -12.393  1.00  0.00     0.135 A 
ATOM     68  C   UNL     1      18.302  -0.415 -13.129  1.00  0.00     0.135 A 
ATOM     69  F   UNL     1      19.137   2.688 -11.418  1.00  0.00    -0.206 F 
ATOM     70  C   UNL     1      19.009   2.217 -13.714  1.00  0.00     0.059 A 
ATOM     71  C   UNL     1      18.414  -0.018 -14.457  1.00  0.00     0.059 A 
ATOM     72  F   UNL     1      17.947  -1.684 -12.873  1.00  0.00    -0.206 F 
ATOM     73  C   UNL     1      18.760   1.303 -14.739  1.00  0.00     0.060 A 
BRANCH  73  74
ATOM     74  S   UNL     1      18.913   1.861 -16.449  1.00  0.00     0.124 S 
ATOM     75  O   UNL     1      17.698   2.656 -16.605  1.00  0.00    -0.237 OA
ATOM     76  O   UNL     1      20.163   2.613 -16.424  1.00  0.00    -0.237 OA
ATOM     77  O   UNL     1      18.949   0.616 -17.210  1.00  0.00    -0.744 OA
ENDBRANCH  73  74
ENDBRANCH  52  66
BRANCH  53  78
ATOM     78  C   UNL     1      17.573  -2.546  -2.599  1.00  0.00     0.058 A 
ATOM     79  C   UNL     1      18.468  -2.151  -1.594  1.00  0.00     0.135 A 
ATOM     80  C   UNL     1      16.554  -3.446  -2.252  1.00  0.00     0.135 A 
ATOM     81  F   UNL     1      19.466  -1.301  -1.881  1.00  0.00    -0.206 F 
ATOM     82  C   UNL     1      18.374  -2.649  -0.298  1.00  0.00     0.059 A 
ATOM     83  C   UNL     1      16.425  -3.940  -0.958  1.00  0.00     0.059 A 
ATOM     84  F   UNL     1      15.666  -3.846  -3.175  1.00  0.00    -0.206 F 
ATOM     85  C   UNL     1      17.350  -3.546   0.009  1.00  0.00     0.060 A 
BRANCH  85  86
ATOM     86  S   UNL     1      17.217  -4.170   1.699  1.00  0.00     0.124 S 
ATOM     87  O   UNL     1      18.281  -5.166   1.728  1.00  0.00    -0.237 OA
ATOM     88  O   UNL     1      17.446  -2.965   2.492  1.00  0.00    -0.237 OA
ATOM     89  O   UNL     1      15.856  -4.695   1.754  1.00  0.00    -0.744 OA
ENDBRANCH  85  86
ENDBRANCH  53  78
BRANCH  65  90
ATOM     90  C   UNL     1      22.312  -3.710  -7.575  1.00  0.00     0.058 A 
ATOM     91  C   UNL     1      22.289  -5.109  -7.672  1.00  0.00     0.135 A 
ATOM     92  C   UNL     1      23.562  -3.071  -7.571  1.00  0.00     0.135 A 
ATOM     93  F   UNL     1      21.119  -5.768  -7.675  1.00  0.00    -0.206 F 
ATOM     94  C   UNL     1      23.465  -5.850  -7.746  1.00  0.00     0.059 A 
ATOM     95  C   UNL     1      24.749  -3.789  -7.667  1.00  0.00     0.059 A 
ATOM     96  F   UNL     1      23.636  -1.732  -7.492  1.00  0.00    -0.206 F 
ATOM     97  C   UNL     1      24.690  -5.181  -7.744  1.00  0.00     0.060 A 
BRANCH  97  98
ATOM     98  S   UNL     1      26.209  -6.147  -7.881  1.00  0.00     0.124 S 
ATOM     99  O   UNL     1      26.347  -6.671  -6.526  1.00  0.00    -0.237 OA
ATOM    100  O   UNL     1      25.869  -7.126  -8.908  1.00  0.00    -0.237 OA
ATOM    101  O   UNL     1      27.206  -5.156  -8.276  1.00  0.00    -0.744 OA
ENDBRANCH  97  98
ENDBRANCH  65  90
ENDBRANCH  39  40
ENDBRANCH  32  34
ENDBRANCH  31  32
ENDBRANCH  30  31
ENDBRANCH  29  30
ENDBRANCH  28  29
ENDBRANCH  27  28
ENDBRANCH  26  27
ENDBRANCH   1  26
TORSDOF 26
