REMARK SMILES Cc1cccc(CC(=O)N2CCCC[C@@H]2C(=O)OCCOCCOCCOCCOC(=O)c2ccc(-c3c4nc(c(-c5c(F)cc(S(=O)(=O)[O-])cc5F)c5ccc([nH]5)c(-c5c(F)cc(S(=O)(=O)[O-])cc5F)c5nc(c(-c6c(F)cc(S(=O)(=O)[O-])cc6F)c6ccc3[nH]6)C=C5)C=C4)cc2)c1
REMARK SMILES IDX 24 1 23 2 22 3 21 4 20 5 19 6 18 7 16 8 17 9 15 10 10 11
REMARK SMILES IDX 11 12 12 13 14 14 13 15 8 16 9 17 7 18 6 19 1 20 2 21 3 22
REMARK SMILES IDX 99 23 4 24 5 25 25 26 26 27 27 28 28 29 29 30 30 31 31 32
REMARK SMILES IDX 32 33 33 34 34 35 98 36 35 37 97 38 36 39 37 40 38 41 91 42
REMARK SMILES IDX 39 43 96 44 90 45 92 46 40 47 95 48 89 49 88 50 41 52 75 53
REMARK SMILES IDX 54 54 74 55 55 56 58 57 73 58 93 59 56 60 57 61 72 63 94 64
REMARK SMILES IDX 59 65 42 66 43 67 52 68 44 69 45 70 51 71 53 72 46 73 47 74
REMARK SMILES IDX 48 75 49 76 50 77 76 78 77 79 86 80 78 81 79 82 85 83 87 84
REMARK SMILES IDX 80 85 81 86 82 87 83 88 84 89 60 90 61 91 70 92 62 93 63 94
REMARK SMILES IDX 69 95 71 96 64 97 65 98 66 99 67 100 68 101
REMARK H PARENT 92 51 58 62
REMARK Flexibility Score: inf
ROOT
ATOM      1  O   UNL     1      -0.820  -1.207  -4.592  1.00  0.00    -0.377 OA
ENDROOT
BRANCH   1   2
ATOM      2  C   UNL     1       0.217  -1.196  -5.556  1.00  0.00     0.188 C 
BRANCH   2   3
ATOM      3  C   UNL     1       1.518  -0.429  -5.183  1.00  0.00     0.188 C 
BRANCH   3   4
ATOM      4  O   UNL     1       2.290  -0.846  -4.075  1.00  0.00    -0.376 OA
BRANCH   4   5
ATOM      5  C   UNL     1       1.750  -0.634  -2.794  1.00  0.00     0.202 C 
BRANCH   5   6
ATOM      6  C   UNL     1       0.492   0.166  -2.569  1.00  0.00     0.261 C 
BRANCH   6   7
ATOM      7  O   UNL     1      -0.184   0.993  -3.485  1.00  0.00    -0.462 OA
BRANCH   7   8
ATOM      8  C   UNL     1       0.078   2.309  -3.640  1.00  0.00     0.328 C 
ATOM      9  O   UNL     1       1.137   2.854  -3.438  1.00  0.00    -0.250 OA
BRANCH   8  10
ATOM     10  C   UNL     1      -1.175   2.966  -4.260  1.00  0.00     0.195 C 
ATOM     11  N   UNL     1      -2.048   3.948  -3.577  1.00  0.00    -0.329 N 
ATOM     12  C   UNL     1      -3.068   4.537  -4.435  1.00  0.00     0.120 C 
ATOM     13  C   UNL     1      -3.861   3.510  -5.250  1.00  0.00     0.022 C 
ATOM     14  C   UNL     1      -2.009   1.898  -4.992  1.00  0.00     0.037 C 
ATOM     15  C   UNL     1      -2.940   2.552  -5.986  1.00  0.00     0.005 C 
BRANCH  11  16
ATOM     16  C   UNL     1      -2.451   3.779  -2.256  1.00  0.00     0.227 C 
ATOM     17  O   UNL     1      -3.565   3.346  -1.958  1.00  0.00    -0.275 OA
BRANCH  16  18
ATOM     18  C   UNL     1      -1.523   4.441  -1.237  1.00  0.00     0.135 C 
BRANCH  18  19
ATOM     19  C   UNL     1      -0.516   3.493  -0.689  1.00  0.00    -0.038 A 
ATOM     20  C   UNL     1       3.144   2.284  -0.760  1.00  0.00     0.044 C 
ATOM     21  C   UNL     1       1.714   2.510  -0.389  1.00  0.00    -0.051 A 
ATOM     22  C   UNL     1       1.120   1.503   0.324  1.00  0.00     0.003 A 
ATOM     23  C   UNL     1       0.889   3.558  -0.833  1.00  0.00     0.007 A 
ATOM     24  C   UNL     1      -0.228   1.568   0.614  1.00  0.00     0.001 A 
ATOM     25  C   UNL     1      -1.070   2.467   0.028  1.00  0.00     0.004 A 
ENDBRANCH  18  19
ENDBRANCH  16  18
ENDBRANCH  11  16
ENDBRANCH   8  10
ENDBRANCH   7   8
ENDBRANCH   6   7
ENDBRANCH   5   6
ENDBRANCH   4   5
ENDBRANCH   3   4
ENDBRANCH   2   3
ENDBRANCH   1   2
BRANCH   1  26
ATOM     26  C   UNL     1      -1.278  -2.429  -4.006  1.00  0.00     0.188 C 
BRANCH  26  27
ATOM     27  C   UNL     1      -0.382  -3.663  -4.056  1.00  0.00     0.188 C 
BRANCH  27  28
ATOM     28  O   UNL     1       0.951  -3.342  -3.691  1.00  0.00    -0.376 OA
BRANCH  28  29
ATOM     29  C   UNL     1       2.006  -3.791  -4.532  1.00  0.00     0.202 C 
BRANCH  29  30
ATOM     30  C   UNL     1       2.008  -5.290  -4.764  1.00  0.00     0.261 C 
BRANCH  30  31
ATOM     31  O   UNL     1       2.531  -5.942  -3.585  1.00  0.00    -0.460 OA
BRANCH  31  32
ATOM     32  C   UNL     1       1.626  -6.451  -2.701  1.00  0.00     0.338 C 
ATOM     33  O   UNL     1       1.246  -7.610  -2.753  1.00  0.00    -0.246 OA
BRANCH  32  34
ATOM     34  C   UNL     1       1.293  -5.520  -1.571  1.00  0.00     0.060 A 
ATOM     35  C   UNL     1       0.136  -5.729  -0.811  1.00  0.00     0.016 A 
ATOM     36  C   UNL     1       2.051  -4.386  -1.300  1.00  0.00     0.016 A 
ATOM     37  C   UNL     1      -0.341  -4.749   0.090  1.00  0.00     0.010 A 
ATOM     38  C   UNL     1       1.552  -3.398  -0.440  1.00  0.00     0.010 A 
ATOM     39  C   UNL     1       0.335  -3.536   0.253  1.00  0.00    -0.014 A 
BRANCH  39  40
ATOM     40  C   UNL     1      -0.239  -2.324   0.941  1.00  0.00     0.031 A 
ATOM     41  C   UNL     1       0.690  -1.447   1.897  1.00  0.00     0.074 A 
ATOM     42  C   UNL     1      -1.389  -1.875   0.346  1.00  0.00     0.049 A 
ATOM     43  N   UNL     1       0.413  -0.398   2.644  1.00  0.00    -0.248 NA
ATOM     44  C   UNL     1       2.094  -1.837   2.139  1.00  0.00     0.031 C 
ATOM     45  C   UNL     1      -1.516  -0.612  -0.330  1.00  0.00     0.029 A 
ATOM     46  N   UNL     1      -2.554  -2.475  -0.135  1.00  0.00    -0.354 N 
ATOM     47  C   UNL     1       1.638   0.233   3.042  1.00  0.00     0.074 A 
ATOM     48  C   UNL     1       2.609  -0.811   2.832  1.00  0.00     0.031 C 
ATOM     49  C   UNL     1      -2.712  -0.333  -0.833  1.00  0.00     0.029 A 
ATOM     50  C   UNL     1      -3.492  -1.454  -0.486  1.00  0.00     0.049 A 
ATOM     51  H   UNL     1      -2.706  -3.444  -0.218  1.00  0.00     0.167 HD
ATOM     52  C   UNL     1       1.789   1.607   3.266  1.00  0.00     0.037 A 
ATOM     53  C   UNL     1      -4.671  -1.275   0.151  1.00  0.00     0.037 A 
ATOM     54  C   UNL     1       0.497   2.359   3.248  1.00  0.00     0.049 A 
ATOM     55  C   UNL     1      -4.664  -0.142   1.226  1.00  0.00     0.074 A 
ATOM     56  C   UNL     1       0.132   3.582   2.684  1.00  0.00     0.029 A 
ATOM     57  N   UNL     1      -0.716   1.770   3.632  1.00  0.00    -0.354 N 
ATOM     58  N   UNL     1      -3.605   0.531   1.675  1.00  0.00    -0.248 NA
ATOM     59  C   UNL     1      -5.893   0.337   1.862  1.00  0.00     0.031 C 
ATOM     60  C   UNL     1      -1.280   3.651   2.600  1.00  0.00     0.029 A 
ATOM     61  C   UNL     1      -1.802   2.481   3.135  1.00  0.00     0.049 A 
ATOM     62  H   UNL     1      -0.789   0.958   4.183  1.00  0.00     0.167 HD
ATOM     63  C   UNL     1      -3.982   1.406   2.703  1.00  0.00     0.074 A 
ATOM     64  C   UNL     1      -5.434   1.276   2.711  1.00  0.00     0.031 C 
ATOM     65  C   UNL     1      -3.166   2.176   3.522  1.00  0.00     0.037 A 
BRANCH  52  66
ATOM     66  C   UNL     1       3.154   2.482   3.163  1.00  0.00     0.058 A 
ATOM     67  C   UNL     1       3.127   3.898   3.367  1.00  0.00     0.135 A 
ATOM     68  C   UNL     1       4.439   2.057   2.741  1.00  0.00     0.135 A 
ATOM     69  F   UNL     1       2.093   4.492   3.977  1.00  0.00    -0.206 F 
ATOM     70  C   UNL     1       4.165   4.795   3.033  1.00  0.00     0.059 A 
ATOM     71  C   UNL     1       5.542   2.933   2.512  1.00  0.00     0.059 A 
ATOM     72  F   UNL     1       4.718   0.768   2.525  1.00  0.00    -0.206 F 
ATOM     73  C   UNL     1       5.387   4.308   2.618  1.00  0.00     0.060 A 
BRANCH  73  74
ATOM     74  S   UNL     1       6.772   5.467   2.411  1.00  0.00     0.124 S 
ATOM     75  O   UNL     1       6.514   6.040   1.093  1.00  0.00    -0.237 OA
ATOM     76  O   UNL     1       6.598   6.381   3.537  1.00  0.00    -0.237 OA
ATOM     77  O   UNL     1       7.949   4.607   2.498  1.00  0.00    -0.744 OA
ENDBRANCH  73  74
ENDBRANCH  52  66
BRANCH  53  78
ATOM     78  C   UNL     1      -5.518  -2.478  -0.225  1.00  0.00     0.058 A 
ATOM     79  C   UNL     1      -5.833  -2.539  -1.620  1.00  0.00     0.135 A 
ATOM     80  C   UNL     1      -5.112  -3.699   0.348  1.00  0.00     0.135 A 
ATOM     81  F   UNL     1      -6.297  -1.443  -2.245  1.00  0.00    -0.206 F 
ATOM     82  C   UNL     1      -5.423  -3.607  -2.437  1.00  0.00     0.059 A 
ATOM     83  C   UNL     1      -4.673  -4.769  -0.455  1.00  0.00     0.059 A 
ATOM     84  F   UNL     1      -4.822  -3.742   1.657  1.00  0.00    -0.206 F 
ATOM     85  C   UNL     1      -4.765  -4.683  -1.850  1.00  0.00     0.060 A 
BRANCH  85  86
ATOM     86  S   UNL     1      -3.764  -5.796  -2.888  1.00  0.00     0.124 S 
ATOM     87  O   UNL     1      -4.676  -6.906  -3.123  1.00  0.00    -0.237 OA
ATOM     88  O   UNL     1      -3.441  -4.975  -4.053  1.00  0.00    -0.237 OA
ATOM     89  O   UNL     1      -2.624  -6.074  -2.025  1.00  0.00    -0.744 OA
ENDBRANCH  85  86
ENDBRANCH  53  78
BRANCH  65  90
ATOM     90  C   UNL     1      -3.526   2.865   4.858  1.00  0.00     0.058 A 
ATOM     91  C   UNL     1      -4.553   2.432   5.699  1.00  0.00     0.135 A 
ATOM     92  C   UNL     1      -2.664   3.850   5.452  1.00  0.00     0.135 A 
ATOM     93  F   UNL     1      -5.375   1.437   5.345  1.00  0.00    -0.206 F 
ATOM     94  C   UNL     1      -4.743   2.963   6.982  1.00  0.00     0.059 A 
ATOM     95  C   UNL     1      -2.789   4.330   6.743  1.00  0.00     0.059 A 
ATOM     96  F   UNL     1      -1.617   4.403   4.833  1.00  0.00    -0.206 F 
ATOM     97  C   UNL     1      -3.853   3.904   7.496  1.00  0.00     0.060 A 
BRANCH  97  98
ATOM     98  S   UNL     1      -4.054   4.548   9.156  1.00  0.00     0.124 S 
ATOM     99  O   UNL     1      -5.110   5.535   8.951  1.00  0.00    -0.237 OA
ATOM    100  O   UNL     1      -4.432   3.357   9.909  1.00  0.00    -0.237 OA
ATOM    101  O   UNL     1      -2.739   5.094   9.479  1.00  0.00    -0.744 OA
ENDBRANCH  97  98
ENDBRANCH  65  90
ENDBRANCH  39  40
ENDBRANCH  32  34
ENDBRANCH  31  32
ENDBRANCH  30  31
ENDBRANCH  29  30
ENDBRANCH  28  29
ENDBRANCH  27  28
ENDBRANCH  26  27
ENDBRANCH   1  26
TORSDOF 26
