REMARK SMILES O=C(OCCOCCOCCOCCOC(=O)[C@@H]1C=C[C@H](NC(=O)[C@@H]2Cc3ccccc3O2)C1)c1ccc(-c2c3nc(c(-c4c(F)cc(S(=O)(=O)[O-])cc4F)c4ccc([nH]4)c(-c4c(F)cc(S(=O)(=O)[O-])cc4F)c4nc(c(-c5c(F)cc(S(=O)(=O)[O-])cc5F)c5ccc2[nH]5)C=C4)C=C3)cc1
REMARK SMILES IDX 8 1 7 2 6 3 5 4 4 5 3 6 2 7 1 8 35 9 36 10 100 11 37 12
REMARK SMILES IDX 99 13 38 14 39 15 40 16 93 17 41 18 98 19 92 20 94 21 42 22
REMARK SMILES IDX 97 23 91 24 90 25 43 27 77 28 56 29 76 30 57 31 60 32 75 33
REMARK SMILES IDX 95 34 58 35 59 36 74 38 96 39 61 40 44 41 45 42 54 43 46 44
REMARK SMILES IDX 47 45 53 46 55 47 48 48 49 49 50 50 51 51 52 52 78 53 79 54
REMARK SMILES IDX 88 55 80 56 81 57 87 58 89 59 82 60 83 61 84 62 85 63 86 64
REMARK SMILES IDX 62 65 63 66 72 67 64 68 65 69 71 70 73 71 66 72 67 73 68 74
REMARK SMILES IDX 69 75 70 76 9 77 10 78 11 79 12 80 13 81 14 82 15 83 16 84
REMARK SMILES IDX 17 85 18 86 19 87 34 88 20 89 21 90 22 91 23 92 24 94 25 95
REMARK SMILES IDX 26 96 33 97 27 98 32 99 28 100 31 101 29 102 30 103
REMARK H PARENT 94 26 60 37 22 93
REMARK Flexibility Score: inf
ROOT
ATOM      1  C   UNL     1       2.991  -2.279   6.769  1.00  0.00     0.188 C 
ENDROOT
BRANCH   1   2
ATOM      2  C   UNL     1       4.187  -2.853   7.504  1.00  0.00     0.188 C 
BRANCH   2   3
ATOM      3  O   UNL     1       3.770  -4.112   7.970  1.00  0.00    -0.376 OA
BRANCH   3   4
ATOM      4  C   UNL     1       4.358  -4.771   9.058  1.00  0.00     0.202 C 
BRANCH   4   5
ATOM      5  C   UNL     1       5.864  -4.839   9.057  1.00  0.00     0.261 C 
BRANCH   5   6
ATOM      6  O   UNL     1       6.542  -4.494   7.830  1.00  0.00    -0.460 OA
BRANCH   6   7
ATOM      7  C   UNL     1       6.537  -4.988   6.574  1.00  0.00     0.338 C 
ATOM      8  O   UNL     1       7.252  -4.452   5.729  1.00  0.00    -0.246 OA
BRANCH   7   9
ATOM      9  C   UNL     1       5.761  -6.176   6.151  1.00  0.00     0.060 A 
ATOM     10  C   UNL     1       4.393  -6.322   6.339  1.00  0.00     0.016 A 
ATOM     11  C   UNL     1       6.400  -7.106   5.326  1.00  0.00     0.016 A 
ATOM     12  C   UNL     1       3.700  -7.439   5.934  1.00  0.00     0.010 A 
ATOM     13  C   UNL     1       5.680  -8.172   4.776  1.00  0.00     0.010 A 
ATOM     14  C   UNL     1       4.332  -8.353   5.114  1.00  0.00    -0.014 A 
BRANCH  14  15
ATOM     15  C   UNL     1       3.558  -9.530   4.705  1.00  0.00     0.031 A 
ATOM     16  C   UNL     1       3.970 -10.844   5.276  1.00  0.00     0.074 A 
ATOM     17  C   UNL     1       2.450  -9.379   3.953  1.00  0.00     0.049 A 
ATOM     18  N   UNL     1       3.571 -12.039   4.955  1.00  0.00    -0.248 NA
ATOM     19  C   UNL     1       4.967 -10.809   6.365  1.00  0.00     0.031 C 
ATOM     20  C   UNL     1       1.890  -8.095   3.509  1.00  0.00     0.029 A 
ATOM     21  N   UNL     1       1.583 -10.305   3.443  1.00  0.00    -0.354 N 
ATOM     22  C   UNL     1       4.318 -12.899   5.746  1.00  0.00     0.074 A 
ATOM     23  C   UNL     1       5.172 -12.098   6.587  1.00  0.00     0.031 C 
ATOM     24  C   UNL     1       0.778  -8.320   2.792  1.00  0.00     0.029 A 
ATOM     25  C   UNL     1       0.612  -9.757   2.636  1.00  0.00     0.049 A 
ATOM     26  H   UNL     1       1.648 -11.269   3.633  1.00  0.00     0.167 HD
ATOM     27  C   UNL     1       4.295 -14.248   5.727  1.00  0.00     0.037 A 
ATOM     28  C   UNL     1      -0.254 -10.364   1.803  1.00  0.00     0.037 A 
ATOM     29  C   UNL     1       3.402 -14.990   4.883  1.00  0.00     0.049 A 
ATOM     30  C   UNL     1      -0.186 -11.867   1.728  1.00  0.00     0.074 A 
ATOM     31  C   UNL     1       3.286 -16.357   4.742  1.00  0.00     0.029 A 
ATOM     32  N   UNL     1       2.470 -14.409   4.030  1.00  0.00    -0.354 N 
ATOM     33  N   UNL     1       0.559 -12.691   2.431  1.00  0.00    -0.248 NA
ATOM     34  C   UNL     1      -1.042 -12.524   0.736  1.00  0.00     0.031 C 
ATOM     35  C   UNL     1       2.326 -16.602   3.756  1.00  0.00     0.029 A 
ATOM     36  C   UNL     1       1.802 -15.390   3.327  1.00  0.00     0.049 A 
ATOM     37  H   UNL     1       2.311 -13.442   3.942  1.00  0.00     0.167 HD
ATOM     38  C   UNL     1       0.259 -13.964   1.970  1.00  0.00     0.074 A 
ATOM     39  C   UNL     1      -0.762 -13.802   0.951  1.00  0.00     0.031 C 
ATOM     40  C   UNL     1       0.781 -15.162   2.334  1.00  0.00     0.037 A 
BRANCH  27  41
ATOM     41  C   UNL     1       5.309 -14.977   6.553  1.00  0.00     0.058 A 
ATOM     42  C   UNL     1       5.221 -15.073   7.949  1.00  0.00     0.135 A 
ATOM     43  C   UNL     1       6.390 -15.610   5.917  1.00  0.00     0.135 A 
ATOM     44  F   UNL     1       4.236 -14.444   8.610  1.00  0.00    -0.206 F 
ATOM     45  C   UNL     1       6.163 -15.784   8.686  1.00  0.00     0.059 A 
ATOM     46  C   UNL     1       7.330 -16.344   6.630  1.00  0.00     0.059 A 
ATOM     47  F   UNL     1       6.538 -15.517   4.586  1.00  0.00    -0.206 F 
ATOM     48  C   UNL     1       7.207 -16.427   8.015  1.00  0.00     0.060 A 
BRANCH  48  49
ATOM     49  S   UNL     1       8.380 -17.398   8.983  1.00  0.00     0.124 S 
ATOM     50  O   UNL     1       9.111 -16.355   9.691  1.00  0.00    -0.237 OA
ATOM     51  O   UNL     1       7.501 -18.225   9.796  1.00  0.00    -0.237 OA
ATOM     52  O   UNL     1       9.148 -18.117   7.962  1.00  0.00    -0.744 OA
ENDBRANCH  48  49
ENDBRANCH  27  41
BRANCH  28  53
ATOM     53  C   UNL     1      -1.141  -9.574   0.902  1.00  0.00     0.058 A 
ATOM     54  C   UNL     1      -2.537  -9.684   0.967  1.00  0.00     0.135 A 
ATOM     55  C   UNL     1      -0.606  -8.723  -0.082  1.00  0.00     0.135 A 
ATOM     56  F   UNL     1      -3.105 -10.482   1.883  1.00  0.00    -0.206 F 
ATOM     57  C   UNL     1      -3.366  -9.017   0.068  1.00  0.00     0.059 A 
ATOM     58  C   UNL     1      -1.414  -8.017  -0.968  1.00  0.00     0.059 A 
ATOM     59  F   UNL     1       0.723  -8.565  -0.189  1.00  0.00    -0.206 F 
ATOM     60  C   UNL     1      -2.794  -8.190  -0.901  1.00  0.00     0.060 A 
BRANCH  60  61
ATOM     61  S   UNL     1      -3.876  -7.348  -2.076  1.00  0.00     0.124 S 
ATOM     62  O   UNL     1      -4.312  -8.456  -2.918  1.00  0.00    -0.237 OA
ATOM     63  O   UNL     1      -4.890  -6.771  -1.200  1.00  0.00    -0.237 OA
ATOM     64  O   UNL     1      -2.987  -6.380  -2.716  1.00  0.00    -0.744 OA
ENDBRANCH  60  61
ENDBRANCH  28  53
BRANCH  40  65
ATOM     65  C   UNL     1       0.240 -16.374   1.641  1.00  0.00     0.058 A 
ATOM     66  C   UNL     1       0.589 -16.671   0.316  1.00  0.00     0.135 A 
ATOM     67  C   UNL     1      -0.557 -17.291   2.343  1.00  0.00     0.135 A 
ATOM     68  F   UNL     1       1.341 -15.816  -0.395  1.00  0.00    -0.206 F 
ATOM     69  C   UNL     1       0.157 -17.840  -0.296  1.00  0.00     0.059 A 
ATOM     70  C   UNL     1      -0.972 -18.481   1.762  1.00  0.00     0.059 A 
ATOM     71  F   UNL     1      -0.904 -17.050   3.617  1.00  0.00    -0.206 F 
ATOM     72  C   UNL     1      -0.614 -18.743   0.440  1.00  0.00     0.060 A 
BRANCH  72  73
ATOM     73  S   UNL     1      -1.106 -20.289  -0.345  1.00  0.00     0.124 S 
ATOM     74  O   UNL     1      -2.118 -19.828  -1.290  1.00  0.00    -0.237 OA
ATOM     75  O   UNL     1       0.147 -20.752  -0.932  1.00  0.00    -0.237 OA
ATOM     76  O   UNL     1      -1.605 -21.091   0.768  1.00  0.00    -0.744 OA
ENDBRANCH  72  73
ENDBRANCH  40  65
ENDBRANCH  14  15
ENDBRANCH   7   9
ENDBRANCH   6   7
ENDBRANCH   5   6
ENDBRANCH   4   5
ENDBRANCH   3   4
ENDBRANCH   2   3
ENDBRANCH   1   2
BRANCH   1  77
ATOM     77  O   UNL     1       1.798  -2.218   7.531  1.00  0.00    -0.377 OA
BRANCH  77  78
ATOM     78  C   UNL     1       1.368  -3.284   8.376  1.00  0.00     0.188 C 
BRANCH  78  79
ATOM     79  C   UNL     1       0.748  -4.550   7.762  1.00  0.00     0.188 C 
BRANCH  79  80
ATOM     80  O   UNL     1       1.095  -4.861   6.431  1.00  0.00    -0.376 OA
BRANCH  80  81
ATOM     81  C   UNL     1       0.454  -4.134   5.387  1.00  0.00     0.202 C 
BRANCH  81  82
ATOM     82  C   UNL     1      -0.752  -3.215   5.669  1.00  0.00     0.261 C 
BRANCH  82  83
ATOM     83  O   UNL     1      -0.555  -2.255   6.741  1.00  0.00    -0.463 OA
BRANCH  83  84
ATOM     84  C   UNL     1      -1.595  -1.960   7.563  1.00  0.00     0.312 C 
ATOM     85  O   UNL     1      -2.716  -2.440   7.418  1.00  0.00    -0.252 OA
BRANCH  84  86
ATOM     86  C   UNL     1      -1.293  -0.952   8.721  1.00  0.00     0.124 C 
ATOM     87  C   UNL     1      -2.139   0.289   8.597  1.00  0.00    -0.014 C 
ATOM     88  C   UNL     1       0.077  -0.321   9.043  1.00  0.00     0.048 C 
ATOM     89  C   UNL     1      -1.426   1.425   8.602  1.00  0.00    -0.006 C 
ATOM     90  C   UNL     1       0.022   1.184   8.785  1.00  0.00     0.106 C 
BRANCH  90  91
ATOM     91  N   UNL     1       0.923   1.666   7.734  1.00  0.00    -0.347 N 
ATOM     92  C   UNL     1       0.859   1.947   6.396  1.00  0.00     0.261 C 
ATOM     93  H   UNL     1       1.825   1.833   8.090  1.00  0.00     0.164 HD
ATOM     94  O   UNL     1       1.906   2.314   5.854  1.00  0.00    -0.271 OA
BRANCH  92  95
ATOM     95  C   UNL     1      -0.453   1.810   5.620  1.00  0.00     0.266 C 
ATOM     96  C   UNL     1      -0.657   0.327   5.385  1.00  0.00     0.095 C 
ATOM     97  O   UNL     1      -0.613   2.444   4.331  1.00  0.00    -0.480 OA
ATOM     98  C   UNL     1      -1.651   0.390   4.307  1.00  0.00    -0.002 A 
ATOM     99  C   UNL     1      -1.550   1.636   3.715  1.00  0.00     0.123 A 
ATOM    100  C   UNL     1      -2.560  -0.561   3.883  1.00  0.00     0.008 A 
ATOM    101  C   UNL     1      -2.346   1.970   2.644  1.00  0.00     0.047 A 
ATOM    102  C   UNL     1      -3.371  -0.245   2.801  1.00  0.00     0.001 A 
ATOM    103  C   UNL     1      -3.264   1.013   2.186  1.00  0.00     0.004 A 
ENDBRANCH  92  95
ENDBRANCH  90  91
ENDBRANCH  84  86
ENDBRANCH  83  84
ENDBRANCH  82  83
ENDBRANCH  81  82
ENDBRANCH  80  81
ENDBRANCH  79  80
ENDBRANCH  78  79
ENDBRANCH  77  78
ENDBRANCH   1  77
TORSDOF 25
