REMARK SMILES CC[C@@H](C)NC(=O)Cn1cccc1C(=O)OCCOCCOCCOCCOC(=O)c1ccc(-c2c3nc(c(-c4c(F)cc(S(=O)(=O)[O-])cc4F)c4ccc([nH]4)c(-c4c(F)cc(S(=O)(=O)[O-])cc4F)c4nc(c(-c5c(F)cc(S(=O)(=O)[O-])cc5F)c5ccc2[nH]5)C=C4)C=C3)cc1
REMARK SMILES IDX 21 1 20 2 19 3 18 4 17 5 16 6 14 7 15 8 13 9 9 10 10 11
REMARK SMILES IDX 11 12 12 13 8 14 6 15 5 16 7 18 3 19 4 20 2 21 1 22 22 23
REMARK SMILES IDX 23 24 24 25 25 26 26 27 27 28 28 29 29 30 30 31 31 32 32 33
REMARK SMILES IDX 96 34 33 35 95 36 34 37 35 38 36 39 89 40 37 41 94 42 88 43
REMARK SMILES IDX 90 44 38 45 93 46 87 47 86 48 39 50 73 51 52 52 72 53 53 54
REMARK SMILES IDX 56 55 71 56 91 57 54 58 55 59 70 61 92 62 57 63 40 64 41 65
REMARK SMILES IDX 50 66 42 67 43 68 49 69 51 70 44 71 45 72 46 73 47 74 48 75
REMARK SMILES IDX 74 76 75 77 84 78 76 79 77 80 83 81 85 82 78 83 79 84 80 85
REMARK SMILES IDX 81 86 82 87 58 88 59 89 68 90 60 91 61 92 67 93 69 94 62 95
REMARK SMILES IDX 63 96 64 97 65 98 66 99
REMARK H PARENT 5 17 90 49 56 60
REMARK Flexibility Score: inf
ROOT
ATOM      1  C   UNL     1       0.984  -4.577   2.658  1.00  0.00     0.188 C 
ENDROOT
BRANCH   1   2
ATOM      2  C   UNL     1       1.536  -6.010   2.586  1.00  0.00     0.188 C 
BRANCH   2   3
ATOM      3  O   UNL     1       1.366  -6.736   3.789  1.00  0.00    -0.376 OA
BRANCH   3   4
ATOM      4  C   UNL     1       2.455  -6.966   4.655  1.00  0.00     0.202 C 
BRANCH   4   5
ATOM      5  C   UNL     1       3.139  -5.772   5.343  1.00  0.00     0.261 C 
BRANCH   5   6
ATOM      6  O   UNL     1       3.352  -4.603   4.543  1.00  0.00    -0.459 OA
BRANCH   6   7
ATOM      7  C   UNL     1       4.323  -4.669   3.608  1.00  0.00     0.355 C 
ATOM      8  O   UNL     1       5.077  -5.627   3.464  1.00  0.00    -0.244 OA
BRANCH   7   9
ATOM      9  C   UNL     1       4.226  -3.545   2.693  1.00  0.00     0.128 A 
ATOM     10  N   UNL     1       3.850  -2.227   2.929  1.00  0.00    -0.333 N 
ATOM     11  C   UNL     1       4.129  -1.488   1.796  1.00  0.00     0.087 A 
ATOM     12  C   UNL     1       4.364  -2.352   0.758  1.00  0.00     0.020 A 
ATOM     13  C   UNL     1       4.448  -3.638   1.322  1.00  0.00     0.035 A 
BRANCH  10  14
ATOM     14  C   UNL     1       3.391  -1.607   4.175  1.00  0.00     0.222 C 
BRANCH  14  15
ATOM     15  C   UNL     1       1.901  -1.737   4.456  1.00  0.00     0.240 C 
ATOM     16  N   UNL     1       0.957  -1.122   3.683  1.00  0.00    -0.352 N 
ATOM     17  H   UNL     1       0.028  -1.337   3.926  1.00  0.00     0.163 HD
ATOM     18  O   UNL     1       1.510  -2.371   5.443  1.00  0.00    -0.273 OA
BRANCH  16  19
ATOM     19  C   UNL     1       1.091  -0.200   2.555  1.00  0.00     0.078 C 
ATOM     20  C   UNL     1       0.350   1.101   2.859  1.00  0.00     0.031 C 
BRANCH  19  21
ATOM     21  C   UNL     1       0.588  -0.862   1.261  1.00  0.00     0.021 C 
ATOM     22  C   UNL     1       0.961  -0.093  -0.000  1.00  0.00     0.006 C 
ENDBRANCH  19  21
ENDBRANCH  16  19
ENDBRANCH  14  15
ENDBRANCH  10  14
ENDBRANCH   7   9
ENDBRANCH   6   7
ENDBRANCH   5   6
ENDBRANCH   4   5
ENDBRANCH   3   4
ENDBRANCH   2   3
ENDBRANCH   1   2
BRANCH   1  23
ATOM     23  O   UNL     1      -0.284  -4.342   3.244  1.00  0.00    -0.377 OA
BRANCH  23  24
ATOM     24  C   UNL     1      -0.568  -5.032   4.448  1.00  0.00     0.188 C 
BRANCH  24  25
ATOM     25  C   UNL     1      -1.331  -6.351   4.218  1.00  0.00     0.188 C 
BRANCH  25  26
ATOM     26  O   UNL     1      -1.532  -6.877   2.912  1.00  0.00    -0.376 OA
BRANCH  26  27
ATOM     27  C   UNL     1      -1.847  -6.133   1.741  1.00  0.00     0.202 C 
BRANCH  27  28
ATOM     28  C   UNL     1      -2.615  -4.808   1.673  1.00  0.00     0.261 C 
BRANCH  28  29
ATOM     29  O   UNL     1      -2.856  -4.177   2.902  1.00  0.00    -0.460 OA
BRANCH  29  30
ATOM     30  C   UNL     1      -3.770  -4.837   3.624  1.00  0.00     0.338 C 
ATOM     31  O   UNL     1      -4.339  -5.880   3.353  1.00  0.00    -0.246 OA
BRANCH  30  32
ATOM     32  C   UNL     1      -4.040  -4.021   4.811  1.00  0.00     0.060 A 
ATOM     33  C   UNL     1      -4.710  -4.754   5.791  1.00  0.00     0.016 A 
ATOM     34  C   UNL     1      -4.388  -2.716   4.445  1.00  0.00     0.016 A 
ATOM     35  C   UNL     1      -5.982  -4.352   6.086  1.00  0.00     0.010 A 
ATOM     36  C   UNL     1      -5.684  -2.349   4.669  1.00  0.00     0.010 A 
ATOM     37  C   UNL     1      -6.471  -3.199   5.458  1.00  0.00    -0.014 A 
BRANCH  37  38
ATOM     38  C   UNL     1      -7.766  -2.720   5.901  1.00  0.00     0.031 A 
ATOM     39  C   UNL     1      -7.518  -1.865   7.178  1.00  0.00     0.074 A 
ATOM     40  C   UNL     1      -8.824  -3.150   5.139  1.00  0.00     0.049 A 
ATOM     41  N   UNL     1      -8.323  -1.552   8.138  1.00  0.00    -0.248 NA
ATOM     42  C   UNL     1      -6.143  -1.332   7.482  1.00  0.00     0.031 C 
ATOM     43  C   UNL     1      -8.745  -3.991   3.909  1.00  0.00     0.029 A 
ATOM     44  N   UNL     1     -10.185  -2.981   5.233  1.00  0.00    -0.354 N 
ATOM     45  C   UNL     1      -7.675  -0.588   8.947  1.00  0.00     0.074 A 
ATOM     46  C   UNL     1      -6.299  -0.599   8.583  1.00  0.00     0.031 C 
ATOM     47  C   UNL     1      -9.980  -4.329   3.461  1.00  0.00     0.029 A 
ATOM     48  C   UNL     1     -10.986  -3.718   4.308  1.00  0.00     0.049 A 
ATOM     49  H   UNL     1     -10.587  -2.383   5.903  1.00  0.00     0.167 HD
ATOM     50  C   UNL     1      -8.364   0.268   9.752  1.00  0.00     0.037 A 
ATOM     51  C   UNL     1     -12.356  -3.836   4.286  1.00  0.00     0.037 A 
ATOM     52  C   UNL     1      -9.751  -0.050   9.678  1.00  0.00     0.049 A 
ATOM     53  C   UNL     1     -12.791  -2.837   5.272  1.00  0.00     0.074 A 
ATOM     54  C   UNL     1     -10.440  -1.142  10.137  1.00  0.00     0.029 A 
ATOM     55  N   UNL     1     -10.468   0.566   8.678  1.00  0.00    -0.354 N 
ATOM     56  N   UNL     1     -12.720  -1.550   5.100  1.00  0.00    -0.248 NA
ATOM     57  C   UNL     1     -13.198  -3.305   6.602  1.00  0.00     0.031 C 
ATOM     58  C   UNL     1     -11.275  -1.452   9.047  1.00  0.00     0.029 A 
ATOM     59  C   UNL     1     -11.297  -0.385   8.139  1.00  0.00     0.049 A 
ATOM     60  H   UNL     1     -10.399   1.509   8.402  1.00  0.00     0.167 HD
ATOM     61  C   UNL     1     -12.737  -1.085   6.390  1.00  0.00     0.074 A 
ATOM     62  C   UNL     1     -13.347  -2.126   7.197  1.00  0.00     0.031 C 
ATOM     63  C   UNL     1     -11.803  -0.187   6.800  1.00  0.00     0.037 A 
BRANCH  50  64
ATOM     64  C   UNL     1      -7.995   1.546  10.445  1.00  0.00     0.058 A 
ATOM     65  C   UNL     1      -8.877   2.000  11.456  1.00  0.00     0.135 A 
ATOM     66  C   UNL     1      -7.096   2.491   9.932  1.00  0.00     0.135 A 
ATOM     67  F   UNL     1      -9.715   1.148  12.072  1.00  0.00    -0.206 F 
ATOM     68  C   UNL     1      -8.994   3.338  11.797  1.00  0.00     0.059 A 
ATOM     69  C   UNL     1      -7.160   3.839  10.303  1.00  0.00     0.059 A 
ATOM     70  F   UNL     1      -6.190   2.153   9.005  1.00  0.00    -0.206 F 
ATOM     71  C   UNL     1      -8.157   4.259  11.183  1.00  0.00     0.060 A 
BRANCH  71  72
ATOM     72  S   UNL     1      -8.431   6.007  11.534  1.00  0.00     0.124 S 
ATOM     73  O   UNL     1      -9.672   6.264  10.812  1.00  0.00    -0.237 OA
ATOM     74  O   UNL     1      -8.535   6.014  12.991  1.00  0.00    -0.237 OA
ATOM     75  O   UNL     1      -7.236   6.649  10.997  1.00  0.00    -0.744 OA
ENDBRANCH  71  72
ENDBRANCH  50  64
BRANCH  51  76
ATOM     76  C   UNL     1     -13.469  -4.690   3.691  1.00  0.00     0.058 A 
ATOM     77  C   UNL     1     -13.335  -5.719   2.751  1.00  0.00     0.135 A 
ATOM     78  C   UNL     1     -14.789  -4.584   4.235  1.00  0.00     0.135 A 
ATOM     79  F   UNL     1     -12.206  -5.854   2.043  1.00  0.00    -0.206 F 
ATOM     80  C   UNL     1     -14.363  -6.665   2.514  1.00  0.00     0.059 A 
ATOM     81  C   UNL     1     -15.791  -5.536   4.071  1.00  0.00     0.059 A 
ATOM     82  F   UNL     1     -15.156  -3.547   5.002  1.00  0.00    -0.206 F 
ATOM     83  C   UNL     1     -15.559  -6.605   3.234  1.00  0.00     0.060 A 
BRANCH  83  84
ATOM     84  S   UNL     1     -16.753  -7.966   3.204  1.00  0.00     0.124 S 
ATOM     85  O   UNL     1     -17.488  -7.705   1.972  1.00  0.00    -0.237 OA
ATOM     86  O   UNL     1     -15.887  -9.141   3.195  1.00  0.00    -0.237 OA
ATOM     87  O   UNL     1     -17.512  -7.777   4.439  1.00  0.00    -0.744 OA
ENDBRANCH  83  84
ENDBRANCH  51  76
BRANCH  63  88
ATOM     88  C   UNL     1     -11.176   0.675   5.709  1.00  0.00     0.058 A 
ATOM     89  C   UNL     1     -11.983   1.518   4.928  1.00  0.00     0.135 A 
ATOM     90  C   UNL     1      -9.812   0.670   5.366  1.00  0.00     0.135 A 
ATOM     91  F   UNL     1     -13.297   1.609   5.186  1.00  0.00    -0.206 F 
ATOM     92  C   UNL     1     -11.469   2.305   3.888  1.00  0.00     0.059 A 
ATOM     93  C   UNL     1      -9.268   1.438   4.329  1.00  0.00     0.059 A 
ATOM     94  F   UNL     1      -8.947  -0.079   6.044  1.00  0.00    -0.206 F 
ATOM     95  C   UNL     1     -10.106   2.266   3.598  1.00  0.00     0.060 A 
BRANCH  95  96
ATOM     96  S   UNL     1      -9.445   3.336   2.298  1.00  0.00     0.124 S 
ATOM     97  O   UNL     1     -10.221   2.932   1.130  1.00  0.00    -0.237 OA
ATOM     98  O   UNL     1      -9.739   4.666   2.822  1.00  0.00    -0.237 OA
ATOM     99  O   UNL     1      -8.027   2.988   2.247  1.00  0.00    -0.744 OA
ENDBRANCH  95  96
ENDBRANCH  63  88
ENDBRANCH  37  38
ENDBRANCH  30  32
ENDBRANCH  29  30
ENDBRANCH  28  29
ENDBRANCH  27  28
ENDBRANCH  26  27
ENDBRANCH  25  26
ENDBRANCH  24  25
ENDBRANCH  23  24
ENDBRANCH   1  23
TORSDOF 27
