REMARK SMILES O=C(COc1ccc(Br)cc1/C=C1\C(=O)Nc2ccc(Br)cc21)OCCOCCOCCOCCOC(=O)c1ccc(-c2c3nc(c(-c4c(F)cc(S(=O)(=O)[O-])cc4F)c4ccc([nH]4)c(-c4c(F)cc(S(=O)(=O)[O-])cc4F)c4nc(c(-c5c(F)cc(S(=O)(=O)[O-])cc5F)c5ccc2[nH]5)C=C4)C=C3)cc1
REMARK SMILES IDX 30 1 29 2 28 3 27 4 26 5 25 6 24 7 2 8 1 9 3 10 4 11 5 12
REMARK SMILES IDX 6 13 11 14 7 15 10 16 8 17 9 18 12 19 13 20 14 21 23 22
REMARK SMILES IDX 15 23 16 24 17 25 22 26 18 28 20 29 19 30 21 31 31 32 32 33
REMARK SMILES IDX 33 34 34 35 35 36 36 37 37 38 38 39 39 40 40 41 104 42 41 43
REMARK SMILES IDX 103 44 42 45 43 46 44 47 97 48 45 49 102 50 96 51 98 52
REMARK SMILES IDX 46 53 101 54 95 55 94 56 47 58 81 59 60 60 80 61 61 62 64 63
REMARK SMILES IDX 79 64 99 65 62 66 63 67 78 69 100 70 65 71 48 72 49 73 58 74
REMARK SMILES IDX 50 75 51 76 57 77 59 78 52 79 53 80 54 81 55 82 56 83 82 84
REMARK SMILES IDX 83 85 92 86 84 87 85 88 91 89 93 90 86 91 87 92 88 93 89 94
REMARK SMILES IDX 90 95 66 96 67 97 76 98 68 99 69 100 75 101 77 102 70 103
REMARK SMILES IDX 71 104 72 105 73 106 74 107
REMARK H PARENT 16 27 98 57 64 68
REMARK Flexibility Score: inf
ROOT
ATOM      1  O   UNL     1       2.868  -0.805   3.453  1.00  0.00    -0.377 OA
ENDROOT
BRANCH   1   2
ATOM      2  C   UNL     1       2.381  -0.687   2.115  1.00  0.00     0.188 C 
BRANCH   2   3
ATOM      3  C   UNL     1       3.071  -1.643   1.134  1.00  0.00     0.188 C 
BRANCH   3   4
ATOM      4  O   UNL     1       4.463  -1.399   0.991  1.00  0.00    -0.376 OA
BRANCH   4   5
ATOM      5  C   UNL     1       4.983  -0.438   0.089  1.00  0.00     0.202 C 
BRANCH   5   6
ATOM      6  C   UNL     1       4.211   0.850  -0.195  1.00  0.00     0.261 C 
BRANCH   6   7
ATOM      7  O   UNL     1       2.829   0.699  -0.587  1.00  0.00    -0.461 OA
BRANCH   7   8
ATOM      8  C   UNL     1       2.346  -0.064  -1.590  1.00  0.00     0.344 C 
ATOM      9  O   UNL     1       1.133  -0.249  -1.685  1.00  0.00    -0.248 OA
BRANCH   8  10
ATOM     10  C   UNL     1       3.326  -0.737  -2.544  1.00  0.00     0.351 C 
BRANCH  10  11
ATOM     11  O   UNL     1       4.361   0.087  -3.097  1.00  0.00    -0.481 OA
BRANCH  11  12
ATOM     12  C   UNL     1       3.792   0.814  -4.126  1.00  0.00     0.127 A 
ATOM     13  C   UNL     1       3.009   1.922  -3.754  1.00  0.00     0.048 A 
ATOM     14  C   UNL     1       3.818   0.309  -5.442  1.00  0.00     0.018 A 
ATOM     15  C   UNL     1       2.059   2.418  -4.631  1.00  0.00     0.019 A 
ATOM     16  C   UNL     1       2.815   0.810  -6.277  1.00  0.00     0.027 A 
ATOM     17  C   UNL     1       1.934   1.823  -5.873  1.00  0.00     0.018 A 
ATOM     18  Br  UNL     1       0.532   2.349  -7.029  1.00  0.00    -0.051 Br
BRANCH  14  19
ATOM     19  C   UNL     1       4.804  -0.749  -5.833  1.00  0.00     0.026 C 
ATOM     20  C   UNL     1       4.933  -1.478  -6.961  1.00  0.00     0.050 C 
ATOM     21  C   UNL     1       4.047  -1.477  -8.178  1.00  0.00     0.256 C 
ATOM     22  C   UNL     1       5.707  -2.733  -7.062  1.00  0.00     0.012 A 
ATOM     23  O   UNL     1       3.613  -0.543  -8.820  1.00  0.00    -0.269 OA
ATOM     24  N   UNL     1       3.949  -2.808  -8.534  1.00  0.00    -0.321 N 
ATOM     25  C   UNL     1       4.950  -3.548  -7.919  1.00  0.00     0.049 A 
ATOM     26  C   UNL     1       6.942  -3.171  -6.620  1.00  0.00     0.026 A 
ATOM     27  H   UNL     1       3.266  -3.179  -9.137  1.00  0.00     0.170 HD
ATOM     28  C   UNL     1       5.281  -4.849  -8.223  1.00  0.00     0.028 A 
ATOM     29  C   UNL     1       7.342  -4.464  -6.999  1.00  0.00     0.018 A 
ATOM     30  C   UNL     1       6.503  -5.314  -7.747  1.00  0.00     0.018 A 
ATOM     31  Br  UNL     1       9.085  -5.072  -6.572  1.00  0.00    -0.051 Br
ENDBRANCH  14  19
ENDBRANCH  11  12
ENDBRANCH  10  11
ENDBRANCH   8  10
ENDBRANCH   7   8
ENDBRANCH   6   7
ENDBRANCH   5   6
ENDBRANCH   4   5
ENDBRANCH   3   4
ENDBRANCH   2   3
ENDBRANCH   1   2
BRANCH   1  32
ATOM     32  C   UNL     1       4.224  -0.419   3.619  1.00  0.00     0.188 C 
BRANCH  32  33
ATOM     33  C   UNL     1       5.261  -1.563   3.736  1.00  0.00     0.188 C 
BRANCH  33  34
ATOM     34  O   UNL     1       4.899  -2.939   3.688  1.00  0.00    -0.376 OA
BRANCH  34  35
ATOM     35  C   UNL     1       3.683  -3.396   4.256  1.00  0.00     0.202 C 
BRANCH  35  36
ATOM     36  C   UNL     1       3.465  -3.253   5.763  1.00  0.00     0.261 C 
BRANCH  36  37
ATOM     37  O   UNL     1       3.650  -1.921   6.248  1.00  0.00    -0.460 OA
BRANCH  37  38
ATOM     38  C   UNL     1       4.810  -1.704   6.911  1.00  0.00     0.338 C 
ATOM     39  O   UNL     1       5.671  -2.527   7.181  1.00  0.00    -0.246 OA
BRANCH  38  40
ATOM     40  C   UNL     1       4.988  -0.249   7.096  1.00  0.00     0.060 A 
ATOM     41  C   UNL     1       3.921   0.575   7.466  1.00  0.00     0.016 A 
ATOM     42  C   UNL     1       6.259   0.294   6.859  1.00  0.00     0.016 A 
ATOM     43  C   UNL     1       4.144   1.939   7.649  1.00  0.00     0.010 A 
ATOM     44  C   UNL     1       6.477   1.659   7.030  1.00  0.00     0.010 A 
ATOM     45  C   UNL     1       5.429   2.480   7.464  1.00  0.00    -0.014 A 
BRANCH  45  46
ATOM     46  C   UNL     1       5.720   3.837   7.974  1.00  0.00     0.031 A 
ATOM     47  C   UNL     1       5.753   5.037   7.087  1.00  0.00     0.074 A 
ATOM     48  C   UNL     1       5.958   3.948   9.294  1.00  0.00     0.049 A 
ATOM     49  N   UNL     1       5.842   6.297   7.426  1.00  0.00    -0.248 NA
ATOM     50  C   UNL     1       5.689   4.801   5.639  1.00  0.00     0.031 C 
ATOM     51  C   UNL     1       6.000   2.821  10.231  1.00  0.00     0.029 A 
ATOM     52  N   UNL     1       6.192   5.044  10.078  1.00  0.00    -0.354 N 
ATOM     53  C   UNL     1       5.814   7.013   6.238  1.00  0.00     0.074 A 
ATOM     54  C   UNL     1       5.754   6.040   5.165  1.00  0.00     0.031 C 
ATOM     55  C   UNL     1       6.209   3.289  11.469  1.00  0.00     0.029 A 
ATOM     56  C   UNL     1       6.322   4.742  11.412  1.00  0.00     0.049 A 
ATOM     57  H   UNL     1       6.260   5.960   9.722  1.00  0.00     0.167 HD
ATOM     58  C   UNL     1       5.819   8.358   6.073  1.00  0.00     0.037 A 
ATOM     59  C   UNL     1       6.489   5.547  12.476  1.00  0.00     0.037 A 
ATOM     60  C   UNL     1       5.907   9.303   7.159  1.00  0.00     0.049 A 
ATOM     61  C   UNL     1       6.511   7.031  12.264  1.00  0.00     0.074 A 
ATOM     62  C   UNL     1       5.863  10.686   7.104  1.00  0.00     0.029 A 
ATOM     63  N   UNL     1       6.080   8.965   8.495  1.00  0.00    -0.354 N 
ATOM     64  N   UNL     1       6.374   7.702  11.146  1.00  0.00    -0.248 NA
ATOM     65  C   UNL     1       6.701   7.868  13.454  1.00  0.00     0.031 C 
ATOM     66  C   UNL     1       6.058  11.183   8.398  1.00  0.00     0.029 A 
ATOM     67  C   UNL     1       6.180  10.111   9.268  1.00  0.00     0.049 A 
ATOM     68  H   UNL     1       6.125   8.045   8.842  1.00  0.00     0.167 HD
ATOM     69  C   UNL     1       6.452   9.043  11.496  1.00  0.00     0.074 A 
ATOM     70  C   UNL     1       6.632   9.087  12.934  1.00  0.00     0.031 C 
ATOM     71  C   UNL     1       6.380  10.136  10.697  1.00  0.00     0.037 A 
BRANCH  58  72
ATOM     72  C   UNL     1       5.715   8.889   4.670  1.00  0.00     0.058 A 
ATOM     73  C   UNL     1       4.514   8.806   3.947  1.00  0.00     0.135 A 
ATOM     74  C   UNL     1       6.803   9.530   4.057  1.00  0.00     0.135 A 
ATOM     75  F   UNL     1       3.443   8.198   4.482  1.00  0.00    -0.206 F 
ATOM     76  C   UNL     1       4.404   9.313   2.656  1.00  0.00     0.059 A 
ATOM     77  C   UNL     1       6.710  10.064   2.774  1.00  0.00     0.059 A 
ATOM     78  F   UNL     1       7.974   9.642   4.704  1.00  0.00    -0.206 F 
ATOM     79  C   UNL     1       5.510   9.937   2.076  1.00  0.00     0.060 A 
BRANCH  79  80
ATOM     80  S   UNL     1       5.353  10.569   0.392  1.00  0.00     0.124 S 
ATOM     81  O   UNL     1       5.317   9.329  -0.379  1.00  0.00    -0.237 OA
ATOM     82  O   UNL     1       4.100  11.313   0.453  1.00  0.00    -0.237 OA
ATOM     83  O   UNL     1       6.554  11.380   0.219  1.00  0.00    -0.744 OA
ENDBRANCH  79  80
ENDBRANCH  58  72
BRANCH  59  84
ATOM     84  C   UNL     1       6.574   4.944  13.828  1.00  0.00     0.058 A 
ATOM     85  C   UNL     1       5.487   5.009  14.709  1.00  0.00     0.135 A 
ATOM     86  C   UNL     1       7.703   4.211  14.226  1.00  0.00     0.135 A 
ATOM     87  F   UNL     1       4.386   5.695  14.367  1.00  0.00    -0.206 F 
ATOM     88  C   UNL     1       5.511   4.362  15.940  1.00  0.00     0.059 A 
ATOM     89  C   UNL     1       7.743   3.540  15.443  1.00  0.00     0.059 A 
ATOM     90  F   UNL     1       8.758   4.101  13.404  1.00  0.00    -0.206 F 
ATOM     91  C   UNL     1       6.641   3.622  16.294  1.00  0.00     0.060 A 
BRANCH  91  92
ATOM     92  S   UNL     1       6.624   2.718  17.857  1.00  0.00     0.124 S 
ATOM     93  O   UNL     1       6.726   3.804  18.825  1.00  0.00    -0.237 OA
ATOM     94  O   UNL     1       5.336   2.033  17.798  1.00  0.00    -0.237 OA
ATOM     95  O   UNL     1       7.793   1.849  17.756  1.00  0.00    -0.744 OA
ENDBRANCH  91  92
ENDBRANCH  59  84
BRANCH  71  96
ATOM     96  C   UNL     1       6.518  11.479  11.357  1.00  0.00     0.058 A 
ATOM     97  C   UNL     1       7.766  11.950  11.793  1.00  0.00     0.135 A 
ATOM     98  C   UNL     1       5.410  12.331  11.488  1.00  0.00     0.135 A 
ATOM     99  F   UNL     1       8.853  11.168  11.700  1.00  0.00    -0.206 F 
ATOM    100  C   UNL     1       7.911  13.220  12.339  1.00  0.00     0.059 A 
ATOM    101  C   UNL     1       5.536  13.614  12.011  1.00  0.00     0.059 A 
ATOM    102  F   UNL     1       4.195  11.927  11.083  1.00  0.00    -0.206 F 
ATOM    103  C   UNL     1       6.791  14.048  12.437  1.00  0.00     0.060 A 
BRANCH 103 104
ATOM    104  S   UNL     1       7.009  15.717  13.088  1.00  0.00     0.124 S 
ATOM    105  O   UNL     1       7.230  15.454  14.507  1.00  0.00    -0.237 OA
ATOM    106  O   UNL     1       8.170  16.193  12.343  1.00  0.00    -0.237 OA
ATOM    107  O   UNL     1       5.748  16.378  12.762  1.00  0.00    -0.744 OA
ENDBRANCH 103 104
ENDBRANCH  71  96
ENDBRANCH  45  46
ENDBRANCH  38  40
ENDBRANCH  37  38
ENDBRANCH  36  37
ENDBRANCH  35  36
ENDBRANCH  34  35
ENDBRANCH  33  34
ENDBRANCH  32  33
ENDBRANCH   1  32
TORSDOF 26
