REMARK SMILES O=C(CCC(=O)N1N=C(c2ccc(F)cc2)C[C@@H]1c1ccc2nccnc2c1)OCCOCCOCCOCCOC(=O)c1ccc(-c2c3nc(c(-c4c(F)cc(S(=O)(=O)[O-])cc4F)c4ccc([nH]4)c(-c4c(F)cc(S(=O)(=O)[O-])cc4F)c4nc(c(-c5c(F)cc(S(=O)(=O)[O-])cc5F)c5ccc2[nH]5)C=C4)C=C3)cc1
REMARK SMILES IDX 34 1 33 2 32 3 31 4 30 5 29 6 2 7 1 8 3 9 4 10 5 11 6 12
REMARK SMILES IDX 7 13 8 14 18 15 9 16 17 17 19 18 20 19 28 20 21 21 27 22
REMARK SMILES IDX 22 23 26 24 23 25 25 26 24 27 10 28 11 29 16 30 12 31 15 32
REMARK SMILES IDX 13 33 14 34 35 35 36 36 37 37 38 38 39 39 40 40 41 41 42 42
REMARK SMILES IDX 43 43 44 44 45 45 109 46 46 47 108 48 47 49 48 50 49 51
REMARK SMILES IDX 102 52 50 53 107 54 101 55 103 56 51 57 106 58 100 59 99 60
REMARK SMILES IDX 52 62 86 63 65 64 85 65 66 66 69 67 84 68 104 69 67 70 68 71
REMARK SMILES IDX 83 73 105 74 70 75 53 76 54 77 63 78 55 79 56 80 62 81 64 82
REMARK SMILES IDX 57 83 58 84 59 85 60 86 61 87 87 88 88 89 97 90 89 91 90 92
REMARK SMILES IDX 96 93 98 94 91 95 92 96 93 97 94 98 95 99 71 100 72 101
REMARK SMILES IDX 81 102 73 103 74 104 80 105 82 106 75 107 76 108 77 109
REMARK SMILES IDX 78 110 79 111
REMARK H PARENT 103 61 69 72
REMARK Flexibility Score: inf
ROOT
ATOM      1  C   UNL     1       2.414  -0.652   2.050  1.00  0.00     0.188 C 
ENDROOT
BRANCH   1   2
ATOM      2  C   UNL     1       2.902  -2.168   2.118  1.00  0.00     0.188 C 
BRANCH   2   3
ATOM      3  O   UNL     1       3.128  -2.853   0.871  1.00  0.00    -0.376 OA
BRANCH   3   4
ATOM      4  C   UNL     1       4.489  -2.945   0.438  1.00  0.00     0.202 C 
BRANCH   4   5
ATOM      5  C   UNL     1       4.595  -2.407  -0.989  1.00  0.00     0.261 C 
BRANCH   5   6
ATOM      6  O   UNL     1       3.713  -1.277  -1.085  1.00  0.00    -0.463 OA
BRANCH   6   7
ATOM      7  C   UNL     1       2.477  -1.430  -1.595  1.00  0.00     0.306 C 
ATOM      8  O   UNL     1       1.440  -1.145  -1.010  1.00  0.00    -0.252 OA
BRANCH   7   9
ATOM      9  C   UNL     1       2.528  -1.588  -3.061  1.00  0.00     0.132 C 
BRANCH   9  10
ATOM     10  C   UNL     1       2.904  -0.256  -3.683  1.00  0.00     0.114 C 
BRANCH  10  11
ATOM     11  C   UNL     1       4.136   0.510  -3.164  1.00  0.00     0.243 C 
ATOM     12  O   UNL     1       5.156   0.378  -3.857  1.00  0.00    -0.273 OA
BRANCH  11  13
ATOM     13  N   UNL     1       4.093   1.438  -2.111  1.00  0.00    -0.225 N 
ATOM     14  N   UNL     1       4.874   2.546  -2.405  1.00  0.00    -0.174 NA
ATOM     15  C   UNL     1       3.110   1.813  -1.028  1.00  0.00     0.147 C 
ATOM     16  C   UNL     1       4.214   3.587  -2.014  1.00  0.00     0.071 C 
ATOM     17  C   UNL     1       2.942   3.326  -1.279  1.00  0.00     0.091 C 
BRANCH  15  18
ATOM     18  C   UNL     1       3.541   1.571   0.466  1.00  0.00    -0.021 A 
ATOM     19  C   UNL     1       2.742   2.541   1.688  1.00  0.00     0.008 A 
ATOM     20  C   UNL     1       4.519   0.171   0.949  1.00  0.00     0.036 A 
ATOM     21  C   UNL     1       2.860   2.226   3.402  1.00  0.00     0.031 A 
ATOM     22  C   UNL     1       4.739  -0.296   2.692  1.00  0.00     0.089 A 
ATOM     23  C   UNL     1       3.897   0.931   4.006  1.00  0.00     0.089 A 
ATOM     24  N   UNL     1       6.019  -1.296   3.209  1.00  0.00    -0.253 NA
ATOM     25  N   UNL     1       4.731   0.995   5.556  1.00  0.00    -0.253 NA
ATOM     26  C   UNL     1       6.650  -1.130   4.774  1.00  0.00     0.132 A 
ATOM     27  C   UNL     1       6.068  -0.042   5.899  1.00  0.00     0.132 A 
ENDBRANCH  15  18
BRANCH  16  28
ATOM     28  C   UNL     1       4.593   4.926  -2.462  1.00  0.00    -0.002 A 
ATOM     29  C   UNL     1       5.259   5.808  -1.617  1.00  0.00     0.013 A 
ATOM     30  C   UNL     1       4.421   5.203  -3.826  1.00  0.00     0.013 A 
ATOM     31  C   UNL     1       5.818   6.959  -2.170  1.00  0.00     0.040 A 
ATOM     32  C   UNL     1       4.967   6.363  -4.363  1.00  0.00     0.040 A 
ATOM     33  C   UNL     1       5.689   7.212  -3.535  1.00  0.00     0.123 A 
ATOM     34  F   UNL     1       6.337   8.249  -4.071  1.00  0.00    -0.207 F 
ENDBRANCH  16  28
ENDBRANCH  11  13
ENDBRANCH  10  11
ENDBRANCH   9  10
ENDBRANCH   7   9
ENDBRANCH   6   7
ENDBRANCH   5   6
ENDBRANCH   4   5
ENDBRANCH   3   4
ENDBRANCH   2   3
ENDBRANCH   1   2
BRANCH   1  35
ATOM     35  O   UNL     1       3.168   0.686   2.256  1.00  0.00    -0.377 OA
BRANCH  35  36
ATOM     36  C   UNL     1       4.882   1.674   2.448  1.00  0.00     0.188 C 
BRANCH  36  37
ATOM     37  C   UNL     1       5.850   0.866   3.846  1.00  0.00     0.188 C 
BRANCH  37  38
ATOM     38  O   UNL     1       4.742  -0.650   4.585  1.00  0.00    -0.376 OA
BRANCH  38  39
ATOM     39  C   UNL     1       3.359  -0.843   5.443  1.00  0.00     0.202 C 
BRANCH  39  40
ATOM     40  C   UNL     1       2.835   0.018   6.723  1.00  0.00     0.261 C 
BRANCH  40  41
ATOM     41  O   UNL     1       2.627   1.467   6.555  1.00  0.00    -0.460 OA
BRANCH  41  42
ATOM     42  C   UNL     1       3.344   2.259   7.423  1.00  0.00     0.338 C 
ATOM     43  O   UNL     1       3.692   1.938   8.552  1.00  0.00    -0.246 OA
BRANCH  42  44
ATOM     44  C   UNL     1       3.904   3.488   6.762  1.00  0.00     0.060 A 
ATOM     45  C   UNL     1       5.285   3.516   6.497  1.00  0.00     0.016 A 
ATOM     46  C   UNL     1       3.153   4.623   6.464  1.00  0.00     0.016 A 
ATOM     47  C   UNL     1       5.900   4.596   5.859  1.00  0.00     0.010 A 
ATOM     48  C   UNL     1       3.792   5.764   5.923  1.00  0.00     0.010 A 
ATOM     49  C   UNL     1       5.171   5.763   5.629  1.00  0.00    -0.014 A 
BRANCH  49  50
ATOM     50  C   UNL     1       5.917   7.033   5.380  1.00  0.00     0.031 A 
ATOM     51  C   UNL     1       6.601   7.680   6.564  1.00  0.00     0.074 A 
ATOM     52  C   UNL     1       6.027   7.598   4.161  1.00  0.00     0.049 A 
ATOM     53  N   UNL     1       7.211   8.834   6.645  1.00  0.00    -0.248 NA
ATOM     54  C   UNL     1       6.606   6.914   7.824  1.00  0.00     0.031 C 
ATOM     55  C   UNL     1       5.515   7.038   2.912  1.00  0.00     0.029 A 
ATOM     56  N   UNL     1       6.604   8.790   3.777  1.00  0.00    -0.354 N 
ATOM     57  C   UNL     1       7.663   8.930   7.958  1.00  0.00     0.074 A 
ATOM     58  C   UNL     1       7.277   7.715   8.635  1.00  0.00     0.031 C 
ATOM     59  C   UNL     1       5.764   7.904   1.910  1.00  0.00     0.029 A 
ATOM     60  C   UNL     1       6.426   9.094   2.445  1.00  0.00     0.049 A 
ATOM     61  H   UNL     1       7.098   9.371   4.399  1.00  0.00     0.167 HD
ATOM     62  C   UNL     1       8.316   9.949   8.562  1.00  0.00     0.037 A 
ATOM     63  C   UNL     1       6.721  10.216   1.753  1.00  0.00     0.037 A 
ATOM     64  C   UNL     1       8.647  11.187   7.918  1.00  0.00     0.049 A 
ATOM     65  C   UNL     1       7.338  11.393   2.480  1.00  0.00     0.074 A 
ATOM     66  C   UNL     1       9.237  12.312   8.466  1.00  0.00     0.029 A 
ATOM     67  N   UNL     1       8.399  11.469   6.585  1.00  0.00    -0.354 N 
ATOM     68  N   UNL     1       7.716  11.486   3.733  1.00  0.00    -0.248 NA
ATOM     69  C   UNL     1       7.542  12.629   1.704  1.00  0.00     0.031 C 
ATOM     70  C   UNL     1       9.310  13.291   7.470  1.00  0.00     0.029 A 
ATOM     71  C   UNL     1       8.809  12.757   6.294  1.00  0.00     0.049 A 
ATOM     72  H   UNL     1       7.993  10.845   5.940  1.00  0.00     0.167 HD
ATOM     73  C   UNL     1       8.209  12.780   3.889  1.00  0.00     0.074 A 
ATOM     74  C   UNL     1       8.099  13.431   2.603  1.00  0.00     0.031 C 
ATOM     75  C   UNL     1       8.701  13.381   5.000  1.00  0.00     0.037 A 
BRANCH  62  76
ATOM     76  C   UNL     1       8.652   9.785  10.016  1.00  0.00     0.058 A 
ATOM     77  C   UNL     1       7.906  10.458  10.996  1.00  0.00     0.135 A 
ATOM     78  C   UNL     1       9.713   8.970  10.438  1.00  0.00     0.135 A 
ATOM     79  F   UNL     1       6.869  11.233  10.643  1.00  0.00    -0.206 F 
ATOM     80  C   UNL     1       8.209  10.338  12.347  1.00  0.00     0.059 A 
ATOM     81  C   UNL     1      10.021   8.819  11.787  1.00  0.00     0.059 A 
ATOM     82  F   UNL     1      10.431   8.277   9.540  1.00  0.00    -0.206 F 
ATOM     83  C   UNL     1       9.270   9.517  12.733  1.00  0.00     0.060 A 
BRANCH  83  84
ATOM     84  S   UNL     1       9.620   9.334  14.495  1.00  0.00     0.124 S 
ATOM     85  O   UNL     1      10.204  10.630  14.820  1.00  0.00    -0.237 OA
ATOM     86  O   UNL     1       8.293   9.077  15.047  1.00  0.00    -0.237 OA
ATOM     87  O   UNL     1      10.537   8.199  14.540  1.00  0.00    -0.744 OA
ENDBRANCH  83  84
ENDBRANCH  62  76
BRANCH  63  88
ATOM     88  C   UNL     1       6.365  10.356   0.309  1.00  0.00     0.058 A 
ATOM     89  C   UNL     1       5.027  10.472  -0.097  1.00  0.00     0.135 A 
ATOM     90  C   UNL     1       7.354  10.480  -0.682  1.00  0.00     0.135 A 
ATOM     91  F   UNL     1       4.039  10.355   0.804  1.00  0.00    -0.206 F 
ATOM     92  C   UNL     1       4.681  10.721  -1.421  1.00  0.00     0.059 A 
ATOM     93  C   UNL     1       7.034  10.752  -2.013  1.00  0.00     0.059 A 
ATOM     94  F   UNL     1       8.650  10.386  -0.346  1.00  0.00    -0.206 F 
ATOM     95  C   UNL     1       5.692  10.886  -2.369  1.00  0.00     0.060 A 
BRANCH  95  96
ATOM     96  S   UNL     1       5.213  11.289  -4.067  1.00  0.00     0.124 S 
ATOM     97  O   UNL     1       4.179  10.294  -4.342  1.00  0.00    -0.237 OA
ATOM     98  O   UNL     1       4.738  12.660  -3.914  1.00  0.00    -0.237 OA
ATOM     99  O   UNL     1       6.453  11.137  -4.820  1.00  0.00    -0.744 OA
ENDBRANCH  95  96
ENDBRANCH  63  88
BRANCH  75 100
ATOM    100  C   UNL     1       9.183  14.800   4.886  1.00  0.00     0.058 A 
ATOM    101  C   UNL     1      10.556  15.087   4.939  1.00  0.00     0.135 A 
ATOM    102  C   UNL     1       8.286  15.877   4.841  1.00  0.00     0.135 A 
ATOM    103  F   UNL     1      11.455  14.091   4.991  1.00  0.00    -0.206 F 
ATOM    104  C   UNL     1      11.023  16.396   4.978  1.00  0.00     0.059 A 
ATOM    105  C   UNL     1       8.732  17.196   4.857  1.00  0.00     0.059 A 
ATOM    106  F   UNL     1       6.964  15.653   4.781  1.00  0.00    -0.206 F 
ATOM    107  C   UNL     1      10.103  17.444   4.947  1.00  0.00     0.060 A 
BRANCH 107 108
ATOM    108  S   UNL     1      10.725  19.138   5.016  1.00  0.00     0.124 S 
ATOM    109  O   UNL     1      11.142  19.246   6.410  1.00  0.00    -0.237 OA
ATOM    110  O   UNL     1      11.802  19.113   4.032  1.00  0.00    -0.237 OA
ATOM    111  O   UNL     1       9.563  19.941   4.644  1.00  0.00    -0.744 OA
ENDBRANCH 107 108
ENDBRANCH  75 100
ENDBRANCH  49  50
ENDBRANCH  42  44
ENDBRANCH  41  42
ENDBRANCH  40  41
ENDBRANCH  39  40
ENDBRANCH  38  39
ENDBRANCH  37  38
ENDBRANCH  36  37
ENDBRANCH  35  36
ENDBRANCH   1  35
TORSDOF 28
