REMARK SMILES C[C@@H](CCCO)Nc1ccc(C(=O)OCCOCCOCCOCCOC(=O)c2ccc(-c3c4nc(c(-c5c(F)cc(S(=O)(=O)[O-])cc5F)c5ccc([nH]5)c(-c5c(F)cc(S(=O)(=O)[O-])cc5F)c5nc(c(-c6c(F)cc(S(=O)(=O)[O-])cc6F)c6ccc3[nH]6)C=C5)C=C4)cc2)o1
REMARK SMILES IDX 18 1 17 2 16 3 15 4 14 5 12 6 13 7 11 8 8 9 9 10 95 11 10 12
REMARK SMILES IDX 7 13 2 15 1 16 3 17 4 18 5 19 6 20 19 22 20 23 21 24 22 25
REMARK SMILES IDX 23 26 24 27 25 28 26 29 27 30 28 31 29 32 30 33 94 34 31 35
REMARK SMILES IDX 93 36 32 37 33 38 34 39 87 40 35 41 92 42 86 43 88 44 36 45
REMARK SMILES IDX 91 46 85 47 84 48 37 50 71 51 50 52 70 53 51 54 54 55 69 56
REMARK SMILES IDX 89 57 52 58 53 59 68 61 90 62 55 63 38 64 39 65 48 66 40 67
REMARK SMILES IDX 41 68 47 69 49 70 42 71 43 72 44 73 45 74 46 75 72 76 73 77
REMARK SMILES IDX 82 78 74 79 75 80 81 81 83 82 76 83 77 84 78 85 79 86 80 87
REMARK SMILES IDX 56 88 57 89 66 90 58 91 59 92 65 93 67 94 60 95 61 96 62 97
REMARK SMILES IDX 63 98 64 99
REMARK H PARENT 7 14 6 21 88 49 54 60
REMARK Flexibility Score: inf
ROOT
ATOM      1  C   UNL     1      -6.028   2.151   2.181  1.00  0.00     0.188 C 
ENDROOT
BRANCH   1   2
ATOM      2  O   UNL     1      -6.929   2.231   3.282  1.00  0.00    -0.376 OA
BRANCH   2   3
ATOM      3  C   UNL     1      -6.372   2.221   4.593  1.00  0.00     0.202 C 
BRANCH   3   4
ATOM      4  C   UNL     1      -5.416   3.355   5.013  1.00  0.00     0.261 C 
BRANCH   4   5
ATOM      5  O   UNL     1      -4.242   3.545   4.208  1.00  0.00    -0.457 OA
BRANCH   5   6
ATOM      6  C   UNL     1      -3.375   2.512   4.068  1.00  0.00     0.374 C 
ATOM      7  O   UNL     1      -3.448   1.448   4.671  1.00  0.00    -0.242 OA
BRANCH   6   8
ATOM      8  C   UNL     1      -2.466   2.828   2.991  1.00  0.00     0.214 A 
ATOM      9  C   UNL     1      -1.321   2.366   1.172  1.00  0.00     0.194 A 
ATOM     10  C   UNL     1      -1.180   3.718   1.373  1.00  0.00     0.070 A 
ATOM     11  O   UNL     1      -2.094   1.819   2.142  1.00  0.00    -0.434 OA
ATOM     12  C   UNL     1      -1.942   4.024   2.529  1.00  0.00     0.060 A 
BRANCH   9  13
ATOM     13  N   UNL     1      -0.859   1.500   0.253  1.00  0.00    -0.354 N 
ATOM     14  H   UNL     1      -1.480   0.886  -0.203  1.00  0.00     0.163 HD
BRANCH  13  15
ATOM     15  C   UNL     1       0.565   1.472  -0.069  1.00  0.00     0.079 C 
ATOM     16  C   UNL     1       1.084   0.049   0.139  1.00  0.00     0.031 C 
BRANCH  15  17
ATOM     17  C   UNL     1       0.848   2.018  -1.476  1.00  0.00     0.027 C 
BRANCH  17  18
ATOM     18  C   UNL     1       0.391   1.172  -2.673  1.00  0.00     0.030 C 
BRANCH  18  19
ATOM     19  C   UNL     1      -1.115   1.004  -2.832  1.00  0.00     0.156 C 
BRANCH  19  20
ATOM     20  O   UNL     1      -1.780   2.253  -2.750  1.00  0.00    -0.396 OA
ATOM     21  H   UNL     1      -1.613   2.652  -1.882  1.00  0.00     0.210 HD
ENDBRANCH  19  20
ENDBRANCH  18  19
ENDBRANCH  17  18
ENDBRANCH  15  17
ENDBRANCH  13  15
ENDBRANCH   9  13
ENDBRANCH   6   8
ENDBRANCH   5   6
ENDBRANCH   4   5
ENDBRANCH   3   4
ENDBRANCH   2   3
ENDBRANCH   1   2
BRANCH   1  22
ATOM     22  C   UNL     1      -5.715   3.527   1.570  1.00  0.00     0.188 C 
BRANCH  22  23
ATOM     23  O   UNL     1      -6.242   4.586   2.361  1.00  0.00    -0.377 OA
BRANCH  23  24
ATOM     24  C   UNL     1      -7.510   5.091   1.949  1.00  0.00     0.188 C 
BRANCH  24  25
ATOM     25  C   UNL     1      -8.623   4.081   1.606  1.00  0.00     0.188 C 
BRANCH  25  26
ATOM     26  O   UNL     1      -8.305   3.262   0.475  1.00  0.00    -0.376 OA
BRANCH  26  27
ATOM     27  C   UNL     1      -8.992   3.577  -0.734  1.00  0.00     0.202 C 
BRANCH  27  28
ATOM     28  C   UNL     1      -8.380   4.761  -1.495  1.00  0.00     0.261 C 
BRANCH  28  29
ATOM     29  O   UNL     1      -8.507   6.029  -0.830  1.00  0.00    -0.460 OA
BRANCH  29  30
ATOM     30  C   UNL     1      -9.763   6.459  -0.582  1.00  0.00     0.338 C 
ATOM     31  O   UNL     1     -10.801   5.932  -0.940  1.00  0.00    -0.246 OA
BRANCH  30  32
ATOM     32  C   UNL     1      -9.690   7.591   0.363  1.00  0.00     0.060 A 
ATOM     33  C   UNL     1     -10.498   7.555   1.505  1.00  0.00     0.016 A 
ATOM     34  C   UNL     1      -8.860   8.688   0.113  1.00  0.00     0.016 A 
ATOM     35  C   UNL     1     -10.521   8.646   2.372  1.00  0.00     0.010 A 
ATOM     36  C   UNL     1      -8.892   9.785   0.977  1.00  0.00     0.010 A 
ATOM     37  C   UNL     1      -9.753   9.784   2.087  1.00  0.00    -0.014 A 
BRANCH  37  38
ATOM     38  C   UNL     1      -9.994  11.033   2.848  1.00  0.00     0.031 A 
ATOM     39  C   UNL     1     -10.965  12.038   2.288  1.00  0.00     0.074 A 
ATOM     40  C   UNL     1      -9.389  11.255   4.027  1.00  0.00     0.049 A 
ATOM     41  N   UNL     1     -11.361  13.177   2.792  1.00  0.00    -0.248 NA
ATOM     42  C   UNL     1     -11.567  11.714   0.984  1.00  0.00     0.031 C 
ATOM     43  C   UNL     1      -8.437  10.354   4.675  1.00  0.00     0.029 A 
ATOM     44  N   UNL     1      -9.489  12.317   4.890  1.00  0.00    -0.354 N 
ATOM     45  C   UNL     1     -12.267  13.700   1.877  1.00  0.00     0.074 A 
ATOM     46  C   UNL     1     -12.333  12.773   0.767  1.00  0.00     0.031 C 
ATOM     47  C   UNL     1      -8.034  10.905   5.834  1.00  0.00     0.029 A 
ATOM     48  C   UNL     1      -8.692  12.200   6.004  1.00  0.00     0.049 A 
ATOM     49  H   UNL     1     -10.076  13.090   4.727  1.00  0.00     0.167 HD
ATOM     50  C   UNL     1     -12.991  14.841   1.958  1.00  0.00     0.037 A 
ATOM     51  C   UNL     1      -8.517  13.045   7.039  1.00  0.00     0.037 A 
ATOM     52  C   UNL     1     -12.916  15.770   3.054  1.00  0.00     0.049 A 
ATOM     53  C   UNL     1      -9.306  14.327   7.089  1.00  0.00     0.074 A 
ATOM     54  C   UNL     1     -13.611  16.954   3.230  1.00  0.00     0.029 A 
ATOM     55  N   UNL     1     -12.092  15.621   4.159  1.00  0.00    -0.354 N 
ATOM     56  N   UNL     1     -10.185  14.791   6.232  1.00  0.00    -0.248 NA
ATOM     57  C   UNL     1      -9.088  15.195   8.255  1.00  0.00     0.031 C 
ATOM     58  C   UNL     1     -13.183  17.537   4.429  1.00  0.00     0.029 A 
ATOM     59  C   UNL     1     -12.251  16.696   5.017  1.00  0.00     0.049 A 
ATOM     60  H   UNL     1     -11.483  14.862   4.311  1.00  0.00     0.167 HD
ATOM     61  C   UNL     1     -10.645  15.989   6.770  1.00  0.00     0.074 A 
ATOM     62  C   UNL     1      -9.955  16.173   8.030  1.00  0.00     0.031 C 
ATOM     63  C   UNL     1     -11.559  16.858   6.269  1.00  0.00     0.037 A 
BRANCH  50  64
ATOM     64  C   UNL     1     -13.921  15.148   0.819  1.00  0.00     0.058 A 
ATOM     65  C   UNL     1     -15.123  14.443   0.647  1.00  0.00     0.135 A 
ATOM     66  C   UNL     1     -13.619  16.166  -0.098  1.00  0.00     0.135 A 
ATOM     67  F   UNL     1     -15.447  13.444   1.484  1.00  0.00    -0.206 F 
ATOM     68  C   UNL     1     -15.985  14.723  -0.408  1.00  0.00     0.059 A 
ATOM     69  C   UNL     1     -14.477  16.478  -1.149  1.00  0.00     0.059 A 
ATOM     70  F   UNL     1     -12.479  16.864   0.019  1.00  0.00    -0.206 F 
ATOM     71  C   UNL     1     -15.651  15.742  -1.303  1.00  0.00     0.060 A 
BRANCH  71  72
ATOM     72  S   UNL     1     -16.780  16.099  -2.666  1.00  0.00     0.124 S 
ATOM     73  O   UNL     1     -16.512  14.981  -3.565  1.00  0.00    -0.237 OA
ATOM     74  O   UNL     1     -18.082  16.085  -2.008  1.00  0.00    -0.237 OA
ATOM     75  O   UNL     1     -16.335  17.406  -3.140  1.00  0.00    -0.744 OA
ENDBRANCH  71  72
ENDBRANCH  50  64
BRANCH  51  76
ATOM     76  C   UNL     1      -7.561  12.704   8.125  1.00  0.00     0.058 A 
ATOM     77  C   UNL     1      -8.014  12.348   9.403  1.00  0.00     0.135 A 
ATOM     78  C   UNL     1      -6.176  12.746   7.908  1.00  0.00     0.135 A 
ATOM     79  F   UNL     1      -9.330  12.305   9.660  1.00  0.00    -0.206 F 
ATOM     80  C   UNL     1      -7.127  12.065  10.437  1.00  0.00     0.059 A 
ATOM     81  C   UNL     1      -5.269  12.446   8.920  1.00  0.00     0.059 A 
ATOM     82  F   UNL     1      -5.693  13.072   6.699  1.00  0.00    -0.206 F 
ATOM     83  C   UNL     1      -5.755  12.118  10.185  1.00  0.00     0.060 A 
BRANCH  83  84
ATOM     84  S   UNL     1      -4.609  11.711  11.520  1.00  0.00     0.124 S 
ATOM     85  O   UNL     1      -4.639  12.932  12.316  1.00  0.00    -0.237 OA
ATOM     86  O   UNL     1      -5.238  10.539  12.122  1.00  0.00    -0.237 OA
ATOM     87  O   UNL     1      -3.358  11.446  10.815  1.00  0.00    -0.744 OA
ENDBRANCH  83  84
ENDBRANCH  51  76
BRANCH  63  88
ATOM     88  C   UNL     1     -11.887  18.065   7.104  1.00  0.00     0.058 A 
ATOM     89  C   UNL     1     -10.995  19.141   7.227  1.00  0.00     0.135 A 
ATOM     90  C   UNL     1     -13.119  18.152   7.772  1.00  0.00     0.135 A 
ATOM     91  F   UNL     1      -9.804  19.106   6.609  1.00  0.00    -0.206 F 
ATOM     92  C   UNL     1     -11.298  20.248   8.014  1.00  0.00     0.059 A 
ATOM     93  C   UNL     1     -13.452  19.259   8.546  1.00  0.00     0.059 A 
ATOM     94  F   UNL     1     -14.013  17.155   7.675  1.00  0.00    -0.206 F 
ATOM     95  C   UNL     1     -12.527  20.294   8.676  1.00  0.00     0.060 A 
BRANCH  95  96
ATOM     96  S   UNL     1     -12.914  21.732   9.696  1.00  0.00     0.124 S 
ATOM     97  O   UNL     1     -12.163  21.439  10.912  1.00  0.00    -0.237 OA
ATOM     98  O   UNL     1     -12.408  22.839   8.890  1.00  0.00    -0.237 OA
ATOM     99  O   UNL     1     -14.367  21.673   9.825  1.00  0.00    -0.744 OA
ENDBRANCH  95  96
ENDBRANCH  63  88
ENDBRANCH  37  38
ENDBRANCH  30  32
ENDBRANCH  29  30
ENDBRANCH  28  29
ENDBRANCH  27  28
ENDBRANCH  26  27
ENDBRANCH  25  26
ENDBRANCH  24  25
ENDBRANCH  23  24
ENDBRANCH  22  23
ENDBRANCH   1  22
TORSDOF 29
