REMARK SMILES O=C(OCCOCCOCCOCCOC(=O)c1c(C2CC2)nn(-c2ccc(Cl)c(F)c2)c1Cl)c1ccc(-c2c3nc(c(-c4c(F)cc(S(=O)(=O)[O-])cc4F)c4ccc([nH]4)c(-c4c(F)cc(S(=O)(=O)[O-])cc4F)c4nc(c(-c5c(F)cc(S(=O)(=O)[O-])cc5F)c5ccc2[nH]5)C=C4)C=C3)cc1
REMARK SMILES IDX 8 1 7 2 6 3 5 4 4 5 3 6 2 7 1 8 35 9 36 10 100 11 37 12
REMARK SMILES IDX 99 13 38 14 39 15 40 16 93 17 41 18 98 19 92 20 94 21 42 22
REMARK SMILES IDX 97 23 91 24 90 25 43 27 77 28 56 29 76 30 57 31 60 32 75 33
REMARK SMILES IDX 95 34 58 35 59 36 74 38 96 39 61 40 44 41 45 42 54 43 46 44
REMARK SMILES IDX 47 45 53 46 55 47 48 48 49 49 50 50 51 51 52 52 78 53 79 54
REMARK SMILES IDX 88 55 80 56 81 57 87 58 89 59 82 60 83 61 84 62 85 63 86 64
REMARK SMILES IDX 62 65 63 66 72 67 64 68 65 69 71 70 73 71 66 72 67 73 68 74
REMARK SMILES IDX 69 75 70 76 9 77 10 78 11 79 12 80 13 81 14 82 15 83 16 84
REMARK SMILES IDX 17 85 18 86 19 87 33 88 23 89 24 90 34 91 20 92 21 93 22 94
REMARK SMILES IDX 25 95 26 96 32 97 27 98 30 99 28 100 31 101 29 102
REMARK H PARENT 94 26 60 37
REMARK Flexibility Score: inf
ROOT
ATOM      1  C   UNL     1       2.170  -1.430  -1.070  1.00  0.00     0.188 C 
ENDROOT
BRANCH   1   2
ATOM      2  C   UNL     1       2.896  -0.179  -1.590  1.00  0.00     0.188 C 
BRANCH   2   3
ATOM      3  O   UNL     1       4.015   0.448  -0.965  1.00  0.00    -0.376 OA
BRANCH   3   4
ATOM      4  C   UNL     1       4.971  -0.112  -0.093  1.00  0.00     0.202 C 
BRANCH   4   5
ATOM      5  C   UNL     1       4.618  -0.239   1.393  1.00  0.00     0.261 C 
BRANCH   5   6
ATOM      6  O   UNL     1       3.265  -0.581   1.694  1.00  0.00    -0.460 OA
BRANCH   6   7
ATOM      7  C   UNL     1       2.163   0.203   1.680  1.00  0.00     0.338 C 
ATOM      8  O   UNL     1       1.097  -0.298   2.041  1.00  0.00    -0.246 OA
BRANCH   7   9
ATOM      9  C   UNL     1       2.129   1.591   1.143  1.00  0.00     0.060 A 
ATOM     10  C   UNL     1       3.230   2.442   1.023  1.00  0.00     0.016 A 
ATOM     11  C   UNL     1       0.856   2.074   0.777  1.00  0.00     0.016 A 
ATOM     12  C   UNL     1       3.066   3.759   0.651  1.00  0.00     0.010 A 
ATOM     13  C   UNL     1       0.679   3.400   0.414  1.00  0.00     0.010 A 
ATOM     14  C   UNL     1       1.784   4.245   0.431  1.00  0.00    -0.014 A 
BRANCH  14  15
ATOM     15  C   UNL     1       1.662   5.689   0.406  1.00  0.00     0.031 A 
ATOM     16  C   UNL     1       2.196   6.390  -0.785  1.00  0.00     0.074 A 
ATOM     17  C   UNL     1       1.115   6.319   1.462  1.00  0.00     0.049 A 
ATOM     18  N   UNL     1       3.154   7.257  -0.844  1.00  0.00    -0.248 NA
ATOM     19  C   UNL     1       1.644   6.010  -2.092  1.00  0.00     0.031 C 
ATOM     20  C   UNL     1       0.364   5.720   2.571  1.00  0.00     0.029 A 
ATOM     21  N   UNL     1       1.018   7.651   1.704  1.00  0.00    -0.354 N 
ATOM     22  C   UNL     1       3.196   7.685  -2.169  1.00  0.00     0.074 A 
ATOM     23  C   UNL     1       2.344   6.793  -2.913  1.00  0.00     0.031 C 
ATOM     24  C   UNL     1      -0.317   6.691   3.213  1.00  0.00     0.029 A 
ATOM     25  C   UNL     1       0.051   7.974   2.641  1.00  0.00     0.049 A 
ATOM     26  H   UNL     1       1.581   8.323   1.256  1.00  0.00     0.167 HD
ATOM     27  C   UNL     1       3.761   8.868  -2.534  1.00  0.00     0.037 A 
ATOM     28  C   UNL     1      -0.495   9.197   2.835  1.00  0.00     0.037 A 
ATOM     29  C   UNL     1       4.651   9.381  -1.528  1.00  0.00     0.049 A 
ATOM     30  C   UNL     1       0.451  10.201   2.278  1.00  0.00     0.074 A 
ATOM     31  C   UNL     1       5.817   8.930  -0.943  1.00  0.00     0.029 A 
ATOM     32  N   UNL     1       4.210  10.414  -0.738  1.00  0.00    -0.354 N 
ATOM     33  N   UNL     1       1.630  10.454   2.779  1.00  0.00    -0.248 NA
ATOM     34  C   UNL     1       0.260  10.633   0.901  1.00  0.00     0.031 C 
ATOM     35  C   UNL     1       5.764   9.394   0.403  1.00  0.00     0.029 A 
ATOM     36  C   UNL     1       4.583  10.124   0.550  1.00  0.00     0.049 A 
ATOM     37  H   UNL     1       3.720  11.213  -1.038  1.00  0.00     0.167 HD
ATOM     38  C   UNL     1       2.445  10.693   1.680  1.00  0.00     0.074 A 
ATOM     39  C   UNL     1       1.526  10.895   0.565  1.00  0.00     0.031 C 
ATOM     40  C   UNL     1       3.785  10.433   1.717  1.00  0.00     0.037 A 
BRANCH  27  41
ATOM     41  C   UNL     1       3.252   9.718  -3.670  1.00  0.00     0.058 A 
ATOM     42  C   UNL     1       4.036  10.777  -4.167  1.00  0.00     0.135 A 
ATOM     43  C   UNL     1       1.904   9.700  -4.092  1.00  0.00     0.135 A 
ATOM     44  F   UNL     1       5.325  10.899  -3.811  1.00  0.00    -0.206 F 
ATOM     45  C   UNL     1       3.502  11.781  -4.978  1.00  0.00     0.059 A 
ATOM     46  C   UNL     1       1.366  10.657  -4.943  1.00  0.00     0.059 A 
ATOM     47  F   UNL     1       1.023   8.811  -3.614  1.00  0.00    -0.206 F 
ATOM     48  C   UNL     1       2.160  11.720  -5.343  1.00  0.00     0.060 A 
BRANCH  48  49
ATOM     49  S   UNL     1       1.429  13.076  -6.277  1.00  0.00     0.124 S 
ATOM     50  O   UNL     1       1.351  14.116  -5.258  1.00  0.00    -0.237 OA
ATOM     51  O   UNL     1       2.412  13.287  -7.334  1.00  0.00    -0.237 OA
ATOM     52  O   UNL     1       0.150  12.526  -6.719  1.00  0.00    -0.744 OA
ENDBRANCH  48  49
ENDBRANCH  27  41
BRANCH  28  53
ATOM     53  C   UNL     1      -1.927   9.478   3.114  1.00  0.00     0.058 A 
ATOM     54  C   UNL     1      -2.346  10.747   3.540  1.00  0.00     0.135 A 
ATOM     55  C   UNL     1      -2.949   8.580   2.733  1.00  0.00     0.135 A 
ATOM     56  F   UNL     1      -1.441  11.674   3.889  1.00  0.00    -0.206 F 
ATOM     57  C   UNL     1      -3.696  11.117   3.556  1.00  0.00     0.059 A 
ATOM     58  C   UNL     1      -4.298   8.917   2.763  1.00  0.00     0.059 A 
ATOM     59  F   UNL     1      -2.665   7.370   2.229  1.00  0.00    -0.206 F 
ATOM     60  C   UNL     1      -4.664  10.197   3.151  1.00  0.00     0.060 A 
BRANCH  60  61
ATOM     61  S   UNL     1      -6.387  10.719   3.010  1.00  0.00     0.124 S 
ATOM     62  O   UNL     1      -6.763  10.895   4.408  1.00  0.00    -0.237 OA
ATOM     63  O   UNL     1      -6.273  11.941   2.220  1.00  0.00    -0.237 OA
ATOM     64  O   UNL     1      -7.027   9.597   2.328  1.00  0.00    -0.744 OA
ENDBRANCH  60  61
ENDBRANCH  28  53
BRANCH  40  65
ATOM     65  C   UNL     1       4.426  10.178   3.056  1.00  0.00     0.058 A 
ATOM     66  C   UNL     1       4.131   9.067   3.865  1.00  0.00     0.135 A 
ATOM     67  C   UNL     1       5.498  10.993   3.453  1.00  0.00     0.135 A 
ATOM     68  F   UNL     1       3.198   8.177   3.499  1.00  0.00    -0.206 F 
ATOM     69  C   UNL     1       4.842   8.801   5.036  1.00  0.00     0.059 A 
ATOM     70  C   UNL     1       6.241  10.729   4.601  1.00  0.00     0.059 A 
ATOM     71  F   UNL     1       5.874  12.030   2.686  1.00  0.00    -0.206 F 
ATOM     72  C   UNL     1       5.900   9.636   5.394  1.00  0.00     0.060 A 
BRANCH  72  73
ATOM     73  S   UNL     1       6.883   9.226   6.853  1.00  0.00     0.124 S 
ATOM     74  O   UNL     1       5.987   9.598   7.942  1.00  0.00    -0.237 OA
ATOM     75  O   UNL     1       7.119   7.794   6.687  1.00  0.00    -0.237 OA
ATOM     76  O   UNL     1       8.072  10.062   6.709  1.00  0.00    -0.744 OA
ENDBRANCH  72  73
ENDBRANCH  40  65
ENDBRANCH  14  15
ENDBRANCH   7   9
ENDBRANCH   6   7
ENDBRANCH   5   6
ENDBRANCH   4   5
ENDBRANCH   3   4
ENDBRANCH   2   3
ENDBRANCH   1   2
BRANCH   1  77
ATOM     77  O   UNL     1       2.596  -2.655  -1.641  1.00  0.00    -0.377 OA
BRANCH  77  78
ATOM     78  C   UNL     1       3.949  -2.953  -1.396  1.00  0.00     0.188 C 
BRANCH  78  79
ATOM     79  C   UNL     1       4.881  -2.583  -2.566  1.00  0.00     0.188 C 
BRANCH  79  80
ATOM     80  O   UNL     1       4.346  -2.454  -3.875  1.00  0.00    -0.376 OA
BRANCH  80  81
ATOM     81  C   UNL     1       3.333  -3.350  -4.299  1.00  0.00     0.202 C 
BRANCH  81  82
ATOM     82  C   UNL     1       3.688  -4.839  -4.303  1.00  0.00     0.261 C 
BRANCH  82  83
ATOM     83  O   UNL     1       3.899  -5.408  -2.998  1.00  0.00    -0.460 OA
BRANCH  83  84
ATOM     84  C   UNL     1       5.158  -5.776  -2.620  1.00  0.00     0.343 C 
ATOM     85  O   UNL     1       6.176  -5.587  -3.285  1.00  0.00    -0.246 OA
BRANCH  84  86
ATOM     86  C   UNL     1       5.163  -6.465  -1.349  1.00  0.00     0.121 A 
ATOM     87  C   UNL     1       5.951  -6.389  -0.160  1.00  0.00     0.082 A 
ATOM     88  C   UNL     1       4.334  -7.535  -1.098  1.00  0.00     0.147 A 
ATOM     89  N   UNL     1       5.607  -7.326   0.738  1.00  0.00    -0.170 NA
ATOM     90  N   UNL     1       4.685  -8.078   0.107  1.00  0.00    -0.221 N 
ATOM     91  Cl  UNL     1       3.053  -8.200  -2.023  1.00  0.00    -0.061 Cl
BRANCH  87  92
ATOM     92  C   UNL     1       7.074  -5.443   0.272  1.00  0.00     0.041 C 
ATOM     93  C   UNL     1       7.598  -4.286  -0.524  1.00  0.00     0.011 C 
ATOM     94  C   UNL     1       6.726  -4.026   0.664  1.00  0.00     0.011 C 
ENDBRANCH  87  92
BRANCH  90  95
ATOM     95  C   UNL     1       4.340  -9.340   0.628  1.00  0.00     0.069 A 
ATOM     96  C   UNL     1       3.886  -9.449   1.945  1.00  0.00     0.030 A 
ATOM     97  C   UNL     1       4.457 -10.466  -0.193  1.00  0.00     0.069 A 
ATOM     98  C   UNL     1       3.458 -10.695   2.412  1.00  0.00     0.026 A 
ATOM     99  C   UNL     1       4.066 -11.703   0.298  1.00  0.00     0.143 A 
ATOM    100  C   UNL     1       3.545 -11.820   1.585  1.00  0.00     0.076 A 
ATOM    101  F   UNL     1       4.197 -12.775  -0.496  1.00  0.00    -0.205 F 
ATOM    102  Cl  UNL     1       2.997 -13.345   2.164  1.00  0.00    -0.081 Cl
ENDBRANCH  90  95
ENDBRANCH  84  86
ENDBRANCH  83  84
ENDBRANCH  82  83
ENDBRANCH  81  82
ENDBRANCH  80  81
ENDBRANCH  79  80
ENDBRANCH  78  79
ENDBRANCH  77  78
ENDBRANCH   1  77
TORSDOF 25
