REMARK SMILES Cc1c(CC(=O)OCCOCCOCCOCCOC(=O)c2ccc(-c3c4nc(c(-c5c(F)cc(S(=O)(=O)[O-])cc5F)c5ccc([nH]5)c(-c5c(F)cc(S(=O)(=O)[O-])cc5F)c5nc(c(-c6c(F)cc(S(=O)(=O)[O-])cc6F)c6ccc3[nH]6)C=C5)C=C4)cc2)c2cc(O)ccc2n1C(=O)c1ccc(Cl)cc1
REMARK SMILES IDX 13 1 12 2 11 3 10 4 9 5 8 6 7 7 5 8 6 9 4 10 3 11 1 12 2 13
REMARK SMILES IDX 95 14 88 15 94 16 89 17 93 18 90 19 92 20 96 21 97 22 98 23
REMARK SMILES IDX 99 24 104 25 100 26 103 27 101 28 102 29 91 30 14 32 15 33
REMARK SMILES IDX 16 34 17 35 18 36 19 37 20 38 21 39 22 40 23 41 87 42 24 43
REMARK SMILES IDX 86 44 25 45 26 46 27 47 80 48 28 49 85 50 79 51 81 52 29 53
REMARK SMILES IDX 84 54 78 55 77 56 30 58 64 59 43 60 63 61 44 62 47 63 62 64
REMARK SMILES IDX 82 65 45 66 46 67 61 69 83 70 48 71 31 72 32 73 41 74 33 75
REMARK SMILES IDX 34 76 40 77 42 78 35 79 36 80 37 81 38 82 39 83 65 84 66 85
REMARK SMILES IDX 75 86 67 87 68 88 74 89 76 90 69 91 70 92 71 93 72 94 73 95
REMARK SMILES IDX 49 96 50 97 59 98 51 99 52 100 58 101 60 102 53 103 54 104
REMARK SMILES IDX 55 105 56 106 57 107
REMARK H PARENT 91 31 81 57 47 68
REMARK Flexibility Score: inf
ROOT
ATOM      1  O   UNL     1       1.235  -1.060   5.555  1.00  0.00    -0.377 OA
ENDROOT
BRANCH   1   2
ATOM      2  C   UNL     1       0.582  -1.800   4.564  1.00  0.00     0.188 C 
BRANCH   2   3
ATOM      3  C   UNL     1       0.237  -3.266   4.797  1.00  0.00     0.188 C 
BRANCH   3   4
ATOM      4  O   UNL     1       1.308  -4.154   4.995  1.00  0.00    -0.376 OA
BRANCH   4   5
ATOM      5  C   UNL     1       2.277  -4.453   4.005  1.00  0.00     0.202 C 
BRANCH   5   6
ATOM      6  C   UNL     1       2.364  -3.920   2.554  1.00  0.00     0.261 C 
BRANCH   6   7
ATOM      7  O   UNL     1       1.494  -2.874   2.096  1.00  0.00    -0.463 OA
BRANCH   7   8
ATOM      8  C   UNL     1       0.316  -3.256   1.551  1.00  0.00     0.310 C 
ATOM      9  O   UNL     1      -0.063  -4.425   1.521  1.00  0.00    -0.252 OA
BRANCH   8  10
ATOM     10  C   UNL     1      -0.554  -2.134   0.991  1.00  0.00     0.160 C 
BRANCH  10  11
ATOM     11  C   UNL     1      -0.389  -0.695   1.460  1.00  0.00    -0.008 A 
ATOM     12  C   UNL     1       1.350   0.145  -0.270  1.00  0.00     0.065 C 
ATOM     13  C   UNL     1       0.439   0.279   0.911  1.00  0.00     0.028 A 
ATOM     14  N   UNL     1       0.296   1.484   1.620  1.00  0.00    -0.280 N 
ATOM     15  C   UNL     1      -1.147  -0.033   2.487  1.00  0.00     0.008 A 
ATOM     16  C   UNL     1      -0.615   1.253   2.664  1.00  0.00     0.057 A 
ATOM     17  C   UNL     1      -2.184  -0.464   3.357  1.00  0.00     0.056 A 
ATOM     18  C   UNL     1      -1.038   2.054   3.751  1.00  0.00     0.031 A 
ATOM     19  C   UNL     1      -2.509   0.305   4.477  1.00  0.00     0.116 A 
ATOM     20  C   UNL     1      -1.949   1.550   4.678  1.00  0.00     0.048 A 
BRANCH  14  21
ATOM     21  C   UNL     1       0.931   2.726   1.308  1.00  0.00     0.262 C 
ATOM     22  O   UNL     1       1.638   2.810   0.305  1.00  0.00    -0.268 OA
BRANCH  21  23
ATOM     23  C   UNL     1       0.767   3.984   2.060  1.00  0.00     0.040 A 
ATOM     24  C   UNL     1       1.524   4.221   3.213  1.00  0.00     0.015 A 
ATOM     25  C   UNL     1      -0.148   4.938   1.597  1.00  0.00     0.015 A 
ATOM     26  C   UNL     1       1.307   5.392   3.947  1.00  0.00     0.021 A 
ATOM     27  C   UNL     1      -0.351   6.111   2.329  1.00  0.00     0.021 A 
ATOM     28  C   UNL     1       0.366   6.326   3.508  1.00  0.00     0.041 A 
ATOM     29  Cl  UNL     1       0.075   7.748   4.433  1.00  0.00    -0.084 Cl
ENDBRANCH  21  23
ENDBRANCH  14  21
BRANCH  19  30
ATOM     30  O   UNL     1      -3.324  -0.246   5.423  1.00  0.00    -0.508 OA
ATOM     31  H   UNL     1      -3.700  -1.092   5.281  1.00  0.00     0.293 HD
ENDBRANCH  19  30
ENDBRANCH  10  11
ENDBRANCH   8  10
ENDBRANCH   7   8
ENDBRANCH   6   7
ENDBRANCH   5   6
ENDBRANCH   4   5
ENDBRANCH   3   4
ENDBRANCH   2   3
ENDBRANCH   1   2
BRANCH   1  32
ATOM     32  C   UNL     1       2.377  -1.663   6.088  1.00  0.00     0.188 C 
BRANCH  32  33
ATOM     33  C   UNL     1       2.113  -2.268   7.466  1.00  0.00     0.188 C 
BRANCH  33  34
ATOM     34  O   UNL     1       1.110  -1.757   8.351  1.00  0.00    -0.376 OA
BRANCH  34  35
ATOM     35  C   UNL     1       0.337  -0.618   8.006  1.00  0.00     0.202 C 
BRANCH  35  36
ATOM     36  C   UNL     1       1.032   0.758   8.095  1.00  0.00     0.261 C 
BRANCH  36  37
ATOM     37  O   UNL     1       2.376   0.772   7.602  1.00  0.00    -0.460 OA
BRANCH  37  38
ATOM     38  C   UNL     1       3.376   1.074   8.468  1.00  0.00     0.338 C 
ATOM     39  O   UNL     1       3.283   1.619   9.553  1.00  0.00    -0.246 OA
BRANCH  38  40
ATOM     40  C   UNL     1       4.560   0.333   7.981  1.00  0.00     0.060 A 
ATOM     41  C   UNL     1       4.991   0.463   6.656  1.00  0.00     0.016 A 
ATOM     42  C   UNL     1       4.969  -0.754   8.766  1.00  0.00     0.016 A 
ATOM     43  C   UNL     1       5.672  -0.602   6.070  1.00  0.00     0.010 A 
ATOM     44  C   UNL     1       5.643  -1.819   8.171  1.00  0.00     0.010 A 
ATOM     45  C   UNL     1       5.929  -1.777   6.805  1.00  0.00    -0.014 A 
BRANCH  45  46
ATOM     46  C   UNL     1       6.712  -2.833   6.148  1.00  0.00     0.031 A 
ATOM     47  C   UNL     1       8.079  -2.356   5.806  1.00  0.00     0.074 A 
ATOM     48  C   UNL     1       6.390  -4.135   5.990  1.00  0.00     0.049 A 
ATOM     49  N   UNL     1       8.644  -2.261   4.648  1.00  0.00    -0.248 NA
ATOM     50  C   UNL     1       8.844  -1.754   6.912  1.00  0.00     0.031 C 
ATOM     51  C   UNL     1       5.247  -4.856   6.551  1.00  0.00     0.029 A 
ATOM     52  N   UNL     1       7.099  -5.129   5.362  1.00  0.00    -0.354 N 
ATOM     53  C   UNL     1       9.914  -1.754   4.908  1.00  0.00     0.074 A 
ATOM     54  C   UNL     1       9.914  -1.294   6.271  1.00  0.00     0.031 C 
ATOM     55  C   UNL     1       5.445  -6.188   6.411  1.00  0.00     0.029 A 
ATOM     56  C   UNL     1       6.677  -6.420   5.673  1.00  0.00     0.049 A 
ATOM     57  H   UNL     1       7.842  -4.945   4.744  1.00  0.00     0.167 HD
ATOM     58  C   UNL     1      10.967  -1.949   4.073  1.00  0.00     0.037 A 
ATOM     59  C   UNL     1       7.338  -7.582   5.421  1.00  0.00     0.037 A 
ATOM     60  C   UNL     1      10.553  -2.317   2.749  1.00  0.00     0.049 A 
ATOM     61  C   UNL     1       8.331  -7.313   4.348  1.00  0.00     0.074 A 
ATOM     62  C   UNL     1       9.839  -1.700   1.744  1.00  0.00     0.029 A 
ATOM     63  N   UNL     1      10.610  -3.647   2.421  1.00  0.00    -0.354 N 
ATOM     64  N   UNL     1       8.034  -7.030   3.111  1.00  0.00    -0.248 NA
ATOM     65  C   UNL     1       9.707  -7.038   4.734  1.00  0.00     0.031 C 
ATOM     66  C   UNL     1       9.154  -2.748   1.065  1.00  0.00     0.029 A 
ATOM     67  C   UNL     1       9.499  -3.954   1.677  1.00  0.00     0.049 A 
ATOM     68  H   UNL     1      11.326  -4.274   2.675  1.00  0.00     0.167 HD
ATOM     69  C   UNL     1       9.041  -6.176   2.690  1.00  0.00     0.074 A 
ATOM     70  C   UNL     1      10.101  -6.327   3.677  1.00  0.00     0.031 C 
ATOM     71  C   UNL     1       8.810  -5.228   1.737  1.00  0.00     0.037 A 
BRANCH  58  72
ATOM     72  C   UNL     1      12.372  -2.132   4.583  1.00  0.00     0.058 A 
ATOM     73  C   UNL     1      13.464  -2.021   3.706  1.00  0.00     0.135 A 
ATOM     74  C   UNL     1      12.663  -2.654   5.866  1.00  0.00     0.135 A 
ATOM     75  F   UNL     1      13.289  -1.578   2.451  1.00  0.00    -0.206 F 
ATOM     76  C   UNL     1      14.751  -2.421   4.071  1.00  0.00     0.059 A 
ATOM     77  C   UNL     1      13.944  -2.997   6.272  1.00  0.00     0.059 A 
ATOM     78  F   UNL     1      11.700  -2.946   6.751  1.00  0.00    -0.206 F 
ATOM     79  C   UNL     1      14.977  -2.912   5.356  1.00  0.00     0.060 A 
BRANCH  79  80
ATOM     80  S   UNL     1      16.614  -3.515   5.802  1.00  0.00     0.124 S 
ATOM     81  O   UNL     1      16.704  -4.728   4.998  1.00  0.00    -0.237 OA
ATOM     82  O   UNL     1      17.468  -2.406   5.388  1.00  0.00    -0.237 OA
ATOM     83  O   UNL     1      16.516  -3.717   7.245  1.00  0.00    -0.744 OA
ENDBRANCH  79  80
ENDBRANCH  58  72
BRANCH  59  84
ATOM     84  C   UNL     1       7.425  -8.815   6.264  1.00  0.00     0.058 A 
ATOM     85  C   UNL     1       8.065  -9.978   5.786  1.00  0.00     0.135 A 
ATOM     86  C   UNL     1       7.169  -8.784   7.649  1.00  0.00     0.135 A 
ATOM     87  F   UNL     1       8.354 -10.104   4.482  1.00  0.00    -0.206 F 
ATOM     88  C   UNL     1       8.506 -10.998   6.640  1.00  0.00     0.059 A 
ATOM     89  C   UNL     1       7.581  -9.796   8.515  1.00  0.00     0.059 A 
ATOM     90  F   UNL     1       6.601  -7.718   8.228  1.00  0.00    -0.206 F 
ATOM     91  C   UNL     1       8.287 -10.880   8.011  1.00  0.00     0.060 A 
BRANCH  91  92
ATOM     92  S   UNL     1       9.060 -12.059   9.145  1.00  0.00     0.124 S 
ATOM     93  O   UNL     1       8.305 -13.277   8.877  1.00  0.00    -0.237 OA
ATOM     94  O   UNL     1      10.447 -12.054   8.692  1.00  0.00    -0.237 OA
ATOM     95  O   UNL     1       8.835 -11.460  10.458  1.00  0.00    -0.744 OA
ENDBRANCH  91  92
ENDBRANCH  59  84
BRANCH  71  96
ATOM     96  C   UNL     1       7.610  -5.400   0.840  1.00  0.00     0.058 A 
ATOM     97  C   UNL     1       6.275  -5.402   1.278  1.00  0.00     0.135 A 
ATOM     98  C   UNL     1       7.828  -5.426  -0.549  1.00  0.00     0.135 A 
ATOM     99  F   UNL     1       5.967  -5.281   2.578  1.00  0.00    -0.206 F 
ATOM    100  C   UNL     1       5.213  -5.459   0.376  1.00  0.00     0.059 A 
ATOM    101  C   UNL     1       6.780  -5.434  -1.466  1.00  0.00     0.059 A 
ATOM    102  F   UNL     1       9.080  -5.383  -1.034  1.00  0.00    -0.206 F 
ATOM    103  C   UNL     1       5.472  -5.453  -0.993  1.00  0.00     0.060 A 
BRANCH 103 104
ATOM    104  S   UNL     1       4.078  -5.373  -2.138  1.00  0.00     0.124 S 
ATOM    105  O   UNL     1       3.459  -6.681  -1.958  1.00  0.00    -0.237 OA
ATOM    106  O   UNL     1       3.319  -4.236  -1.622  1.00  0.00    -0.237 OA
ATOM    107  O   UNL     1       4.712  -5.154  -3.435  1.00  0.00    -0.744 OA
ENDBRANCH 103 104
ENDBRANCH  71  96
ENDBRANCH  45  46
ENDBRANCH  38  40
ENDBRANCH  37  38
ENDBRANCH  36  37
ENDBRANCH  35  36
ENDBRANCH  34  35
ENDBRANCH  33  34
ENDBRANCH  32  33
ENDBRANCH   1  32
TORSDOF 27
