REMARK SMILES O=C(COc1cc(-c2ccccc2)nc(NCc2ccc(Cl)cc2)n1)OCCOCCOCCOCCOC(=O)c1ccc(-c2c3nc(c(-c4c(F)cc(S(=O)(=O)[O-])cc4F)c4ccc([nH]4)c(-c4c(F)cc(S(=O)(=O)[O-])cc4F)c4nc(c(-c5c(F)cc(S(=O)(=O)[O-])cc5F)c5ccc2[nH]5)C=C4)C=C3)cc1
REMARK SMILES IDX 31 1 30 2 29 3 28 4 27 5 26 6 2 7 1 8 3 9 4 10 5 11 6 12
REMARK SMILES IDX 25 13 7 14 15 15 14 16 8 17 9 18 13 19 10 20 12 21 11 22
REMARK SMILES IDX 16 23 17 25 18 26 19 27 24 28 20 29 23 30 21 31 22 32 32 33
REMARK SMILES IDX 33 34 34 35 35 36 36 37 37 38 38 39 39 40 40 41 41 42 42 43
REMARK SMILES IDX 106 44 43 45 105 46 44 47 45 48 46 49 99 50 47 51 104 52
REMARK SMILES IDX 98 53 100 54 48 55 103 56 97 57 96 58 49 60 83 61 62 62
REMARK SMILES IDX 82 63 63 64 66 65 81 66 101 67 64 68 65 69 80 71 102 72
REMARK SMILES IDX 67 73 50 74 51 75 60 76 52 77 53 78 59 79 61 80 54 81 55 82
REMARK SMILES IDX 56 83 57 84 58 85 84 86 85 87 94 88 86 89 87 90 93 91 95 92
REMARK SMILES IDX 88 93 89 94 90 95 91 96 92 97 68 98 69 99 78 100 70 101
REMARK SMILES IDX 71 102 77 103 79 104 72 105 73 106 74 107 75 108 76 109
REMARK H PARENT 16 24 100 59 66 70
REMARK Flexibility Score: inf
ROOT
ATOM      1  C   UNL     1       2.175  -1.465   2.003  1.00  0.00     0.188 C 
ENDROOT
BRANCH   1   2
ATOM      2  C   UNL     1       2.811  -1.875   0.669  1.00  0.00     0.188 C 
BRANCH   2   3
ATOM      3  O   UNL     1       4.176  -1.575   0.430  1.00  0.00    -0.376 OA
BRANCH   3   4
ATOM      4  C   UNL     1       4.781  -0.316   0.227  1.00  0.00     0.202 C 
BRANCH   4   5
ATOM      5  C   UNL     1       4.074   1.007   0.517  1.00  0.00     0.261 C 
BRANCH   5   6
ATOM      6  O   UNL     1       2.656   1.069   0.290  1.00  0.00    -0.461 OA
BRANCH   6   7
ATOM      7  C   UNL     1       2.003   0.647  -0.814  1.00  0.00     0.344 C 
ATOM      8  O   UNL     1       0.774   0.624  -0.825  1.00  0.00    -0.248 OA
BRANCH   7   9
ATOM      9  C   UNL     1       2.823   0.176  -2.007  1.00  0.00     0.353 C 
BRANCH   9  10
ATOM     10  O   UNL     1       3.953   1.008  -2.267  1.00  0.00    -0.466 OA
BRANCH  10  11
ATOM     11  C   UNL     1       3.516   2.026  -3.058  1.00  0.00     0.219 A 
ATOM     12  C   UNL     1       2.731   3.005  -2.527  1.00  0.00     0.097 A 
ATOM     13  N   UNL     1       3.688   1.801  -4.350  1.00  0.00    -0.177 NA
ATOM     14  C   UNL     1       1.909   3.627  -3.430  1.00  0.00     0.080 A 
ATOM     15  C   UNL     1       2.974   2.551  -5.175  1.00  0.00     0.226 A 
ATOM     16  N   UNL     1       2.033   3.420  -4.766  1.00  0.00    -0.213 NA
BRANCH  14  17
ATOM     17  C   UNL     1       0.746   4.380  -2.922  1.00  0.00     0.000 A 
ATOM     18  C   UNL     1      -0.534   4.189  -3.466  1.00  0.00     0.010 A 
ATOM     19  C   UNL     1       0.850   5.194  -1.774  1.00  0.00     0.010 A 
ATOM     20  C   UNL     1      -1.661   4.785  -2.888  1.00  0.00     0.001 A 
ATOM     21  C   UNL     1      -0.273   5.785  -1.193  1.00  0.00     0.001 A 
ATOM     22  C   UNL     1      -1.529   5.582  -1.753  1.00  0.00     0.000 A 
ENDBRANCH  14  17
BRANCH  15  23
ATOM     23  N   UNL     1       3.200   2.400  -6.513  1.00  0.00    -0.350 N 
ATOM     24  H   UNL     1       2.607   2.846  -7.159  1.00  0.00     0.164 HD
BRANCH  23  25
ATOM     25  C   UNL     1       4.298   1.591  -6.993  1.00  0.00     0.152 C 
BRANCH  25  26
ATOM     26  C   UNL     1       3.807   0.507  -7.927  1.00  0.00    -0.029 A 
ATOM     27  C   UNL     1       2.960   0.823  -8.999  1.00  0.00     0.007 A 
ATOM     28  C   UNL     1       4.230  -0.825  -7.768  1.00  0.00     0.007 A 
ATOM     29  C   UNL     1       2.529  -0.167  -9.881  1.00  0.00     0.021 A 
ATOM     30  C   UNL     1       3.806  -1.816  -8.658  1.00  0.00     0.021 A 
ATOM     31  C   UNL     1       2.955  -1.481  -9.710  1.00  0.00     0.041 A 
ATOM     32  Cl  UNL     1       2.432  -2.695 -10.811  1.00  0.00    -0.084 Cl
ENDBRANCH  25  26
ENDBRANCH  23  25
ENDBRANCH  15  23
ENDBRANCH  10  11
ENDBRANCH   9  10
ENDBRANCH   7   9
ENDBRANCH   6   7
ENDBRANCH   5   6
ENDBRANCH   4   5
ENDBRANCH   3   4
ENDBRANCH   2   3
ENDBRANCH   1   2
BRANCH   1  33
ATOM     33  O   UNL     1       2.837  -1.874   3.191  1.00  0.00    -0.377 OA
BRANCH  33  34
ATOM     34  C   UNL     1       4.211  -1.538   3.263  1.00  0.00     0.188 C 
BRANCH  34  35
ATOM     35  C   UNL     1       5.145  -2.691   2.853  1.00  0.00     0.188 C 
BRANCH  35  36
ATOM     36  O   UNL     1       4.598  -3.733   2.072  1.00  0.00    -0.376 OA
BRANCH  36  37
ATOM     37  C   UNL     1       3.658  -4.667   2.574  1.00  0.00     0.202 C 
BRANCH  37  38
ATOM     38  C   UNL     1       3.037  -4.727   3.985  1.00  0.00     0.261 C 
BRANCH  38  39
ATOM     39  O   UNL     1       3.462  -3.797   4.973  1.00  0.00    -0.460 OA
BRANCH  39  40
ATOM     40  C   UNL     1       4.604  -4.095   5.617  1.00  0.00     0.338 C 
ATOM     41  O   UNL     1       5.301  -5.086   5.457  1.00  0.00    -0.246 OA
BRANCH  40  42
ATOM     42  C   UNL     1       5.005  -2.897   6.379  1.00  0.00     0.060 A 
ATOM     43  C   UNL     1       6.290  -2.382   6.159  1.00  0.00     0.016 A 
ATOM     44  C   UNL     1       4.130  -2.277   7.277  1.00  0.00     0.016 A 
ATOM     45  C   UNL     1       6.733  -1.289   6.889  1.00  0.00     0.010 A 
ATOM     46  C   UNL     1       4.591  -1.204   8.043  1.00  0.00     0.010 A 
ATOM     47  C   UNL     1       5.915  -0.756   7.891  1.00  0.00    -0.014 A 
BRANCH  47  48
ATOM     48  C   UNL     1       6.578   0.011   8.968  1.00  0.00     0.031 A 
ATOM     49  C   UNL     1       7.021  -0.757  10.185  1.00  0.00     0.074 A 
ATOM     50  C   UNL     1       6.874   1.313   8.824  1.00  0.00     0.049 A 
ATOM     51  N   UNL     1       7.668  -0.342  11.241  1.00  0.00    -0.248 NA
ATOM     52  C   UNL     1       6.693  -2.195  10.210  1.00  0.00     0.031 C 
ATOM     53  C   UNL     1       6.550   2.133   7.658  1.00  0.00     0.029 A 
ATOM     54  N   UNL     1       7.532   2.168   9.669  1.00  0.00    -0.354 N 
ATOM     55  C   UNL     1       7.812  -1.460  12.056  1.00  0.00     0.074 A 
ATOM     56  C   UNL     1       7.160  -2.563  11.392  1.00  0.00     0.031 C 
ATOM     57  C   UNL     1       7.011   3.380   7.864  1.00  0.00     0.029 A 
ATOM     58  C   UNL     1       7.636   3.449   9.184  1.00  0.00     0.049 A 
ATOM     59  H   UNL     1       7.894   1.891  10.541  1.00  0.00     0.167 HD
ATOM     60  C   UNL     1       8.443  -1.558  13.248  1.00  0.00     0.037 A 
ATOM     61  C   UNL     1       8.169   4.548   9.754  1.00  0.00     0.037 A 
ATOM     62  C   UNL     1       9.093  -0.452  13.897  1.00  0.00     0.049 A 
ATOM     63  C   UNL     1       8.807   4.428  11.115  1.00  0.00     0.074 A 
ATOM     64  C   UNL     1       9.772  -0.440  15.101  1.00  0.00     0.029 A 
ATOM     65  N   UNL     1       9.136   0.842  13.398  1.00  0.00    -0.354 N 
ATOM     66  N   UNL     1       8.952   3.364  11.872  1.00  0.00    -0.248 NA
ATOM     67  C   UNL     1       9.365   5.656  11.696  1.00  0.00     0.031 C 
ATOM     68  C   UNL     1      10.170   0.875  15.361  1.00  0.00     0.029 A 
ATOM     69  C   UNL     1       9.806   1.668  14.283  1.00  0.00     0.049 A 
ATOM     70  H   UNL     1       8.747   1.130  12.540  1.00  0.00     0.167 HD
ATOM     71  C   UNL     1       9.654   3.788  12.997  1.00  0.00     0.074 A 
ATOM     72  C   UNL     1       9.909   5.202  12.816  1.00  0.00     0.031 C 
ATOM     73  C   UNL     1      10.058   3.073  14.078  1.00  0.00     0.037 A 
BRANCH  60  74
ATOM     74  C   UNL     1       8.414  -2.892  13.944  1.00  0.00     0.058 A 
ATOM     75  C   UNL     1       9.121  -4.005  13.460  1.00  0.00     0.135 A 
ATOM     76  C   UNL     1       7.673  -3.052  15.126  1.00  0.00     0.135 A 
ATOM     77  F   UNL     1       9.824  -3.918  12.319  1.00  0.00    -0.206 F 
ATOM     78  C   UNL     1       9.074  -5.235  14.110  1.00  0.00     0.059 A 
ATOM     79  C   UNL     1       7.639  -4.263  15.810  1.00  0.00     0.059 A 
ATOM     80  F   UNL     1       6.970  -2.025  15.627  1.00  0.00    -0.206 F 
ATOM     81  C   UNL     1       8.332  -5.352  15.287  1.00  0.00     0.060 A 
BRANCH  81  82
ATOM     82  S   UNL     1       8.291  -6.950  16.125  1.00  0.00     0.124 S 
ATOM     83  O   UNL     1       7.472  -7.739  15.210  1.00  0.00    -0.237 OA
ATOM     84  O   UNL     1       9.704  -7.308  16.181  1.00  0.00    -0.237 OA
ATOM     85  O   UNL     1       7.674  -6.643  17.412  1.00  0.00    -0.744 OA
ENDBRANCH  81  82
ENDBRANCH  60  74
BRANCH  61  86
ATOM     86  C   UNL     1       8.127   5.853   9.042  1.00  0.00     0.058 A 
ATOM     87  C   UNL     1       9.300   6.471   8.583  1.00  0.00     0.135 A 
ATOM     88  C   UNL     1       6.910   6.516   8.814  1.00  0.00     0.135 A 
ATOM     89  F   UNL     1      10.490   5.883   8.784  1.00  0.00    -0.206 F 
ATOM     90  C   UNL     1       9.272   7.705   7.941  1.00  0.00     0.059 A 
ATOM     91  C   UNL     1       6.854   7.736   8.148  1.00  0.00     0.059 A 
ATOM     92  F   UNL     1       5.757   5.965   9.223  1.00  0.00    -0.206 F 
ATOM     93  C   UNL     1       8.042   8.328   7.724  1.00  0.00     0.060 A 
BRANCH  93  94
ATOM     94  S   UNL     1       8.014   9.905   6.846  1.00  0.00     0.124 S 
ATOM     95  O   UNL     1       8.597  10.804   7.835  1.00  0.00    -0.237 OA
ATOM     96  O   UNL     1       8.839   9.616   5.677  1.00  0.00    -0.237 OA
ATOM     97  O   UNL     1       6.595  10.108   6.566  1.00  0.00    -0.744 OA
ENDBRANCH  93  94
ENDBRANCH  61  86
BRANCH  73  98
ATOM     98  C   UNL     1      10.874   3.793  15.120  1.00  0.00     0.058 A 
ATOM     99  C   UNL     1      10.321   4.775  15.956  1.00  0.00     0.135 A 
ATOM    100  C   UNL     1      12.227   3.463  15.305  1.00  0.00     0.135 A 
ATOM    101  F   UNL     1       9.032   5.129  15.824  1.00  0.00    -0.206 F 
ATOM    102  C   UNL     1      11.091   5.437  16.907  1.00  0.00     0.059 A 
ATOM    103  C   UNL     1      13.007   4.085  16.274  1.00  0.00     0.059 A 
ATOM    104  F   UNL     1      12.804   2.518  14.546  1.00  0.00    -0.206 F 
ATOM    105  C   UNL     1      12.435   5.086  17.057  1.00  0.00     0.060 A 
BRANCH 105 106
ATOM    106  S   UNL     1      13.423   5.951  18.295  1.00  0.00     0.124 S 
ATOM    107  O   UNL     1      13.591   7.260  17.673  1.00  0.00    -0.237 OA
ATOM    108  O   UNL     1      12.556   5.912  19.468  1.00  0.00    -0.237 OA
ATOM    109  O   UNL     1      14.634   5.141  18.390  1.00  0.00    -0.744 OA
ENDBRANCH 105 106
ENDBRANCH  73  98
ENDBRANCH  47  48
ENDBRANCH  40  42
ENDBRANCH  39  40
ENDBRANCH  38  39
ENDBRANCH  37  38
ENDBRANCH  36  37
ENDBRANCH  35  36
ENDBRANCH  34  35
ENDBRANCH  33  34
ENDBRANCH   1  33
TORSDOF 29
