REMARK SMILES Cc1c(C(=O)OCCOCCOCCOCCOC(=O)c2ccc(-c3c4nc(c(-c5c(F)cc(S(=O)(=O)[O-])cc5F)c5ccc([nH]5)c(-c5c(F)cc(S(=O)(=O)[O-])cc5F)c5nc(c(-c6c(F)cc(S(=O)(=O)[O-])cc6F)c6ccc3[nH]6)C=C5)C=C4)cc2)oc2c1/C(=N/NC(=O)C(c1ccccc1)c1ccccc1)CCC2
REMARK SMILES IDX 12 1 11 2 10 3 9 4 8 5 7 6 6 7 4 8 5 9 3 10 1 11 2 12 89 13
REMARK SMILES IDX 87 14 88 15 90 16 110 17 91 18 108 19 109 20 92 21 93 22
REMARK SMILES IDX 94 24 95 25 96 26 97 27 101 28 98 29 100 30 99 31 102 32
REMARK SMILES IDX 103 33 107 34 104 35 106 36 105 37 13 38 14 39 15 40 16 41
REMARK SMILES IDX 17 42 18 43 19 44 20 45 21 46 22 47 86 48 23 49 85 50 24 51
REMARK SMILES IDX 25 52 26 53 79 54 27 55 84 56 78 57 80 58 28 59 83 60 77 61
REMARK SMILES IDX 76 62 29 64 63 65 42 66 62 67 43 68 46 69 61 70 81 71 44 72
REMARK SMILES IDX 45 73 60 75 82 76 47 77 30 78 31 79 40 80 32 81 33 82 39 83
REMARK SMILES IDX 41 84 34 85 35 86 36 87 37 88 38 89 64 90 65 91 74 92 66 93
REMARK SMILES IDX 67 94 73 95 75 96 68 97 69 98 70 99 71 100 72 101 48 102
REMARK SMILES IDX 49 103 58 104 50 105 51 106 57 107 59 108 52 109 53 110
REMARK SMILES IDX 54 111 55 112 56 113
REMARK H PARENT 92 23 80 63 46 74
REMARK Flexibility Score: inf
ROOT
ATOM      1  O   UNL     1      -0.882  -5.563  -0.157  1.00  0.00    -0.377 OA
ENDROOT
BRANCH   1   2
ATOM      2  C   UNL     1      -0.321  -4.258  -0.296  1.00  0.00     0.188 C 
BRANCH   2   3
ATOM      3  C   UNL     1       0.917  -3.958  -1.173  1.00  0.00     0.188 C 
BRANCH   3   4
ATOM      4  O   UNL     1       1.695  -5.108  -1.452  1.00  0.00    -0.376 OA
BRANCH   4   5
ATOM      5  C   UNL     1       3.089  -5.063  -1.252  1.00  0.00     0.202 C 
BRANCH   5   6
ATOM      6  C   UNL     1       3.454  -5.250   0.218  1.00  0.00     0.261 C 
BRANCH   6   7
ATOM      7  O   UNL     1       2.982  -4.221   1.096  1.00  0.00    -0.457 OA
BRANCH   7   8
ATOM      8  C   UNL     1       3.255  -2.912   0.838  1.00  0.00     0.374 C 
ATOM      9  O   UNL     1       4.027  -2.506  -0.023  1.00  0.00    -0.242 OA
BRANCH   8  10
ATOM     10  C   UNL     1       2.322  -2.126   1.613  1.00  0.00     0.215 A 
ATOM     11  C   UNL     1       1.720  -0.075   0.158  1.00  0.00     0.049 C 
ATOM     12  C   UNL     1       1.636  -0.929   1.373  1.00  0.00     0.012 A 
ATOM     13  C   UNL     1       0.669  -0.830   2.423  1.00  0.00     0.043 A 
ATOM     14  O   UNL     1       1.831  -2.726   2.742  1.00  0.00    -0.453 OA
ATOM     15  C   UNL     1       0.805  -1.981   3.159  1.00  0.00     0.114 A 
ATOM     16  C   UNL     1      -0.441   0.049   2.734  1.00  0.00     0.072 C 
ATOM     17  C   UNL     1      -0.098  -2.527   4.182  1.00  0.00     0.076 C 
ATOM     18  N   UNL     1      -0.307   1.323   2.501  1.00  0.00    -0.177 NA
ATOM     19  C   UNL     1      -1.643  -0.625   3.370  1.00  0.00     0.059 C 
ATOM     20  C   UNL     1      -1.520  -2.097   3.806  1.00  0.00     0.014 C 
BRANCH  18  21
ATOM     21  N   UNL     1      -1.356   2.198   2.689  1.00  0.00    -0.246 N 
ATOM     22  C   UNL     1      -1.677   2.942   3.814  1.00  0.00     0.252 C 
ATOM     23  H   UNL     1      -1.960   2.309   1.919  1.00  0.00     0.193 HD
ATOM     24  O   UNL     1      -2.081   4.102   3.619  1.00  0.00    -0.272 OA
BRANCH  22  25
ATOM     25  C   UNL     1      -1.706   2.362   5.266  1.00  0.00     0.140 C 
BRANCH  25  26
ATOM     26  C   UNL     1      -2.941   1.437   5.440  1.00  0.00    -0.031 A 
ATOM     27  C   UNL     1      -4.027   1.567   4.537  1.00  0.00     0.005 A 
ATOM     28  C   UNL     1      -3.040   0.411   6.393  1.00  0.00     0.005 A 
ATOM     29  C   UNL     1      -5.021   0.592   4.428  1.00  0.00     0.000 A 
ATOM     30  C   UNL     1      -4.037  -0.575   6.279  1.00  0.00     0.000 A 
ATOM     31  C   UNL     1      -4.998  -0.507   5.271  1.00  0.00     0.000 A 
ENDBRANCH  25  26
BRANCH  25  32
ATOM     32  C   UNL     1      -0.262   1.992   5.648  1.00  0.00    -0.031 A 
ATOM     33  C   UNL     1       0.215   0.721   5.984  1.00  0.00     0.005 A 
ATOM     34  C   UNL     1       0.702   3.019   5.504  1.00  0.00     0.005 A 
ATOM     35  C   UNL     1       1.592   0.461   6.052  1.00  0.00     0.000 A 
ATOM     36  C   UNL     1       2.072   2.760   5.560  1.00  0.00     0.000 A 
ATOM     37  C   UNL     1       2.518   1.470   5.809  1.00  0.00     0.000 A 
ENDBRANCH  25  32
ENDBRANCH  22  25
ENDBRANCH  18  21
ENDBRANCH   8  10
ENDBRANCH   7   8
ENDBRANCH   6   7
ENDBRANCH   5   6
ENDBRANCH   4   5
ENDBRANCH   3   4
ENDBRANCH   2   3
ENDBRANCH   1   2
BRANCH   1  38
ATOM     38  C   UNL     1      -0.393  -6.642  -0.942  1.00  0.00     0.188 C 
BRANCH  38  39
ATOM     39  C   UNL     1      -0.463  -6.501  -2.482  1.00  0.00     0.188 C 
BRANCH  39  40
ATOM     40  O   UNL     1      -0.631  -5.166  -2.946  1.00  0.00    -0.376 OA
BRANCH  40  41
ATOM     41  C   UNL     1      -1.832  -4.761  -3.576  1.00  0.00     0.202 C 
BRANCH  41  42
ATOM     42  C   UNL     1      -3.088  -4.711  -2.715  1.00  0.00     0.261 C 
BRANCH  42  43
ATOM     43  O   UNL     1      -3.249  -5.839  -1.882  1.00  0.00    -0.460 OA
BRANCH  43  44
ATOM     44  C   UNL     1      -3.463  -6.997  -2.529  1.00  0.00     0.338 C 
ATOM     45  O   UNL     1      -3.400  -7.199  -3.729  1.00  0.00    -0.246 OA
BRANCH  44  46
ATOM     46  C   UNL     1      -3.901  -7.981  -1.541  1.00  0.00     0.060 A 
ATOM     47  C   UNL     1      -4.141  -9.261  -2.034  1.00  0.00     0.016 A 
ATOM     48  C   UNL     1      -4.436  -7.511  -0.331  1.00  0.00     0.016 A 
ATOM     49  C   UNL     1      -5.176  -9.960  -1.473  1.00  0.00     0.010 A 
ATOM     50  C   UNL     1      -5.489  -8.196   0.208  1.00  0.00     0.010 A 
ATOM     51  C   UNL     1      -5.903  -9.352  -0.443  1.00  0.00    -0.014 A 
BRANCH  51  52
ATOM     52  C   UNL     1      -7.127  -9.994  -0.042  1.00  0.00     0.031 A 
ATOM     53  C   UNL     1      -6.878 -11.153   0.824  1.00  0.00     0.074 A 
ATOM     54  C   UNL     1      -8.330  -9.504  -0.388  1.00  0.00     0.049 A 
ATOM     55  N   UNL     1      -6.981 -12.401   0.519  1.00  0.00    -0.248 NA
ATOM     56  C   UNL     1      -6.221 -10.893   2.115  1.00  0.00     0.031 C 
ATOM     57  C   UNL     1      -8.614  -8.183  -0.961  1.00  0.00     0.029 A 
ATOM     58  N   UNL     1      -9.567 -10.033  -0.190  1.00  0.00    -0.354 N 
ATOM     59  C   UNL     1      -6.678 -13.069   1.698  1.00  0.00     0.074 A 
ATOM     60  C   UNL     1      -5.975 -12.134   2.533  1.00  0.00     0.031 C 
ATOM     61  C   UNL     1      -9.935  -7.928  -0.842  1.00  0.00     0.029 A 
ATOM     62  C   UNL     1     -10.596  -9.112  -0.317  1.00  0.00     0.049 A 
ATOM     63  H   UNL     1      -9.718 -10.981   0.025  1.00  0.00     0.167 HD
ATOM     64  C   UNL     1      -7.362 -14.193   2.034  1.00  0.00     0.037 A 
ATOM     65  C   UNL     1     -11.881  -9.291   0.070  1.00  0.00     0.037 A 
ATOM     66  C   UNL     1      -8.060 -14.738   0.898  1.00  0.00     0.049 A 
ATOM     67  C   UNL     1     -12.132 -10.754   0.149  1.00  0.00     0.074 A 
ATOM     68  C   UNL     1      -7.714 -15.413  -0.250  1.00  0.00     0.029 A 
ATOM     69  N   UNL     1      -9.327 -14.241   0.719  1.00  0.00    -0.354 N 
ATOM     70  N   UNL     1     -12.087 -11.555  -0.884  1.00  0.00    -0.248 NA
ATOM     71  C   UNL     1     -12.086 -11.421   1.447  1.00  0.00     0.031 C 
ATOM     72  C   UNL     1      -8.760 -15.171  -1.187  1.00  0.00     0.029 A 
ATOM     73  C   UNL     1      -9.726 -14.366  -0.586  1.00  0.00     0.049 A 
ATOM     74  H   UNL     1      -9.876 -13.846   1.434  1.00  0.00     0.167 HD
ATOM     75  C   UNL     1     -11.600 -12.748  -0.382  1.00  0.00     0.074 A 
ATOM     76  C   UNL     1     -11.780 -12.663   1.059  1.00  0.00     0.031 C 
ATOM     77  C   UNL     1     -10.798 -13.556  -1.133  1.00  0.00     0.037 A 
BRANCH  64  78
ATOM     78  C   UNL     1      -7.810 -14.502   3.445  1.00  0.00     0.058 A 
ATOM     79  C   UNL     1      -8.361 -15.769   3.716  1.00  0.00     0.135 A 
ATOM     80  C   UNL     1      -8.003 -13.525   4.449  1.00  0.00     0.135 A 
ATOM     81  F   UNL     1      -8.249 -16.766   2.824  1.00  0.00    -0.206 F 
ATOM     82  C   UNL     1      -9.105 -16.025   4.868  1.00  0.00     0.059 A 
ATOM     83  C   UNL     1      -8.687 -13.776   5.629  1.00  0.00     0.059 A 
ATOM     84  F   UNL     1      -7.634 -12.248   4.299  1.00  0.00    -0.206 F 
ATOM     85  C   UNL     1      -9.274 -15.015   5.811  1.00  0.00     0.060 A 
BRANCH  85  86
ATOM     86  S   UNL     1     -10.318 -15.300   7.248  1.00  0.00     0.124 S 
ATOM     87  O   UNL     1     -11.642 -15.332   6.640  1.00  0.00    -0.237 OA
ATOM     88  O   UNL     1      -9.807 -16.573   7.745  1.00  0.00    -0.237 OA
ATOM     89  O   UNL     1     -10.039 -14.145   8.097  1.00  0.00    -0.744 OA
ENDBRANCH  85  86
ENDBRANCH  64  78
BRANCH  65  90
ATOM     90  C   UNL     1     -12.776  -8.271   0.671  1.00  0.00     0.058 A 
ATOM     91  C   UNL     1     -14.165  -8.463   0.741  1.00  0.00     0.135 A 
ATOM     92  C   UNL     1     -12.258  -7.190   1.416  1.00  0.00     0.135 A 
ATOM     93  F   UNL     1     -14.737  -9.486   0.088  1.00  0.00    -0.206 F 
ATOM     94  C   UNL     1     -14.990  -7.649   1.526  1.00  0.00     0.059 A 
ATOM     95  C   UNL     1     -13.060  -6.357   2.192  1.00  0.00     0.059 A 
ATOM     96  F   UNL     1     -10.938  -6.960   1.480  1.00  0.00    -0.206 F 
ATOM     97  C   UNL     1     -14.424  -6.605   2.260  1.00  0.00     0.060 A 
BRANCH  97  98
ATOM     98  S   UNL     1     -15.461  -5.641   3.382  1.00  0.00     0.124 S 
ATOM     99  O   UNL     1     -16.324  -4.922   2.451  1.00  0.00    -0.237 OA
ATOM    100  O   UNL     1     -16.105  -6.682   4.176  1.00  0.00    -0.237 OA
ATOM    101  O   UNL     1     -14.500  -4.813   4.106  1.00  0.00    -0.744 OA
ENDBRANCH  97  98
ENDBRANCH  65  90
BRANCH  77 102
ATOM    102  C   UNL     1     -10.924 -13.483  -2.626  1.00  0.00     0.058 A 
ATOM    103  C   UNL     1     -10.515 -12.397  -3.416  1.00  0.00     0.135 A 
ATOM    104  C   UNL     1     -11.379 -14.632  -3.292  1.00  0.00     0.135 A 
ATOM    105  F   UNL     1      -9.998 -11.294  -2.855  1.00  0.00    -0.206 F 
ATOM    106  C   UNL     1     -10.575 -12.448  -4.810  1.00  0.00     0.059 A 
ATOM    107  C   UNL     1     -11.419 -14.716  -4.679  1.00  0.00     0.059 A 
ATOM    108  F   UNL     1     -11.742 -15.718  -2.588  1.00  0.00    -0.206 F 
ATOM    109  C   UNL     1     -11.022 -13.615  -5.433  1.00  0.00     0.060 A 
BRANCH 109 110
ATOM    110  S   UNL     1     -11.004 -13.720  -7.236  1.00  0.00     0.124 S 
ATOM    111  O   UNL     1     -12.117 -12.853  -7.605  1.00  0.00    -0.237 OA
ATOM    112  O   UNL     1      -9.672 -13.221  -7.570  1.00  0.00    -0.237 OA
ATOM    113  O   UNL     1     -11.208 -15.143  -7.498  1.00  0.00    -0.744 OA
ENDBRANCH 109 110
ENDBRANCH  77 102
ENDBRANCH  51  52
ENDBRANCH  44  46
ENDBRANCH  43  44
ENDBRANCH  42  43
ENDBRANCH  41  42
ENDBRANCH  40  41
ENDBRANCH  39  40
ENDBRANCH  38  39
ENDBRANCH   1  38
TORSDOF 27
