REMARK SMILES CCNC(=O)C[NH2+][C@@H](C)[C@@H](C)C(=O)OCCOCCOCCOCCOC(=O)c1ccc(-c2c3nc(c(-c4c(F)cc(S(=O)(=O)[O-])cc4F)c4ccc([nH]4)c(-c4c(F)cc(S(=O)(=O)[O-])cc4F)c4nc(c(-c5c(F)cc(S(=O)(=O)[O-])cc5F)c5ccc2[nH]5)C=C4)C=C3)cc1
REMARK SMILES IDX 19 1 18 2 17 3 16 4 15 5 14 6 12 7 13 8 10 9 11 10 8 11 9 12
REMARK SMILES IDX 7 13 6 16 4 17 3 18 5 20 2 21 1 22 20 23 21 24 22 25 23 26
REMARK SMILES IDX 24 27 25 28 26 29 27 30 28 31 29 32 30 33 94 34 31 35 93 36
REMARK SMILES IDX 32 37 33 38 34 39 87 40 35 41 92 42 86 43 88 44 36 45 91 46
REMARK SMILES IDX 85 47 84 48 37 50 71 51 50 52 70 53 51 54 54 55 69 56 89 57
REMARK SMILES IDX 52 58 53 59 68 61 90 62 55 63 38 64 39 65 48 66 40 67 41 68
REMARK SMILES IDX 47 69 49 70 42 71 43 72 44 73 45 74 46 75 72 76 73 77 82 78
REMARK SMILES IDX 74 79 75 80 81 81 83 82 76 83 77 84 78 85 79 86 80 87 56 88
REMARK SMILES IDX 57 89 66 90 58 91 59 92 65 93 67 94 60 95 61 96 62 97 63 98
REMARK SMILES IDX 64 99
REMARK H PARENT 7 14 7 15 3 19 88 49 54 60
REMARK Flexibility Score: inf
ROOT
ATOM      1  C   UNL     1      -6.830  -0.367   3.202  1.00  0.00     0.188 C 
ENDROOT
BRANCH   1   2
ATOM      2  C   UNL     1      -7.338   1.035   2.872  1.00  0.00     0.188 C 
BRANCH   2   3
ATOM      3  O   UNL     1      -8.313   1.139   1.849  1.00  0.00    -0.376 OA
BRANCH   3   4
ATOM      4  C   UNL     1      -7.945   0.779   0.514  1.00  0.00     0.202 C 
BRANCH   4   5
ATOM      5  C   UNL     1      -6.578   1.199  -0.073  1.00  0.00     0.261 C 
BRANCH   5   6
ATOM      6  O   UNL     1      -5.415   0.414   0.330  1.00  0.00    -0.463 OA
BRANCH   6   7
ATOM      7  C   UNL     1      -4.499   1.065   1.085  1.00  0.00     0.314 C 
ATOM      8  O   UNL     1      -4.662   2.215   1.500  1.00  0.00    -0.252 OA
BRANCH   7   9
ATOM      9  C   UNL     1      -3.142   0.399   1.295  1.00  0.00     0.154 C 
ATOM     10  C   UNL     1      -2.223   1.064   0.257  1.00  0.00     0.026 C 
BRANCH   9  11
ATOM     11  C   UNL     1      -2.911  -1.141   1.346  1.00  0.00     0.193 C 
ATOM     12  C   UNL     1      -3.697  -1.844   2.450  1.00  0.00     0.076 C 
BRANCH  11  13
ATOM     13  N   UNL     1      -1.469  -1.359   1.625  1.00  0.00    -0.336 N 
ATOM     14  H   UNL     1      -0.932  -0.735   1.022  1.00  0.00     0.346 HD
ATOM     15  H   UNL     1      -1.337  -1.170   2.618  1.00  0.00     0.346 HD
BRANCH  13  16
ATOM     16  C   UNL     1      -0.996  -2.734   1.398  1.00  0.00     0.362 C 
BRANCH  16  17
ATOM     17  C   UNL     1       0.516  -2.799   1.645  1.00  0.00     0.275 C 
ATOM     18  N   UNL     1       1.367  -2.243   0.733  1.00  0.00    -0.351 N 
ATOM     19  H   UNL     1       2.326  -2.421   0.868  1.00  0.00     0.163 HD
ATOM     20  O   UNL     1       0.985  -3.337   2.651  1.00  0.00    -0.269 OA
BRANCH  18  21
ATOM     21  C   UNL     1       1.024  -1.422  -0.412  1.00  0.00     0.112 C 
ATOM     22  C   UNL     1       1.373   0.030  -0.144  1.00  0.00     0.027 C 
ENDBRANCH  18  21
ENDBRANCH  16  17
ENDBRANCH  13  16
ENDBRANCH  11  13
ENDBRANCH   9  11
ENDBRANCH   7   9
ENDBRANCH   6   7
ENDBRANCH   5   6
ENDBRANCH   4   5
ENDBRANCH   3   4
ENDBRANCH   2   3
ENDBRANCH   1   2
BRANCH   1  23
ATOM     23  O   UNL     1      -6.625  -1.162   2.051  1.00  0.00    -0.377 OA
BRANCH  23  24
ATOM     24  C   UNL     1      -7.401  -2.331   1.814  1.00  0.00     0.188 C 
BRANCH  24  25
ATOM     25  C   UNL     1      -8.505  -2.678   2.809  1.00  0.00     0.188 C 
BRANCH  25  26
ATOM     26  O   UNL     1      -8.100  -3.082   4.121  1.00  0.00    -0.376 OA
BRANCH  26  27
ATOM     27  C   UNL     1      -6.832  -3.714   4.282  1.00  0.00     0.202 C 
BRANCH  27  28
ATOM     28  C   UNL     1      -6.774  -5.201   3.924  1.00  0.00     0.261 C 
BRANCH  28  29
ATOM     29  O   UNL     1      -6.937  -5.443   2.518  1.00  0.00    -0.460 OA
BRANCH  29  30
ATOM     30  C   UNL     1      -8.181  -5.827   2.140  1.00  0.00     0.338 C 
ATOM     31  O   UNL     1      -9.158  -5.973   2.850  1.00  0.00    -0.246 OA
BRANCH  30  32
ATOM     32  C   UNL     1      -8.228  -5.917   0.670  1.00  0.00     0.060 A 
ATOM     33  C   UNL     1      -9.243  -5.236  -0.015  1.00  0.00     0.016 A 
ATOM     34  C   UNL     1      -7.331  -6.738  -0.014  1.00  0.00     0.016 A 
ATOM     35  C   UNL     1      -9.389  -5.406  -1.390  1.00  0.00     0.010 A 
ATOM     36  C   UNL     1      -7.487  -6.919  -1.387  1.00  0.00     0.010 A 
ATOM     37  C   UNL     1      -8.537  -6.282  -2.072  1.00  0.00    -0.014 A 
BRANCH  37  38
ATOM     38  C   UNL     1      -8.830  -6.687  -3.464  1.00  0.00     0.031 A 
ATOM     39  C   UNL     1      -9.511  -8.006  -3.693  1.00  0.00     0.074 A 
ATOM     40  C   UNL     1      -8.441  -5.923  -4.498  1.00  0.00     0.049 A 
ATOM     41  N   UNL     1      -9.716  -8.651  -4.810  1.00  0.00    -0.248 NA
ATOM     42  C   UNL     1     -10.014  -8.697  -2.494  1.00  0.00     0.031 C 
ATOM     43  C   UNL     1      -7.801  -4.614  -4.385  1.00  0.00     0.029 A 
ATOM     44  N   UNL     1      -8.494  -6.160  -5.848  1.00  0.00    -0.354 N 
ATOM     45  C   UNL     1     -10.344  -9.837  -4.449  1.00  0.00     0.074 A 
ATOM     46  C   UNL     1     -10.476  -9.827  -3.008  1.00  0.00     0.031 C 
ATOM     47  C   UNL     1      -7.482  -4.179  -5.616  1.00  0.00     0.029 A 
ATOM     48  C   UNL     1      -7.857  -5.199  -6.595  1.00  0.00     0.049 A 
ATOM     49  H   UNL     1      -8.944  -6.942  -6.242  1.00  0.00     0.167 HD
ATOM     50  C   UNL     1     -10.767 -10.843  -5.250  1.00  0.00     0.037 A 
ATOM     51  C   UNL     1      -7.571  -5.170  -7.912  1.00  0.00     0.037 A 
ATOM     52  C   UNL     1     -10.627 -10.833  -6.683  1.00  0.00     0.049 A 
ATOM     53  C   UNL     1      -8.011  -6.317  -8.783  1.00  0.00     0.074 A 
ATOM     54  C   UNL     1     -11.054 -11.779  -7.596  1.00  0.00     0.029 A 
ATOM     55  N   UNL     1      -9.997  -9.831  -7.408  1.00  0.00    -0.354 N 
ATOM     56  N   UNL     1      -8.635  -7.420  -8.440  1.00  0.00    -0.248 NA
ATOM     57  C   UNL     1      -7.713  -6.218 -10.218  1.00  0.00     0.031 C 
ATOM     58  C   UNL     1     -10.633 -11.377  -8.867  1.00  0.00     0.029 A 
ATOM     59  C   UNL     1      -9.998 -10.149  -8.755  1.00  0.00     0.049 A 
ATOM     60  H   UNL     1      -9.607  -9.014  -7.021  1.00  0.00     0.167 HD
ATOM     61  C   UNL     1      -8.830  -8.132  -9.619  1.00  0.00     0.074 A 
ATOM     62  C   UNL     1      -8.259  -7.334 -10.685  1.00  0.00     0.031 C 
ATOM     63  C   UNL     1      -9.432  -9.334  -9.803  1.00  0.00     0.037 A 
BRANCH  50  64
ATOM     64  C   UNL     1     -11.374 -12.050  -4.591  1.00  0.00     0.058 A 
ATOM     65  C   UNL     1     -12.630 -12.007  -3.965  1.00  0.00     0.135 A 
ATOM     66  C   UNL     1     -10.688 -13.276  -4.596  1.00  0.00     0.135 A 
ATOM     67  F   UNL     1     -13.321 -10.857  -3.915  1.00  0.00    -0.206 F 
ATOM     68  C   UNL     1     -13.168 -13.126  -3.337  1.00  0.00     0.059 A 
ATOM     69  C   UNL     1     -11.221 -14.415  -4.000  1.00  0.00     0.059 A 
ATOM     70  F   UNL     1      -9.482 -13.374  -5.177  1.00  0.00    -0.206 F 
ATOM     71  C   UNL     1     -12.454 -14.325  -3.357  1.00  0.00     0.060 A 
BRANCH  71  72
ATOM     72  S   UNL     1     -13.159 -15.765  -2.527  1.00  0.00     0.124 S 
ATOM     73  O   UNL     1     -12.979 -15.408  -1.123  1.00  0.00    -0.237 OA
ATOM     74  O   UNL     1     -14.536 -15.760  -3.010  1.00  0.00    -0.237 OA
ATOM     75  O   UNL     1     -12.334 -16.871  -3.003  1.00  0.00    -0.744 OA
ENDBRANCH  71  72
ENDBRANCH  50  64
BRANCH  51  76
ATOM     76  C   UNL     1      -6.805  -4.025  -8.470  1.00  0.00     0.058 A 
ATOM     77  C   UNL     1      -7.419  -3.076  -9.299  1.00  0.00     0.135 A 
ATOM     78  C   UNL     1      -5.452  -3.834  -8.148  1.00  0.00     0.135 A 
ATOM     79  F   UNL     1      -8.707  -3.220  -9.644  1.00  0.00    -0.206 F 
ATOM     80  C   UNL     1      -6.720  -1.977  -9.790  1.00  0.00     0.059 A 
ATOM     81  C   UNL     1      -4.738  -2.731  -8.606  1.00  0.00     0.059 A 
ATOM     82  F   UNL     1      -4.821  -4.707  -7.347  1.00  0.00    -0.206 F 
ATOM     83  C   UNL     1      -5.381  -1.809  -9.430  1.00  0.00     0.060 A 
BRANCH  83  84
ATOM     84  S   UNL     1      -4.508  -0.336 -10.005  1.00  0.00     0.124 S 
ATOM     85  O   UNL     1      -4.331  -0.633 -11.421  1.00  0.00    -0.237 OA
ATOM     86  O   UNL     1      -5.458   0.725  -9.687  1.00  0.00    -0.237 OA
ATOM     87  O   UNL     1      -3.288  -0.335  -9.202  1.00  0.00    -0.744 OA
ENDBRANCH  83  84
ENDBRANCH  51  76
BRANCH  63  88
ATOM     88  C   UNL     1      -9.552  -9.849 -11.211  1.00  0.00     0.058 A 
ATOM     89  C   UNL     1      -8.449 -10.366 -11.907  1.00  0.00     0.135 A 
ATOM     90  C   UNL     1     -10.809  -9.907 -11.835  1.00  0.00     0.135 A 
ATOM     91  F   UNL     1      -7.225 -10.328 -11.359  1.00  0.00    -0.206 F 
ATOM     92  C   UNL     1      -8.588 -10.916 -13.178  1.00  0.00     0.059 A 
ATOM     93  C   UNL     1     -10.975 -10.477 -13.093  1.00  0.00     0.059 A 
ATOM     94  F   UNL     1     -11.898  -9.434 -11.207  1.00  0.00    -0.206 F 
ATOM     95  C   UNL     1      -9.856 -10.974 -13.759  1.00  0.00     0.060 A 
BRANCH  95  96
ATOM     96  S   UNL     1     -10.031 -11.745 -15.382  1.00  0.00     0.124 S 
ATOM     97  O   UNL     1      -9.436 -10.737 -16.253  1.00  0.00    -0.237 OA
ATOM     98  O   UNL     1      -9.267 -12.979 -15.225  1.00  0.00    -0.237 OA
ATOM     99  O   UNL     1     -11.473 -11.922 -15.522  1.00  0.00    -0.744 OA
ENDBRANCH  95  96
ENDBRANCH  63  88
ENDBRANCH  37  38
ENDBRANCH  30  32
ENDBRANCH  29  30
ENDBRANCH  28  29
ENDBRANCH  27  28
ENDBRANCH  26  27
ENDBRANCH  25  26
ENDBRANCH  24  25
ENDBRANCH  23  24
ENDBRANCH   1  23
TORSDOF 28
