REMARK SMILES COc1cc(NS(=O)(=O)c2cc(C)c(C(=O)OCCOCCOCCOCCOC(=O)c3ccc(-c4c5nc(c(-c6c(F)cc(S(=O)(=O)[O-])cc6F)c6ccc([nH]6)c(-c6c(F)cc(S(=O)(=O)[O-])cc6F)c6nc(c(-c7c(F)cc(S(=O)(=O)[O-])cc7F)c7ccc4[nH]7)C=C6)C=C5)cc3)s2)cc(OC)c1
REMARK SMILES IDX 22 1 21 2 20 3 19 4 18 5 17 6 15 7 16 8 14 9 10 10 11 11
REMARK SMILES IDX 98 12 12 13 13 14 7 15 8 16 9 17 6 18 5 20 3 21 4 22 103 23
REMARK SMILES IDX 100 24 99 25 2 26 1 27 101 28 102 29 23 30 24 31 25 32 26 33
REMARK SMILES IDX 27 34 28 35 29 36 30 37 31 38 32 39 33 40 97 41 34 42 96 43
REMARK SMILES IDX 35 44 36 45 37 46 90 47 38 48 95 49 89 50 91 51 39 52 94 53
REMARK SMILES IDX 88 54 87 55 40 57 74 58 53 59 73 60 54 61 57 62 72 63 92 64
REMARK SMILES IDX 55 65 56 66 71 68 93 69 58 70 41 71 42 72 51 73 43 74 44 75
REMARK SMILES IDX 50 76 52 77 45 78 46 79 47 80 48 81 49 82 75 83 76 84 85 85
REMARK SMILES IDX 77 86 78 87 84 88 86 89 79 90 80 91 81 92 82 93 83 94 59 95
REMARK SMILES IDX 60 96 69 97 61 98 62 99 68 100 70 101 63 102 64 103 65 104
REMARK SMILES IDX 66 105 67 106
REMARK H PARENT 6 19 91 56 57 67
REMARK Flexibility Score: inf
ROOT
ATOM      1  C   UNL     1      -4.300   2.175   1.846  1.00  0.00     0.188 C 
ENDROOT
BRANCH   1   2
ATOM      2  C   UNL     1      -3.245   3.202   2.288  1.00  0.00     0.188 C 
BRANCH   2   3
ATOM      3  O   UNL     1      -2.953   4.157   1.269  1.00  0.00    -0.376 OA
BRANCH   3   4
ATOM      4  C   UNL     1      -1.712   4.028   0.589  1.00  0.00     0.202 C 
BRANCH   4   5
ATOM      5  C   UNL     1      -1.504   2.814  -0.335  1.00  0.00     0.261 C 
BRANCH   5   6
ATOM      6  O   UNL     1      -1.820   1.535   0.224  1.00  0.00    -0.459 OA
BRANCH   6   7
ATOM      7  C   UNL     1      -1.044   1.062   1.224  1.00  0.00     0.348 C 
ATOM      8  O   UNL     1      -0.024   1.623   1.617  1.00  0.00    -0.245 OA
BRANCH   7   9
ATOM      9  C   UNL     1      -1.673  -0.109   1.819  1.00  0.00     0.116 A 
ATOM     10  C   UNL     1      -2.046  -1.969   3.390  1.00  0.00     0.141 A 
ATOM     11  C   UNL     1      -2.863  -2.069   2.281  1.00  0.00     0.038 A 
ATOM     12  S   UNL     1      -1.304  -0.437   3.466  1.00  0.00    -0.115 S 
ATOM     13  C   UNL     1      -2.576  -1.045   1.307  1.00  0.00    -0.024 A 
ATOM     14  C   UNL     1      -3.100  -1.112  -0.097  1.00  0.00     0.046 C 
BRANCH  10  15
ATOM     15  S   UNL     1      -1.506  -3.178   4.576  1.00  0.00     0.271 S 
ATOM     16  O   UNL     1      -2.657  -4.028   4.799  1.00  0.00    -0.200 OA
ATOM     17  O   UNL     1      -0.886  -2.476   5.679  1.00  0.00    -0.200 OA
BRANCH  15  18
ATOM     18  N   UNL     1      -0.304  -4.168   3.852  1.00  0.00    -0.279 N 
ATOM     19  H   UNL     1      -0.332  -5.148   3.947  1.00  0.00     0.180 HD
BRANCH  18  20
ATOM     20  C   UNL     1       0.747  -3.529   3.102  1.00  0.00     0.056 A 
ATOM     21  C   UNL     1       1.416  -2.147   1.208  1.00  0.00     0.124 A 
ATOM     22  C   UNL     1       0.460  -2.898   1.893  1.00  0.00     0.073 A 
ATOM     23  C   UNL     1       2.734  -2.196   1.635  1.00  0.00     0.093 A 
ATOM     24  C   UNL     1       3.072  -2.972   2.752  1.00  0.00     0.124 A 
ATOM     25  C   UNL     1       2.071  -3.586   3.520  1.00  0.00     0.073 A 
BRANCH  21  26
ATOM     26  O   UNL     1       0.917  -1.430   0.159  1.00  0.00    -0.497 OA
ATOM     27  C   UNL     1       1.763  -0.483  -0.483  1.00  0.00     0.278 C 
ENDBRANCH  21  26
BRANCH  24  28
ATOM     28  O   UNL     1       4.357  -3.191   3.178  1.00  0.00    -0.497 OA
ATOM     29  C   UNL     1       5.365  -3.025   2.180  1.00  0.00     0.278 C 
ENDBRANCH  24  28
ENDBRANCH  18  20
ENDBRANCH  15  18
ENDBRANCH  10  15
ENDBRANCH   7   9
ENDBRANCH   6   7
ENDBRANCH   5   6
ENDBRANCH   4   5
ENDBRANCH   3   4
ENDBRANCH   2   3
ENDBRANCH   1   2
BRANCH   1  30
ATOM     30  O   UNL     1      -4.530   2.193   0.448  1.00  0.00    -0.377 OA
BRANCH  30  31
ATOM     31  C   UNL     1      -5.439   3.166  -0.063  1.00  0.00     0.188 C 
BRANCH  31  32
ATOM     32  C   UNL     1      -5.792   4.445   0.732  1.00  0.00     0.188 C 
BRANCH  32  33
ATOM     33  O   UNL     1      -6.086   4.232   2.112  1.00  0.00    -0.376 OA
BRANCH  33  34
ATOM     34  C   UNL     1      -7.458   4.243   2.487  1.00  0.00     0.202 C 
BRANCH  34  35
ATOM     35  C   UNL     1      -8.233   2.976   2.102  1.00  0.00     0.261 C 
BRANCH  35  36
ATOM     36  O   UNL     1      -8.404   2.773   0.692  1.00  0.00    -0.460 OA
BRANCH  36  37
ATOM     37  C   UNL     1      -9.019   3.755  -0.003  1.00  0.00     0.338 C 
ATOM     38  O   UNL     1      -9.526   4.768   0.442  1.00  0.00    -0.246 OA
BRANCH  37  39
ATOM     39  C   UNL     1      -8.808   3.489  -1.438  1.00  0.00     0.060 A 
ATOM     40  C   UNL     1      -8.214   4.482  -2.228  1.00  0.00     0.016 A 
ATOM     41  C   UNL     1      -9.203   2.272  -1.998  1.00  0.00     0.016 A 
ATOM     42  C   UNL     1      -8.057   4.275  -3.597  1.00  0.00     0.010 A 
ATOM     43  C   UNL     1      -9.063   2.074  -3.371  1.00  0.00     0.010 A 
ATOM     44  C   UNL     1      -8.525   3.090  -4.180  1.00  0.00    -0.014 A 
BRANCH  44  45
ATOM     45  C   UNL     1      -8.657   2.992  -5.651  1.00  0.00     0.031 A 
ATOM     46  C   UNL     1      -9.977   3.366  -6.266  1.00  0.00     0.074 A 
ATOM     47  C   UNL     1      -7.637   2.573  -6.419  1.00  0.00     0.049 A 
ATOM     48  N   UNL     1     -10.358   3.303  -7.514  1.00  0.00    -0.248 NA
ATOM     49  C   UNL     1     -11.008   3.875  -5.345  1.00  0.00     0.031 C 
ATOM     50  C   UNL     1      -6.305   2.213  -5.937  1.00  0.00     0.029 A 
ATOM     51  N   UNL     1      -7.574   2.366  -7.774  1.00  0.00    -0.354 N 
ATOM     52  C   UNL     1     -11.670   3.761  -7.529  1.00  0.00     0.074 A 
ATOM     53  C   UNL     1     -12.030   4.074  -6.163  1.00  0.00     0.031 C 
ATOM     54  C   UNL     1      -5.559   1.810  -6.981  1.00  0.00     0.029 A 
ATOM     55  C   UNL     1      -6.369   1.859  -8.198  1.00  0.00     0.049 A 
ATOM     56  H   UNL     1      -8.320   2.563  -8.384  1.00  0.00     0.167 HD
ATOM     57  C   UNL     1     -12.499   3.913  -8.587  1.00  0.00     0.037 A 
ATOM     58  C   UNL     1      -5.979   1.459  -9.425  1.00  0.00     0.037 A 
ATOM     59  C   UNL     1     -12.142   3.589  -9.941  1.00  0.00     0.049 A 
ATOM     60  C   UNL     1      -6.942   1.575 -10.579  1.00  0.00     0.074 A 
ATOM     61  C   UNL     1     -12.905   3.716 -11.088  1.00  0.00     0.029 A 
ATOM     62  N   UNL     1     -10.918   3.063 -10.329  1.00  0.00    -0.354 N 
ATOM     63  N   UNL     1      -8.171   2.036 -10.586  1.00  0.00    -0.248 NA
ATOM     64  C   UNL     1      -6.467   1.116 -11.893  1.00  0.00     0.031 C 
ATOM     65  C   UNL     1     -12.157   3.227 -12.164  1.00  0.00     0.029 A 
ATOM     66  C   UNL     1     -10.912   2.838 -11.694  1.00  0.00     0.049 A 
ATOM     67  H   UNL     1     -10.166   2.876  -9.723  1.00  0.00     0.167 HD
ATOM     68  C   UNL     1      -8.605   1.948 -11.905  1.00  0.00     0.074 A 
ATOM     69  C   UNL     1      -7.506   1.395 -12.669  1.00  0.00     0.031 C 
ATOM     70  C   UNL     1      -9.803   2.296 -12.438  1.00  0.00     0.037 A 
BRANCH  57  71
ATOM     71  C   UNL     1     -13.881   4.431  -8.311  1.00  0.00     0.058 A 
ATOM     72  C   UNL     1     -14.110   5.774  -7.974  1.00  0.00     0.135 A 
ATOM     73  C   UNL     1     -14.992   3.576  -8.395  1.00  0.00     0.135 A 
ATOM     74  F   UNL     1     -13.079   6.627  -7.857  1.00  0.00    -0.206 F 
ATOM     75  C   UNL     1     -15.390   6.248  -7.706  1.00  0.00     0.059 A 
ATOM     76  C   UNL     1     -16.283   4.034  -8.154  1.00  0.00     0.059 A 
ATOM     77  F   UNL     1     -14.826   2.281  -8.705  1.00  0.00    -0.206 F 
ATOM     78  C   UNL     1     -16.470   5.368  -7.796  1.00  0.00     0.060 A 
BRANCH  78  79
ATOM     79  S   UNL     1     -18.126   5.996  -7.444  1.00  0.00     0.124 S 
ATOM     80  O   UNL     1     -18.088   6.115  -5.990  1.00  0.00    -0.237 OA
ATOM     81  O   UNL     1     -18.147   7.254  -8.182  1.00  0.00    -0.237 OA
ATOM     82  O   UNL     1     -19.002   4.952  -7.966  1.00  0.00    -0.744 OA
ENDBRANCH  78  79
ENDBRANCH  57  71
BRANCH  58  83
ATOM     83  C   UNL     1      -4.617   0.900  -9.626  1.00  0.00     0.058 A 
ATOM     84  C   UNL     1      -3.638   1.613 -10.333  1.00  0.00     0.135 A 
ATOM     85  C   UNL     1      -4.267  -0.360  -9.116  1.00  0.00     0.135 A 
ATOM     86  F   UNL     1      -3.929   2.816 -10.851  1.00  0.00    -0.206 F 
ATOM     87  C   UNL     1      -2.363   1.094 -10.537  1.00  0.00     0.059 A 
ATOM     88  C   UNL     1      -2.992  -0.890  -9.287  1.00  0.00     0.059 A 
ATOM     89  F   UNL     1      -5.165  -1.079  -8.425  1.00  0.00    -0.206 F 
ATOM     90  C   UNL     1      -2.049  -0.158 -10.006  1.00  0.00     0.060 A 
BRANCH  90  91
ATOM     91  S   UNL     1      -0.374  -0.799 -10.225  1.00  0.00     0.124 S 
ATOM     92  O   UNL     1      -0.393  -1.202 -11.626  1.00  0.00    -0.237 OA
ATOM     93  O   UNL     1       0.445   0.367  -9.906  1.00  0.00    -0.237 OA
ATOM     94  O   UNL     1      -0.303  -1.887  -9.254  1.00  0.00    -0.744 OA
ENDBRANCH  90  91
ENDBRANCH  58  83
BRANCH  70  95
ATOM     95  C   UNL     1      -9.983   2.124 -13.920  1.00  0.00     0.058 A 
ATOM     96  C   UNL     1     -10.177   0.861 -14.498  1.00  0.00     0.135 A 
ATOM     97  C   UNL     1     -10.035   3.248 -14.762  1.00  0.00     0.135 A 
ATOM     98  F   UNL     1     -10.132  -0.244 -13.736  1.00  0.00    -0.206 F 
ATOM     99  C   UNL     1     -10.404   0.714 -15.862  1.00  0.00     0.059 A 
ATOM    100  C   UNL     1     -10.284   3.126 -16.125  1.00  0.00     0.059 A 
ATOM    101  F   UNL     1      -9.867   4.480 -14.257  1.00  0.00    -0.206 F 
ATOM    102  C   UNL     1     -10.458   1.854 -16.668  1.00  0.00     0.060 A 
BRANCH 102 103
ATOM    103  S   UNL     1     -10.799   1.655 -18.430  1.00  0.00     0.124 S 
ATOM    104  O   UNL     1      -9.517   1.166 -18.924  1.00  0.00    -0.237 OA
ATOM    105  O   UNL     1     -11.891   0.686 -18.432  1.00  0.00    -0.237 OA
ATOM    106  O   UNL     1     -11.165   3.002 -18.858  1.00  0.00    -0.744 OA
ENDBRANCH 102 103
ENDBRANCH  70  95
ENDBRANCH  44  45
ENDBRANCH  37  39
ENDBRANCH  36  37
ENDBRANCH  35  36
ENDBRANCH  34  35
ENDBRANCH  33  34
ENDBRANCH  32  33
ENDBRANCH  31  32
ENDBRANCH  30  31
ENDBRANCH   1  30
TORSDOF 28
