REMARK SMILES CS(=O)(=O)N1C[C@@H]2C[N@H+](Cc3cccnc3N)C[C@]2(C(=O)OCCOCCOCCOCCOC(=O)c2ccc(-c3c4nc(c(-c5c(F)cc(S(=O)(=O)[O-])cc5F)c5ccc([nH]5)c(-c5c(F)cc(S(=O)(=O)[O-])cc5F)c5nc(c(-c6c(F)cc(S(=O)(=O)[O-])cc6F)c6ccc3[nH]6)C=C5)C=C4)cc2)C1
REMARK SMILES IDX 28 1 27 2 26 3 25 4 24 5 23 6 22 7 20 8 21 9 19 10 5 11 6 12
REMARK SMILES IDX 103 13 7 14 8 15 18 16 9 17 2 19 1 20 3 21 4 22 10 23 11 24
REMARK SMILES IDX 12 25 16 26 13 27 15 28 14 29 17 30 29 33 30 34 31 35 32 36
REMARK SMILES IDX 33 37 34 38 35 39 36 40 37 41 38 42 102 43 39 44 101 45
REMARK SMILES IDX 40 46 41 47 42 48 95 49 43 50 100 51 94 52 96 53 44 54 99 55
REMARK SMILES IDX 93 56 92 57 45 59 79 60 58 61 78 62 59 63 62 64 77 65 97 66
REMARK SMILES IDX 60 67 61 68 76 70 98 71 63 72 46 73 47 74 56 75 48 76 49 77
REMARK SMILES IDX 55 78 57 79 50 80 51 81 52 82 53 83 54 84 80 85 81 86 90 87
REMARK SMILES IDX 82 88 83 89 89 90 91 91 84 92 85 93 86 94 87 95 88 96 64 97
REMARK SMILES IDX 65 98 74 99 66 100 67 101 73 102 75 103 68 104 69 105 70 106
REMARK SMILES IDX 71 107 72 108
REMARK H PARENT 9 18 17 31 17 32 96 58 62 69
REMARK Flexibility Score: inf
ROOT
ATOM      1  O   UNL     1       5.491  -4.458   1.954  1.00  0.00    -0.377 OA
ENDROOT
BRANCH   1   2
ATOM      2  C   UNL     1       5.252  -3.533   0.912  1.00  0.00     0.188 C 
BRANCH   2   3
ATOM      3  C   UNL     1       5.672  -2.080   1.165  1.00  0.00     0.188 C 
BRANCH   3   4
ATOM      4  O   UNL     1       6.851  -1.818   1.899  1.00  0.00    -0.376 OA
BRANCH   4   5
ATOM      5  C   UNL     1       6.876  -2.025   3.311  1.00  0.00     0.202 C 
BRANCH   5   6
ATOM      6  C   UNL     1       5.604  -1.986   4.186  1.00  0.00     0.261 C 
BRANCH   6   7
ATOM      7  O   UNL     1       4.473  -2.621   3.576  1.00  0.00    -0.463 OA
BRANCH   7   8
ATOM      8  C   UNL     1       3.219  -2.306   4.026  1.00  0.00     0.319 C 
ATOM      9  O   UNL     1       3.032  -1.501   4.929  1.00  0.00    -0.251 OA
BRANCH   8  10
ATOM     10  C   UNL     1       2.114  -2.999   3.186  1.00  0.00     0.140 C 
ATOM     11  N   UNL     1       0.787  -1.194   2.132  1.00  0.00    -0.200 NA
ATOM     12  C   UNL     1      -0.042  -2.383   2.109  1.00  0.00     0.113 C 
ATOM     13  C   UNL     1       2.210  -1.624   2.263  1.00  0.00     0.127 C 
ATOM     14  C   UNL     1       1.036  -3.429   2.156  1.00  0.00     0.084 C 
ATOM     15  C   UNL     1       0.577  -4.850   2.409  1.00  0.00     0.268 C 
ATOM     16  C   UNL     1       2.732  -4.436   3.169  1.00  0.00     0.283 C 
ATOM     17  N   UNL     1       1.619  -5.412   3.250  1.00  0.00    -0.330 N 
ATOM     18  H   UNL     1       1.920  -6.330   2.922  1.00  0.00     0.348 HD
BRANCH  11  19
ATOM     19  S   UNL     1       0.291   0.242   1.466  1.00  0.00     0.211 S 
ATOM     20  C   UNL     1       0.823   0.092  -0.222  1.00  0.00     0.176 C 
ATOM     21  O   UNL     1       1.053   1.315   2.057  1.00  0.00    -0.213 OA
ATOM     22  O   UNL     1      -1.161   0.259   1.461  1.00  0.00    -0.213 OA
ENDBRANCH  11  19
BRANCH  17  23
ATOM     23  C   UNL     1       1.175  -5.750   4.620  1.00  0.00     0.302 C 
BRANCH  23  24
ATOM     24  C   UNL     1       0.793  -4.594   5.512  1.00  0.00     0.048 A 
ATOM     25  C   UNL     1       1.772  -4.013   6.331  1.00  0.00     0.015 A 
ATOM     26  C   UNL     1      -0.464  -3.987   5.485  1.00  0.00     0.132 A 
ATOM     27  C   UNL     1       1.521  -2.798   6.952  1.00  0.00     0.021 A 
ATOM     28  N   UNL     1      -0.708  -2.790   6.045  1.00  0.00    -0.239 NA
ATOM     29  C   UNL     1       0.296  -2.204   6.732  1.00  0.00     0.113 A 
BRANCH  26  30
ATOM     30  N   UNL     1      -1.542  -4.523   4.808  1.00  0.00    -0.383 N 
ATOM     31  H   UNL     1      -1.460  -5.397   4.364  1.00  0.00     0.158 HD
ATOM     32  H   UNL     1      -2.394  -4.029   4.770  1.00  0.00     0.158 HD
ENDBRANCH  26  30
ENDBRANCH  23  24
ENDBRANCH  17  23
ENDBRANCH   8  10
ENDBRANCH   7   8
ENDBRANCH   6   7
ENDBRANCH   5   6
ENDBRANCH   4   5
ENDBRANCH   3   4
ENDBRANCH   2   3
ENDBRANCH   1   2
BRANCH   1  33
ATOM     33  C   UNL     1       6.742  -5.121   2.080  1.00  0.00     0.188 C 
BRANCH  33  34
ATOM     34  C   UNL     1       7.862  -4.835   1.072  1.00  0.00     0.188 C 
BRANCH  34  35
ATOM     35  O   UNL     1       7.424  -4.724  -0.268  1.00  0.00    -0.376 OA
BRANCH  35  36
ATOM     36  C   UNL     1       7.317  -5.863  -1.103  1.00  0.00     0.202 C 
BRANCH  36  37
ATOM     37  C   UNL     1       6.586  -7.132  -0.636  1.00  0.00     0.261 C 
BRANCH  37  38
ATOM     38  O   UNL     1       7.011  -7.732   0.594  1.00  0.00    -0.460 OA
BRANCH  38  39
ATOM     39  C   UNL     1       8.313  -8.062   0.718  1.00  0.00     0.338 C 
ATOM     40  O   UNL     1       9.186  -7.933  -0.114  1.00  0.00    -0.246 OA
BRANCH  39  41
ATOM     41  C   UNL     1       8.539  -8.449   2.126  1.00  0.00     0.060 A 
ATOM     42  C   UNL     1       9.495  -7.747   2.869  1.00  0.00     0.016 A 
ATOM     43  C   UNL     1       7.844  -9.521   2.692  1.00  0.00     0.016 A 
ATOM     44  C   UNL     1       9.810  -8.164   4.159  1.00  0.00     0.010 A 
ATOM     45  C   UNL     1       8.170  -9.946   3.983  1.00  0.00     0.010 A 
ATOM     46  C   UNL     1       9.191  -9.300   4.700  1.00  0.00    -0.014 A 
BRANCH  46  47
ATOM     47  C   UNL     1       9.771  -9.915   5.919  1.00  0.00     0.031 A 
ATOM     48  C   UNL     1      10.682 -11.104   5.758  1.00  0.00     0.074 A 
ATOM     49  C   UNL     1       9.564  -9.368   7.130  1.00  0.00     0.049 A 
ATOM     50  N   UNL     1      11.335 -11.778   6.668  1.00  0.00    -0.248 NA
ATOM     51  C   UNL     1      10.890 -11.597   4.385  1.00  0.00     0.031 C 
ATOM     52  C   UNL     1       8.736  -8.193   7.397  1.00  0.00     0.029 A 
ATOM     53  N   UNL     1      10.048  -9.725   8.363  1.00  0.00    -0.354 N 
ATOM     54  C   UNL     1      12.041 -12.759   5.979  1.00  0.00     0.074 A 
ATOM     55  C   UNL     1      11.695 -12.630   4.582  1.00  0.00     0.031 C 
ATOM     56  C   UNL     1       8.774  -7.922   8.714  1.00  0.00     0.029 A 
ATOM     57  C   UNL     1       9.604  -8.919   9.385  1.00  0.00     0.049 A 
ATOM     58  H   UNL     1      10.656 -10.487   8.503  1.00  0.00     0.167 HD
ATOM     59  C   UNL     1      12.918 -13.669   6.465  1.00  0.00     0.037 A 
ATOM     60  C   UNL     1       9.837  -8.992  10.710  1.00  0.00     0.037 A 
ATOM     61  C   UNL     1      13.254 -13.796   7.859  1.00  0.00     0.049 A 
ATOM     62  C   UNL     1      10.748 -10.075  11.233  1.00  0.00     0.074 A 
ATOM     63  C   UNL     1      14.114 -14.698   8.460  1.00  0.00     0.029 A 
ATOM     64  N   UNL     1      12.747 -12.993   8.871  1.00  0.00    -0.354 N 
ATOM     65  N   UNL     1      11.415 -10.990  10.568  1.00  0.00    -0.248 NA
ATOM     66  C   UNL     1      10.948 -10.127  12.688  1.00  0.00     0.031 C 
ATOM     67  C   UNL     1      14.092 -14.471   9.840  1.00  0.00     0.029 A 
ATOM     68  C   UNL     1      13.265 -13.388  10.093  1.00  0.00     0.049 A 
ATOM     69  H   UNL     1      12.113 -12.252   8.739  1.00  0.00     0.167 HD
ATOM     70  C   UNL     1      12.141 -11.700  11.521  1.00  0.00     0.074 A 
ATOM     71  C   UNL     1      11.849 -11.091  12.802  1.00  0.00     0.031 C 
ATOM     72  C   UNL     1      12.972 -12.760  11.357  1.00  0.00     0.037 A 
BRANCH  59  73
ATOM     73  C   UNL     1      13.579 -14.601   5.485  1.00  0.00     0.058 A 
ATOM     74  C   UNL     1      14.552 -14.146   4.580  1.00  0.00     0.135 A 
ATOM     75  C   UNL     1      13.283 -15.974   5.489  1.00  0.00     0.135 A 
ATOM     76  F   UNL     1      14.857 -12.840   4.515  1.00  0.00    -0.206 F 
ATOM     77  C   UNL     1      15.202 -15.016   3.711  1.00  0.00     0.059 A 
ATOM     78  C   UNL     1      13.941 -16.867   4.648  1.00  0.00     0.059 A 
ATOM     79  F   UNL     1      12.354 -16.462   6.326  1.00  0.00    -0.206 F 
ATOM     80  C   UNL     1      14.896 -16.377   3.759  1.00  0.00     0.060 A 
BRANCH  80  81
ATOM     81  S   UNL     1      15.781 -17.496   2.652  1.00  0.00     0.124 S 
ATOM     82  O   UNL     1      15.239 -17.112   1.353  1.00  0.00    -0.237 OA
ATOM     83  O   UNL     1      17.173 -17.130   2.891  1.00  0.00    -0.237 OA
ATOM     84  O   UNL     1      15.393 -18.821   3.126  1.00  0.00    -0.744 OA
ENDBRANCH  80  81
ENDBRANCH  59  73
BRANCH  60  85
ATOM     85  C   UNL     1       9.195  -8.029  11.649  1.00  0.00     0.058 A 
ATOM     86  C   UNL     1       9.960  -7.133  12.412  1.00  0.00     0.135 A 
ATOM     87  C   UNL     1       7.805  -8.029  11.848  1.00  0.00     0.135 A 
ATOM     88  F   UNL     1      11.293  -7.096  12.263  1.00  0.00    -0.206 F 
ATOM     89  C   UNL     1       9.380  -6.308  13.370  1.00  0.00     0.059 A 
ATOM     90  C   UNL     1       7.197  -7.189  12.774  1.00  0.00     0.059 A 
ATOM     91  F   UNL     1       7.022  -8.853  11.134  1.00  0.00    -0.206 F 
ATOM     92  C   UNL     1       7.996  -6.348  13.547  1.00  0.00     0.060 A 
BRANCH  92  93
ATOM     93  S   UNL     1       7.251  -5.281  14.798  1.00  0.00     0.124 S 
ATOM     94  O   UNL     1       7.668  -5.939  16.030  1.00  0.00    -0.237 OA
ATOM     95  O   UNL     1       7.879  -3.994  14.514  1.00  0.00    -0.237 OA
ATOM     96  O   UNL     1       5.825  -5.355  14.494  1.00  0.00    -0.744 OA
ENDBRANCH  92  93
ENDBRANCH  60  85
BRANCH  72  97
ATOM     97  C   UNL     1      13.661 -13.291  12.586  1.00  0.00     0.058 A 
ATOM     98  C   UNL     1      12.957 -13.950  13.607  1.00  0.00     0.135 A 
ATOM     99  C   UNL     1      15.050 -13.144  12.740  1.00  0.00     0.135 A 
ATOM    100  F   UNL     1      11.629 -14.119  13.511  1.00  0.00    -0.206 F 
ATOM    101  C   UNL     1      13.596 -14.395  14.760  1.00  0.00     0.059 A 
ATOM    102  C   UNL     1      15.715 -13.616  13.867  1.00  0.00     0.059 A 
ATOM    103  F   UNL     1      15.777 -12.539  11.788  1.00  0.00    -0.206 F 
ATOM    104  C   UNL     1      14.975 -14.219  14.883  1.00  0.00     0.060 A 
BRANCH 104 105
ATOM    105  S   UNL     1      15.789 -14.791  16.388  1.00  0.00     0.124 S 
ATOM    106  O   UNL     1      15.343 -13.798  17.359  1.00  0.00    -0.237 OA
ATOM    107  O   UNL     1      15.234 -16.132  16.552  1.00  0.00    -0.237 OA
ATOM    108  O   UNL     1      17.207 -14.744  16.047  1.00  0.00    -0.744 OA
ENDBRANCH 104 105
ENDBRANCH  72  97
ENDBRANCH  46  47
ENDBRANCH  39  41
ENDBRANCH  38  39
ENDBRANCH  37  38
ENDBRANCH  36  37
ENDBRANCH  35  36
ENDBRANCH  34  35
ENDBRANCH  33  34
ENDBRANCH   1  33
TORSDOF 27
