REMARK SMILES COc1cc(/C=N/[NH+]=C2\NC(=O)[C@@H](CC(=O)OCCOCCOCCOCCOC(=O)c3ccc(-c4c5nc(c(-c6c(F)cc(S(=O)(=O)[O-])cc6F)c6ccc([nH]6)c(-c6c(F)cc(S(=O)(=O)[O-])cc6F)c6nc(c(-c7c(F)cc(S(=O)(=O)[O-])cc7F)c7ccc4[nH]7)C=C6)C=C5)cc3)S2)cc(I)c1OC
REMARK SMILES IDX 22 1 21 2 20 3 19 4 18 5 17 6 15 7 16 8 14 9 13 10 8 11 9 12
REMARK SMILES IDX 10 14 98 15 11 16 12 18 7 19 6 20 5 21 3 22 4 23 102 24
REMARK SMILES IDX 100 25 99 26 101 27 2 28 1 29 103 30 104 31 23 32 24 33
REMARK SMILES IDX 25 34 26 35 27 36 28 37 29 38 30 39 31 40 32 41 33 42 97 43
REMARK SMILES IDX 34 44 96 45 35 46 36 47 37 48 90 49 38 50 95 51 89 52 91 53
REMARK SMILES IDX 39 54 94 55 88 56 87 57 40 59 74 60 53 61 73 62 54 63 57 64
REMARK SMILES IDX 72 65 92 66 55 67 56 68 71 70 93 71 58 72 41 73 42 74 51 75
REMARK SMILES IDX 43 76 44 77 50 78 52 79 45 80 46 81 47 82 48 83 49 84 75 85
REMARK SMILES IDX 76 86 85 87 77 88 78 89 84 90 86 91 79 92 80 93 81 94 82 95
REMARK SMILES IDX 83 96 59 97 60 98 69 99 61 100 62 101 68 102 70 103 63 104
REMARK SMILES IDX 64 105 65 106 66 107 67 108
REMARK H PARENT 8 13 10 17 91 58 57 69
REMARK Flexibility Score: inf
ROOT
ATOM      1  C   UNL     1       7.264  -1.892  -9.473  1.00  0.00     0.188 C 
ENDROOT
BRANCH   1   2
ATOM      2  C   UNL     1       6.942  -0.709 -10.405  1.00  0.00     0.188 C 
BRANCH   2   3
ATOM      3  O   UNL     1       7.842  -0.504 -11.472  1.00  0.00    -0.376 OA
BRANCH   3   4
ATOM      4  C   UNL     1       9.111   0.098 -11.335  1.00  0.00     0.202 C 
BRANCH   4   5
ATOM      5  C   UNL     1       9.901   0.315 -10.029  1.00  0.00     0.261 C 
BRANCH   5   6
ATOM      6  O   UNL     1       9.264   0.119  -8.759  1.00  0.00    -0.463 OA
BRANCH   6   7
ATOM      7  C   UNL     1       8.642   1.178  -8.197  1.00  0.00     0.307 C 
ATOM      8  O   UNL     1       8.515   2.266  -8.745  1.00  0.00    -0.252 OA
BRANCH   7   9
ATOM      9  C   UNL     1       8.214   0.931  -6.757  1.00  0.00     0.150 C 
BRANCH   9  10
ATOM     10  C   UNL     1       7.782  -0.487  -6.388  1.00  0.00     0.184 C 
ATOM     11  N   UNL     1       6.151  -1.774  -3.121  1.00  0.00    -0.142 N 
ATOM     12  C   UNL     1       6.538  -1.314  -4.262  1.00  0.00     0.337 C 
ATOM     13  H   UNL     1       6.772  -2.132  -2.446  1.00  0.00     0.343 HD
ATOM     14  N   UNL     1       5.717  -1.027  -5.294  1.00  0.00    -0.202 N 
ATOM     15  S   UNL     1       8.187  -0.963  -4.659  1.00  0.00    -0.020 SA
ATOM     16  C   UNL     1       6.264  -0.585  -6.454  1.00  0.00     0.322 C 
ATOM     17  H   UNL     1       4.742  -1.137  -5.207  1.00  0.00     0.316 HD
ATOM     18  O   UNL     1       5.587  -0.283  -7.429  1.00  0.00    -0.246 OA
BRANCH  11  19
ATOM     19  N   UNL     1       4.767  -1.715  -2.930  1.00  0.00    -0.093 NA
ATOM     20  C   UNL     1       4.143  -2.835  -3.102  1.00  0.00     0.166 C 
BRANCH  20  21
ATOM     21  C   UNL     1       2.696  -2.891  -2.822  1.00  0.00     0.002 A 
ATOM     22  C   UNL     1       0.809  -2.130  -1.527  1.00  0.00     0.162 A 
ATOM     23  C   UNL     1       2.175  -2.095  -1.806  1.00  0.00     0.060 A 
ATOM     24  C   UNL     1      -0.074  -2.958  -2.274  1.00  0.00     0.174 A 
ATOM     25  C   UNL     1       0.470  -3.744  -3.309  1.00  0.00     0.060 A 
ATOM     26  C   UNL     1       1.860  -3.718  -3.564  1.00  0.00     0.028 A 
ATOM     27  I   UNL     1      -0.573  -4.983  -4.663  1.00  0.00    -0.040 I 
BRANCH  22  28
ATOM     28  O   UNL     1       0.260  -1.430  -0.473  1.00  0.00    -0.493 OA
ATOM     29  C   UNL     1       0.858  -0.175  -0.169  1.00  0.00     0.278 C 
ENDBRANCH  22  28
BRANCH  24  30
ATOM     30  O   UNL     1      -1.370  -2.797  -1.866  1.00  0.00    -0.492 OA
ATOM     31  C   UNL     1      -2.414  -3.668  -2.236  1.00  0.00     0.278 C 
ENDBRANCH  24  30
ENDBRANCH  20  21
ENDBRANCH  11  19
ENDBRANCH   9  10
ENDBRANCH   7   9
ENDBRANCH   6   7
ENDBRANCH   5   6
ENDBRANCH   4   5
ENDBRANCH   3   4
ENDBRANCH   2   3
ENDBRANCH   1   2
BRANCH   1  32
ATOM     32  O   UNL     1       7.598  -3.192  -9.916  1.00  0.00    -0.377 OA
BRANCH  32  33
ATOM     33  C   UNL     1       8.382  -3.280 -11.087  1.00  0.00     0.188 C 
BRANCH  33  34
ATOM     34  C   UNL     1       7.489  -3.343 -12.329  1.00  0.00     0.188 C 
BRANCH  34  35
ATOM     35  O   UNL     1       6.152  -2.943 -12.049  1.00  0.00    -0.376 OA
BRANCH  35  36
ATOM     36  C   UNL     1       5.206  -3.945 -11.691  1.00  0.00     0.202 C 
BRANCH  36  37
ATOM     37  C   UNL     1       5.445  -4.937 -10.529  1.00  0.00     0.261 C 
BRANCH  37  38
ATOM     38  O   UNL     1       6.686  -5.657 -10.481  1.00  0.00    -0.460 OA
BRANCH  38  39
ATOM     39  C   UNL     1       7.008  -6.454 -11.515  1.00  0.00     0.338 C 
ATOM     40  O   UNL     1       6.329  -6.686 -12.502  1.00  0.00    -0.246 OA
BRANCH  39  41
ATOM     41  C   UNL     1       8.427  -6.846 -11.349  1.00  0.00     0.060 A 
ATOM     42  C   UNL     1       9.330  -6.542 -12.376  1.00  0.00     0.016 A 
ATOM     43  C   UNL     1       8.869  -7.490 -10.188  1.00  0.00     0.016 A 
ATOM     44  C   UNL     1      10.666  -6.924 -12.268  1.00  0.00     0.010 A 
ATOM     45  C   UNL     1      10.203  -7.901 -10.094  1.00  0.00     0.010 A 
ATOM     46  C   UNL     1      11.093  -7.662 -11.157  1.00  0.00    -0.014 A 
BRANCH  46  47
ATOM     47  C   UNL     1      12.366  -8.418 -11.254  1.00  0.00     0.031 A 
ATOM     48  C   UNL     1      12.286  -9.854 -11.706  1.00  0.00     0.074 A 
ATOM     49  C   UNL     1      13.558  -7.842 -11.023  1.00  0.00     0.049 A 
ATOM     50  N   UNL     1      13.242 -10.726 -11.884  1.00  0.00    -0.248 NA
ATOM     51  C   UNL     1      10.938 -10.373 -11.999  1.00  0.00     0.031 C 
ATOM     52  C   UNL     1      13.766  -6.450 -10.629  1.00  0.00     0.029 A 
ATOM     53  N   UNL     1      14.825  -8.366 -11.090  1.00  0.00    -0.354 N 
ATOM     54  C   UNL     1      12.613 -11.892 -12.306  1.00  0.00     0.074 A 
ATOM     55  C   UNL     1      11.192 -11.631 -12.319  1.00  0.00     0.031 C 
ATOM     56  C   UNL     1      15.086  -6.231 -10.483  1.00  0.00     0.029 A 
ATOM     57  C   UNL     1      15.813  -7.473 -10.746  1.00  0.00     0.049 A 
ATOM     58  H   UNL     1      15.010  -9.295 -11.359  1.00  0.00     0.167 HD
ATOM     59  C   UNL     1      13.169 -13.072 -12.667  1.00  0.00     0.037 A 
ATOM     60  C   UNL     1      17.146  -7.649 -10.644  1.00  0.00     0.037 A 
ATOM     61  C   UNL     1      14.584 -13.329 -12.648  1.00  0.00     0.049 A 
ATOM     62  C   UNL     1      17.738  -8.997 -10.980  1.00  0.00     0.074 A 
ATOM     63  C   UNL     1      15.252 -14.490 -12.992  1.00  0.00     0.029 A 
ATOM     64  N   UNL     1      15.549 -12.412 -12.259  1.00  0.00    -0.354 N 
ATOM     65  N   UNL     1      17.134 -10.088 -11.391  1.00  0.00    -0.248 NA
ATOM     66  C   UNL     1      19.195  -9.133 -10.848  1.00  0.00     0.031 C 
ATOM     67  C   UNL     1      16.617 -14.293 -12.758  1.00  0.00     0.029 A 
ATOM     68  C   UNL     1      16.806 -12.987 -12.333  1.00  0.00     0.049 A 
ATOM     69  H   UNL     1      15.366 -11.488 -11.972  1.00  0.00     0.167 HD
ATOM     70  C   UNL     1      18.141 -11.027 -11.602  1.00  0.00     0.074 A 
ATOM     71  C   UNL     1      19.392 -10.369 -11.286  1.00  0.00     0.031 C 
ATOM     72  C   UNL     1      18.043 -12.314 -12.022  1.00  0.00     0.037 A 
BRANCH  59  73
ATOM     73  C   UNL     1      12.239 -14.180 -13.083  1.00  0.00     0.058 A 
ATOM     74  C   UNL     1      11.517 -14.130 -14.287  1.00  0.00     0.135 A 
ATOM     75  C   UNL     1      12.082 -15.316 -12.274  1.00  0.00     0.135 A 
ATOM     76  F   UNL     1      11.609 -13.056 -15.088  1.00  0.00    -0.206 F 
ATOM     77  C   UNL     1      10.656 -15.156 -14.662  1.00  0.00     0.059 A 
ATOM     78  C   UNL     1      11.250 -16.368 -12.644  1.00  0.00     0.059 A 
ATOM     79  F   UNL     1      12.740 -15.412 -11.108  1.00  0.00    -0.206 F 
ATOM     80  C   UNL     1      10.531 -16.273 -13.834  1.00  0.00     0.060 A 
BRANCH  80  81
ATOM     81  S   UNL     1       9.420 -17.602 -14.342  1.00  0.00     0.124 S 
ATOM     82  O   UNL     1       8.114 -16.978 -14.154  1.00  0.00    -0.237 OA
ATOM     83  O   UNL     1       9.820 -17.829 -15.726  1.00  0.00    -0.237 OA
ATOM     84  O   UNL     1       9.737 -18.683 -13.415  1.00  0.00    -0.744 OA
ENDBRANCH  80  81
ENDBRANCH  59  73
BRANCH  60  85
ATOM     85  C   UNL     1      18.020  -6.528 -10.200  1.00  0.00     0.058 A 
ATOM     86  C   UNL     1      18.956  -5.945 -11.067  1.00  0.00     0.135 A 
ATOM     87  C   UNL     1      17.956  -6.035  -8.887  1.00  0.00     0.135 A 
ATOM     88  F   UNL     1      19.068  -6.388 -12.329  1.00  0.00    -0.206 F 
ATOM     89  C   UNL     1      19.811  -4.930 -10.646  1.00  0.00     0.059 A 
ATOM     90  C   UNL     1      18.779  -5.001  -8.450  1.00  0.00     0.059 A 
ATOM     91  F   UNL     1      17.074  -6.551  -8.017  1.00  0.00    -0.206 F 
ATOM     92  C   UNL     1      19.712  -4.463  -9.334  1.00  0.00     0.060 A 
BRANCH  92  93
ATOM     93  S   UNL     1      20.797  -3.118  -8.809  1.00  0.00     0.124 S 
ATOM     94  O   UNL     1      22.090  -3.790  -8.744  1.00  0.00    -0.237 OA
ATOM     95  O   UNL     1      20.632  -2.154  -9.892  1.00  0.00    -0.237 OA
ATOM     96  O   UNL     1      20.231  -2.711  -7.527  1.00  0.00    -0.744 OA
ENDBRANCH  92  93
ENDBRANCH  60  85
BRANCH  72  97
ATOM     97  C   UNL     1      19.325 -13.080 -12.218  1.00  0.00     0.058 A 
ATOM     98  C   UNL     1      20.131 -13.475 -11.139  1.00  0.00     0.135 A 
ATOM     99  C   UNL     1      19.738 -13.450 -13.510  1.00  0.00     0.135 A 
ATOM    100  F   UNL     1      19.786 -13.150  -9.883  1.00  0.00    -0.206 F 
ATOM    101  C   UNL     1      21.323 -14.167 -11.335  1.00  0.00     0.059 A 
ATOM    102  C   UNL     1      20.906 -14.173 -13.727  1.00  0.00     0.059 A 
ATOM    103  F   UNL     1      18.997 -13.116 -14.579  1.00  0.00    -0.206 F 
ATOM    104  C   UNL     1      21.703 -14.508 -12.634  1.00  0.00     0.060 A 
BRANCH 104 105
ATOM    105  S   UNL     1      23.251 -15.404 -12.877  1.00  0.00     0.124 S 
ATOM    106  O   UNL     1      24.237 -14.360 -12.618  1.00  0.00    -0.237 OA
ATOM    107  O   UNL     1      23.164 -16.457 -11.870  1.00  0.00    -0.237 OA
ATOM    108  O   UNL     1      23.168 -15.860 -14.261  1.00  0.00    -0.744 OA
ENDBRANCH 104 105
ENDBRANCH  72  97
ENDBRANCH  46  47
ENDBRANCH  39  41
ENDBRANCH  38  39
ENDBRANCH  37  38
ENDBRANCH  36  37
ENDBRANCH  35  36
ENDBRANCH  34  35
ENDBRANCH  33  34
ENDBRANCH  32  33
ENDBRANCH   1  32
TORSDOF 28
