REMARK SMILES C[C@H]1c2ccc(O)cc2OC(=O)[C@@H]1CC(=O)N[C@@H](CC1=c2ccccc2=NC1)C(=O)OCCOCCOCCOCCOC(=O)c1ccc(-c2c3nc(c(-c4c(F)cc(S(=O)(=O)[O-])cc4F)c4ccc([nH]4)c(-c4c(F)cc(S(=O)(=O)[O-])cc4F)c4nc(c(-c5c(F)cc(S(=O)(=O)[O-])cc5F)c5ccc2[nH]5)C=C4)C=C3)cc1
REMARK SMILES IDX 36 1 35 2 34 3 33 4 32 5 31 6 29 7 30 8 18 9 17 10 15 11
REMARK SMILES IDX 16 12 14 14 13 15 1 16 2 17 3 18 4 19 9 20 11 21 5 22 8 23
REMARK SMILES IDX 10 24 12 25 6 26 7 27 19 29 20 30 21 31 28 32 22 33 26 34
REMARK SMILES IDX 27 35 23 36 25 37 24 38 37 39 38 40 39 41 40 42 41 43 42 44
REMARK SMILES IDX 43 45 44 46 45 47 46 48 47 49 111 50 48 51 110 52 49 53
REMARK SMILES IDX 50 54 51 55 104 56 52 57 109 58 103 59 105 60 53 61 108 62
REMARK SMILES IDX 102 63 101 64 54 66 88 67 67 68 87 69 68 70 71 71 86 72
REMARK SMILES IDX 106 73 69 74 70 75 85 77 107 78 72 79 55 80 56 81 65 82
REMARK SMILES IDX 57 83 58 84 64 85 66 86 59 87 60 88 61 89 62 90 63 91 89 92
REMARK SMILES IDX 90 93 99 94 91 95 92 96 98 97 100 98 93 99 94 100 95 101
REMARK SMILES IDX 96 102 97 103 73 104 74 105 83 106 75 107 76 108 82 109
REMARK SMILES IDX 84 110 77 111 78 112 79 113 80 114 81 115
REMARK H PARENT 17 13 7 28 105 65 71 76
REMARK Flexibility Score: inf
ROOT
ATOM      1  C   UNL     1      -1.542  -4.957   4.628  1.00  0.00     0.188 C 
ENDROOT
BRANCH   1   2
ATOM      2  C   UNL     1      -2.846  -4.775   3.839  1.00  0.00     0.188 C 
BRANCH   2   3
ATOM      3  O   UNL     1      -3.815  -5.811   3.764  1.00  0.00    -0.376 OA
BRANCH   3   4
ATOM      4  C   UNL     1      -3.462  -7.150   3.433  1.00  0.00     0.202 C 
BRANCH   4   5
ATOM      5  C   UNL     1      -2.526  -7.489   2.267  1.00  0.00     0.261 C 
BRANCH   5   6
ATOM      6  O   UNL     1      -1.271  -6.796   2.286  1.00  0.00    -0.462 OA
BRANCH   6   7
ATOM      7  C   UNL     1      -1.137  -5.861   1.328  1.00  0.00     0.329 C 
ATOM      8  O   UNL     1      -1.963  -5.653   0.441  1.00  0.00    -0.250 OA
BRANCH   7   9
ATOM      9  C   UNL     1       0.179  -5.088   1.359  1.00  0.00     0.196 C 
BRANCH   9  10
ATOM     10  N   UNL     1       0.979  -4.714   2.538  1.00  0.00    -0.342 N 
ATOM     11  C   UNL     1       1.389  -3.471   2.951  1.00  0.00     0.221 C 
ATOM     12  O   UNL     1       2.333  -3.381   3.739  1.00  0.00    -0.275 OA
ATOM     13  H   UNL     1       1.260  -5.463   3.111  1.00  0.00     0.164 HD
BRANCH  11  14
ATOM     14  C   UNL     1       0.591  -2.221   2.581  1.00  0.00     0.116 C 
BRANCH  14  15
ATOM     15  C   UNL     1       1.006  -1.457   1.306  1.00  0.00     0.116 C 
ATOM     16  C   UNL     1       0.961   0.745   0.008  1.00  0.00     0.014 C 
ATOM     17  C   UNL     1       0.406  -0.029   1.213  1.00  0.00     0.034 C 
ATOM     18  C   UNL     1      -1.098  -0.129   1.110  1.00  0.00    -0.001 A 
ATOM     19  C   UNL     1      -1.955   0.876   1.567  1.00  0.00     0.011 A 
ATOM     20  C   UNL     1      -1.659  -1.281   0.555  1.00  0.00     0.138 A 
ATOM     21  C   UNL     1       0.536  -2.156   0.057  1.00  0.00     0.315 C 
ATOM     22  C   UNL     1      -3.342   0.683   1.529  1.00  0.00     0.047 A 
ATOM     23  C   UNL     1      -3.030  -1.514   0.565  1.00  0.00     0.093 A 
ATOM     24  O   UNL     1      -0.845  -2.227  -0.091  1.00  0.00    -0.426 OA
ATOM     25  O   UNL     1       1.300  -2.673  -0.748  1.00  0.00    -0.251 OA
ATOM     26  C   UNL     1      -3.864  -0.522   1.059  1.00  0.00     0.119 A 
BRANCH  26  27
ATOM     27  O   UNL     1      -5.206  -0.758   1.047  1.00  0.00    -0.508 OA
ATOM     28  H   UNL     1      -5.799  -0.110   1.373  1.00  0.00     0.293 HD
ENDBRANCH  26  27
ENDBRANCH  14  15
ENDBRANCH  11  14
ENDBRANCH   9  10
BRANCH   9  29
ATOM     29  C   UNL     1       1.061  -5.687   0.250  1.00  0.00     0.070 C 
BRANCH  29  30
ATOM     30  C   UNL     1       1.872  -6.970   0.504  1.00  0.00    -0.037 C 
ATOM     31  C   UNL     1       2.369  -7.241   1.717  1.00  0.00     0.001 A 
ATOM     32  C   UNL     1       3.053  -6.977  -0.453  1.00  0.00     0.174 C 
ATOM     33  C   UNL     1       2.178  -8.327   2.640  1.00  0.00     0.010 A 
ATOM     34  C   UNL     1       3.766  -6.770   1.568  1.00  0.00     0.065 A 
ATOM     35  N   UNL     1       4.201  -6.529   0.371  1.00  0.00    -0.280 NA
ATOM     36  C   UNL     1       3.049  -8.427   3.663  1.00  0.00     0.001 A 
ATOM     37  C   UNL     1       4.490  -6.622   2.844  1.00  0.00     0.028 A 
ATOM     38  C   UNL     1       4.099  -7.428   3.847  1.00  0.00     0.002 A 
ENDBRANCH  29  30
ENDBRANCH   9  29
ENDBRANCH   7   9
ENDBRANCH   6   7
ENDBRANCH   5   6
ENDBRANCH   4   5
ENDBRANCH   3   4
ENDBRANCH   2   3
ENDBRANCH   1   2
BRANCH   1  39
ATOM     39  O   UNL     1      -1.132  -6.297   4.783  1.00  0.00    -0.377 OA
BRANCH  39  40
ATOM     40  C   UNL     1      -1.369  -6.910   6.042  1.00  0.00     0.188 C 
BRANCH  40  41
ATOM     41  C   UNL     1      -2.641  -6.513   6.818  1.00  0.00     0.188 C 
BRANCH  41  42
ATOM     42  O   UNL     1      -2.786  -5.113   7.023  1.00  0.00    -0.376 OA
BRANCH  42  43
ATOM     43  C   UNL     1      -2.322  -4.561   8.247  1.00  0.00     0.202 C 
BRANCH  43  44
ATOM     44  C   UNL     1      -0.810  -4.602   8.520  1.00  0.00     0.261 C 
BRANCH  44  45
ATOM     45  O   UNL     1      -0.200  -5.899   8.626  1.00  0.00    -0.460 OA
BRANCH  45  46
ATOM     46  C   UNL     1      -0.735  -6.816   9.459  1.00  0.00     0.338 C 
ATOM     47  O   UNL     1      -1.656  -6.650  10.239  1.00  0.00    -0.246 OA
BRANCH  46  48
ATOM     48  C   UNL     1      -0.161  -8.130   9.086  1.00  0.00     0.060 A 
ATOM     49  C   UNL     1       1.223  -8.300   8.992  1.00  0.00     0.016 A 
ATOM     50  C   UNL     1      -1.024  -9.191   8.781  1.00  0.00     0.016 A 
ATOM     51  C   UNL     1       1.742  -9.547   8.635  1.00  0.00     0.010 A 
ATOM     52  C   UNL     1      -0.504 -10.433   8.408  1.00  0.00     0.010 A 
ATOM     53  C   UNL     1       0.883 -10.629   8.365  1.00  0.00    -0.014 A 
BRANCH  53  54
ATOM     54  C   UNL     1       1.439 -12.001   8.266  1.00  0.00     0.031 A 
ATOM     55  C   UNL     1       1.626 -12.705   6.957  1.00  0.00     0.074 A 
ATOM     56  C   UNL     1       1.767 -12.616   9.420  1.00  0.00     0.049 A 
ATOM     57  N   UNL     1       2.178 -13.869   6.729  1.00  0.00    -0.248 NA
ATOM     58  C   UNL     1       1.126 -12.027   5.753  1.00  0.00     0.031 C 
ATOM     59  C   UNL     1       1.589 -12.036  10.754  1.00  0.00     0.029 A 
ATOM     60  N   UNL     1       2.321 -13.845   9.662  1.00  0.00    -0.354 N 
ATOM     61  C   UNL     1       2.120 -14.060   5.355  1.00  0.00     0.074 A 
ATOM     62  C   UNL     1       1.432 -12.907   4.806  1.00  0.00     0.031 C 
ATOM     63  C   UNL     1       2.053 -12.896  11.671  1.00  0.00     0.029 A 
ATOM     64  C   UNL     1       2.537 -14.096  10.996  1.00  0.00     0.049 A 
ATOM     65  H   UNL     1       2.543 -14.488   8.949  1.00  0.00     0.167 HD
ATOM     66  C   UNL     1       2.612 -15.093   4.627  1.00  0.00     0.037 A 
ATOM     67  C   UNL     1       3.073 -15.166  11.611  1.00  0.00     0.037 A 
ATOM     68  C   UNL     1       3.272 -16.246   5.193  1.00  0.00     0.049 A 
ATOM     69  C   UNL     1       3.574 -16.314  10.782  1.00  0.00     0.074 A 
ATOM     70  C   UNL     1       3.839 -17.323   4.530  1.00  0.00     0.029 A 
ATOM     71  N   UNL     1       3.441 -16.485   6.550  1.00  0.00    -0.354 N 
ATOM     72  N   UNL     1       3.585 -16.440   9.477  1.00  0.00    -0.248 NA
ATOM     73  C   UNL     1       4.139 -17.460  11.505  1.00  0.00     0.031 C 
ATOM     74  C   UNL     1       4.300 -18.236   5.485  1.00  0.00     0.029 A 
ATOM     75  C   UNL     1       4.074 -17.704   6.744  1.00  0.00     0.049 A 
ATOM     76  H   UNL     1       3.154 -15.878   7.269  1.00  0.00     0.167 HD
ATOM     77  C   UNL     1       4.177 -17.672   9.221  1.00  0.00     0.074 A 
ATOM     78  C   UNL     1       4.525 -18.243  10.507  1.00  0.00     0.031 C 
ATOM     79  C   UNL     1       4.410 -18.272   8.028  1.00  0.00     0.037 A 
BRANCH  66  80
ATOM     80  C   UNL     1       2.474 -15.030   3.129  1.00  0.00     0.058 A 
ATOM     81  C   UNL     1       3.231 -14.127   2.364  1.00  0.00     0.135 A 
ATOM     82  C   UNL     1       1.650 -15.936   2.441  1.00  0.00     0.135 A 
ATOM     83  F   UNL     1       4.029 -13.232   2.970  1.00  0.00    -0.206 F 
ATOM     84  C   UNL     1       3.164 -14.113   0.975  1.00  0.00     0.059 A 
ATOM     85  C   UNL     1       1.585 -15.957   1.050  1.00  0.00     0.059 A 
ATOM     86  F   UNL     1       0.907 -16.824   3.120  1.00  0.00    -0.206 F 
ATOM     87  C   UNL     1       2.340 -15.035   0.326  1.00  0.00     0.060 A 
BRANCH  87  88
ATOM     88  S   UNL     1       2.273 -15.005  -1.478  1.00  0.00     0.124 S 
ATOM     89  O   UNL     1       1.599 -13.733  -1.722  1.00  0.00    -0.237 OA
ATOM     90  O   UNL     1       3.685 -15.055  -1.841  1.00  0.00    -0.237 OA
ATOM     91  O   UNL     1       1.499 -16.196  -1.811  1.00  0.00    -0.744 OA
ENDBRANCH  87  88
ENDBRANCH  66  80
BRANCH  67  92
ATOM     92  C   UNL     1       3.198 -15.172  13.092  1.00  0.00     0.058 A 
ATOM     93  C   UNL     1       4.453 -15.055  13.707  1.00  0.00     0.135 A 
ATOM     94  C   UNL     1       2.066 -15.245  13.918  1.00  0.00     0.135 A 
ATOM     95  F   UNL     1       5.563 -14.983  12.957  1.00  0.00    -0.206 F 
ATOM     96  C   UNL     1       4.583 -15.020  15.090  1.00  0.00     0.059 A 
ATOM     97  C   UNL     1       2.169 -15.185  15.304  1.00  0.00     0.059 A 
ATOM     98  F   UNL     1       0.842 -15.337  13.376  1.00  0.00    -0.206 F 
ATOM     99  C   UNL     1       3.434 -15.079  15.880  1.00  0.00     0.060 A 
BRANCH  99 100
ATOM    100  S   UNL     1       3.615 -14.973  17.673  1.00  0.00     0.124 S 
ATOM    101  O   UNL     1       4.247 -16.251  17.981  1.00  0.00    -0.237 OA
ATOM    102  O   UNL     1       4.457 -13.791  17.824  1.00  0.00    -0.237 OA
ATOM    103  O   UNL     1       2.241 -14.820  18.142  1.00  0.00    -0.744 OA
ENDBRANCH  99 100
ENDBRANCH  67  92
BRANCH  79 104
ATOM    104  C   UNL     1       5.079 -19.621   8.048  1.00  0.00     0.058 A 
ATOM    105  C   UNL     1       4.400 -20.771   8.479  1.00  0.00     0.135 A 
ATOM    106  C   UNL     1       6.392 -19.775   7.574  1.00  0.00     0.135 A 
ATOM    107  F   UNL     1       3.147 -20.680   8.952  1.00  0.00    -0.206 F 
ATOM    108  C   UNL     1       5.004 -22.025   8.455  1.00  0.00     0.059 A 
ATOM    109  C   UNL     1       7.006 -21.023   7.514  1.00  0.00     0.059 A 
ATOM    110  F   UNL     1       7.085 -18.709   7.144  1.00  0.00    -0.206 F 
ATOM    111  C   UNL     1       6.306 -22.142   7.964  1.00  0.00     0.060 A 
BRANCH 111 112
ATOM    112  S   UNL     1       7.057 -23.782   7.897  1.00  0.00     0.124 S 
ATOM    113  O   UNL     1       7.261 -24.072   9.312  1.00  0.00    -0.237 OA
ATOM    114  O   UNL     1       6.023 -24.569   7.232  1.00  0.00    -0.237 OA
ATOM    115  O   UNL     1       8.273 -23.569   7.119  1.00  0.00    -0.744 OA
ENDBRANCH 111 112
ENDBRANCH  79 104
ENDBRANCH  53  54
ENDBRANCH  46  48
ENDBRANCH  45  46
ENDBRANCH  44  45
ENDBRANCH  43  44
ENDBRANCH  42  43
ENDBRANCH  41  42
ENDBRANCH  40  41
ENDBRANCH  39  40
ENDBRANCH   1  39
TORSDOF 29
