REMARK SMILES [NH3+]CCOCC(=O)N1C[C@@H](C(=O)OCCOCCOCCOCCOC(=O)c2ccc(-c3c4nc(c(-c5c(F)cc(S(=O)(=O)[O-])cc5F)c5ccc([nH]5)c(-c5c(F)cc(S(=O)(=O)[O-])cc5F)c5nc(c(-c6c(F)cc(S(=O)(=O)[O-])cc6F)c6ccc3[nH]6)C=C5)C=C4)cc2)Oc2ccccc21
REMARK SMILES IDX 17 1 16 2 15 3 14 4 13 5 11 6 12 7 10 8 8 9 9 10 100 11
REMARK SMILES IDX 95 12 99 13 94 14 96 15 98 16 97 17 6 18 7 19 5 20 4 21 3 22
REMARK SMILES IDX 2 23 1 24 18 28 19 29 20 30 21 31 22 32 23 33 24 34 25 35
REMARK SMILES IDX 26 36 27 37 28 38 29 39 93 40 30 41 92 42 31 43 32 44 33 45
REMARK SMILES IDX 86 46 34 47 91 48 85 49 87 50 35 51 90 52 84 53 83 54 36 56
REMARK SMILES IDX 70 57 49 58 69 59 50 60 53 61 68 62 88 63 51 64 52 65 67 67
REMARK SMILES IDX 89 68 54 69 37 70 38 71 47 72 39 73 40 74 46 75 48 76 41 77
REMARK SMILES IDX 42 78 43 79 44 80 45 81 71 82 72 83 81 84 73 85 74 86 80 87
REMARK SMILES IDX 82 88 75 89 76 90 77 91 78 92 79 93 55 94 56 95 65 96 57 97
REMARK SMILES IDX 58 98 64 99 66 100 59 101 60 102 61 103 62 104 63 105
REMARK H PARENT 1 25 1 26 1 27 87 55 53 66
REMARK Flexibility Score: inf
ROOT
ATOM      1  C   UNL     1       6.143  -4.435  -3.110  1.00  0.00     0.188 C 
ENDROOT
BRANCH   1   2
ATOM      2  O   UNL     1       6.247  -3.087  -3.553  1.00  0.00    -0.376 OA
BRANCH   2   3
ATOM      3  C   UNL     1       6.402  -1.980  -2.677  1.00  0.00     0.202 C 
BRANCH   3   4
ATOM      4  C   UNL     1       5.473  -1.740  -1.479  1.00  0.00     0.261 C 
BRANCH   4   5
ATOM      5  O   UNL     1       5.152  -2.887  -0.691  1.00  0.00    -0.460 OA
BRANCH   5   6
ATOM      6  C   UNL     1       4.054  -3.579  -1.066  1.00  0.00     0.349 C 
ATOM      7  O   UNL     1       3.331  -3.281  -2.013  1.00  0.00    -0.248 OA
BRANCH   6   8
ATOM      8  C   UNL     1       3.783  -4.810  -0.188  1.00  0.00     0.302 C 
ATOM      9  N   UNL     1       2.829  -3.452   1.571  1.00  0.00    -0.303 N 
ATOM     10  C   UNL     1       2.529  -4.526   0.617  1.00  0.00     0.183 C 
ATOM     11  C   UNL     1       4.054  -3.659   2.291  1.00  0.00     0.086 A 
ATOM     12  C   UNL     1       4.955  -4.644   1.841  1.00  0.00     0.144 A 
ATOM     13  C   UNL     1       4.363  -2.970   3.466  1.00  0.00     0.030 A 
ATOM     14  O   UNL     1       4.796  -5.333   0.663  1.00  0.00    -0.475 OA
ATOM     15  C   UNL     1       6.101  -4.968   2.571  1.00  0.00     0.049 A 
ATOM     16  C   UNL     1       5.514  -3.291   4.197  1.00  0.00     0.002 A 
ATOM     17  C   UNL     1       6.376  -4.295   3.758  1.00  0.00     0.004 A 
BRANCH   9  18
ATOM     18  C   UNL     1       2.115  -2.258   1.610  1.00  0.00     0.253 C 
ATOM     19  O   UNL     1       2.590  -1.180   1.972  1.00  0.00    -0.272 OA
BRANCH  18  20
ATOM     20  C   UNL     1       0.628  -2.323   1.195  1.00  0.00     0.260 C 
BRANCH  20  21
ATOM     21  O   UNL     1       0.225  -2.529  -0.143  1.00  0.00    -0.366 OA
BRANCH  21  22
ATOM     22  C   UNL     1       0.881  -1.727  -1.124  1.00  0.00     0.222 C 
BRANCH  22  23
ATOM     23  C   UNL     1       0.349  -0.296  -1.247  1.00  0.00     0.287 C 
BRANCH  23  24
ATOM     24  N   UNL     1       0.927   0.635  -0.280  1.00  0.00    -0.356 N 
ATOM     25  H   UNL     1       0.528   1.563  -0.420  1.00  0.00     0.344 HD
ATOM     26  H   UNL     1       1.938   0.676  -0.410  1.00  0.00     0.344 HD
ATOM     27  H   UNL     1       0.719   0.315   0.666  1.00  0.00     0.344 HD
ENDBRANCH  23  24
ENDBRANCH  22  23
ENDBRANCH  21  22
ENDBRANCH  20  21
ENDBRANCH  18  20
ENDBRANCH   9  18
ENDBRANCH   6   8
ENDBRANCH   5   6
ENDBRANCH   4   5
ENDBRANCH   3   4
ENDBRANCH   2   3
ENDBRANCH   1   2
BRANCH   1  28
ATOM     28  C   UNL     1       6.882  -4.972  -1.868  1.00  0.00     0.188 C 
BRANCH  28  29
ATOM     29  O   UNL     1       7.524  -3.985  -1.093  1.00  0.00    -0.377 OA
BRANCH  29  30
ATOM     30  C   UNL     1       8.902  -3.753  -1.353  1.00  0.00     0.188 C 
BRANCH  30  31
ATOM     31  C   UNL     1       9.396  -3.849  -2.814  1.00  0.00     0.188 C 
BRANCH  31  32
ATOM     32  O   UNL     1       8.939  -4.998  -3.515  1.00  0.00    -0.376 OA
BRANCH  32  33
ATOM     33  C   UNL     1       9.797  -6.122  -3.634  1.00  0.00     0.202 C 
BRANCH  33  34
ATOM     34  C   UNL     1      10.159  -6.886  -2.349  1.00  0.00     0.261 C 
BRANCH  34  35
ATOM     35  O   UNL     1      10.772  -6.118  -1.305  1.00  0.00    -0.460 OA
BRANCH  35  36
ATOM     36  C   UNL     1      11.930  -5.495  -1.603  1.00  0.00     0.338 C 
ATOM     37  O   UNL     1      12.547  -5.565  -2.655  1.00  0.00    -0.246 OA
BRANCH  36  38
ATOM     38  C   UNL     1      12.241  -4.544  -0.518  1.00  0.00     0.060 A 
ATOM     39  C   UNL     1      12.438  -3.196  -0.845  1.00  0.00     0.016 A 
ATOM     40  C   UNL     1      12.371  -4.981   0.802  1.00  0.00     0.016 A 
ATOM     41  C   UNL     1      12.850  -2.295   0.135  1.00  0.00     0.010 A 
ATOM     42  C   UNL     1      12.803  -4.082   1.780  1.00  0.00     0.010 A 
ATOM     43  C   UNL     1      13.104  -2.752   1.434  1.00  0.00    -0.014 A 
BRANCH  43  44
ATOM     44  C   UNL     1      13.949  -1.926   2.330  1.00  0.00     0.031 A 
ATOM     45  C   UNL     1      15.421  -2.248   2.394  1.00  0.00     0.074 A 
ATOM     46  C   UNL     1      13.448  -0.886   3.018  1.00  0.00     0.049 A 
ATOM     47  N   UNL     1      16.363  -1.699   3.114  1.00  0.00    -0.248 NA
ATOM     48  C   UNL     1      15.891  -3.343   1.527  1.00  0.00     0.031 C 
ATOM     49  C   UNL     1      12.055  -0.444   2.992  1.00  0.00     0.029 A 
ATOM     50  N   UNL     1      14.063  -0.013   3.879  1.00  0.00    -0.354 N 
ATOM     51  C   UNL     1      17.530  -2.384   2.793  1.00  0.00     0.074 A 
ATOM     52  C   UNL     1      17.172  -3.416   1.847  1.00  0.00     0.031 C 
ATOM     53  C   UNL     1      11.920   0.616   3.809  1.00  0.00     0.029 A 
ATOM     54  C   UNL     1      13.208   0.906   4.439  1.00  0.00     0.049 A 
ATOM     55  H   UNL     1      15.027  -0.041   4.077  1.00  0.00     0.167 HD
ATOM     56  C   UNL     1      18.790  -2.165   3.236  1.00  0.00     0.037 A 
ATOM     57  C   UNL     1      13.440   1.856   5.367  1.00  0.00     0.037 A 
ATOM     58  C   UNL     1      19.138  -1.134   4.176  1.00  0.00     0.049 A 
ATOM     59  C   UNL     1      14.839   2.033   5.905  1.00  0.00     0.074 A 
ATOM     60  C   UNL     1      20.384  -0.826   4.693  1.00  0.00     0.029 A 
ATOM     61  N   UNL     1      18.238  -0.244   4.744  1.00  0.00    -0.354 N 
ATOM     62  N   UNL     1      15.935   1.381   5.592  1.00  0.00    -0.248 NA
ATOM     63  C   UNL     1      15.036   3.082   6.916  1.00  0.00     0.031 C 
ATOM     64  C   UNL     1      20.229   0.213   5.614  1.00  0.00     0.029 A 
ATOM     65  C   UNL     1      18.898   0.601   5.620  1.00  0.00     0.049 A 
ATOM     66  H   UNL     1      17.273  -0.217   4.552  1.00  0.00     0.167 HD
ATOM     67  C   UNL     1      16.956   1.971   6.334  1.00  0.00     0.074 A 
ATOM     68  C   UNL     1      16.347   3.033   7.107  1.00  0.00     0.031 C 
ATOM     69  C   UNL     1      18.279   1.668   6.367  1.00  0.00     0.037 A 
BRANCH  56  70
ATOM     70  C   UNL     1      19.876  -3.076   2.731  1.00  0.00     0.058 A 
ATOM     71  C   UNL     1      20.318  -3.037   1.398  1.00  0.00     0.135 A 
ATOM     72  C   UNL     1      20.502  -3.984   3.600  1.00  0.00     0.135 A 
ATOM     73  F   UNL     1      19.739  -2.205   0.517  1.00  0.00    -0.206 F 
ATOM     74  C   UNL     1      21.324  -3.881   0.940  1.00  0.00     0.059 A 
ATOM     75  C   UNL     1      21.532  -4.815   3.171  1.00  0.00     0.059 A 
ATOM     76  F   UNL     1      20.114  -4.070   4.882  1.00  0.00    -0.206 F 
ATOM     77  C   UNL     1      21.928  -4.765   1.836  1.00  0.00     0.060 A 
BRANCH  77  78
ATOM     78  S   UNL     1      23.241  -5.844   1.229  1.00  0.00     0.124 S 
ATOM     79  O   UNL     1      22.490  -6.772   0.388  1.00  0.00    -0.237 OA
ATOM     80  O   UNL     1      24.109  -4.909   0.521  1.00  0.00    -0.237 OA
ATOM     81  O   UNL     1      23.802  -6.418   2.448  1.00  0.00    -0.744 OA
ENDBRANCH  77  78
ENDBRANCH  56  70
BRANCH  57  82
ATOM     82  C   UNL     1      12.325   2.713   5.857  1.00  0.00     0.058 A 
ATOM     83  C   UNL     1      12.293   4.090   5.590  1.00  0.00     0.135 A 
ATOM     84  C   UNL     1      11.278   2.174   6.623  1.00  0.00     0.135 A 
ATOM     85  F   UNL     1      13.275   4.657   4.873  1.00  0.00    -0.206 F 
ATOM     86  C   UNL     1      11.279   4.906   6.082  1.00  0.00     0.059 A 
ATOM     87  C   UNL     1      10.237   2.965   7.101  1.00  0.00     0.059 A 
ATOM     88  F   UNL     1      11.254   0.862   6.902  1.00  0.00    -0.206 F 
ATOM     89  C   UNL     1      10.254   4.333   6.836  1.00  0.00     0.060 A 
BRANCH  89  90
ATOM     90  S   UNL     1       8.928   5.397   7.445  1.00  0.00     0.124 S 
ATOM     91  O   UNL     1       9.617   6.165   8.475  1.00  0.00    -0.237 OA
ATOM     92  O   UNL     1       8.552   6.133   6.242  1.00  0.00    -0.237 OA
ATOM     93  O   UNL     1       7.930   4.447   7.927  1.00  0.00    -0.744 OA
ENDBRANCH  89  90
ENDBRANCH  57  82
BRANCH  69  94
ATOM     94  C   UNL     1      19.175   2.534   7.211  1.00  0.00     0.058 A 
ATOM     95  C   UNL     1      19.142   2.503   8.614  1.00  0.00     0.135 A 
ATOM     96  C   UNL     1      20.125   3.371   6.598  1.00  0.00     0.135 A 
ATOM     97  F   UNL     1      18.255   1.724   9.252  1.00  0.00    -0.206 F 
ATOM     98  C   UNL     1      19.995   3.294   9.378  1.00  0.00     0.059 A 
ATOM     99  C   UNL     1      21.010   4.143   7.343  1.00  0.00     0.059 A 
ATOM    100  F   UNL     1      20.212   3.429   5.260  1.00  0.00    -0.206 F 
ATOM    101  C   UNL     1      20.927   4.110   8.733  1.00  0.00     0.060 A 
BRANCH 101 102
ATOM    102  S   UNL     1      22.044   5.111   9.738  1.00  0.00     0.124 S 
ATOM    103  O   UNL     1      21.140   6.135  10.250  1.00  0.00    -0.237 OA
ATOM    104  O   UNL     1      22.530   4.146  10.719  1.00  0.00    -0.237 OA
ATOM    105  O   UNL     1      23.041   5.576   8.778  1.00  0.00    -0.744 OA
ENDBRANCH 101 102
ENDBRANCH  69  94
ENDBRANCH  43  44
ENDBRANCH  36  38
ENDBRANCH  35  36
ENDBRANCH  34  35
ENDBRANCH  33  34
ENDBRANCH  32  33
ENDBRANCH  31  32
ENDBRANCH  30  31
ENDBRANCH  29  30
ENDBRANCH  28  29
ENDBRANCH   1  28
TORSDOF 29
