REMARK SMILES O=C(OCCOCCOCCOCCOC(=O)[C@@H](Cc1ccccc1Br)CC(F)(F)F)c1ccc(-c2c3nc(c(-c4c(F)cc(S(=O)(=O)[O-])cc4F)c4ccc([nH]4)c(-c4c(F)cc(S(=O)(=O)[O-])cc4F)c4nc(c(-c5c(F)cc(S(=O)(=O)[O-])cc5F)c5ccc2[nH]5)C=C4)C=C3)cc1
REMARK SMILES IDX 8 1 7 2 6 3 5 4 4 5 3 6 2 7 1 8 32 9 33 10 97 11 34 12 96 13
REMARK SMILES IDX 35 14 36 15 37 16 90 17 38 18 95 19 89 20 91 21 39 22 94 23
REMARK SMILES IDX 88 24 87 25 40 27 74 28 53 29 73 30 54 31 57 32 72 33 92 34
REMARK SMILES IDX 55 35 56 36 71 38 93 39 58 40 41 41 42 42 51 43 43 44 44 45
REMARK SMILES IDX 50 46 52 47 45 48 46 49 47 50 48 51 49 52 75 53 76 54 85 55
REMARK SMILES IDX 77 56 78 57 84 58 86 59 79 60 80 61 81 62 82 63 83 64 59 65
REMARK SMILES IDX 60 66 69 67 61 68 62 69 68 70 70 71 63 72 64 73 65 74 66 75
REMARK SMILES IDX 67 76 9 77 10 78 11 79 12 80 13 81 14 82 15 83 16 84 17 85
REMARK SMILES IDX 18 86 19 87 20 88 21 89 25 90 22 91 24 92 26 93 23 94 27 95
REMARK SMILES IDX 28 96 29 97 30 98 31 99
REMARK H PARENT 91 26 57 37
REMARK Flexibility Score: inf
ROOT
ATOM      1  C   UNL     1       2.255  -2.578   0.653  1.00  0.00     0.188 C 
ENDROOT
BRANCH   1   2
ATOM      2  C   UNL     1       2.525  -1.121   0.969  1.00  0.00     0.188 C 
BRANCH   2   3
ATOM      3  O   UNL     1       3.802  -0.799   0.443  1.00  0.00    -0.376 OA
BRANCH   3   4
ATOM      4  C   UNL     1       4.585   0.123   1.186  1.00  0.00     0.202 C 
BRANCH   4   5
ATOM      5  C   UNL     1       4.160   1.579   1.006  1.00  0.00     0.261 C 
BRANCH   5   6
ATOM      6  O   UNL     1       2.759   1.733   0.722  1.00  0.00    -0.460 OA
BRANCH   6   7
ATOM      7  C   UNL     1       2.159   1.821  -0.494  1.00  0.00     0.338 C 
ATOM      8  O   UNL     1       0.963   2.110  -0.532  1.00  0.00    -0.246 OA
BRANCH   7   9
ATOM      9  C   UNL     1       2.852   1.567  -1.796  1.00  0.00     0.060 A 
ATOM     10  C   UNL     1       3.950   0.727  -1.965  1.00  0.00     0.016 A 
ATOM     11  C   UNL     1       2.303   2.150  -2.949  1.00  0.00     0.016 A 
ATOM     12  C   UNL     1       4.524   0.491  -3.196  1.00  0.00     0.010 A 
ATOM     13  C   UNL     1       2.873   1.925  -4.208  1.00  0.00     0.010 A 
ATOM     14  C   UNL     1       4.006   1.111  -4.319  1.00  0.00    -0.014 A 
BRANCH  14  15
ATOM     15  C   UNL     1       4.849   1.067  -5.521  1.00  0.00     0.031 A 
ATOM     16  C   UNL     1       5.665   2.286  -5.818  1.00  0.00     0.074 A 
ATOM     17  C   UNL     1       5.027  -0.096  -6.172  1.00  0.00     0.049 A 
ATOM     18  N   UNL     1       6.422   2.546  -6.843  1.00  0.00    -0.248 NA
ATOM     19  C   UNL     1       5.634   3.358  -4.803  1.00  0.00     0.031 C 
ATOM     20  C   UNL     1       4.420  -1.377  -5.796  1.00  0.00     0.029 A 
ATOM     21  N   UNL     1       5.797  -0.399  -7.260  1.00  0.00    -0.354 N 
ATOM     22  C   UNL     1       6.909   3.829  -6.628  1.00  0.00     0.074 A 
ATOM     23  C   UNL     1       6.378   4.293  -5.369  1.00  0.00     0.031 C 
ATOM     24  C   UNL     1       4.841  -2.328  -6.645  1.00  0.00     0.029 A 
ATOM     25  C   UNL     1       5.673  -1.706  -7.667  1.00  0.00     0.049 A 
ATOM     26  H   UNL     1       6.382   0.254  -7.707  1.00  0.00     0.167 HD
ATOM     27  C   UNL     1       7.713   4.552  -7.438  1.00  0.00     0.037 A 
ATOM     28  C   UNL     1       6.136  -2.300  -8.782  1.00  0.00     0.037 A 
ATOM     29  C   UNL     1       8.217   4.030  -8.677  1.00  0.00     0.049 A 
ATOM     30  C   UNL     1       6.937  -1.446  -9.729  1.00  0.00     0.074 A 
ATOM     31  C   UNL     1       8.969   4.662  -9.645  1.00  0.00     0.029 A 
ATOM     32  N   UNL     1       8.007   2.724  -9.112  1.00  0.00    -0.354 N 
ATOM     33  N   UNL     1       7.303  -0.191  -9.592  1.00  0.00    -0.248 NA
ATOM     34  C   UNL     1       7.369  -2.068 -10.984  1.00  0.00     0.031 C 
ATOM     35  C   UNL     1       9.171   3.752 -10.690  1.00  0.00     0.029 A 
ATOM     36  C   UNL     1       8.597   2.535 -10.345  1.00  0.00     0.049 A 
ATOM     37  H   UNL     1       7.511   2.036  -8.613  1.00  0.00     0.167 HD
ATOM     38  C   UNL     1       8.020   0.127 -10.737  1.00  0.00     0.074 A 
ATOM     39  C   UNL     1       8.050  -1.078 -11.547  1.00  0.00     0.031 C 
ATOM     40  C   UNL     1       8.598   1.301 -11.097  1.00  0.00     0.037 A 
BRANCH  27  41
ATOM     41  C   UNL     1       7.974   5.978  -7.046  1.00  0.00     0.058 A 
ATOM     42  C   UNL     1       8.780   6.327  -5.950  1.00  0.00     0.135 A 
ATOM     43  C   UNL     1       7.338   7.019  -7.744  1.00  0.00     0.135 A 
ATOM     44  F   UNL     1       9.378   5.372  -5.219  1.00  0.00    -0.206 F 
ATOM     45  C   UNL     1       8.916   7.650  -5.538  1.00  0.00     0.059 A 
ATOM     46  C   UNL     1       7.481   8.350  -7.367  1.00  0.00     0.059 A 
ATOM     47  F   UNL     1       6.538   6.743  -8.786  1.00  0.00    -0.206 F 
ATOM     48  C   UNL     1       8.258   8.655  -6.250  1.00  0.00     0.060 A 
BRANCH  48  49
ATOM     49  S   UNL     1       8.418  10.363  -5.689  1.00  0.00     0.124 S 
ATOM     50  O   UNL     1       7.601  10.350  -4.479  1.00  0.00    -0.237 OA
ATOM     51  O   UNL     1       9.857  10.489  -5.480  1.00  0.00    -0.237 OA
ATOM     52  O   UNL     1       7.878  11.139  -6.801  1.00  0.00    -0.744 OA
ENDBRANCH  48  49
ENDBRANCH  27  41
BRANCH  28  53
ATOM     53  C   UNL     1       5.776  -3.712  -9.089  1.00  0.00     0.058 A 
ATOM     54  C   UNL     1       6.744  -4.724  -9.159  1.00  0.00     0.135 A 
ATOM     55  C   UNL     1       4.437  -4.083  -9.309  1.00  0.00     0.135 A 
ATOM     56  F   UNL     1       8.038  -4.428  -8.966  1.00  0.00    -0.206 F 
ATOM     57  C   UNL     1       6.402  -6.045  -9.443  1.00  0.00     0.059 A 
ATOM     58  C   UNL     1       4.067  -5.400  -9.565  1.00  0.00     0.059 A 
ATOM     59  F   UNL     1       3.463  -3.161  -9.249  1.00  0.00    -0.206 F 
ATOM     60  C   UNL     1       5.059  -6.374  -9.642  1.00  0.00     0.060 A 
BRANCH  60  61
ATOM     61  S   UNL     1       4.620  -8.094  -9.977  1.00  0.00     0.124 S 
ATOM     62  O   UNL     1       5.117  -8.263 -11.341  1.00  0.00    -0.237 OA
ATOM     63  O   UNL     1       5.354  -8.807  -8.938  1.00  0.00    -0.237 OA
ATOM     64  O   UNL     1       3.169  -8.106  -9.831  1.00  0.00    -0.744 OA
ENDBRANCH  60  61
ENDBRANCH  28  53
BRANCH  40  65
ATOM     65  C   UNL     1       9.337   1.315 -12.401  1.00  0.00     0.058 A 
ATOM     66  C   UNL     1       8.660   1.332 -13.629  1.00  0.00     0.135 A 
ATOM     67  C   UNL     1      10.738   1.397 -12.411  1.00  0.00     0.135 A 
ATOM     68  F   UNL     1       7.321   1.249 -13.665  1.00  0.00    -0.206 F 
ATOM     69  C   UNL     1       9.352   1.413 -14.830  1.00  0.00     0.059 A 
ATOM     70  C   UNL     1      11.448   1.509 -13.599  1.00  0.00     0.059 A 
ATOM     71  F   UNL     1      11.425   1.397 -11.258  1.00  0.00    -0.206 F 
ATOM     72  C   UNL     1      10.745   1.508 -14.803  1.00  0.00     0.060 A 
BRANCH  72  73
ATOM     73  S   UNL     1      11.628   1.670 -16.367  1.00  0.00     0.124 S 
ATOM     74  O   UNL     1      11.530   0.315 -16.899  1.00  0.00    -0.237 OA
ATOM     75  O   UNL     1      10.843   2.684 -17.064  1.00  0.00    -0.237 OA
ATOM     76  O   UNL     1      12.965   2.091 -15.960  1.00  0.00    -0.744 OA
ENDBRANCH  72  73
ENDBRANCH  40  65
ENDBRANCH  14  15
ENDBRANCH   7   9
ENDBRANCH   6   7
ENDBRANCH   5   6
ENDBRANCH   4   5
ENDBRANCH   3   4
ENDBRANCH   2   3
ENDBRANCH   1   2
BRANCH   1  77
ATOM     77  O   UNL     1       3.180  -3.481   1.253  1.00  0.00    -0.377 OA
BRANCH  77  78
ATOM     78  C   UNL     1       4.560  -3.365   0.932  1.00  0.00     0.188 C 
BRANCH  78  79
ATOM     79  C   UNL     1       5.004  -3.714  -0.489  1.00  0.00     0.188 C 
BRANCH  79  80
ATOM     80  O   UNL     1       3.993  -3.744  -1.465  1.00  0.00    -0.376 OA
BRANCH  80  81
ATOM     81  C   UNL     1       3.137  -4.869  -1.608  1.00  0.00     0.202 C 
BRANCH  81  82
ATOM     82  C   UNL     1       3.103  -6.138  -0.722  1.00  0.00     0.261 C 
BRANCH  82  83
ATOM     83  O   UNL     1       3.147  -6.024   0.718  1.00  0.00    -0.463 OA
BRANCH  83  84
ATOM     84  C   UNL     1       4.323  -6.383   1.278  1.00  0.00     0.309 C 
ATOM     85  O   UNL     1       5.306  -6.725   0.623  1.00  0.00    -0.252 OA
BRANCH  84  86
ATOM     86  C   UNL     1       4.404  -6.407   2.805  1.00  0.00     0.112 C 
BRANCH  86  87
ATOM     87  C   UNL     1       3.791  -5.303   3.708  1.00  0.00     0.052 C 
BRANCH  87  88
ATOM     88  C   UNL     1       2.339  -4.878   3.699  1.00  0.00    -0.033 A 
ATOM     89  C   UNL     1       1.315  -5.781   3.395  1.00  0.00     0.005 A 
ATOM     90  C   UNL     1       1.957  -3.554   4.035  1.00  0.00     0.021 A 
ATOM     91  C   UNL     1      -0.023  -5.372   3.345  1.00  0.00     0.000 A 
ATOM     92  C   UNL     1       0.623  -3.136   3.941  1.00  0.00     0.016 A 
ATOM     93  Br  UNL     1       3.199  -2.240   4.650  1.00  0.00    -0.051 Br
ATOM     94  C   UNL     1      -0.366  -4.046   3.587  1.00  0.00     0.001 A 
ENDBRANCH  87  88
ENDBRANCH  86  87
BRANCH  86  95
ATOM     95  C   UNL     1       4.242  -7.820   3.376  1.00  0.00     0.131 C 
BRANCH  95  96
ATOM     96  C   UNL     1       5.031  -8.882   2.630  1.00  0.00     0.389 C 
ATOM     97  F   UNL     1       6.320  -8.527   2.467  1.00  0.00    -0.171 F 
ATOM     98  F   UNL     1       5.019 -10.033   3.344  1.00  0.00    -0.171 F 
ATOM     99  F   UNL     1       4.484  -9.154   1.430  1.00  0.00    -0.171 F 
ENDBRANCH  95  96
ENDBRANCH  86  95
ENDBRANCH  84  86
ENDBRANCH  83  84
ENDBRANCH  82  83
ENDBRANCH  81  82
ENDBRANCH  80  81
ENDBRANCH  79  80
ENDBRANCH  78  79
ENDBRANCH  77  78
ENDBRANCH   1  77
TORSDOF 27
