REMARK SMILES CC(C)[C@H](NC(=O)[C@H](C)NC(=O)C[NH3+])C(=O)OCCOCCOCCOCCOC(=O)c1ccc(-c2c3nc(c(-c4c(F)cc(S(=O)(=O)[O-])cc4F)c4ccc([nH]4)c(-c4c(F)cc(S(=O)(=O)[O-])cc4F)c4nc(c(-c5c(F)cc(S(=O)(=O)[O-])cc5F)c5ccc2[nH]5)C=C4)C=C3)cc1
REMARK SMILES IDX 22 1 21 2 20 3 19 4 18 5 17 6 15 7 16 8 4 9 2 10 1 11 3 12
REMARK SMILES IDX 5 13 6 14 7 16 8 17 9 18 10 19 11 20 12 22 13 23 14 24 23 28
REMARK SMILES IDX 24 29 25 30 26 31 27 32 28 33 29 34 30 35 31 36 32 37 33 38
REMARK SMILES IDX 97 39 34 40 96 41 35 42 36 43 37 44 90 45 38 46 95 47 89 48
REMARK SMILES IDX 91 49 39 50 94 51 88 52 87 53 40 55 74 56 53 57 73 58 54 59
REMARK SMILES IDX 57 60 72 61 92 62 55 63 56 64 71 66 93 67 58 68 41 69 42 70
REMARK SMILES IDX 51 71 43 72 44 73 50 74 52 75 45 76 46 77 47 78 48 79 49 80
REMARK SMILES IDX 75 81 76 82 85 83 77 84 78 85 84 86 86 87 79 88 80 89 81 90
REMARK SMILES IDX 82 91 83 92 59 93 60 94 69 95 61 96 62 97 68 98 70 99 63 100
REMARK SMILES IDX 64 101 65 102 66 103 67 104
REMARK H PARENT 5 15 10 21 14 25 14 26 14 27 91 54 57 65
REMARK Flexibility Score: inf
ROOT
ATOM      1  C   UNL     1       1.185  -3.299  -3.580  1.00  0.00     0.188 C 
ENDROOT
BRANCH   1   2
ATOM      2  C   UNL     1       2.663  -2.846  -3.641  1.00  0.00     0.188 C 
BRANCH   2   3
ATOM      3  O   UNL     1       3.614  -3.865  -3.857  1.00  0.00    -0.376 OA
BRANCH   3   4
ATOM      4  C   UNL     1       4.063  -4.745  -2.846  1.00  0.00     0.202 C 
BRANCH   4   5
ATOM      5  C   UNL     1       3.367  -4.970  -1.495  1.00  0.00     0.261 C 
BRANCH   5   6
ATOM      6  O   UNL     1       2.317  -4.072  -1.125  1.00  0.00    -0.462 OA
BRANCH   6   7
ATOM      7  C   UNL     1       2.665  -2.898  -0.549  1.00  0.00     0.328 C 
ATOM      8  O   UNL     1       3.822  -2.562  -0.326  1.00  0.00    -0.250 OA
BRANCH   7   9
ATOM      9  C   UNL     1       1.431  -2.101  -0.050  1.00  0.00     0.194 C 
BRANCH   9  10
ATOM     10  C   UNL     1       0.987  -2.720   1.321  1.00  0.00     0.017 C 
ATOM     11  C   UNL     1       0.155  -4.013   1.210  1.00  0.00     0.010 C 
ATOM     12  C   UNL     1       2.178  -2.988   2.251  1.00  0.00     0.010 C 
ENDBRANCH   9  10
BRANCH   9  13
ATOM     13  N   UNL     1       0.233  -1.930  -0.914  1.00  0.00    -0.341 N 
ATOM     14  C   UNL     1      -0.260  -0.959  -1.736  1.00  0.00     0.243 C 
ATOM     15  H   UNL     1      -0.354  -2.720  -0.887  1.00  0.00     0.164 HD
ATOM     16  O   UNL     1      -1.485  -1.018  -1.923  1.00  0.00    -0.273 OA
BRANCH  14  17
ATOM     17  C   UNL     1       0.590   0.081  -2.527  1.00  0.00     0.168 C 
ATOM     18  C   UNL     1       1.360   1.048  -1.652  1.00  0.00     0.041 C 
BRANCH  17  19
ATOM     19  N   UNL     1      -0.337   0.870  -3.369  1.00  0.00    -0.340 N 
ATOM     20  C   UNL     1      -0.235   1.350  -4.640  1.00  0.00     0.275 C 
ATOM     21  H   UNL     1      -1.188   1.091  -2.927  1.00  0.00     0.164 HD
ATOM     22  O   UNL     1      -1.094   2.143  -5.038  1.00  0.00    -0.268 OA
BRANCH  20  23
ATOM     23  C   UNL     1       0.829   0.833  -5.602  1.00  0.00     0.360 C 
BRANCH  23  24
ATOM     24  N   UNL     1       2.200   0.945  -5.089  1.00  0.00    -0.350 N 
ATOM     25  H   UNL     1       2.427   1.927  -4.936  1.00  0.00     0.344 HD
ATOM     26  H   UNL     1       2.850   0.547  -5.767  1.00  0.00     0.344 HD
ATOM     27  H   UNL     1       2.276   0.437  -4.207  1.00  0.00     0.344 HD
ENDBRANCH  23  24
ENDBRANCH  20  23
ENDBRANCH  17  19
ENDBRANCH  14  17
ENDBRANCH   9  13
ENDBRANCH   7   9
ENDBRANCH   6   7
ENDBRANCH   5   6
ENDBRANCH   4   5
ENDBRANCH   3   4
ENDBRANCH   2   3
ENDBRANCH   1   2
BRANCH   1  28
ATOM     28  O   UNL     1       0.645  -4.019  -4.664  1.00  0.00    -0.377 OA
BRANCH  28  29
ATOM     29  C   UNL     1       1.381  -5.153  -5.045  1.00  0.00     0.188 C 
BRANCH  29  30
ATOM     30  C   UNL     1       2.232  -4.900  -6.295  1.00  0.00     0.188 C 
BRANCH  30  31
ATOM     31  O   UNL     1       2.400  -3.613  -6.872  1.00  0.00    -0.376 OA
BRANCH  31  32
ATOM     32  C   UNL     1       1.406  -2.606  -6.860  1.00  0.00     0.202 C 
BRANCH  32  33
ATOM     33  C   UNL     1      -0.081  -2.792  -7.207  1.00  0.00     0.261 C 
BRANCH  33  34
ATOM     34  O   UNL     1      -0.641  -4.078  -7.009  1.00  0.00    -0.460 OA
BRANCH  34  35
ATOM     35  C   UNL     1      -0.476  -4.923  -8.040  1.00  0.00     0.338 C 
ATOM     36  O   UNL     1       0.061  -4.693  -9.113  1.00  0.00    -0.246 OA
BRANCH  35  37
ATOM     37  C   UNL     1      -0.876  -6.253  -7.569  1.00  0.00     0.060 A 
ATOM     38  C   UNL     1       0.058  -7.288  -7.698  1.00  0.00     0.016 A 
ATOM     39  C   UNL     1      -2.130  -6.474  -6.990  1.00  0.00     0.016 A 
ATOM     40  C   UNL     1      -0.265  -8.561  -7.272  1.00  0.00     0.010 A 
ATOM     41  C   UNL     1      -2.480  -7.769  -6.619  1.00  0.00     0.010 A 
ATOM     42  C   UNL     1      -1.561  -8.814  -6.811  1.00  0.00    -0.014 A 
BRANCH  42  43
ATOM     43  C   UNL     1      -2.022 -10.210  -6.875  1.00  0.00     0.031 A 
ATOM     44  C   UNL     1      -2.679 -10.648  -8.154  1.00  0.00     0.074 A 
ATOM     45  C   UNL     1      -1.754 -11.068  -5.881  1.00  0.00     0.049 A 
ATOM     46  N   UNL     1      -3.148 -11.819  -8.485  1.00  0.00    -0.248 NA
ATOM     47  C   UNL     1      -2.817  -9.624  -9.208  1.00  0.00     0.031 C 
ATOM     48  C   UNL     1      -1.048 -10.737  -4.644  1.00  0.00     0.029 A 
ATOM     49  N   UNL     1      -2.038 -12.401  -5.766  1.00  0.00    -0.354 N 
ATOM     50  C   UNL     1      -3.641 -11.670  -9.776  1.00  0.00     0.074 A 
ATOM     51  C   UNL     1      -3.445 -10.293 -10.161  1.00  0.00     0.031 C 
ATOM     52  C   UNL     1      -0.965 -11.843  -3.884  1.00  0.00     0.029 A 
ATOM     53  C   UNL     1      -1.639 -12.943  -4.570  1.00  0.00     0.049 A 
ATOM     54  H   UNL     1      -2.484 -12.921  -6.472  1.00  0.00     0.167 HD
ATOM     55  C   UNL     1      -4.201 -12.608 -10.571  1.00  0.00     0.037 A 
ATOM     56  C   UNL     1      -1.829 -14.185  -4.087  1.00  0.00     0.037 A 
ATOM     57  C   UNL     1      -4.388 -13.972 -10.160  1.00  0.00     0.049 A 
ATOM     58  C   UNL     1      -2.532 -15.194  -4.959  1.00  0.00     0.074 A 
ATOM     59  C   UNL     1      -4.953 -15.015 -10.868  1.00  0.00     0.029 A 
ATOM     60  N   UNL     1      -4.018 -14.478  -8.921  1.00  0.00    -0.354 N 
ATOM     61  N   UNL     1      -3.001 -15.048  -6.178  1.00  0.00    -0.248 NA
ATOM     62  C   UNL     1      -2.726 -16.536  -4.397  1.00  0.00     0.031 C 
ATOM     63  C   UNL     1      -4.978 -16.138 -10.035  1.00  0.00     0.029 A 
ATOM     64  C   UNL     1      -4.364 -15.814  -8.834  1.00  0.00     0.049 A 
ATOM     65  H   UNL     1      -3.574 -13.962  -8.209  1.00  0.00     0.167 HD
ATOM     66  C   UNL     1      -3.514 -16.289  -6.542  1.00  0.00     0.074 A 
ATOM     67  C   UNL     1      -3.288 -17.173  -5.415  1.00  0.00     0.031 C 
ATOM     68  C   UNL     1      -4.112 -16.669  -7.699  1.00  0.00     0.037 A 
BRANCH  55  69
ATOM     69  C   UNL     1      -4.687 -12.176 -11.926  1.00  0.00     0.058 A 
ATOM     70  C   UNL     1      -3.804 -11.812 -12.956  1.00  0.00     0.135 A 
ATOM     71  C   UNL     1      -6.063 -12.136 -12.201  1.00  0.00     0.135 A 
ATOM     72  F   UNL     1      -2.479 -11.802 -12.739  1.00  0.00    -0.206 F 
ATOM     73  C   UNL     1      -4.268 -11.406 -14.203  1.00  0.00     0.059 A 
ATOM     74  C   UNL     1      -6.549 -11.763 -13.450  1.00  0.00     0.059 A 
ATOM     75  F   UNL     1      -6.953 -12.457 -11.249  1.00  0.00    -0.206 F 
ATOM     76  C   UNL     1      -5.644 -11.389 -14.442  1.00  0.00     0.060 A 
BRANCH  76  77
ATOM     77  S   UNL     1      -6.230 -10.883 -16.072  1.00  0.00     0.124 S 
ATOM     78  O   UNL     1      -5.934  -9.454 -16.058  1.00  0.00    -0.237 OA
ATOM     79  O   UNL     1      -5.405 -11.692 -16.963  1.00  0.00    -0.237 OA
ATOM     80  O   UNL     1      -7.647 -11.230 -16.047  1.00  0.00    -0.744 OA
ENDBRANCH  76  77
ENDBRANCH  55  69
BRANCH  56  81
ATOM     81  C   UNL     1      -1.366 -14.531  -2.717  1.00  0.00     0.058 A 
ATOM     82  C   UNL     1      -0.331 -15.453  -2.507  1.00  0.00     0.135 A 
ATOM     83  C   UNL     1      -1.951 -13.938  -1.587  1.00  0.00     0.135 A 
ATOM     84  F   UNL     1       0.258 -16.051  -3.554  1.00  0.00    -0.206 F 
ATOM     85  C   UNL     1       0.096 -15.791  -1.226  1.00  0.00     0.059 A 
ATOM     86  C   UNL     1      -1.522 -14.237  -0.297  1.00  0.00     0.059 A 
ATOM     87  F   UNL     1      -2.936 -13.038  -1.731  1.00  0.00    -0.206 F 
ATOM     88  C   UNL     1      -0.505 -15.173  -0.127  1.00  0.00     0.060 A 
BRANCH  88  89
ATOM     89  S   UNL     1       0.087 -15.585   1.528  1.00  0.00     0.124 S 
ATOM     90  O   UNL     1      -0.404 -16.950   1.685  1.00  0.00    -0.237 OA
ATOM     91  O   UNL     1       1.531 -15.437   1.380  1.00  0.00    -0.237 OA
ATOM     92  O   UNL     1      -0.554 -14.582   2.374  1.00  0.00    -0.744 OA
ENDBRANCH  88  89
ENDBRANCH  56  81
BRANCH  68  93
ATOM     93  C   UNL     1      -4.514 -18.112  -7.827  1.00  0.00     0.058 A 
ATOM     94  C   UNL     1      -5.588 -18.652  -7.104  1.00  0.00     0.135 A 
ATOM     95  C   UNL     1      -3.847 -18.949  -8.738  1.00  0.00     0.135 A 
ATOM     96  F   UNL     1      -6.256 -17.895  -6.219  1.00  0.00    -0.206 F 
ATOM     97  C   UNL     1      -5.967 -19.981  -7.255  1.00  0.00     0.059 A 
ATOM     98  C   UNL     1      -4.233 -20.270  -8.932  1.00  0.00     0.059 A 
ATOM     99  F   UNL     1      -2.823 -18.477  -9.466  1.00  0.00    -0.206 F 
ATOM    100  C   UNL     1      -5.285 -20.781  -8.175  1.00  0.00     0.060 A 
BRANCH 100 101
ATOM    101  S   UNL     1      -5.807 -22.495  -8.381  1.00  0.00     0.124 S 
ATOM    102  O   UNL     1      -5.339 -23.096  -7.137  1.00  0.00    -0.237 OA
ATOM    103  O   UNL     1      -7.254 -22.366  -8.518  1.00  0.00    -0.237 OA
ATOM    104  O   UNL     1      -5.105 -22.922  -9.588  1.00  0.00    -0.744 OA
ENDBRANCH 100 101
ENDBRANCH  68  93
ENDBRANCH  42  43
ENDBRANCH  35  37
ENDBRANCH  34  35
ENDBRANCH  33  34
ENDBRANCH  32  33
ENDBRANCH  31  32
ENDBRANCH  30  31
ENDBRANCH  29  30
ENDBRANCH  28  29
ENDBRANCH   1  28
TORSDOF 29
