REMARK SMILES C[C@@H](C(=O)OCCOCCOCCOCCOC(=O)c1ccc(-c2c3nc(c(-c4c(F)cc(S(=O)(=O)[O-])cc4F)c4ccc([nH]4)c(-c4c(F)cc(S(=O)(=O)[O-])cc4F)c4nc(c(-c5c(F)cc(S(=O)(=O)[O-])cc5F)c5ccc2[nH]5)C=C4)C=C3)cc1)c1ccc(-c2ccn(C(F)F)c(=O)c2)cc1
REMARK SMILES IDX 11 1 10 2 9 3 8 4 7 5 6 6 5 7 3 8 4 9 2 10 1 11 86 12 87 13
REMARK SMILES IDX 101 14 88 15 100 16 89 17 90 18 91 19 99 20 92 21 97 22
REMARK SMILES IDX 93 23 98 24 94 25 95 26 96 27 12 28 13 29 14 30 15 31 16 32
REMARK SMILES IDX 17 33 18 34 19 35 20 36 21 37 85 38 22 39 84 40 23 41 24 42
REMARK SMILES IDX 25 43 78 44 26 45 83 46 77 47 79 48 27 49 82 50 76 51 75 52
REMARK SMILES IDX 28 54 62 55 41 56 61 57 42 58 45 59 60 60 80 61 43 62 44 63
REMARK SMILES IDX 59 65 81 66 46 67 29 68 30 69 39 70 31 71 32 72 38 73 40 74
REMARK SMILES IDX 33 75 34 76 35 77 36 78 37 79 63 80 64 81 73 82 65 83 66 84
REMARK SMILES IDX 72 85 74 86 67 87 68 88 69 89 70 90 71 91 47 92 48 93 57 94
REMARK SMILES IDX 49 95 50 96 56 97 58 98 51 99 52 100 53 101 54 102 55 103
REMARK H PARENT 79 53 45 64
REMARK Flexibility Score: inf
ROOT
ATOM      1  O   UNL     1       2.454  -2.784   0.613  1.00  0.00    -0.377 OA
ENDROOT
BRANCH   1   2
ATOM      2  C   UNL     1       1.046  -2.675   0.653  1.00  0.00     0.188 C 
BRANCH   2   3
ATOM      3  C   UNL     1       0.326  -3.672  -0.262  1.00  0.00     0.188 C 
BRANCH   3   4
ATOM      4  O   UNL     1       1.054  -4.797  -0.704  1.00  0.00    -0.376 OA
BRANCH   4   5
ATOM      5  C   UNL     1       2.079  -4.668  -1.679  1.00  0.00     0.202 C 
BRANCH   5   6
ATOM      6  C   UNL     1       2.528  -3.365  -2.384  1.00  0.00     0.261 C 
BRANCH   6   7
ATOM      7  O   UNL     1       1.929  -2.131  -1.974  1.00  0.00    -0.463 OA
BRANCH   7   8
ATOM      8  C   UNL     1       1.056  -1.529  -2.816  1.00  0.00     0.313 C 
ATOM      9  O   UNL     1       0.714  -1.999  -3.897  1.00  0.00    -0.252 OA
BRANCH   8  10
ATOM     10  C   UNL     1       0.454  -0.236  -2.235  1.00  0.00     0.126 C 
ATOM     11  C   UNL     1       1.291   0.427  -1.121  1.00  0.00     0.025 C 
BRANCH  10  12
ATOM     12  C   UNL     1      -1.035  -0.338  -1.865  1.00  0.00    -0.034 A 
ATOM     13  C   UNL     1      -1.726   0.796  -1.404  1.00  0.00     0.005 A 
ATOM     14  C   UNL     1      -1.775  -1.520  -2.020  1.00  0.00     0.005 A 
ATOM     15  C   UNL     1      -3.100   0.745  -1.122  1.00  0.00     0.009 A 
ATOM     16  C   UNL     1      -3.127  -1.593  -1.684  1.00  0.00     0.009 A 
ATOM     17  C   UNL     1      -3.808  -0.450  -1.270  1.00  0.00    -0.018 A 
BRANCH  17  18
ATOM     18  C   UNL     1      -5.274  -0.519  -1.170  1.00  0.00    -0.011 A 
ATOM     19  C   UNL     1      -5.990  -1.197  -0.110  1.00  0.00     0.027 A 
ATOM     20  C   UNL     1      -5.956  -0.048  -2.229  1.00  0.00     0.080 A 
ATOM     21  C   UNL     1      -7.314  -1.382  -0.202  1.00  0.00     0.095 A 
ATOM     22  C   UNL     1      -7.426  -0.227  -2.335  1.00  0.00     0.255 A 
ATOM     23  N   UNL     1      -8.026  -0.916  -1.294  1.00  0.00    -0.258 N 
ATOM     24  O   UNL     1      -8.001   0.215  -3.325  1.00  0.00    -0.269 OA
BRANCH  23  25
ATOM     25  C   UNL     1      -9.437  -1.166  -1.415  1.00  0.00     0.451 C 
ATOM     26  F   UNL     1     -10.134  -0.011  -1.549  1.00  0.00    -0.185 F 
ATOM     27  F   UNL     1      -9.701  -1.941  -2.497  1.00  0.00    -0.185 F 
ENDBRANCH  23  25
ENDBRANCH  17  18
ENDBRANCH  10  12
ENDBRANCH   8  10
ENDBRANCH   7   8
ENDBRANCH   6   7
ENDBRANCH   5   6
ENDBRANCH   4   5
ENDBRANCH   3   4
ENDBRANCH   2   3
ENDBRANCH   1   2
BRANCH   1  28
ATOM     28  C   UNL     1       3.057  -3.754   1.463  1.00  0.00     0.188 C 
BRANCH  28  29
ATOM     29  C   UNL     1       2.244  -4.960   1.991  1.00  0.00     0.188 C 
BRANCH  29  30
ATOM     30  O   UNL     1       0.917  -4.659   2.406  1.00  0.00    -0.376 OA
BRANCH  30  31
ATOM     31  C   UNL     1       0.657  -4.472   3.789  1.00  0.00     0.202 C 
BRANCH  31  32
ATOM     32  C   UNL     1       1.310  -3.262   4.476  1.00  0.00     0.261 C 
BRANCH  32  33
ATOM     33  O   UNL     1       2.742  -3.202   4.429  1.00  0.00    -0.460 OA
BRANCH  33  34
ATOM     34  C   UNL     1       3.431  -4.239   4.951  1.00  0.00     0.338 C 
ATOM     35  O   UNL     1       2.970  -5.210   5.527  1.00  0.00    -0.246 OA
BRANCH  34  36
ATOM     36  C   UNL     1       4.837  -4.104   4.516  1.00  0.00     0.060 A 
ATOM     37  C   UNL     1       5.417  -5.136   3.765  1.00  0.00     0.016 A 
ATOM     38  C   UNL     1       5.571  -2.957   4.827  1.00  0.00     0.016 A 
ATOM     39  C   UNL     1       6.747  -5.040   3.356  1.00  0.00     0.010 A 
ATOM     40  C   UNL     1       6.910  -2.874   4.440  1.00  0.00     0.010 A 
ATOM     41  C   UNL     1       7.513  -3.932   3.736  1.00  0.00    -0.014 A 
BRANCH  41  42
ATOM     42  C   UNL     1       8.989  -3.980   3.596  1.00  0.00     0.031 A 
ATOM     43  C   UNL     1       9.798  -4.375   4.802  1.00  0.00     0.074 A 
ATOM     44  C   UNL     1       9.596  -3.705   2.429  1.00  0.00     0.049 A 
ATOM     45  N   UNL     1      11.095  -4.439   4.949  1.00  0.00    -0.248 NA
ATOM     46  C   UNL     1       9.037  -4.744   6.008  1.00  0.00     0.031 C 
ATOM     47  C   UNL     1       8.917  -3.360   1.181  1.00  0.00     0.029 A 
ATOM     48  N   UNL     1      10.931  -3.665   2.109  1.00  0.00    -0.354 N 
ATOM     49  C   UNL     1      11.305  -4.841   6.263  1.00  0.00     0.074 A 
ATOM     50  C   UNL     1      10.005  -4.978   6.880  1.00  0.00     0.031 C 
ATOM     51  C   UNL     1       9.842  -3.132   0.231  1.00  0.00     0.029 A 
ATOM     52  C   UNL     1      11.176  -3.278   0.813  1.00  0.00     0.049 A 
ATOM     53  H   UNL     1      11.645  -3.893   2.747  1.00  0.00     0.167 HD
ATOM     54  C   UNL     1      12.477  -5.079   6.897  1.00  0.00     0.037 A 
ATOM     55  C   UNL     1      12.345  -3.045   0.180  1.00  0.00     0.037 A 
ATOM     56  C   UNL     1      13.768  -4.939   6.274  1.00  0.00     0.049 A 
ATOM     57  C   UNL     1      13.640  -3.243   0.929  1.00  0.00     0.074 A 
ATOM     58  C   UNL     1      15.016  -5.176   6.822  1.00  0.00     0.029 A 
ATOM     59  N   UNL     1      13.977  -4.512   4.971  1.00  0.00    -0.354 N 
ATOM     60  N   UNL     1      13.828  -3.646   2.164  1.00  0.00    -0.248 NA
ATOM     61  C   UNL     1      14.882  -2.956   0.198  1.00  0.00     0.031 C 
ATOM     62  C   UNL     1      15.981  -4.831   5.871  1.00  0.00     0.029 A 
ATOM     63  C   UNL     1      15.334  -4.447   4.707  1.00  0.00     0.049 A 
ATOM     64  H   UNL     1      13.265  -4.288   4.329  1.00  0.00     0.167 HD
ATOM     65  C   UNL     1      15.208  -3.695   2.345  1.00  0.00     0.074 A 
ATOM     66  C   UNL     1      15.805  -3.288   1.091  1.00  0.00     0.031 C 
ATOM     67  C   UNL     1      15.916  -4.048   3.448  1.00  0.00     0.037 A 
BRANCH  54  68
ATOM     68  C   UNL     1      12.419  -5.477   8.347  1.00  0.00     0.058 A 
ATOM     69  C   UNL     1      11.928  -6.726   8.758  1.00  0.00     0.135 A 
ATOM     70  C   UNL     1      12.889  -4.601   9.339  1.00  0.00     0.135 A 
ATOM     71  F   UNL     1      11.445  -7.595   7.854  1.00  0.00    -0.206 F 
ATOM     72  C   UNL     1      11.879  -7.082  10.102  1.00  0.00     0.059 A 
ATOM     73  C   UNL     1      12.880  -4.949  10.686  1.00  0.00     0.059 A 
ATOM     74  F   UNL     1      13.364  -3.392   9.003  1.00  0.00    -0.206 F 
ATOM     75  C   UNL     1      12.360  -6.187  11.059  1.00  0.00     0.060 A 
BRANCH  75  76
ATOM     76  S   UNL     1      12.295  -6.666  12.798  1.00  0.00     0.124 S 
ATOM     77  O   UNL     1      10.861  -6.610  13.062  1.00  0.00    -0.237 OA
ATOM     78  O   UNL     1      12.883  -8.002  12.773  1.00  0.00    -0.237 OA
ATOM     79  O   UNL     1      13.096  -5.644  13.464  1.00  0.00    -0.744 OA
ENDBRANCH  75  76
ENDBRANCH  54  68
BRANCH  55  80
ATOM     80  C   UNL     1      12.349  -2.588  -1.237  1.00  0.00     0.058 A 
ATOM     81  C   UNL     1      12.842  -3.408  -2.262  1.00  0.00     0.135 A 
ATOM     82  C   UNL     1      11.866  -1.319  -1.594  1.00  0.00     0.135 A 
ATOM     83  F   UNL     1      13.330  -4.624  -1.972  1.00  0.00    -0.206 F 
ATOM     84  C   UNL     1      12.869  -2.984  -3.587  1.00  0.00     0.059 A 
ATOM     85  C   UNL     1      11.854  -0.884  -2.915  1.00  0.00     0.059 A 
ATOM     86  F   UNL     1      11.377  -0.496  -0.653  1.00  0.00    -0.206 F 
ATOM     87  C   UNL     1      12.367  -1.721  -3.905  1.00  0.00     0.060 A 
BRANCH  87  88
ATOM     88  S   UNL     1      12.357  -1.204  -5.635  1.00  0.00     0.124 S 
ATOM     89  O   UNL     1      13.777  -0.999  -5.890  1.00  0.00    -0.237 OA
ATOM     90  O   UNL     1      11.749  -2.357  -6.293  1.00  0.00    -0.237 OA
ATOM     91  O   UNL     1      11.536   0.004  -5.620  1.00  0.00    -0.744 OA
ENDBRANCH  87  88
ENDBRANCH  55  80
BRANCH  67  92
ATOM     92  C   UNL     1      17.418  -4.058   3.341  1.00  0.00     0.058 A 
ATOM     93  C   UNL     1      18.167  -2.874   3.253  1.00  0.00     0.135 A 
ATOM     94  C   UNL     1      18.122  -5.274   3.392  1.00  0.00     0.135 A 
ATOM     95  F   UNL     1      17.546  -1.685   3.197  1.00  0.00    -0.206 F 
ATOM     96  C   UNL     1      19.557  -2.896   3.192  1.00  0.00     0.059 A 
ATOM     97  C   UNL     1      19.512  -5.317   3.367  1.00  0.00     0.059 A 
ATOM     98  F   UNL     1      17.458  -6.437   3.490  1.00  0.00    -0.206 F 
ATOM     99  C   UNL     1      20.221  -4.123   3.254  1.00  0.00     0.060 A 
BRANCH  99 100
ATOM    100  S   UNL     1      22.026  -4.133   3.209  1.00  0.00     0.124 S 
ATOM    101  O   UNL     1      22.288  -3.777   1.818  1.00  0.00    -0.237 OA
ATOM    102  O   UNL     1      22.367  -3.116   4.199  1.00  0.00    -0.237 OA
ATOM    103  O   UNL     1      22.369  -5.502   3.581  1.00  0.00    -0.744 OA
ENDBRANCH  99 100
ENDBRANCH  67  92
ENDBRANCH  41  42
ENDBRANCH  34  36
ENDBRANCH  33  34
ENDBRANCH  32  33
ENDBRANCH  31  32
ENDBRANCH  30  31
ENDBRANCH  29  30
ENDBRANCH  28  29
ENDBRANCH   1  28
TORSDOF 26
