REMARK SMILES O=C(OCCOCCOCCOCCOC(=O)c1nc(NC[C@H]2c3ccccc3CSc3ccccc32)c2ccccc2n1)c1ccc(-c2c3nc(c(-c4c(F)cc(S(=O)(=O)[O-])cc4F)c4ccc([nH]4)c(-c4c(F)cc(S(=O)(=O)[O-])cc4F)c4nc(c(-c5c(F)cc(S(=O)(=O)[O-])cc5F)c5ccc2[nH]5)C=C4)C=C3)cc1
REMARK SMILES IDX 9 1 8 2 7 3 6 4 5 5 4 6 3 7 2 8 1 9 45 10 46 11 110 12 47 13
REMARK SMILES IDX 109 14 48 15 49 16 50 17 103 18 51 19 108 20 102 21 104 22
REMARK SMILES IDX 52 23 107 24 101 25 100 26 53 28 87 29 66 30 86 31 67 32
REMARK SMILES IDX 70 33 85 34 105 35 68 36 69 37 84 39 106 40 71 41 54 42
REMARK SMILES IDX 55 43 64 44 56 45 57 46 63 47 65 48 58 49 59 50 60 51 61 52
REMARK SMILES IDX 62 53 88 54 89 55 98 56 90 57 91 58 97 59 99 60 92 61 93 62
REMARK SMILES IDX 94 63 95 64 96 65 72 66 73 67 82 68 74 69 75 70 81 71 83 72
REMARK SMILES IDX 76 73 77 74 78 75 79 76 80 77 10 78 11 79 12 80 13 81 14 82
REMARK SMILES IDX 15 83 16 84 17 85 18 86 19 87 44 88 20 89 43 90 38 91 42 92
REMARK SMILES IDX 39 93 41 94 40 95 21 96 22 98 23 99 24 100 37 101 25 102
REMARK SMILES IDX 29 103 32 104 36 105 26 106 28 107 30 108 31 109 33 110
REMARK SMILES IDX 35 111 27 112 34 113
REMARK H PARENT 104 27 70 38 21 97
REMARK Flexibility Score: inf
ROOT
ATOM      1  O   UNL     1       2.627   3.801  -1.081  1.00  0.00    -0.377 OA
ENDROOT
BRANCH   1   2
ATOM      2  C   UNL     1       1.868   2.740  -0.498  1.00  0.00     0.188 C 
BRANCH   2   3
ATOM      3  C   UNL     1       2.325   1.335  -0.899  1.00  0.00     0.188 C 
BRANCH   3   4
ATOM      4  O   UNL     1       3.558   1.050  -0.248  1.00  0.00    -0.376 OA
BRANCH   4   5
ATOM      5  C   UNL     1       4.418   0.066  -0.803  1.00  0.00     0.202 C 
BRANCH   5   6
ATOM      6  C   UNL     1       3.937  -1.387  -0.754  1.00  0.00     0.261 C 
BRANCH   6   7
ATOM      7  O   UNL     1       2.514  -1.524  -0.619  1.00  0.00    -0.460 OA
BRANCH   7   8
ATOM      8  C   UNL     1       1.825  -1.691   0.541  1.00  0.00     0.338 C 
ATOM      9  O   UNL     1       0.628  -1.962   0.496  1.00  0.00    -0.246 OA
BRANCH   8  10
ATOM     10  C   UNL     1       2.482  -1.583   1.873  1.00  0.00     0.060 A 
ATOM     11  C   UNL     1       2.000  -2.376   2.918  1.00  0.00     0.016 A 
ATOM     12  C   UNL     1       3.505  -0.684   2.160  1.00  0.00     0.016 A 
ATOM     13  C   UNL     1       2.582  -2.294   4.187  1.00  0.00     0.010 A 
ATOM     14  C   UNL     1       4.167  -0.675   3.368  1.00  0.00     0.010 A 
ATOM     15  C   UNL     1       3.697  -1.467   4.400  1.00  0.00    -0.014 A 
BRANCH  15  16
ATOM     16  C   UNL     1       4.480  -1.487   5.642  1.00  0.00     0.031 A 
ATOM     17  C   UNL     1       4.638  -0.246   6.475  1.00  0.00     0.074 A 
ATOM     18  C   UNL     1       5.177  -2.612   5.886  1.00  0.00     0.049 A 
ATOM     19  N   UNL     1       5.255  -0.106   7.616  1.00  0.00    -0.248 NA
ATOM     20  C   UNL     1       4.085   1.014   5.941  1.00  0.00     0.031 C 
ATOM     21  C   UNL     1       5.234  -3.775   4.989  1.00  0.00     0.029 A 
ATOM     22  N   UNL     1       5.966  -2.970   6.939  1.00  0.00    -0.354 N 
ATOM     23  C   UNL     1       5.157   1.244   7.938  1.00  0.00     0.074 A 
ATOM     24  C   UNL     1       4.500   1.901   6.835  1.00  0.00     0.031 C 
ATOM     25  C   UNL     1       5.959  -4.742   5.565  1.00  0.00     0.029 A 
ATOM     26  C   UNL     1       6.419  -4.266   6.861  1.00  0.00     0.049 A 
ATOM     27  H   UNL     1       6.189  -2.362   7.681  1.00  0.00     0.167 HD
ATOM     28  C   UNL     1       5.549   1.853   9.081  1.00  0.00     0.037 A 
ATOM     29  C   UNL     1       7.089  -4.996   7.768  1.00  0.00     0.037 A 
ATOM     30  C   UNL     1       6.167   1.129  10.161  1.00  0.00     0.049 A 
ATOM     31  C   UNL     1       7.370  -4.348   9.089  1.00  0.00     0.074 A 
ATOM     32  C   UNL     1       6.508   1.576  11.423  1.00  0.00     0.029 A 
ATOM     33  N   UNL     1       6.527  -0.213  10.097  1.00  0.00    -0.354 N 
ATOM     34  N   UNL     1       7.136  -3.108   9.456  1.00  0.00    -0.248 NA
ATOM     35  C   UNL     1       7.971  -5.187  10.129  1.00  0.00     0.031 C 
ATOM     36  C   UNL     1       7.100   0.511  12.111  1.00  0.00     0.029 A 
ATOM     37  C   UNL     1       7.095  -0.610  11.292  1.00  0.00     0.049 A 
ATOM     38  H   UNL     1       6.397  -0.795   9.314  1.00  0.00     0.167 HD
ATOM     39  C   UNL     1       7.559  -3.014  10.771  1.00  0.00     0.074 A 
ATOM     40  C   UNL     1       8.034  -4.335  11.144  1.00  0.00     0.031 C 
ATOM     41  C   UNL     1       7.567  -1.938  11.597  1.00  0.00     0.037 A 
BRANCH  28  42
ATOM     42  C   UNL     1       5.268   3.324   9.252  1.00  0.00     0.058 A 
ATOM     43  C   UNL     1       3.954   3.806   9.382  1.00  0.00     0.135 A 
ATOM     44  C   UNL     1       6.312   4.255   9.373  1.00  0.00     0.135 A 
ATOM     45  F   UNL     1       2.911   2.969   9.261  1.00  0.00    -0.206 F 
ATOM     46  C   UNL     1       3.686   5.151   9.619  1.00  0.00     0.059 A 
ATOM     47  C   UNL     1       6.069   5.603   9.635  1.00  0.00     0.059 A 
ATOM     48  F   UNL     1       7.589   3.858   9.250  1.00  0.00    -0.206 F 
ATOM     49  C   UNL     1       4.751   6.042   9.756  1.00  0.00     0.060 A 
BRANCH  49  50
ATOM     50  S   UNL     1       4.379   7.770  10.131  1.00  0.00     0.124 S 
ATOM     51  O   UNL     1       3.776   8.220   8.880  1.00  0.00    -0.237 OA
ATOM     52  O   UNL     1       3.468   7.651  11.264  1.00  0.00    -0.237 OA
ATOM     53  O   UNL     1       5.686   8.342  10.438  1.00  0.00    -0.744 OA
ENDBRANCH  49  50
ENDBRANCH  28  42
BRANCH  29  54
ATOM     54  C   UNL     1       7.391  -6.420   7.475  1.00  0.00     0.058 A 
ATOM     55  C   UNL     1       6.640  -7.447   8.064  1.00  0.00     0.135 A 
ATOM     56  C   UNL     1       8.344  -6.780   6.508  1.00  0.00     0.135 A 
ATOM     57  F   UNL     1       5.703  -7.152   8.978  1.00  0.00    -0.206 F 
ATOM     58  C   UNL     1       6.824  -8.781   7.712  1.00  0.00     0.059 A 
ATOM     59  C   UNL     1       8.533  -8.105   6.125  1.00  0.00     0.059 A 
ATOM     60  F   UNL     1       9.059  -5.832   5.884  1.00  0.00    -0.206 F 
ATOM     61  C   UNL     1       7.769  -9.100   6.736  1.00  0.00     0.060 A 
BRANCH  61  62
ATOM     62  S   UNL     1       7.941 -10.826   6.230  1.00  0.00     0.124 S 
ATOM     63  O   UNL     1       8.600 -11.408   7.393  1.00  0.00    -0.237 OA
ATOM     64  O   UNL     1       6.553 -11.223   6.017  1.00  0.00    -0.237 OA
ATOM     65  O   UNL     1       8.753 -10.742   5.019  1.00  0.00    -0.744 OA
ENDBRANCH  61  62
ENDBRANCH  29  54
BRANCH  41  66
ATOM     66  C   UNL     1       8.135  -2.154  12.964  1.00  0.00     0.058 A 
ATOM     67  C   UNL     1       9.520  -2.253  13.158  1.00  0.00     0.135 A 
ATOM     68  C   UNL     1       7.298  -2.194  14.088  1.00  0.00     0.135 A 
ATOM     69  F   UNL     1      10.354  -2.226  12.106  1.00  0.00    -0.206 F 
ATOM     70  C   UNL     1      10.059  -2.404  14.427  1.00  0.00     0.059 A 
ATOM     71  C   UNL     1       7.817  -2.319  15.370  1.00  0.00     0.059 A 
ATOM     72  F   UNL     1       5.967  -2.091  13.946  1.00  0.00    -0.206 F 
ATOM     73  C   UNL     1       9.199  -2.432  15.527  1.00  0.00     0.060 A 
BRANCH  73  74
ATOM     74  S   UNL     1       9.920  -2.590  17.172  1.00  0.00     0.124 S 
ATOM     75  O   UNL     1      10.335  -3.988  17.175  1.00  0.00    -0.237 OA
ATOM     76  O   UNL     1      10.999  -1.607  17.134  1.00  0.00    -0.237 OA
ATOM     77  O   UNL     1       8.810  -2.261  18.062  1.00  0.00    -0.744 OA
ENDBRANCH  73  74
ENDBRANCH  41  66
ENDBRANCH  15  16
ENDBRANCH   8  10
ENDBRANCH   7   8
ENDBRANCH   6   7
ENDBRANCH   5   6
ENDBRANCH   4   5
ENDBRANCH   3   4
ENDBRANCH   2   3
ENDBRANCH   1   2
BRANCH   1  78
ATOM     78  C   UNL     1       4.045   3.662  -1.027  1.00  0.00     0.188 C 
BRANCH  78  79
ATOM     79  C   UNL     1       4.739   3.641   0.350  1.00  0.00     0.188 C 
BRANCH  79  80
ATOM     80  O   UNL     1       3.822   3.599   1.428  1.00  0.00    -0.376 OA
BRANCH  80  81
ATOM     81  C   UNL     1       3.668   4.796   2.177  1.00  0.00     0.202 C 
BRANCH  81  82
ATOM     82  C   UNL     1       3.246   6.089   1.452  1.00  0.00     0.261 C 
BRANCH  82  83
ATOM     83  O   UNL     1       3.828   6.339   0.161  1.00  0.00    -0.457 OA
BRANCH  83  84
ATOM     84  C   UNL     1       5.079   6.862   0.085  1.00  0.00     0.376 C 
ATOM     85  O   UNL     1       5.800   7.157   1.026  1.00  0.00    -0.242 OA
BRANCH  84  86
ATOM     86  C   UNL     1       5.463   6.896  -1.369  1.00  0.00     0.241 A 
ATOM     87  N   UNL     1       6.327   5.942  -1.808  1.00  0.00    -0.204 NA
ATOM     88  N   UNL     1       4.755   7.747  -2.139  1.00  0.00    -0.222 NA
ATOM     89  C   UNL     1       6.484   5.866  -3.138  1.00  0.00     0.138 A 
ATOM     90  C   UNL     1       5.006   7.713  -3.447  1.00  0.00     0.077 A 
ATOM     91  C   UNL     1       5.921   6.820  -4.014  1.00  0.00     0.043 A 
ATOM     92  C   UNL     1       4.321   8.580  -4.292  1.00  0.00     0.029 A 
ATOM     93  C   UNL     1       6.198   6.898  -5.405  1.00  0.00     0.014 A 
ATOM     94  C   UNL     1       4.572   8.632  -5.667  1.00  0.00     0.002 A 
ATOM     95  C   UNL     1       5.536   7.806  -6.223  1.00  0.00     0.001 A 
BRANCH  89  96
ATOM     96  N   UNL     1       7.142   4.787  -3.714  1.00  0.00    -0.368 N 
ATOM     97  H   UNL     1       7.130   4.752  -4.698  1.00  0.00     0.162 HD
BRANCH  96  98
ATOM     98  C   UNL     1       7.849   3.697  -3.045  1.00  0.00     0.127 C 
BRANCH  98  99
ATOM     99  C   UNL     1       8.034   2.432  -4.010  1.00  0.00     0.070 C 
ATOM    100  C   UNL     1       6.754   1.561  -4.057  1.00  0.00    -0.035 A 
ATOM    101  C   UNL     1       8.553   2.715  -5.447  1.00  0.00    -0.025 A 
ATOM    102  C   UNL     1       5.463   2.106  -3.983  1.00  0.00     0.005 A 
ATOM    103  C   UNL     1       6.854   0.174  -4.313  1.00  0.00    -0.034 A 
ATOM    104  C   UNL     1       8.516   1.779  -6.511  1.00  0.00     0.011 A 
ATOM    105  C   UNL     1       9.031   4.006  -5.764  1.00  0.00     0.005 A 
ATOM    106  C   UNL     1       4.320   1.315  -4.141  1.00  0.00     0.000 A 
ATOM    107  C   UNL     1       5.697  -0.625  -4.424  1.00  0.00     0.005 A 
ATOM    108  C   UNL     1       8.173  -0.425  -4.712  1.00  0.00     0.110 C 
ATOM    109  S   UNL     1       8.469  -0.024  -6.458  1.00  0.00    -0.121 SA
ATOM    110  C   UNL     1       8.621   2.249  -7.838  1.00  0.00     0.015 A 
ATOM    111  C   UNL     1       9.183   4.442  -7.082  1.00  0.00     0.000 A 
ATOM    112  C   UNL     1       4.434  -0.054  -4.342  1.00  0.00     0.000 A 
ATOM    113  C   UNL     1       8.908   3.579  -8.125  1.00  0.00     0.001 A 
ENDBRANCH  98  99
ENDBRANCH  96  98
ENDBRANCH  89  96
ENDBRANCH  84  86
ENDBRANCH  83  84
ENDBRANCH  82  83
ENDBRANCH  81  82
ENDBRANCH  80  81
ENDBRANCH  79  80
ENDBRANCH  78  79
ENDBRANCH   1  78
TORSDOF 26
