REMARK SMILES CC[C@@H]1CCCC[N@H+]1Cc1c(C(=O)OCCOCCOCCOCCOC(=O)c2ccc(-c3c4nc(c(-c5c(F)cc(S(=O)(=O)[O-])cc5F)c5ccc([nH]5)c(-c5c(F)cc(S(=O)(=O)[O-])cc5F)c5nc(c(-c6c(F)cc(S(=O)(=O)[O-])cc6F)c6ccc3[nH]6)C=C5)C=C4)cc2)oc2ccccc12
REMARK SMILES IDX 20 1 19 2 18 3 17 4 16 5 15 6 14 7 12 8 13 9 11 10 10 11
REMARK SMILES IDX 101 12 95 13 96 14 100 15 97 16 99 17 98 18 9 19 8 20 3 21
REMARK SMILES IDX 4 22 5 23 7 24 6 26 2 27 1 28 21 29 22 30 23 31 24 32 25 33
REMARK SMILES IDX 26 34 27 35 28 36 29 37 30 38 94 39 31 40 93 41 32 42 33 43
REMARK SMILES IDX 34 44 87 45 35 46 92 47 86 48 88 49 36 50 91 51 85 52 84 53
REMARK SMILES IDX 37 55 71 56 50 57 70 58 51 59 54 60 69 61 89 62 52 63 53 64
REMARK SMILES IDX 68 66 90 67 55 68 38 69 39 70 48 71 40 72 41 73 47 74 49 75
REMARK SMILES IDX 42 76 43 77 44 78 45 79 46 80 72 81 73 82 82 83 74 84 75 85
REMARK SMILES IDX 81 86 83 87 76 88 77 89 78 90 79 91 80 92 56 93 57 94 66 95
REMARK SMILES IDX 58 96 59 97 65 98 67 99 60 100 61 101 62 102 63 103 64 104
REMARK H PARENT 8 25 88 54 54 65
REMARK Flexibility Score: inf
ROOT
ATOM      1  O   UNL     1       2.466   2.745   5.632  1.00  0.00    -0.377 OA
ENDROOT
BRANCH   1   2
ATOM      2  C   UNL     1       1.648   1.934   4.808  1.00  0.00     0.188 C 
BRANCH   2   3
ATOM      3  C   UNL     1       0.410   1.231   5.390  1.00  0.00     0.188 C 
BRANCH   3   4
ATOM      4  O   UNL     1       0.404   1.091   6.806  1.00  0.00    -0.376 OA
BRANCH   4   5
ATOM      5  C   UNL     1       0.565  -0.233   7.298  1.00  0.00     0.202 C 
BRANCH   5   6
ATOM      6  C   UNL     1       2.035  -0.649   7.405  1.00  0.00     0.261 C 
BRANCH   6   7
ATOM      7  O   UNL     1       2.715  -0.743   6.144  1.00  0.00    -0.457 OA
BRANCH   7   8
ATOM      8  C   UNL     1       2.263  -1.673   5.263  1.00  0.00     0.374 C 
ATOM      9  O   UNL     1       1.345  -2.454   5.480  1.00  0.00    -0.242 OA
BRANCH   8  10
ATOM     10  C   UNL     1       2.928  -1.482   3.997  1.00  0.00     0.221 A 
ATOM     11  C   UNL     1       2.427  -1.327   2.703  1.00  0.00     0.067 A 
ATOM     12  C   UNL     1       3.584  -1.112   1.875  1.00  0.00     0.030 A 
ATOM     13  O   UNL     1       4.286  -1.361   4.004  1.00  0.00    -0.448 OA
ATOM     14  C   UNL     1       4.680  -1.137   2.729  1.00  0.00     0.135 A 
ATOM     15  C   UNL     1       3.840  -0.863   0.511  1.00  0.00     0.012 A 
ATOM     16  C   UNL     1       6.002  -0.941   2.332  1.00  0.00     0.048 A 
ATOM     17  C   UNL     1       5.160  -0.681   0.073  1.00  0.00     0.001 A 
ATOM     18  C   UNL     1       6.223  -0.717   0.972  1.00  0.00     0.004 A 
BRANCH  11  19
ATOM     19  C   UNL     1       0.968  -1.226   2.342  1.00  0.00     0.304 C 
BRANCH  19  20
ATOM     20  N   UNL     1       0.350  -2.403   1.705  1.00  0.00    -0.329 N 
ATOM     21  C   UNL     1       0.626  -2.588   0.271  1.00  0.00     0.184 C 
ATOM     22  C   UNL     1       0.180  -3.983  -0.256  1.00  0.00     0.065 C 
ATOM     23  C   UNL     1       0.569  -5.136   0.647  1.00  0.00     0.012 C 
ATOM     24  C   UNL     1       0.534  -3.583   2.569  1.00  0.00     0.262 C 
ATOM     25  H   UNL     1      -0.653  -2.228   1.645  1.00  0.00     0.348 HD
ATOM     26  C   UNL     1      -0.027  -4.882   2.015  1.00  0.00     0.062 C 
BRANCH  21  27
ATOM     27  C   UNL     1      -0.108  -1.584  -0.679  1.00  0.00     0.061 C 
ATOM     28  C   UNL     1       0.118  -0.087  -0.553  1.00  0.00     0.010 C 
ENDBRANCH  21  27
ENDBRANCH  19  20
ENDBRANCH  11  19
ENDBRANCH   8  10
ENDBRANCH   7   8
ENDBRANCH   6   7
ENDBRANCH   5   6
ENDBRANCH   4   5
ENDBRANCH   3   4
ENDBRANCH   2   3
ENDBRANCH   1   2
BRANCH   1  29
ATOM     29  C   UNL     1       1.894   3.445   6.724  1.00  0.00     0.188 C 
BRANCH  29  30
ATOM     30  C   UNL     1       0.527   4.125   6.538  1.00  0.00     0.188 C 
BRANCH  30  31
ATOM     31  O   UNL     1       0.122   4.273   5.178  1.00  0.00    -0.376 OA
BRANCH  31  32
ATOM     32  C   UNL     1       0.184   5.598   4.664  1.00  0.00     0.202 C 
BRANCH  32  33
ATOM     33  C   UNL     1       1.597   6.022   4.249  1.00  0.00     0.261 C 
BRANCH  33  34
ATOM     34  O   UNL     1       2.526   6.148   5.335  1.00  0.00    -0.460 OA
BRANCH  34  35
ATOM     35  C   UNL     1       2.230   7.057   6.290  1.00  0.00     0.338 C 
ATOM     36  O   UNL     1       1.282   7.820   6.315  1.00  0.00    -0.246 OA
BRANCH  35  37
ATOM     37  C   UNL     1       3.167   6.851   7.409  1.00  0.00     0.060 A 
ATOM     38  C   UNL     1       2.647   6.634   8.691  1.00  0.00     0.016 A 
ATOM     39  C   UNL     1       4.547   6.861   7.188  1.00  0.00     0.016 A 
ATOM     40  C   UNL     1       3.515   6.464   9.768  1.00  0.00     0.010 A 
ATOM     41  C   UNL     1       5.414   6.711   8.270  1.00  0.00     0.010 A 
ATOM     42  C   UNL     1       4.900   6.547   9.567  1.00  0.00    -0.014 A 
BRANCH  42  43
ATOM     43  C   UNL     1       5.804   6.687  10.730  1.00  0.00     0.031 A 
ATOM     44  C   UNL     1       6.119   8.076  11.211  1.00  0.00     0.074 A 
ATOM     45  C   UNL     1       6.338   5.614  11.337  1.00  0.00     0.049 A 
ATOM     46  N   UNL     1       6.897   8.459  12.188  1.00  0.00    -0.248 NA
ATOM     47  C   UNL     1       5.468   9.183  10.488  1.00  0.00     0.031 C 
ATOM     48  C   UNL     1       6.095   4.221  10.967  1.00  0.00     0.029 A 
ATOM     49  N   UNL     1       7.210   5.536  12.393  1.00  0.00    -0.354 N 
ATOM     50  C   UNL     1       6.828   9.847  12.200  1.00  0.00     0.074 A 
ATOM     51  C   UNL     1       5.954  10.241  11.117  1.00  0.00     0.031 C 
ATOM     52  C   UNL     1       6.817   3.424  11.776  1.00  0.00     0.029 A 
ATOM     53  C   UNL     1       7.583   4.252  12.707  1.00  0.00     0.049 A 
ATOM     54  H   UNL     1       7.538   6.326  12.880  1.00  0.00     0.167 HD
ATOM     55  C   UNL     1       7.433  10.716  13.043  1.00  0.00     0.037 A 
ATOM     56  C   UNL     1       8.455   3.803  13.632  1.00  0.00     0.037 A 
ATOM     57  C   UNL     1       8.315  10.323  14.106  1.00  0.00     0.049 A 
ATOM     58  C   UNL     1       9.157   4.793  14.527  1.00  0.00     0.074 A 
ATOM     59  C   UNL     1       8.970  11.126  15.023  1.00  0.00     0.029 A 
ATOM     60  N   UNL     1       8.675   9.014  14.388  1.00  0.00    -0.354 N 
ATOM     61  N   UNL     1       9.052   6.101  14.554  1.00  0.00    -0.248 NA
ATOM     62  C   UNL     1      10.094   4.245  15.519  1.00  0.00     0.031 C 
ATOM     63  C   UNL     1       9.755  10.303  15.838  1.00  0.00     0.029 A 
ATOM     64  C   UNL     1       9.558   8.986  15.453  1.00  0.00     0.049 A 
ATOM     65  H   UNL     1       8.350   8.222  13.902  1.00  0.00     0.167 HD
ATOM     66  C   UNL     1       9.888   6.529  15.581  1.00  0.00     0.074 A 
ATOM     67  C   UNL     1      10.488   5.341  16.154  1.00  0.00     0.031 C 
ATOM     68  C   UNL     1      10.136   7.790  16.013  1.00  0.00     0.037 A 
BRANCH  55  69
ATOM     69  C   UNL     1       7.168  12.176  12.824  1.00  0.00     0.058 A 
ATOM     70  C   UNL     1       5.939  12.758  13.171  1.00  0.00     0.135 A 
ATOM     71  C   UNL     1       8.153  13.003  12.261  1.00  0.00     0.135 A 
ATOM     72  F   UNL     1       4.956  12.005  13.689  1.00  0.00    -0.206 F 
ATOM     73  C   UNL     1       5.686  14.107  12.946  1.00  0.00     0.059 A 
ATOM     74  C   UNL     1       7.929  14.359  12.046  1.00  0.00     0.059 A 
ATOM     75  F   UNL     1       9.341  12.491  11.903  1.00  0.00    -0.206 F 
ATOM     76  C   UNL     1       6.686  14.899  12.379  1.00  0.00     0.060 A 
BRANCH  76  77
ATOM     77  S   UNL     1       6.345  16.647  12.086  1.00  0.00     0.124 S 
ATOM     78  O   UNL     1       5.495  16.582  10.902  1.00  0.00    -0.237 OA
ATOM     79  O   UNL     1       5.679  17.048  13.322  1.00  0.00    -0.237 OA
ATOM     80  O   UNL     1       7.670  17.221  11.878  1.00  0.00    -0.744 OA
ENDBRANCH  76  77
ENDBRANCH  55  69
BRANCH  56  81
ATOM     81  C   UNL     1       8.717   2.346  13.763  1.00  0.00     0.058 A 
ATOM     82  C   UNL     1       8.242   1.622  14.866  1.00  0.00     0.135 A 
ATOM     83  C   UNL     1       9.451   1.651  12.790  1.00  0.00     0.135 A 
ATOM     84  F   UNL     1       7.545   2.247  15.827  1.00  0.00    -0.206 F 
ATOM     85  C   UNL     1       8.495   0.262  15.008  1.00  0.00     0.059 A 
ATOM     86  C   UNL     1       9.700   0.286  12.899  1.00  0.00     0.059 A 
ATOM     87  F   UNL     1       9.921   2.298  11.712  1.00  0.00    -0.206 F 
ATOM     88  C   UNL     1       9.225  -0.398  14.018  1.00  0.00     0.060 A 
BRANCH  88  89
ATOM     89  S   UNL     1       9.507  -2.175  14.184  1.00  0.00     0.124 S 
ATOM     90  O   UNL     1      10.558  -2.211  15.194  1.00  0.00    -0.237 OA
ATOM     91  O   UNL     1       8.196  -2.657  14.609  1.00  0.00    -0.237 OA
ATOM     92  O   UNL     1       9.907  -2.577  12.839  1.00  0.00    -0.744 OA
ENDBRANCH  88  89
ENDBRANCH  56  81
BRANCH  68  93
ATOM     93  C   UNL     1      11.068   7.953  17.180  1.00  0.00     0.058 A 
ATOM     94  C   UNL     1      12.457   7.818  17.037  1.00  0.00     0.135 A 
ATOM     95  C   UNL     1      10.568   8.309  18.443  1.00  0.00     0.135 A 
ATOM     96  F   UNL     1      12.983   7.475  15.851  1.00  0.00    -0.206 F 
ATOM     97  C   UNL     1      13.319   8.012  18.111  1.00  0.00     0.059 A 
ATOM     98  C   UNL     1      11.413   8.530  19.526  1.00  0.00     0.059 A 
ATOM     99  F   UNL     1       9.247   8.463  18.628  1.00  0.00    -0.206 F 
ATOM    100  C   UNL     1      12.787   8.368  19.353  1.00  0.00     0.060 A 
BRANCH 100 101
ATOM    101  S   UNL     1      13.915   8.656  20.733  1.00  0.00     0.124 S 
ATOM    102  O   UNL     1      14.243   7.292  21.133  1.00  0.00    -0.237 OA
ATOM    103  O   UNL     1      14.996   9.410  20.106  1.00  0.00    -0.237 OA
ATOM    104  O   UNL     1      13.102   9.412  21.682  1.00  0.00    -0.744 OA
ENDBRANCH 100 101
ENDBRANCH  68  93
ENDBRANCH  42  43
ENDBRANCH  35  37
ENDBRANCH  34  35
ENDBRANCH  33  34
ENDBRANCH  32  33
ENDBRANCH  31  32
ENDBRANCH  30  31
ENDBRANCH  29  30
ENDBRANCH   1  29
TORSDOF 26
