REMARK SMILES C[C@@H]1CCCCN1C(=O)Cn1cc(C(=O)OCCOCCOCCOCCOC(=O)c2ccc(-c3c4nc(c(-c5c(F)cc(S(=O)(=O)[O-])cc5F)c5ccc([nH]5)c(-c5c(F)cc(S(=O)(=O)[O-])cc5F)c5nc(c(-c6c(F)cc(S(=O)(=O)[O-])cc6F)c6ccc3[nH]6)C=C5)C=C4)cc2)cn1
REMARK SMILES IDX 22 1 21 2 20 3 19 4 18 5 17 6 16 7 14 8 15 9 13 10 11 11
REMARK SMILES IDX 12 12 98 13 97 14 10 15 8 16 9 17 7 18 1 19 2 20 3 21 4 22
REMARK SMILES IDX 6 23 5 24 23 25 24 26 25 27 26 28 27 29 28 30 29 31 30 32
REMARK SMILES IDX 31 33 32 34 96 35 33 36 95 37 34 38 35 39 36 40 89 41 37 42
REMARK SMILES IDX 94 43 88 44 90 45 38 46 93 47 87 48 86 49 39 51 73 52 52 53
REMARK SMILES IDX 72 54 53 55 56 56 71 57 91 58 54 59 55 60 70 62 92 63 57 64
REMARK SMILES IDX 40 65 41 66 50 67 42 68 43 69 49 70 51 71 44 72 45 73 46 74
REMARK SMILES IDX 47 75 48 76 74 77 75 78 84 79 76 80 77 81 83 82 85 83 78 84
REMARK SMILES IDX 79 85 80 86 81 87 82 88 58 89 59 90 68 91 60 92 61 93 67 94
REMARK SMILES IDX 69 95 62 96 63 97 64 98 65 99 66 100
REMARK H PARENT 90 50 56 61
REMARK Flexibility Score: inf
ROOT
ATOM      1  O   UNL     1      -1.933   1.604  -6.669  1.00  0.00    -0.377 OA
ENDROOT
BRANCH   1   2
ATOM      2  C   UNL     1      -1.412   2.167  -5.478  1.00  0.00     0.188 C 
BRANCH   2   3
ATOM      3  C   UNL     1      -0.429   3.333  -5.719  1.00  0.00     0.188 C 
BRANCH   3   4
ATOM      4  O   UNL     1      -0.300   3.970  -6.982  1.00  0.00    -0.376 OA
BRANCH   4   5
ATOM      5  C   UNL     1      -0.281   3.272  -8.214  1.00  0.00     0.202 C 
BRANCH   5   6
ATOM      6  C   UNL     1       0.452   1.938  -8.447  1.00  0.00     0.261 C 
BRANCH   6   7
ATOM      7  O   UNL     1       0.724   1.132  -7.302  1.00  0.00    -0.460 OA
BRANCH   7   8
ATOM      8  C   UNL     1       1.890   1.413  -6.675  1.00  0.00     0.341 C 
ATOM      9  O   UNL     1       2.740   2.197  -7.099  1.00  0.00    -0.246 OA
BRANCH   8  10
ATOM     10  C   UNL     1       1.976   0.827  -5.355  1.00  0.00     0.098 A 
ATOM     11  N   UNL     1       1.815  -0.393  -3.522  1.00  0.00    -0.262 N 
ATOM     12  C   UNL     1       1.435  -0.341  -4.841  1.00  0.00     0.125 A 
ATOM     13  N   UNL     1       2.561   0.675  -3.157  1.00  0.00    -0.180 NA
ATOM     14  C   UNL     1       2.618   1.423  -4.254  1.00  0.00     0.150 A 
BRANCH  11  15
ATOM     15  C   UNL     1       1.760  -1.532  -2.620  1.00  0.00     0.244 C 
BRANCH  15  16
ATOM     16  C   UNL     1       0.481  -1.683  -1.822  1.00  0.00     0.244 C 
ATOM     17  O   UNL     1      -0.357  -2.509  -2.201  1.00  0.00    -0.273 OA
BRANCH  16  18
ATOM     18  N   UNL     1       0.318  -0.989  -0.624  1.00  0.00    -0.338 N 
ATOM     19  C   UNL     1       2.248  -0.052   0.642  1.00  0.00     0.031 C 
ATOM     20  C   UNL     1       1.041   0.239  -0.247  1.00  0.00     0.082 C 
ATOM     21  C   UNL     1       0.100   1.267   0.420  1.00  0.00     0.025 C 
ATOM     22  C   UNL     1      -1.324   1.126  -0.113  1.00  0.00     0.004 C 
ATOM     23  C   UNL     1      -0.799  -1.337   0.252  1.00  0.00     0.120 C 
ATOM     24  C   UNL     1      -1.887  -0.264   0.199  1.00  0.00     0.022 C 
ENDBRANCH  16  18
ENDBRANCH  15  16
ENDBRANCH  11  15
ENDBRANCH   8  10
ENDBRANCH   7   8
ENDBRANCH   6   7
ENDBRANCH   5   6
ENDBRANCH   4   5
ENDBRANCH   3   4
ENDBRANCH   2   3
ENDBRANCH   1   2
BRANCH   1  25
ATOM     25  C   UNL     1      -3.209   2.081  -7.092  1.00  0.00     0.188 C 
BRANCH  25  26
ATOM     26  C   UNL     1      -3.514   3.601  -7.010  1.00  0.00     0.188 C 
BRANCH  26  27
ATOM     27  O   UNL     1      -2.976   4.254  -5.868  1.00  0.00    -0.376 OA
BRANCH  27  28
ATOM     28  C   UNL     1      -3.799   4.718  -4.812  1.00  0.00     0.202 C 
BRANCH  28  29
ATOM     29  C   UNL     1      -4.526   3.674  -3.977  1.00  0.00     0.261 C 
BRANCH  29  30
ATOM     30  O   UNL     1      -5.035   2.604  -4.743  1.00  0.00    -0.460 OA
BRANCH  30  31
ATOM     31  C   UNL     1      -6.107   2.896  -5.493  1.00  0.00     0.338 C 
ATOM     32  O   UNL     1      -6.527   4.014  -5.788  1.00  0.00    -0.246 OA
BRANCH  31  33
ATOM     33  C   UNL     1      -6.790   1.643  -5.787  1.00  0.00     0.060 A 
ATOM     34  C   UNL     1      -7.892   1.711  -6.639  1.00  0.00     0.016 A 
ATOM     35  C   UNL     1      -6.566   0.568  -4.913  1.00  0.00     0.016 A 
ATOM     36  C   UNL     1      -8.922   0.835  -6.409  1.00  0.00     0.010 A 
ATOM     37  C   UNL     1      -7.611  -0.268  -4.652  1.00  0.00     0.010 A 
ATOM     38  C   UNL     1      -8.801  -0.056  -5.340  1.00  0.00    -0.014 A 
BRANCH  38  39
ATOM     39  C   UNL     1      -9.935  -0.874  -4.989  1.00  0.00     0.031 A 
ATOM     40  C   UNL     1     -10.027  -2.040  -5.885  1.00  0.00     0.074 A 
ATOM     41  C   UNL     1     -10.655  -0.631  -3.877  1.00  0.00     0.049 A 
ATOM     42  N   UNL     1     -10.834  -2.205  -6.879  1.00  0.00    -0.248 NA
ATOM     43  C   UNL     1      -8.911  -3.006  -5.860  1.00  0.00     0.031 C 
ATOM     44  C   UNL     1     -10.350   0.346  -2.824  1.00  0.00     0.029 A 
ATOM     45  N   UNL     1     -11.742  -1.282  -3.385  1.00  0.00    -0.354 N 
ATOM     46  C   UNL     1     -10.521  -3.472  -7.359  1.00  0.00     0.074 A 
ATOM     47  C   UNL     1      -9.173  -3.732  -6.947  1.00  0.00     0.031 C 
ATOM     48  C   UNL     1     -11.085   0.062  -1.725  1.00  0.00     0.029 A 
ATOM     49  C   UNL     1     -12.000  -1.021  -2.041  1.00  0.00     0.049 A 
ATOM     50  H   UNL     1     -12.298  -1.885  -3.929  1.00  0.00     0.167 HD
ATOM     51  C   UNL     1     -11.522  -4.356  -7.619  1.00  0.00     0.037 A 
ATOM     52  C   UNL     1     -12.862  -1.702  -1.245  1.00  0.00     0.037 A 
ATOM     53  C   UNL     1     -12.788  -3.667  -7.702  1.00  0.00     0.049 A 
ATOM     54  C   UNL     1     -13.813  -2.414  -2.137  1.00  0.00     0.074 A 
ATOM     55  C   UNL     1     -13.402  -2.808  -8.585  1.00  0.00     0.029 A 
ATOM     56  N   UNL     1     -13.430  -3.546  -6.495  1.00  0.00    -0.354 N 
ATOM     57  N   UNL     1     -14.666  -1.796  -2.912  1.00  0.00    -0.248 NA
ATOM     58  C   UNL     1     -13.561  -3.809  -2.484  1.00  0.00     0.031 C 
ATOM     59  C   UNL     1     -14.360  -2.073  -7.828  1.00  0.00     0.029 A 
ATOM     60  C   UNL     1     -14.342  -2.527  -6.510  1.00  0.00     0.049 A 
ATOM     61  H   UNL     1     -13.256  -4.122  -5.716  1.00  0.00     0.167 HD
ATOM     62  C   UNL     1     -14.722  -2.571  -4.055  1.00  0.00     0.074 A 
ATOM     63  C   UNL     1     -14.166  -3.863  -3.675  1.00  0.00     0.031 C 
ATOM     64  C   UNL     1     -14.890  -1.994  -5.280  1.00  0.00     0.037 A 
BRANCH  51  65
ATOM     65  C   UNL     1     -11.472  -5.833  -7.262  1.00  0.00     0.058 A 
ATOM     66  C   UNL     1     -12.539  -6.656  -7.677  1.00  0.00     0.135 A 
ATOM     67  C   UNL     1     -10.608  -6.410  -6.301  1.00  0.00     0.135 A 
ATOM     68  F   UNL     1     -13.424  -6.217  -8.587  1.00  0.00    -0.206 F 
ATOM     69  C   UNL     1     -12.771  -7.918  -7.126  1.00  0.00     0.059 A 
ATOM     70  C   UNL     1     -10.793  -7.682  -5.777  1.00  0.00     0.059 A 
ATOM     71  F   UNL     1      -9.589  -5.753  -5.741  1.00  0.00    -0.206 F 
ATOM     72  C   UNL     1     -11.898  -8.414  -6.164  1.00  0.00     0.060 A 
BRANCH  72  73
ATOM     73  S   UNL     1     -12.230 -10.000  -5.383  1.00  0.00     0.124 S 
ATOM     74  O   UNL     1     -13.428  -9.697  -4.609  1.00  0.00    -0.237 OA
ATOM     75  O   UNL     1     -12.413 -10.870  -6.540  1.00  0.00    -0.237 OA
ATOM     76  O   UNL     1     -11.020 -10.250  -4.604  1.00  0.00    -0.744 OA
ENDBRANCH  72  73
ENDBRANCH  51  65
BRANCH  52  77
ATOM     77  C   UNL     1     -12.740  -2.001   0.205  1.00  0.00     0.058 A 
ATOM     78  C   UNL     1     -13.845  -2.418   0.969  1.00  0.00     0.135 A 
ATOM     79  C   UNL     1     -11.477  -2.142   0.815  1.00  0.00     0.135 A 
ATOM     80  F   UNL     1     -15.083  -2.342   0.459  1.00  0.00    -0.206 F 
ATOM     81  C   UNL     1     -13.703  -2.974   2.247  1.00  0.00     0.059 A 
ATOM     82  C   UNL     1     -11.311  -2.687   2.087  1.00  0.00     0.059 A 
ATOM     83  F   UNL     1     -10.353  -1.831   0.150  1.00  0.00    -0.206 F 
ATOM     84  C   UNL     1     -12.427  -3.121   2.791  1.00  0.00     0.060 A 
BRANCH  84  85
ATOM     85  S   UNL     1     -12.225  -3.972   4.375  1.00  0.00     0.124 S 
ATOM     86  O   UNL     1     -12.837  -3.029   5.305  1.00  0.00    -0.237 OA
ATOM     87  O   UNL     1     -12.956  -5.215   4.154  1.00  0.00    -0.237 OA
ATOM     88  O   UNL     1     -10.777  -4.117   4.500  1.00  0.00    -0.744 OA
ENDBRANCH  84  85
ENDBRANCH  52  77
BRANCH  64  89
ATOM     89  C   UNL     1     -15.579  -0.663  -5.336  1.00  0.00     0.058 A 
ATOM     90  C   UNL     1     -15.047   0.546  -4.859  1.00  0.00     0.135 A 
ATOM     91  C   UNL     1     -16.816  -0.610  -5.996  1.00  0.00     0.135 A 
ATOM     92  F   UNL     1     -13.834   0.587  -4.288  1.00  0.00    -0.206 F 
ATOM     93  C   UNL     1     -15.735   1.752  -5.008  1.00  0.00     0.059 A 
ATOM     94  C   UNL     1     -17.502   0.582  -6.183  1.00  0.00     0.059 A 
ATOM     95  F   UNL     1     -17.350  -1.729  -6.513  1.00  0.00    -0.206 F 
ATOM     96  C   UNL     1     -16.962   1.759  -5.674  1.00  0.00     0.060 A 
BRANCH  96  97
ATOM     97  S   UNL     1     -17.826   3.325  -5.925  1.00  0.00     0.124 S 
ATOM     98  O   UNL     1     -18.266   3.653  -4.574  1.00  0.00    -0.237 OA
ATOM     99  O   UNL     1     -16.779   4.178  -6.477  1.00  0.00    -0.237 OA
ATOM    100  O   UNL     1     -18.893   2.979  -6.862  1.00  0.00    -0.744 OA
ENDBRANCH  96  97
ENDBRANCH  64  89
ENDBRANCH  38  39
ENDBRANCH  31  33
ENDBRANCH  30  31
ENDBRANCH  29  30
ENDBRANCH  28  29
ENDBRANCH  27  28
ENDBRANCH  26  27
ENDBRANCH  25  26
ENDBRANCH   1  25
TORSDOF 26
