REMARK SMILES NS(=O)(=O)c1ccc(-n2nc(C(=O)NCCCCCCCCCCC(=O)OCCOCCOCCOCCOC(=O)c3ccc(-c4c5nc(c(-c6c(F)cc(S(=O)(=O)[O-])cc6F)c6ccc([nH]6)c(-c6c(F)cc(S(=O)(=O)[O-])cc6F)c6nc(c(-c7c(F)cc(S(=O)(=O)[O-])cc7F)c7ccc4[nH]7)C=C6)C=C5)cc3)cc2-c2ccccc2)cc1
REMARK SMILES IDX 28 1 27 2 25 3 26 4 24 5 23 6 22 7 21 8 20 9 19 10 18 11
REMARK SMILES IDX 17 12 16 13 15 14 14 15 12 16 13 17 11 19 9 20 10 21 109 22
REMARK SMILES IDX 108 23 8 24 5 25 6 26 117 27 7 28 116 29 2 30 3 31 4 32 1 33
REMARK SMILES IDX 110 36 111 37 115 38 112 39 114 40 113 41 29 42 30 43 31 44
REMARK SMILES IDX 32 45 33 46 34 47 35 48 36 49 37 50 38 51 39 52 40 53 41 54
REMARK SMILES IDX 42 55 43 56 107 57 44 58 106 59 45 60 46 61 47 62 100 63
REMARK SMILES IDX 48 64 105 65 99 66 101 67 49 68 104 69 98 70 97 71 50 73
REMARK SMILES IDX 84 74 63 75 83 76 64 77 67 78 82 79 102 80 65 81 66 82 81 84
REMARK SMILES IDX 103 85 68 86 51 87 52 88 61 89 53 90 54 91 60 92 62 93 55 94
REMARK SMILES IDX 56 95 57 96 58 97 59 98 85 99 86 100 95 101 87 102 88 103
REMARK SMILES IDX 94 104 96 105 89 106 90 107 91 108 92 109 93 110 69 111
REMARK SMILES IDX 70 112 79 113 71 114 72 115 78 116 80 117 73 118 74 119
REMARK SMILES IDX 75 120 76 121 77 122
REMARK H PARENT 14 18 1 34 1 35 101 72 67 83
REMARK Flexibility Score: inf
ROOT
ATOM      1  C   UNL     1       6.782  19.848   5.909  1.00  0.00     0.261 C 
ENDROOT
BRANCH   1   2
ATOM      2  O   UNL     1       7.165  18.468   5.810  1.00  0.00    -0.463 OA
BRANCH   2   3
ATOM      3  C   UNL     1       8.144  18.131   4.947  1.00  0.00     0.305 C 
ATOM      4  O   UNL     1       8.721  18.925   4.211  1.00  0.00    -0.252 OA
BRANCH   3   5
ATOM      5  C   UNL     1       8.550  16.663   5.003  1.00  0.00     0.123 C 
BRANCH   5   6
ATOM      6  C   UNL     1       7.722  15.598   5.729  1.00  0.00     0.012 C 
BRANCH   6   7
ATOM      7  C   UNL     1       6.204  15.736   5.628  1.00  0.00     0.001 C 
BRANCH   7   8
ATOM      8  C   UNL     1       5.724  15.481   4.203  1.00  0.00     0.000 C 
BRANCH   8   9
ATOM      9  C   UNL     1       5.889  14.012   3.809  1.00  0.00     0.000 C 
BRANCH   9  10
ATOM     10  C   UNL     1       5.125  13.069   4.745  1.00  0.00     0.000 C 
BRANCH  10  11
ATOM     11  C   UNL     1       3.622  13.367   4.755  1.00  0.00     0.000 C 
BRANCH  11  12
ATOM     12  C   UNL     1       2.983  13.194   3.371  1.00  0.00     0.002 C 
BRANCH  12  13
ATOM     13  C   UNL     1       3.282  11.823   2.757  1.00  0.00     0.021 C 
BRANCH  13  14
ATOM     14  C   UNL     1       2.690  10.715   3.624  1.00  0.00     0.116 C 
BRANCH  14  15
ATOM     15  N   UNL     1       1.346  10.456   3.180  1.00  0.00    -0.351 N 
ATOM     16  C   UNL     1       0.849   9.556   2.274  1.00  0.00     0.271 C 
ATOM     17  O   UNL     1      -0.317   9.742   1.916  1.00  0.00    -0.267 OA
ATOM     18  H   UNL     1       0.663  11.025   3.602  1.00  0.00     0.163 HD
BRANCH  16  19
ATOM     19  C   UNL     1       1.646   8.400   1.818  1.00  0.00     0.151 A 
ATOM     20  N   UNL     1       1.900   6.376   1.160  1.00  0.00    -0.232 N 
ATOM     21  N   UNL     1       1.033   7.406   1.150  1.00  0.00    -0.162 NA
ATOM     22  C   UNL     1       3.155   6.755   1.599  1.00  0.00     0.075 A 
ATOM     23  C   UNL     1       3.022   8.086   1.933  1.00  0.00     0.065 A 
BRANCH  20  24
ATOM     24  C   UNL     1       1.481   5.110   0.702  1.00  0.00     0.065 A 
ATOM     25  C   UNL     1       0.824   2.639  -0.353  1.00  0.00     0.082 A 
ATOM     26  C   UNL     1       1.573   2.706   0.825  1.00  0.00     0.024 A 
ATOM     27  C   UNL     1       0.349   3.800  -0.974  1.00  0.00     0.024 A 
ATOM     28  C   UNL     1       1.916   3.949   1.348  1.00  0.00     0.030 A 
ATOM     29  C   UNL     1       0.654   5.043  -0.426  1.00  0.00     0.030 A 
BRANCH  25  30
ATOM     30  S   UNL     1       0.500   1.092  -1.136  1.00  0.00     0.238 S 
ATOM     31  O   UNL     1       1.289   1.027  -2.344  1.00  0.00    -0.207 OA
ATOM     32  O   UNL     1      -0.922   0.849  -1.117  1.00  0.00    -0.207 OA
BRANCH  30  33
ATOM     33  N   UNL     1       1.171  -0.051  -0.104  1.00  0.00    -0.225 NA
ATOM     34  H   UNL     1       1.024  -0.984  -0.490  1.00  0.00     0.137 HD
ATOM     35  H   UNL     1       0.724   0.013   0.810  1.00  0.00     0.137 HD
ENDBRANCH  30  33
ENDBRANCH  25  30
ENDBRANCH  20  24
BRANCH  22  36
ATOM     36  C   UNL     1       4.373   5.954   1.588  1.00  0.00     0.000 A 
ATOM     37  C   UNL     1       4.901   5.478   0.383  1.00  0.00     0.010 A 
ATOM     38  C   UNL     1       5.051   5.693   2.786  1.00  0.00     0.010 A 
ATOM     39  C   UNL     1       6.087   4.743   0.377  1.00  0.00     0.001 A 
ATOM     40  C   UNL     1       6.235   4.955   2.778  1.00  0.00     0.001 A 
ATOM     41  C   UNL     1       6.753   4.482   1.574  1.00  0.00     0.000 A 
ENDBRANCH  22  36
ENDBRANCH  16  19
ENDBRANCH  14  15
ENDBRANCH  13  14
ENDBRANCH  12  13
ENDBRANCH  11  12
ENDBRANCH  10  11
ENDBRANCH   9  10
ENDBRANCH   8   9
ENDBRANCH   7   8
ENDBRANCH   6   7
ENDBRANCH   5   6
ENDBRANCH   3   5
ENDBRANCH   2   3
ENDBRANCH   1   2
BRANCH   1  42
ATOM     42  C   UNL     1       6.971  20.465   7.303  1.00  0.00     0.202 C 
BRANCH  42  43
ATOM     43  O   UNL     1       8.111  20.122   8.078  1.00  0.00    -0.376 OA
BRANCH  43  44
ATOM     44  C   UNL     1       8.452  18.751   8.262  1.00  0.00     0.188 C 
BRANCH  44  45
ATOM     45  C   UNL     1       7.358  17.695   8.517  1.00  0.00     0.188 C 
BRANCH  45  46
ATOM     46  O   UNL     1       6.022  18.122   8.353  1.00  0.00    -0.377 OA
BRANCH  46  47
ATOM     47  C   UNL     1       5.325  18.462   9.543  1.00  0.00     0.188 C 
BRANCH  47  48
ATOM     48  C   UNL     1       6.101  19.216  10.648  1.00  0.00     0.188 C 
BRANCH  48  49
ATOM     49  O   UNL     1       7.440  18.775  10.874  1.00  0.00    -0.376 OA
BRANCH  49  50
ATOM     50  C   UNL     1       7.763  17.943  11.979  1.00  0.00     0.202 C 
BRANCH  50  51
ATOM     51  C   UNL     1       7.286  16.489  11.932  1.00  0.00     0.261 C 
BRANCH  51  52
ATOM     52  O   UNL     1       5.922  16.345  11.584  1.00  0.00    -0.460 OA
BRANCH  52  53
ATOM     53  C   UNL     1       5.064  16.910  12.445  1.00  0.00     0.338 C 
ATOM     54  O   UNL     1       5.338  17.650  13.389  1.00  0.00    -0.246 OA
BRANCH  53  55
ATOM     55  C   UNL     1       3.722  16.418  12.171  1.00  0.00     0.060 A 
ATOM     56  C   UNL     1       2.715  16.971  12.961  1.00  0.00     0.016 A 
ATOM     57  C   UNL     1       3.591  15.185  11.514  1.00  0.00     0.016 A 
ATOM     58  C   UNL     1       1.716  16.132  13.370  1.00  0.00     0.010 A 
ATOM     59  C   UNL     1       2.600  14.344  11.936  1.00  0.00     0.010 A 
ATOM     60  C   UNL     1       1.757  14.800  12.944  1.00  0.00    -0.014 A 
BRANCH  60  61
ATOM     61  C   UNL     1       0.831  13.887  13.560  1.00  0.00     0.031 A 
ATOM     62  C   UNL     1      -0.537  14.081  13.049  1.00  0.00     0.074 A 
ATOM     63  C   UNL     1       1.233  12.942  14.428  1.00  0.00     0.049 A 
ATOM     64  N   UNL     1      -1.540  14.607  13.665  1.00  0.00    -0.248 NA
ATOM     65  C   UNL     1      -0.744  13.892  11.603  1.00  0.00     0.031 C 
ATOM     66  C   UNL     1       2.598  12.520  14.754  1.00  0.00     0.029 A 
ATOM     67  N   UNL     1       0.472  12.070  15.132  1.00  0.00    -0.354 N 
ATOM     68  C   UNL     1      -2.583  14.556  12.749  1.00  0.00     0.074 A 
ATOM     69  C   UNL     1      -1.983  14.359  11.458  1.00  0.00     0.031 C 
ATOM     70  C   UNL     1       2.550  11.326  15.390  1.00  0.00     0.029 A 
ATOM     71  C   UNL     1       1.161  10.968  15.622  1.00  0.00     0.049 A 
ATOM     72  H   UNL     1      -0.491  12.207  15.285  1.00  0.00     0.167 HD
ATOM     73  C   UNL     1      -3.860  14.350  13.165  1.00  0.00     0.037 A 
ATOM     74  C   UNL     1       0.583   9.820  16.063  1.00  0.00     0.037 A 
ATOM     75  C   UNL     1      -4.016  14.680  14.561  1.00  0.00     0.049 A 
ATOM     76  C   UNL     1      -0.844  10.144  16.367  1.00  0.00     0.074 A 
ATOM     77  C   UNL     1      -3.773  15.815  15.313  1.00  0.00     0.029 A 
ATOM     78  N   UNL     1      -4.098  13.647  15.465  1.00  0.00    -0.354 N 
ATOM     79  N   UNL     1      -1.218  10.934  17.337  1.00  0.00    -0.248 NA
ATOM     80  C   UNL     1      -1.813   9.985  15.290  1.00  0.00     0.031 C 
ATOM     81  C   UNL     1      -3.236  15.338  16.544  1.00  0.00     0.029 A 
ATOM     82  C   UNL     1      -3.250  13.944  16.504  1.00  0.00     0.049 A 
ATOM     83  H   UNL     1      -4.662  12.844  15.383  1.00  0.00     0.167 HD
ATOM     84  C   UNL     1      -2.259  11.688  16.808  1.00  0.00     0.074 A 
ATOM     85  C   UNL     1      -2.621  11.013  15.563  1.00  0.00     0.031 C 
ATOM     86  C   UNL     1      -2.536  12.944  17.269  1.00  0.00     0.037 A 
BRANCH  73  87
ATOM     87  C   UNL     1      -4.826  13.474  12.407  1.00  0.00     0.058 A 
ATOM     88  C   UNL     1      -6.176  13.445  12.802  1.00  0.00     0.135 A 
ATOM     89  C   UNL     1      -4.437  12.467  11.490  1.00  0.00     0.135 A 
ATOM     90  F   UNL     1      -6.648  14.341  13.683  1.00  0.00    -0.206 F 
ATOM     91  C   UNL     1      -7.055  12.453  12.369  1.00  0.00     0.059 A 
ATOM     92  C   UNL     1      -5.311  11.511  10.997  1.00  0.00     0.059 A 
ATOM     93  F   UNL     1      -3.170  12.291  11.099  1.00  0.00    -0.206 F 
ATOM     94  C   UNL     1      -6.607  11.484  11.475  1.00  0.00     0.060 A 
BRANCH  94  95
ATOM     95  S   UNL     1      -7.704  10.144  10.992  1.00  0.00     0.124 S 
ATOM     96  O   UNL     1      -7.806   9.393  12.238  1.00  0.00    -0.237 OA
ATOM     97  O   UNL     1      -8.900  10.870  10.580  1.00  0.00    -0.237 OA
ATOM     98  O   UNL     1      -6.973   9.486   9.914  1.00  0.00    -0.744 OA
ENDBRANCH  94  95
ENDBRANCH  73  87
BRANCH  74  99
ATOM     99  C   UNL     1       1.048   8.423  15.834  1.00  0.00     0.058 A 
ATOM    100  C   UNL     1       0.428   7.341  16.488  1.00  0.00     0.135 A 
ATOM    101  C   UNL     1       1.903   8.089  14.764  1.00  0.00     0.135 A 
ATOM    102  F   UNL     1      -0.414   7.564  17.508  1.00  0.00    -0.206 F 
ATOM    103  C   UNL     1       0.597   6.016  16.067  1.00  0.00     0.059 A 
ATOM    104  C   UNL     1       2.096   6.776  14.336  1.00  0.00     0.059 A 
ATOM    105  F   UNL     1       2.509   9.035  14.033  1.00  0.00    -0.206 F 
ATOM    106  C   UNL     1       1.416   5.747  14.972  1.00  0.00     0.060 A 
BRANCH 106 107
ATOM    107  S   UNL     1       1.489   4.069  14.300  1.00  0.00     0.124 S 
ATOM    108  O   UNL     1       2.221   3.358  15.343  1.00  0.00    -0.237 OA
ATOM    109  O   UNL     1       0.077   3.728  14.164  1.00  0.00    -0.237 OA
ATOM    110  O   UNL     1       2.209   4.240  13.040  1.00  0.00    -0.744 OA
ENDBRANCH 106 107
ENDBRANCH  74  99
BRANCH  86 111
ATOM    111  C   UNL     1      -1.889  13.399  18.553  1.00  0.00     0.058 A 
ATOM    112  C   UNL     1      -0.502  13.514  18.759  1.00  0.00     0.135 A 
ATOM    113  C   UNL     1      -2.725  13.865  19.580  1.00  0.00     0.135 A 
ATOM    114  F   UNL     1       0.367  13.204  17.786  1.00  0.00    -0.206 F 
ATOM    115  C   UNL     1       0.027  14.012  19.953  1.00  0.00     0.059 A 
ATOM    116  C   UNL     1      -2.221  14.397  20.763  1.00  0.00     0.059 A 
ATOM    117  F   UNL     1      -4.059  13.847  19.422  1.00  0.00    -0.206 F 
ATOM    118  C   UNL     1      -0.843  14.448  20.952  1.00  0.00     0.060 A 
BRANCH 118 119
ATOM    119  S   UNL     1      -0.163  15.126  22.482  1.00  0.00     0.124 S 
ATOM    120  O   UNL     1       0.406  13.941  23.116  1.00  0.00    -0.237 OA
ATOM    121  O   UNL     1       0.799  16.109  21.994  1.00  0.00    -0.237 OA
ATOM    122  O   UNL     1      -1.331  15.692  23.154  1.00  0.00    -0.744 OA
ENDBRANCH 118 119
ENDBRANCH  86 111
ENDBRANCH  60  61
ENDBRANCH  53  55
ENDBRANCH  52  53
ENDBRANCH  51  52
ENDBRANCH  50  51
ENDBRANCH  49  50
ENDBRANCH  48  49
ENDBRANCH  47  48
ENDBRANCH  46  47
ENDBRANCH  45  46
ENDBRANCH  44  45
ENDBRANCH  43  44
ENDBRANCH  42  43
ENDBRANCH   1  42
TORSDOF 38
