REMARK SMILES O=C(OCCOCCOCCOCCOC(=O)[C@H]1C[NH2+]CCN1c1ncc(C(F)(F)F)cc1Cl)c1ccc(-c2c3nc(c(-c4c(F)cc(S(=O)(=O)[O-])cc4F)c4ccc([nH]4)c(-c4c(F)cc(S(=O)(=O)[O-])cc4F)c4nc(c(-c5c(F)cc(S(=O)(=O)[O-])cc5F)c5ccc2[nH]5)C=C4)C=C3)cc1
REMARK SMILES IDX 8 1 7 2 6 3 5 4 4 5 3 6 2 7 1 8 35 9 36 10 100 11 37 12
REMARK SMILES IDX 99 13 38 14 39 15 40 16 93 17 41 18 98 19 92 20 94 21 42 22
REMARK SMILES IDX 97 23 91 24 90 25 43 27 77 28 56 29 76 30 57 31 60 32 75 33
REMARK SMILES IDX 95 34 58 35 59 36 74 38 96 39 61 40 44 41 45 42 54 43 46 44
REMARK SMILES IDX 47 45 53 46 55 47 48 48 49 49 50 50 51 51 52 52 78 53 79 54
REMARK SMILES IDX 88 55 80 56 81 57 87 58 89 59 82 60 83 61 84 62 85 63 86 64
REMARK SMILES IDX 62 65 63 66 72 67 64 68 65 69 71 70 73 71 66 72 67 73 68 74
REMARK SMILES IDX 69 75 70 76 9 77 10 78 11 79 12 80 13 81 14 82 15 83 16 84
REMARK SMILES IDX 17 85 18 86 19 87 23 88 20 89 22 90 21 91 24 94 25 95 33 96
REMARK SMILES IDX 26 97 32 98 34 99 27 100 28 101 29 102 30 103 31 104
REMARK H PARENT 94 26 60 37 20 92 20 93
REMARK Flexibility Score: inf
ROOT
ATOM      1  C   UNL     1       7.048  -4.736   1.422  1.00  0.00     0.188 C 
ENDROOT
BRANCH   1   2
ATOM      2  C   UNL     1       8.074  -3.626   1.409  1.00  0.00     0.188 C 
BRANCH   2   3
ATOM      3  O   UNL     1       7.417  -2.425   1.073  1.00  0.00    -0.376 OA
BRANCH   3   4
ATOM      4  C   UNL     1       8.054  -1.481   0.236  1.00  0.00     0.202 C 
BRANCH   4   5
ATOM      5  C   UNL     1       9.427  -1.011   0.669  1.00  0.00     0.261 C 
BRANCH   5   6
ATOM      6  O   UNL     1       9.952  -1.538   1.901  1.00  0.00    -0.460 OA
BRANCH   6   7
ATOM      7  C   UNL     1       9.572  -1.505   3.193  1.00  0.00     0.338 C 
ATOM      8  O   UNL     1      10.227  -2.173   3.995  1.00  0.00    -0.246 OA
BRANCH   7   9
ATOM      9  C   UNL     1       8.440  -0.717   3.747  1.00  0.00     0.060 A 
ATOM     10  C   UNL     1       7.191  -0.546   3.156  1.00  0.00     0.016 A 
ATOM     11  C   UNL     1       8.613  -0.230   5.050  1.00  0.00     0.016 A 
ATOM     12  C   UNL     1       6.163   0.134   3.773  1.00  0.00     0.010 A 
ATOM     13  C   UNL     1       7.583   0.451   5.698  1.00  0.00     0.010 A 
ATOM     14  C   UNL     1       6.371   0.658   5.032  1.00  0.00    -0.014 A 
BRANCH  14  15
ATOM     15  C   UNL     1       5.401   1.647   5.494  1.00  0.00     0.031 A 
ATOM     16  C   UNL     1       5.816   3.075   5.378  1.00  0.00     0.074 A 
ATOM     17  C   UNL     1       4.166   1.268   5.852  1.00  0.00     0.049 A 
ATOM     18  N   UNL     1       5.279   4.136   5.898  1.00  0.00    -0.248 NA
ATOM     19  C   UNL     1       7.018   3.339   4.562  1.00  0.00     0.031 C 
ATOM     20  C   UNL     1       3.640  -0.098   5.768  1.00  0.00     0.029 A 
ATOM     21  N   UNL     1       3.130   1.999   6.354  1.00  0.00    -0.354 N 
ATOM     22  C   UNL     1       6.120   5.182   5.543  1.00  0.00     0.074 A 
ATOM     23  C   UNL     1       7.190   4.636   4.743  1.00  0.00     0.031 C 
ATOM     24  C   UNL     1       2.384  -0.110   6.239  1.00  0.00     0.029 A 
ATOM     25  C   UNL     1       2.066   1.221   6.741  1.00  0.00     0.049 A 
ATOM     26  H   UNL     1       3.143   2.980   6.432  1.00  0.00     0.167 HD
ATOM     27  C   UNL     1       6.002   6.478   5.901  1.00  0.00     0.037 A 
ATOM     28  C   UNL     1       1.006   1.552   7.498  1.00  0.00     0.037 A 
ATOM     29  C   UNL     1       4.904   6.937   6.704  1.00  0.00     0.049 A 
ATOM     30  C   UNL     1       0.934   2.975   7.981  1.00  0.00     0.074 A 
ATOM     31  C   UNL     1       4.664   8.194   7.215  1.00  0.00     0.029 A 
ATOM     32  N   UNL     1       3.853   6.120   7.117  1.00  0.00    -0.354 N 
ATOM     33  N   UNL     1       1.778   3.959   7.756  1.00  0.00    -0.248 NA
ATOM     34  C   UNL     1      -0.207   3.339   8.823  1.00  0.00     0.031 C 
ATOM     35  C   UNL     1       3.497   8.123   7.984  1.00  0.00     0.029 A 
ATOM     36  C   UNL     1       2.968   6.839   7.892  1.00  0.00     0.049 A 
ATOM     37  H   UNL     1       3.756   5.167   6.888  1.00  0.00     0.167 HD
ATOM     38  C   UNL     1       1.259   5.069   8.404  1.00  0.00     0.074 A 
ATOM     39  C   UNL     1       0.026   4.629   9.036  1.00  0.00     0.031 C 
ATOM     40  C   UNL     1       1.742   6.336   8.470  1.00  0.00     0.037 A 
BRANCH  27  41
ATOM     41  C   UNL     1       7.136   7.392   5.533  1.00  0.00     0.058 A 
ATOM     42  C   UNL     1       7.434   7.734   4.203  1.00  0.00     0.135 A 
ATOM     43  C   UNL     1       8.011   7.850   6.533  1.00  0.00     0.135 A 
ATOM     44  F   UNL     1       6.658   7.291   3.200  1.00  0.00    -0.206 F 
ATOM     45  C   UNL     1       8.584   8.449   3.874  1.00  0.00     0.059 A 
ATOM     46  C   UNL     1       9.147   8.593   6.230  1.00  0.00     0.059 A 
ATOM     47  F   UNL     1       7.789   7.538   7.820  1.00  0.00    -0.206 F 
ATOM     48  C   UNL     1       9.440   8.865   4.896  1.00  0.00     0.060 A 
BRANCH  48  49
ATOM     49  S   UNL     1      10.954   9.740   4.449  1.00  0.00     0.124 S 
ATOM     50  O   UNL     1      11.761   8.661   3.891  1.00  0.00    -0.237 OA
ATOM     51  O   UNL     1      10.474  10.732   3.498  1.00  0.00    -0.237 OA
ATOM     52  O   UNL     1      11.424  10.277   5.729  1.00  0.00    -0.744 OA
ENDBRANCH  48  49
ENDBRANCH  27  41
BRANCH  28  53
ATOM     53  C   UNL     1       0.022   0.507   7.883  1.00  0.00     0.058 A 
ATOM     54  C   UNL     1      -1.281   0.507   7.369  1.00  0.00     0.135 A 
ATOM     55  C   UNL     1       0.396  -0.571   8.706  1.00  0.00     0.135 A 
ATOM     56  F   UNL     1      -1.691   1.512   6.581  1.00  0.00    -0.206 F 
ATOM     57  C   UNL     1      -2.175  -0.525   7.647  1.00  0.00     0.059 A 
ATOM     58  C   UNL     1      -0.469  -1.626   8.977  1.00  0.00     0.059 A 
ATOM     59  F   UNL     1       1.638  -0.630   9.213  1.00  0.00    -0.206 F 
ATOM     60  C   UNL     1      -1.755  -1.594   8.443  1.00  0.00     0.060 A 
BRANCH  60  61
ATOM     61  S   UNL     1      -2.895  -2.966   8.726  1.00  0.00     0.124 S 
ATOM     62  O   UNL     1      -3.892  -2.348   9.592  1.00  0.00    -0.237 OA
ATOM     63  O   UNL     1      -3.334  -3.281   7.370  1.00  0.00    -0.237 OA
ATOM     64  O   UNL     1      -2.054  -3.981   9.355  1.00  0.00    -0.744 OA
ENDBRANCH  60  61
ENDBRANCH  28  53
BRANCH  40  65
ATOM     65  C   UNL     1       0.902   7.348   9.188  1.00  0.00     0.058 A 
ATOM     66  C   UNL     1       0.856   7.410  10.586  1.00  0.00     0.135 A 
ATOM     67  C   UNL     1       0.257   8.353   8.450  1.00  0.00     0.135 A 
ATOM     68  F   UNL     1       1.452   6.462  11.327  1.00  0.00    -0.206 F 
ATOM     69  C   UNL     1       0.201   8.448  11.235  1.00  0.00     0.059 A 
ATOM     70  C   UNL     1      -0.377   9.415   9.078  1.00  0.00     0.059 A 
ATOM     71  F   UNL     1       0.289   8.334   7.108  1.00  0.00    -0.206 F 
ATOM     72  C   UNL     1      -0.397   9.455  10.471  1.00  0.00     0.060 A 
BRANCH  72  73
ATOM     73  S   UNL     1      -1.149  10.852  11.326  1.00  0.00     0.124 S 
ATOM     74  O   UNL     1      -2.352  10.242  11.882  1.00  0.00    -0.237 OA
ATOM     75  O   UNL     1      -0.117  11.216  12.292  1.00  0.00    -0.237 OA
ATOM     76  O   UNL     1      -1.372  11.823  10.259  1.00  0.00    -0.744 OA
ENDBRANCH  72  73
ENDBRANCH  40  65
ENDBRANCH  14  15
ENDBRANCH   7   9
ENDBRANCH   6   7
ENDBRANCH   5   6
ENDBRANCH   4   5
ENDBRANCH   3   4
ENDBRANCH   2   3
ENDBRANCH   1   2
BRANCH   1  77
ATOM     77  O   UNL     1       6.290  -4.854   0.229  1.00  0.00    -0.377 OA
BRANCH  77  78
ATOM     78  C   UNL     1       5.572  -3.756  -0.318  1.00  0.00     0.188 C 
BRANCH  78  79
ATOM     79  C   UNL     1       4.346  -3.240   0.437  1.00  0.00     0.188 C 
BRANCH  79  80
ATOM     80  O   UNL     1       4.399  -3.453   1.827  1.00  0.00    -0.376 OA
BRANCH  80  81
ATOM     81  C   UNL     1       3.807  -4.629   2.370  1.00  0.00     0.202 C 
BRANCH  81  82
ATOM     82  C   UNL     1       3.388  -5.867   1.534  1.00  0.00     0.261 C 
BRANCH  82  83
ATOM     83  O   UNL     1       4.289  -6.333   0.500  1.00  0.00    -0.462 OA
BRANCH  83  84
ATOM     84  C   UNL     1       3.845  -6.215  -0.787  1.00  0.00     0.334 C 
ATOM     85  O   UNL     1       2.716  -5.807  -1.068  1.00  0.00    -0.250 OA
BRANCH  84  86
ATOM     86  C   UNL     1       4.859  -6.610  -1.918  1.00  0.00     0.249 C 
ATOM     87  C   UNL     1       6.372  -6.825  -1.673  1.00  0.00     0.298 C 
ATOM     88  N   UNL     1       4.423  -7.868  -2.551  1.00  0.00    -0.331 N 
ATOM     89  N   UNL     1       6.670  -7.896  -0.702  1.00  0.00    -0.343 N 
ATOM     90  C   UNL     1       4.551  -9.036  -1.683  1.00  0.00     0.180 C 
ATOM     91  C   UNL     1       6.030  -9.143  -1.181  1.00  0.00     0.282 C 
ATOM     92  H   UNL     1       6.296  -7.645   0.214  1.00  0.00     0.346 HD
ATOM     93  H   UNL     1       7.678  -8.025  -0.617  1.00  0.00     0.346 HD
BRANCH  88  94
ATOM     94  C   UNL     1       3.583  -7.794  -3.633  1.00  0.00     0.148 A 
ATOM     95  N   UNL     1       2.366  -8.370  -3.514  1.00  0.00    -0.237 NA
ATOM     96  C   UNL     1       3.952  -7.138  -4.828  1.00  0.00     0.084 A 
ATOM     97  C   UNL     1       1.495  -8.252  -4.547  1.00  0.00     0.126 A 
ATOM     98  C   UNL     1       3.049  -7.061  -5.885  1.00  0.00     0.039 A 
ATOM     99  Cl  UNL     1       5.531  -6.487  -5.127  1.00  0.00    -0.080 Cl
ATOM    100  C   UNL     1       1.789  -7.633  -5.752  1.00  0.00     0.075 A 
BRANCH 100 101
ATOM    101  C   UNL     1       0.793  -7.616  -6.864  1.00  0.00     0.417 C 
ATOM    102  F   UNL     1       0.283  -8.852  -7.124  1.00  0.00    -0.166 F 
ATOM    103  F   UNL     1      -0.273  -6.812  -6.611  1.00  0.00    -0.166 F 
ATOM    104  F   UNL     1       1.317  -7.182  -8.046  1.00  0.00    -0.166 F 
ENDBRANCH 100 101
ENDBRANCH  88  94
ENDBRANCH  84  86
ENDBRANCH  83  84
ENDBRANCH  82  83
ENDBRANCH  81  82
ENDBRANCH  80  81
ENDBRANCH  79  80
ENDBRANCH  78  79
ENDBRANCH  77  78
ENDBRANCH   1  77
TORSDOF 25
