REMARK SMILES Cc1cc(S(=O)(=O)Nc2ccc(Cl)cc2F)ccc1OCC(=O)OCCOCCOCCOCCOC(=O)c1ccc(-c2c3nc(c(-c4c(F)cc(S(=O)(=O)[O-])cc4F)c4ccc([nH]4)c(-c4c(F)cc(S(=O)(=O)[O-])cc4F)c4nc(c(-c5c(F)cc(S(=O)(=O)[O-])cc5F)c5ccc2[nH]5)C=C4)C=C3)cc1
REMARK SMILES IDX 29 1 28 2 27 3 26 4 25 5 24 6 22 7 23 8 21 9 20 10 19 11
REMARK SMILES IDX 1 12 2 13 3 14 4 15 18 16 17 17 5 18 6 19 7 20 8 21 9 23
REMARK SMILES IDX 10 24 15 25 11 26 14 27 16 28 12 29 13 30 30 31 31 32 32 33
REMARK SMILES IDX 33 34 34 35 35 36 36 37 37 38 38 39 39 40 40 41 104 42 41 43
REMARK SMILES IDX 103 44 42 45 43 46 44 47 97 48 45 49 102 50 96 51 98 52
REMARK SMILES IDX 46 53 101 54 95 55 94 56 47 58 81 59 60 60 80 61 61 62 64 63
REMARK SMILES IDX 79 64 99 65 62 66 63 67 78 69 100 70 65 71 48 72 49 73 58 74
REMARK SMILES IDX 50 75 51 76 57 77 59 78 52 79 53 80 54 81 55 82 56 83 82 84
REMARK SMILES IDX 83 85 92 86 84 87 85 88 91 89 93 90 86 91 87 92 88 93 89 94
REMARK SMILES IDX 90 95 66 96 67 97 76 98 68 99 69 100 75 101 77 102 70 103
REMARK SMILES IDX 71 104 72 105 73 106 74 107
REMARK H PARENT 8 22 98 57 64 68
REMARK Flexibility Score: inf
ROOT
ATOM      1  C   UNL     1       1.034   0.680   1.108  1.00  0.00     0.188 C 
ENDROOT
BRANCH   1   2
ATOM      2  C   UNL     1       1.901  -0.448   0.490  1.00  0.00     0.188 C 
BRANCH   2   3
ATOM      3  O   UNL     1       3.243  -0.752   0.798  1.00  0.00    -0.376 OA
BRANCH   3   4
ATOM      4  C   UNL     1       3.977   0.331   1.299  1.00  0.00     0.202 C 
BRANCH   4   5
ATOM      5  C   UNL     1       4.404   1.448   0.366  1.00  0.00     0.261 C 
BRANCH   5   6
ATOM      6  O   UNL     1       3.292   2.039  -0.302  1.00  0.00    -0.461 OA
BRANCH   6   7
ATOM      7  C   UNL     1       3.466   2.279  -1.618  1.00  0.00     0.344 C 
ATOM      8  O   UNL     1       4.512   2.139  -2.240  1.00  0.00    -0.248 OA
BRANCH   7   9
ATOM      9  C   UNL     1       2.183   2.782  -2.264  1.00  0.00     0.351 C 
BRANCH   9  10
ATOM     10  O   UNL     1       0.922   2.413  -1.761  1.00  0.00    -0.482 OA
BRANCH  10  11
ATOM     11  C   UNL     1       0.271   1.236  -1.965  1.00  0.00     0.123 A 
ATOM     12  C   UNL     1       2.028  -0.352  -3.056  1.00  0.00     0.048 C 
ATOM     13  C   UNL     1       0.670   0.005  -2.511  1.00  0.00    -0.008 A 
ATOM     14  C   UNL     1      -0.220  -1.107  -2.415  1.00  0.00     0.029 A 
ATOM     15  C   UNL     1      -1.437  -1.031  -1.729  1.00  0.00     0.088 A 
ATOM     16  C   UNL     1      -0.972   1.296  -1.309  1.00  0.00     0.048 A 
ATOM     17  C   UNL     1      -1.759   0.162  -1.105  1.00  0.00     0.026 A 
BRANCH  15  18
ATOM     18  S   UNL     1      -2.498  -2.472  -1.726  1.00  0.00     0.262 S 
ATOM     19  O   UNL     1      -2.998  -2.646  -3.085  1.00  0.00    -0.201 OA
ATOM     20  O   UNL     1      -1.761  -3.534  -1.095  1.00  0.00    -0.201 OA
BRANCH  18  21
ATOM     21  N   UNL     1      -3.808  -2.209  -0.705  1.00  0.00    -0.277 N 
ATOM     22  H   UNL     1      -4.031  -2.927  -0.069  1.00  0.00     0.180 HD
BRANCH  21  23
ATOM     23  C   UNL     1      -4.624  -1.039  -0.678  1.00  0.00     0.085 A 
ATOM     24  C   UNL     1      -5.226  -0.730   0.549  1.00  0.00     0.031 A 
ATOM     25  C   UNL     1      -4.731  -0.116  -1.728  1.00  0.00     0.148 A 
ATOM     26  C   UNL     1      -5.769   0.540   0.765  1.00  0.00     0.023 A 
ATOM     27  C   UNL     1      -5.235   1.163  -1.506  1.00  0.00     0.062 A 
ATOM     28  F   UNL     1      -4.196  -0.362  -2.930  1.00  0.00    -0.205 F 
ATOM     29  C   UNL     1      -5.729   1.494  -0.250  1.00  0.00     0.044 A 
ATOM     30  Cl  UNL     1      -6.247   3.104   0.060  1.00  0.00    -0.084 Cl
ENDBRANCH  21  23
ENDBRANCH  18  21
ENDBRANCH  15  18
ENDBRANCH  10  11
ENDBRANCH   9  10
ENDBRANCH   7   9
ENDBRANCH   6   7
ENDBRANCH   5   6
ENDBRANCH   4   5
ENDBRANCH   3   4
ENDBRANCH   2   3
ENDBRANCH   1   2
BRANCH   1  31
ATOM     31  O   UNL     1       0.785   0.779   2.497  1.00  0.00    -0.377 OA
BRANCH  31  32
ATOM     32  C   UNL     1      -0.609   0.629   2.818  1.00  0.00     0.188 C 
BRANCH  32  33
ATOM     33  C   UNL     1      -0.791  -0.789   3.288  1.00  0.00     0.188 C 
BRANCH  33  34
ATOM     34  O   UNL     1      -0.009  -1.645   2.468  1.00  0.00    -0.376 OA
BRANCH  34  35
ATOM     35  C   UNL     1      -0.607  -2.726   1.809  1.00  0.00     0.202 C 
BRANCH  35  36
ATOM     36  C   UNL     1      -1.597  -3.518   2.633  1.00  0.00     0.261 C 
BRANCH  36  37
ATOM     37  O   UNL     1      -1.047  -4.390   3.667  1.00  0.00    -0.460 OA
BRANCH  37  38
ATOM     38  C   UNL     1      -0.435  -4.129   4.857  1.00  0.00     0.338 C 
ATOM     39  O   UNL     1      -0.652  -4.851   5.827  1.00  0.00    -0.246 OA
BRANCH  38  40
ATOM     40  C   UNL     1       0.681  -3.155   4.961  1.00  0.00     0.060 A 
ATOM     41  C   UNL     1       0.786  -2.277   6.058  1.00  0.00     0.016 A 
ATOM     42  C   UNL     1       1.662  -3.115   3.983  1.00  0.00     0.016 A 
ATOM     43  C   UNL     1       1.744  -1.236   6.073  1.00  0.00     0.010 A 
ATOM     44  C   UNL     1       2.550  -2.039   3.961  1.00  0.00     0.010 A 
ATOM     45  C   UNL     1       2.604  -1.071   4.987  1.00  0.00    -0.014 A 
BRANCH  45  46
ATOM     46  C   UNL     1       3.522   0.083   4.751  1.00  0.00     0.031 A 
ATOM     47  C   UNL     1       4.944  -0.203   4.345  1.00  0.00     0.074 A 
ATOM     48  C   UNL     1       2.978   1.304   4.494  1.00  0.00     0.049 A 
ATOM     49  N   UNL     1       5.801   0.657   3.902  1.00  0.00    -0.248 NA
ATOM     50  C   UNL     1       5.503  -1.551   4.342  1.00  0.00     0.031 C 
ATOM     51  C   UNL     1       3.497   2.342   3.588  1.00  0.00     0.029 A 
ATOM     52  N   UNL     1       1.718   1.805   4.824  1.00  0.00    -0.354 N 
ATOM     53  C   UNL     1       6.837  -0.013   3.257  1.00  0.00     0.074 A 
ATOM     54  C   UNL     1       6.629  -1.389   3.637  1.00  0.00     0.031 C 
ATOM     55  C   UNL     1       2.614   3.342   3.439  1.00  0.00     0.029 A 
ATOM     56  C   UNL     1       1.675   3.187   4.522  1.00  0.00     0.049 A 
ATOM     57  H   UNL     1       0.977   1.280   5.205  1.00  0.00     0.167 HD
ATOM     58  C   UNL     1       7.640   0.680   2.376  1.00  0.00     0.037 A 
ATOM     59  C   UNL     1       1.634   4.086   5.553  1.00  0.00     0.037 A 
ATOM     60  C   UNL     1       7.330   2.137   2.442  1.00  0.00     0.049 A 
ATOM     61  C   UNL     1       3.017   4.728   5.756  1.00  0.00     0.074 A 
ATOM     62  C   UNL     1       7.026   3.139   1.533  1.00  0.00     0.029 A 
ATOM     63  N   UNL     1       7.150   2.735   3.697  1.00  0.00    -0.354 N 
ATOM     64  N   UNL     1       4.127   4.169   5.322  1.00  0.00    -0.248 NA
ATOM     65  C   UNL     1       3.283   6.079   6.249  1.00  0.00     0.031 C 
ATOM     66  C   UNL     1       6.480   4.250   2.249  1.00  0.00     0.029 A 
ATOM     67  C   UNL     1       6.541   3.971   3.608  1.00  0.00     0.049 A 
ATOM     68  H   UNL     1       7.427   2.320   4.546  1.00  0.00     0.167 HD
ATOM     69  C   UNL     1       5.166   5.047   5.339  1.00  0.00     0.074 A 
ATOM     70  C   UNL     1       4.604   6.215   5.998  1.00  0.00     0.031 C 
ATOM     71  C   UNL     1       6.401   4.804   4.799  1.00  0.00     0.037 A 
BRANCH  58  72
ATOM     72  C   UNL     1       8.614   0.076   1.315  1.00  0.00     0.058 A 
ATOM     73  C   UNL     1       9.294   0.906   0.382  1.00  0.00     0.135 A 
ATOM     74  C   UNL     1       8.917  -1.295   1.125  1.00  0.00     0.135 A 
ATOM     75  F   UNL     1       9.201   2.240   0.430  1.00  0.00    -0.206 F 
ATOM     76  C   UNL     1      10.136   0.432  -0.641  1.00  0.00     0.059 A 
ATOM     77  C   UNL     1       9.783  -1.793   0.128  1.00  0.00     0.059 A 
ATOM     78  F   UNL     1       8.411  -2.252   1.902  1.00  0.00    -0.206 F 
ATOM     79  C   UNL     1      10.388  -0.923  -0.759  1.00  0.00     0.060 A 
BRANCH  79  80
ATOM     80  S   UNL     1      11.562  -1.500  -2.005  1.00  0.00     0.124 S 
ATOM     81  O   UNL     1      10.867  -1.193  -3.252  1.00  0.00    -0.237 OA
ATOM     82  O   UNL     1      12.740  -0.687  -1.721  1.00  0.00    -0.237 OA
ATOM     83  O   UNL     1      11.707  -2.923  -1.709  1.00  0.00    -0.744 OA
ENDBRANCH  79  80
ENDBRANCH  58  72
BRANCH  59  84
ATOM     84  C   UNL     1       0.457   3.756   6.436  1.00  0.00     0.058 A 
ATOM     85  C   UNL     1      -0.801   3.999   5.824  1.00  0.00     0.135 A 
ATOM     86  C   UNL     1       0.509   2.642   7.298  1.00  0.00     0.135 A 
ATOM     87  F   UNL     1      -0.947   5.056   5.006  1.00  0.00    -0.206 F 
ATOM     88  C   UNL     1      -1.843   3.064   5.847  1.00  0.00     0.059 A 
ATOM     89  C   UNL     1      -0.523   1.682   7.324  1.00  0.00     0.059 A 
ATOM     90  F   UNL     1       1.647   2.355   7.948  1.00  0.00    -0.206 F 
ATOM     91  C   UNL     1      -1.665   1.869   6.539  1.00  0.00     0.060 A 
BRANCH  91  92
ATOM     92  S   UNL     1      -2.794   0.483   6.184  1.00  0.00     0.124 S 
ATOM     93  O   UNL     1      -3.868   0.698   7.144  1.00  0.00    -0.237 OA
ATOM     94  O   UNL     1      -3.152   0.698   4.781  1.00  0.00    -0.237 OA
ATOM     95  O   UNL     1      -1.963  -0.694   6.407  1.00  0.00    -0.744 OA
ENDBRANCH  91  92
ENDBRANCH  59  84
BRANCH  71  96
ATOM     96  C   UNL     1       7.675   5.354   5.388  1.00  0.00     0.058 A 
ATOM     97  C   UNL     1       7.769   5.711   6.741  1.00  0.00     0.135 A 
ATOM     98  C   UNL     1       8.903   5.290   4.678  1.00  0.00     0.135 A 
ATOM     99  F   UNL     1       6.700   5.684   7.550  1.00  0.00    -0.206 F 
ATOM    100  C   UNL     1       8.977   6.063   7.328  1.00  0.00     0.059 A 
ATOM    101  C   UNL     1      10.128   5.570   5.265  1.00  0.00     0.059 A 
ATOM    102  F   UNL     1       8.965   4.922   3.389  1.00  0.00    -0.206 F 
ATOM    103  C   UNL     1      10.148   5.997   6.581  1.00  0.00     0.060 A 
BRANCH 103 104
ATOM    104  S   UNL     1      11.696   6.482   7.348  1.00  0.00     0.124 S 
ATOM    105  O   UNL     1      11.622   7.935   7.231  1.00  0.00    -0.237 OA
ATOM    106  O   UNL     1      11.561   5.948   8.700  1.00  0.00    -0.237 OA
ATOM    107  O   UNL     1      12.706   5.831   6.520  1.00  0.00    -0.744 OA
ENDBRANCH 103 104
ENDBRANCH  71  96
ENDBRANCH  45  46
ENDBRANCH  38  40
ENDBRANCH  37  38
ENDBRANCH  36  37
ENDBRANCH  35  36
ENDBRANCH  34  35
ENDBRANCH  33  34
ENDBRANCH  32  33
ENDBRANCH  31  32
ENDBRANCH   1  31
TORSDOF 28
