REMARK SMILES O=C(OCCOCCOCCOCCOC(=O)[C@@H]1CCCC[C@H]1C(=O)Nc1ccc(NC(=O)c2ccco2)cc1)c1ccc(-c2c3nc(c(-c4c(F)cc(S(=O)(=O)[O-])cc4F)c4ccc([nH]4)c(-c4c(F)cc(S(=O)(=O)[O-])cc4F)c4nc(c(-c5c(F)cc(S(=O)(=O)[O-])cc5F)c5ccc2[nH]5)C=C4)C=C3)cc1
REMARK SMILES IDX 10 1 9 2 8 3 7 4 6 5 5 6 4 7 3 8 2 9 1 10 41 11 42 12 106 13
REMARK SMILES IDX 43 14 105 15 44 16 45 17 46 18 99 19 47 20 104 21 98 22
REMARK SMILES IDX 100 23 48 24 103 25 97 26 96 27 49 29 83 30 62 31 82 32
REMARK SMILES IDX 63 33 66 34 81 35 101 36 64 37 65 38 80 40 102 41 67 42
REMARK SMILES IDX 50 43 51 44 60 45 52 46 53 47 59 48 61 49 54 50 55 51 56 52
REMARK SMILES IDX 57 53 58 54 84 55 85 56 94 57 86 58 87 59 93 60 95 61 88 62
REMARK SMILES IDX 89 63 90 64 91 65 92 66 68 67 69 68 78 69 70 70 71 71 77 72
REMARK SMILES IDX 79 73 72 74 73 75 74 76 75 77 76 78 11 79 12 80 13 81 14 82
REMARK SMILES IDX 15 83 16 84 17 85 18 86 19 87 23 88 20 89 22 90 21 91 24 92
REMARK SMILES IDX 25 93 26 94 27 96 28 97 40 98 29 99 39 100 30 101 31 102
REMARK SMILES IDX 32 103 33 105 34 106 35 107 38 108 36 109 37 110
REMARK H PARENT 100 28 66 39 26 95 31 104
REMARK Flexibility Score: inf
ROOT
ATOM      1  C   UNL     1       4.014  -0.384   3.396  1.00  0.00     0.188 C 
ENDROOT
BRANCH   1   2
ATOM      2  O   UNL     1       2.611  -0.128   3.422  1.00  0.00    -0.377 OA
BRANCH   2   3
ATOM      3  C   UNL     1       1.931  -0.302   2.176  1.00  0.00     0.188 C 
BRANCH   3   4
ATOM      4  C   UNL     1       2.305   0.794   1.183  1.00  0.00     0.188 C 
BRANCH   4   5
ATOM      5  O   UNL     1       3.605   0.496   0.668  1.00  0.00    -0.376 OA
BRANCH   5   6
ATOM      6  C   UNL     1       4.286   1.607   0.098  1.00  0.00     0.202 C 
BRANCH   6   7
ATOM      7  C   UNL     1       4.286   1.539  -1.430  1.00  0.00     0.261 C 
BRANCH   7   8
ATOM      8  O   UNL     1       2.973   1.238  -1.931  1.00  0.00    -0.460 OA
BRANCH   8   9
ATOM      9  C   UNL     1       2.411   0.022  -2.144  1.00  0.00     0.338 C 
ATOM     10  O   UNL     1       1.225  -0.012  -2.474  1.00  0.00    -0.246 OA
BRANCH   9  11
ATOM     11  C   UNL     1       3.142  -1.288  -2.059  1.00  0.00     0.060 A 
ATOM     12  C   UNL     1       4.287  -1.547  -1.300  1.00  0.00     0.016 A 
ATOM     13  C   UNL     1       2.582  -2.365  -2.775  1.00  0.00     0.016 A 
ATOM     14  C   UNL     1       4.894  -2.798  -1.295  1.00  0.00     0.010 A 
ATOM     15  C   UNL     1       3.179  -3.631  -2.769  1.00  0.00     0.010 A 
ATOM     16  C   UNL     1       4.358  -3.837  -2.049  1.00  0.00    -0.014 A 
BRANCH  16  17
ATOM     17  C   UNL     1       5.161  -5.063  -2.200  1.00  0.00     0.031 A 
ATOM     18  C   UNL     1       6.010  -5.192  -3.430  1.00  0.00     0.074 A 
ATOM     19  C   UNL     1       5.233  -5.952  -1.193  1.00  0.00     0.049 A 
ATOM     20  N   UNL     1       6.776  -6.178  -3.808  1.00  0.00    -0.248 NA
ATOM     21  C   UNL     1       6.011  -4.041  -4.352  1.00  0.00     0.031 C 
ATOM     22  C   UNL     1       4.543  -5.829   0.092  1.00  0.00     0.029 A 
ATOM     23  N   UNL     1       5.940  -7.119  -1.082  1.00  0.00    -0.354 N 
ATOM     24  C   UNL     1       7.329  -5.779  -5.019  1.00  0.00     0.074 A 
ATOM     25  C   UNL     1       6.824  -4.457  -5.311  1.00  0.00     0.031 C 
ATOM     26  C   UNL     1       4.867  -6.879   0.866  1.00  0.00     0.029 A 
ATOM     27  C   UNL     1       5.739  -7.773   0.111  1.00  0.00     0.049 A 
ATOM     28  H   UNL     1       6.537  -7.458  -1.788  1.00  0.00     0.167 HD
ATOM     29  C   UNL     1       8.172  -6.469  -5.818  1.00  0.00     0.037 A 
ATOM     30  C   UNL     1       6.183  -8.978   0.517  1.00  0.00     0.037 A 
ATOM     31  C   UNL     1       8.650  -7.786  -5.502  1.00  0.00     0.049 A 
ATOM     32  C   UNL     1       7.048  -9.768  -0.433  1.00  0.00     0.074 A 
ATOM     33  C   UNL     1       9.441  -8.626  -6.261  1.00  0.00     0.029 A 
ATOM     34  N   UNL     1       8.373  -8.452  -4.315  1.00  0.00    -0.354 N 
ATOM     35  N   UNL     1       7.506  -9.417  -1.613  1.00  0.00    -0.248 NA
ATOM     36  C   UNL     1       7.436 -11.120  -0.014  1.00  0.00     0.031 C 
ATOM     37  C   UNL     1       9.615  -9.816  -5.545  1.00  0.00     0.029 A 
ATOM     38  C   UNL     1       8.963  -9.700  -4.325  1.00  0.00     0.049 A 
ATOM     39  H   UNL     1       7.835  -8.087  -3.575  1.00  0.00     0.167 HD
ATOM     40  C   UNL     1       8.237 -10.503  -2.078  1.00  0.00     0.074 A 
ATOM     41  C   UNL     1       8.181 -11.514  -1.039  1.00  0.00     0.031 C 
ATOM     42  C   UNL     1       8.885 -10.666  -3.258  1.00  0.00     0.037 A 
BRANCH  29  43
ATOM     43  C   UNL     1       8.552  -5.839  -7.125  1.00  0.00     0.058 A 
ATOM     44  C   UNL     1       9.494  -4.803  -7.206  1.00  0.00     0.135 A 
ATOM     45  C   UNL     1       7.941  -6.267  -8.315  1.00  0.00     0.135 A 
ATOM     46  F   UNL     1      10.079  -4.333  -6.093  1.00  0.00    -0.206 F 
ATOM     47  C   UNL     1       9.807  -4.201  -8.421  1.00  0.00     0.059 A 
ATOM     48  C   UNL     1       8.251  -5.691  -9.543  1.00  0.00     0.059 A 
ATOM     49  F   UNL     1       7.019  -7.242  -8.288  1.00  0.00    -0.206 F 
ATOM     50  C   UNL     1       9.177  -4.650  -9.584  1.00  0.00     0.060 A 
BRANCH  50  51
ATOM     51  S   UNL     1       9.583  -3.853 -11.153  1.00  0.00     0.124 S 
ATOM     52  O   UNL     1       8.887  -2.577 -11.020  1.00  0.00    -0.237 OA
ATOM     53  O   UNL     1      11.040  -3.788 -11.103  1.00  0.00    -0.237 OA
ATOM     54  O   UNL     1       9.033  -4.766 -12.150  1.00  0.00    -0.744 OA
ENDBRANCH  50  51
ENDBRANCH  29  43
BRANCH  30  55
ATOM     55  C   UNL     1       5.761  -9.544   1.829  1.00  0.00     0.058 A 
ATOM     56  C   UNL     1       6.684  -9.790   2.857  1.00  0.00     0.135 A 
ATOM     57  C   UNL     1       4.419  -9.883   2.069  1.00  0.00     0.135 A 
ATOM     58  F   UNL     1       7.981  -9.495   2.678  1.00  0.00    -0.206 F 
ATOM     59  C   UNL     1       6.298 -10.373   4.063  1.00  0.00     0.059 A 
ATOM     60  C   UNL     1       4.005 -10.441   3.275  1.00  0.00     0.059 A 
ATOM     61  F   UNL     1       3.490  -9.665   1.125  1.00  0.00    -0.206 F 
ATOM     62  C   UNL     1       4.955 -10.700   4.259  1.00  0.00     0.060 A 
BRANCH  62  63
ATOM     63  S   UNL     1       4.452 -11.451   5.824  1.00  0.00     0.124 S 
ATOM     64  O   UNL     1       4.875 -12.833   5.634  1.00  0.00    -0.237 OA
ATOM     65  O   UNL     1       5.214 -10.679   6.801  1.00  0.00    -0.237 OA
ATOM     66  O   UNL     1       3.009 -11.228   5.851  1.00  0.00    -0.744 OA
ENDBRANCH  62  63
ENDBRANCH  30  55
BRANCH  42  67
ATOM     67  C   UNL     1       9.587 -11.972  -3.472  1.00  0.00     0.058 A 
ATOM     68  C   UNL     1       8.877 -13.131  -3.817  1.00  0.00     0.135 A 
ATOM     69  C   UNL     1      10.987 -12.044  -3.405  1.00  0.00     0.135 A 
ATOM     70  F   UNL     1       7.536 -13.106  -3.888  1.00  0.00    -0.206 F 
ATOM     71  C   UNL     1       9.532 -14.327  -4.078  1.00  0.00     0.059 A 
ATOM     72  C   UNL     1      11.664 -13.225  -3.683  1.00  0.00     0.059 A 
ATOM     73  F   UNL     1      11.706 -10.956  -3.090  1.00  0.00    -0.206 F 
ATOM     74  C   UNL     1      10.927 -14.363  -4.011  1.00  0.00     0.060 A 
BRANCH  74  75
ATOM     75  S   UNL     1      11.774 -15.907  -4.406  1.00  0.00     0.124 S 
ATOM     76  O   UNL     1      11.593 -16.663  -3.171  1.00  0.00    -0.237 OA
ATOM     77  O   UNL     1      11.027 -16.391  -5.562  1.00  0.00    -0.237 OA
ATOM     78  O   UNL     1      13.141 -15.478  -4.687  1.00  0.00    -0.744 OA
ENDBRANCH  74  75
ENDBRANCH  42  67
ENDBRANCH  16  17
ENDBRANCH   9  11
ENDBRANCH   8   9
ENDBRANCH   7   8
ENDBRANCH   6   7
ENDBRANCH   5   6
ENDBRANCH   4   5
ENDBRANCH   3   4
ENDBRANCH   2   3
ENDBRANCH   1   2
BRANCH   1  79
ATOM     79  C   UNL     1       4.458  -1.831   3.260  1.00  0.00     0.188 C 
BRANCH  79  80
ATOM     80  O   UNL     1       4.165  -2.700   4.350  1.00  0.00    -0.376 OA
BRANCH  80  81
ATOM     81  C   UNL     1       2.905  -2.567   4.999  1.00  0.00     0.202 C 
BRANCH  81  82
ATOM     82  C   UNL     1       3.080  -1.911   6.376  1.00  0.00     0.261 C 
BRANCH  82  83
ATOM     83  O   UNL     1       3.343  -0.483   6.330  1.00  0.00    -0.463 OA
BRANCH  83  84
ATOM     84  C   UNL     1       4.553  -0.087   6.802  1.00  0.00     0.309 C 
ATOM     85  O   UNL     1       5.414  -0.855   7.222  1.00  0.00    -0.252 OA
BRANCH  84  86
ATOM     86  C   UNL     1       4.729   1.428   6.933  1.00  0.00     0.111 C 
ATOM     87  C   UNL     1       3.794   1.882   8.072  1.00  0.00     0.016 C 
ATOM     88  C   UNL     1       4.597   2.382   5.726  1.00  0.00     0.093 C 
ATOM     89  C   UNL     1       4.138   3.296   8.525  1.00  0.00     0.001 C 
ATOM     90  C   UNL     1       4.909   3.831   6.181  1.00  0.00     0.014 C 
ATOM     91  C   UNL     1       4.057   4.277   7.365  1.00  0.00     0.001 C 
BRANCH  88  92
ATOM     92  C   UNL     1       5.278   2.251   4.348  1.00  0.00     0.228 C 
ATOM     93  O   UNL     1       4.601   2.572   3.353  1.00  0.00    -0.274 OA
ATOM     94  N   UNL     1       6.590   2.057   4.060  1.00  0.00    -0.326 N 
ATOM     95  H   UNL     1       6.780   2.060   3.094  1.00  0.00     0.169 HD
BRANCH  94  96
ATOM     96  C   UNL     1       7.722   1.854   4.841  1.00  0.00     0.041 A 
ATOM     97  C   UNL     1       8.902   2.481   4.460  1.00  0.00     0.028 A 
ATOM     98  C   UNL     1       7.748   1.049   5.958  1.00  0.00     0.028 A 
ATOM     99  C   UNL     1       9.978   2.530   5.349  1.00  0.00     0.028 A 
ATOM    100  C   UNL     1       8.793   1.133   6.874  1.00  0.00     0.028 A 
ATOM    101  C   UNL     1       9.865   1.985   6.626  1.00  0.00     0.041 A 
BRANCH 101 102
ATOM    102  N   UNL     1      10.709   2.263   7.711  1.00  0.00    -0.319 N 
ATOM    103  C   UNL     1      11.644   3.260   7.941  1.00  0.00     0.291 C 
ATOM    104  H   UNL     1      10.620   1.624   8.456  1.00  0.00     0.170 HD
ATOM    105  O   UNL     1      12.164   3.304   9.044  1.00  0.00    -0.265 OA
BRANCH 103 106
ATOM    106  C   UNL     1      11.932   4.225   6.904  1.00  0.00     0.191 A 
ATOM    107  C   UNL     1      11.231   5.309   6.408  1.00  0.00     0.056 A 
ATOM    108  O   UNL     1      13.103   4.081   6.211  1.00  0.00    -0.459 OA
ATOM    109  C   UNL     1      11.990   5.816   5.322  1.00  0.00     0.043 A 
ATOM    110  C   UNL     1      13.122   5.039   5.251  1.00  0.00     0.196 A 
ENDBRANCH 103 106
ENDBRANCH 101 102
ENDBRANCH  94  96
ENDBRANCH  88  92
ENDBRANCH  84  86
ENDBRANCH  83  84
ENDBRANCH  82  83
ENDBRANCH  81  82
ENDBRANCH  80  81
ENDBRANCH  79  80
ENDBRANCH   1  79
TORSDOF 27
