REMARK SMILES O=C(OCCOCCOCCOCCOC(=O)C1(C/C=C/c2ccccc2)Cc2ccccc2C1)c1ccc(-c2c3nc(c(-c4c(F)cc(S(=O)(=O)[O-])cc4F)c4ccc([nH]4)c(-c4c(F)cc(S(=O)(=O)[O-])cc4F)c4nc(c(-c5c(F)cc(S(=O)(=O)[O-])cc5F)c5ccc2[nH]5)C=C4)C=C3)cc1
REMARK SMILES IDX 9 1 8 2 7 3 6 4 5 5 4 6 3 7 2 8 1 9 36 10 37 11 101 12 38 13
REMARK SMILES IDX 100 14 39 15 40 16 41 17 94 18 42 19 99 20 93 21 95 22 43 23
REMARK SMILES IDX 98 24 92 25 91 26 44 28 78 29 57 30 77 31 58 32 61 33 76 34
REMARK SMILES IDX 96 35 59 36 60 37 75 39 97 40 62 41 45 42 46 43 55 44 47 45
REMARK SMILES IDX 48 46 54 47 56 48 49 49 50 50 51 51 52 52 53 53 79 54 80 55
REMARK SMILES IDX 89 56 81 57 82 58 88 59 90 60 83 61 84 62 85 63 86 64 87 65
REMARK SMILES IDX 63 66 64 67 73 68 65 69 66 70 72 71 74 72 67 73 68 74 69 75
REMARK SMILES IDX 70 76 71 77 10 78 11 79 12 80 13 81 14 82 15 83 16 84 17 85
REMARK SMILES IDX 18 86 28 87 35 88 29 89 34 90 30 91 33 92 31 93 32 94 19 95
REMARK SMILES IDX 20 96 21 97 22 98 23 99 27 100 24 101 26 102 25 103
REMARK H PARENT 95 27 61 38
REMARK Flexibility Score: inf
ROOT
ATOM      1  O   UNL     1       3.634   1.902  -3.071  1.00  0.00    -0.377 OA
ENDROOT
BRANCH   1   2
ATOM      2  C   UNL     1       2.533   1.519  -2.267  1.00  0.00     0.188 C 
BRANCH   2   3
ATOM      3  C   UNL     1       2.748   0.229  -1.510  1.00  0.00     0.188 C 
BRANCH   3   4
ATOM      4  O   UNL     1       3.987   0.321  -0.845  1.00  0.00    -0.376 OA
BRANCH   4   5
ATOM      5  C   UNL     1       4.713  -0.832  -0.498  1.00  0.00     0.202 C 
BRANCH   5   6
ATOM      6  C   UNL     1       3.919  -2.033  -0.023  1.00  0.00     0.261 C 
BRANCH   6   7
ATOM      7  O   UNL     1       2.548  -1.827   0.398  1.00  0.00    -0.460 OA
BRANCH   7   8
ATOM      8  C   UNL     1       1.944  -1.113   1.374  1.00  0.00     0.338 C 
ATOM      9  O   UNL     1       0.724  -1.183   1.502  1.00  0.00    -0.246 OA
BRANCH   8  10
ATOM     10  C   UNL     1       2.690  -0.278   2.336  1.00  0.00     0.060 A 
ATOM     11  C   UNL     1       3.587   0.709   1.956  1.00  0.00     0.016 A 
ATOM     12  C   UNL     1       2.361  -0.372   3.689  1.00  0.00     0.016 A 
ATOM     13  C   UNL     1       4.391   1.347   2.875  1.00  0.00     0.010 A 
ATOM     14  C   UNL     1       3.041   0.406   4.630  1.00  0.00     0.010 A 
ATOM     15  C   UNL     1       4.127   1.198   4.227  1.00  0.00    -0.014 A 
BRANCH  15  16
ATOM     16  C   UNL     1       5.108   1.737   5.187  1.00  0.00     0.031 A 
ATOM     17  C   UNL     1       5.850   0.748   6.037  1.00  0.00     0.074 A 
ATOM     18  C   UNL     1       5.428   3.046   5.177  1.00  0.00     0.049 A 
ATOM     19  N   UNL     1       6.652   0.954   7.042  1.00  0.00    -0.248 NA
ATOM     20  C   UNL     1       5.652  -0.679   5.713  1.00  0.00     0.031 C 
ATOM     21  C   UNL     1       4.872   4.052   4.263  1.00  0.00     0.029 A 
ATOM     22  N   UNL     1       6.334   3.750   5.922  1.00  0.00    -0.354 N 
ATOM     23  C   UNL     1       6.985  -0.309   7.518  1.00  0.00     0.074 A 
ATOM     24  C   UNL     1       6.306  -1.278   6.693  1.00  0.00     0.031 C 
ATOM     25  C   UNL     1       5.492   5.224   4.463  1.00  0.00     0.029 A 
ATOM     26  C   UNL     1       6.398   5.084   5.593  1.00  0.00     0.049 A 
ATOM     27  H   UNL     1       6.888   3.340   6.626  1.00  0.00     0.167 HD
ATOM     28  C   UNL     1       7.782  -0.617   8.565  1.00  0.00     0.037 A 
ATOM     29  C   UNL     1       7.079   6.084   6.184  1.00  0.00     0.037 A 
ATOM     30  C   UNL     1       8.474   0.388   9.323  1.00  0.00     0.049 A 
ATOM     31  C   UNL     1       7.899   5.730   7.394  1.00  0.00     0.074 A 
ATOM     32  C   UNL     1       9.271   0.238  10.440  1.00  0.00     0.029 A 
ATOM     33  N   UNL     1       8.454   1.745   9.017  1.00  0.00    -0.354 N 
ATOM     34  N   UNL     1       8.116   4.546   7.923  1.00  0.00    -0.248 NA
ATOM     35  C   UNL     1       8.540   6.839   8.107  1.00  0.00     0.031 C 
ATOM     36  C   UNL     1       9.694   1.512  10.837  1.00  0.00     0.029 A 
ATOM     37  C   UNL     1       9.210   2.449   9.933  1.00  0.00     0.049 A 
ATOM     38  H   UNL     1       7.971   2.145   8.258  1.00  0.00     0.167 HD
ATOM     39  C   UNL     1       8.936   4.764   9.022  1.00  0.00     0.074 A 
ATOM     40  C   UNL     1       9.187   6.194   9.068  1.00  0.00     0.031 C 
ATOM     41  C   UNL     1       9.435   3.874   9.917  1.00  0.00     0.037 A 
BRANCH  28  42
ATOM     42  C   UNL     1       7.845  -2.060   8.981  1.00  0.00     0.058 A 
ATOM     43  C   UNL     1       8.476  -3.048   8.206  1.00  0.00     0.135 A 
ATOM     44  C   UNL     1       7.194  -2.473  10.155  1.00  0.00     0.135 A 
ATOM     45  F   UNL     1       9.081  -2.719   7.053  1.00  0.00    -0.206 F 
ATOM     46  C   UNL     1       8.425  -4.394   8.560  1.00  0.00     0.059 A 
ATOM     47  C   UNL     1       7.155  -3.809  10.543  1.00  0.00     0.059 A 
ATOM     48  F   UNL     1       6.558  -1.576  10.925  1.00  0.00    -0.206 F 
ATOM     49  C   UNL     1       7.756  -4.765   9.728  1.00  0.00     0.060 A 
BRANCH  49  50
ATOM     50  S   UNL     1       7.670  -6.516  10.159  1.00  0.00     0.124 S 
ATOM     51  O   UNL     1       6.714  -7.012   9.174  1.00  0.00    -0.237 OA
ATOM     52  O   UNL     1       9.050  -6.951   9.976  1.00  0.00    -0.237 OA
ATOM     53  O   UNL     1       7.197  -6.503  11.540  1.00  0.00    -0.744 OA
ENDBRANCH  49  50
ENDBRANCH  28  42
BRANCH  29  54
ATOM     54  C   UNL     1       6.962   7.484   5.689  1.00  0.00     0.058 A 
ATOM     55  C   UNL     1       8.069   8.169   5.167  1.00  0.00     0.135 A 
ATOM     56  C   UNL     1       5.735   8.171   5.719  1.00  0.00     0.135 A 
ATOM     57  F   UNL     1       9.267   7.567   5.118  1.00  0.00    -0.206 F 
ATOM     58  C   UNL     1       7.971   9.481   4.709  1.00  0.00     0.059 A 
ATOM     59  C   UNL     1       5.604   9.470   5.238  1.00  0.00     0.059 A 
ATOM     60  F   UNL     1       4.636   7.567   6.199  1.00  0.00    -0.206 F 
ATOM     61  C   UNL     1       6.731  10.123   4.747  1.00  0.00     0.060 A 
BRANCH  61  62
ATOM     62  S   UNL     1       6.611  11.816   4.129  1.00  0.00     0.124 S 
ATOM     63  O   UNL     1       7.304  12.560   5.160  1.00  0.00    -0.237 OA
ATOM     64  O   UNL     1       7.289  11.718   2.836  1.00  0.00    -0.237 OA
ATOM     65  O   UNL     1       5.164  12.039   4.046  1.00  0.00    -0.744 OA
ENDBRANCH  61  62
ENDBRANCH  29  54
BRANCH  41  66
ATOM     66  C   UNL     1      10.340   4.426  10.976  1.00  0.00     0.058 A 
ATOM     67  C   UNL     1       9.846   5.178  12.052  1.00  0.00     0.135 A 
ATOM     68  C   UNL     1      11.715   4.148  10.935  1.00  0.00     0.135 A 
ATOM     69  F   UNL     1       8.538   5.474  12.126  1.00  0.00    -0.206 F 
ATOM     70  C   UNL     1      10.692   5.661  13.040  1.00  0.00     0.059 A 
ATOM     71  C   UNL     1      12.574   4.593  11.930  1.00  0.00     0.059 A 
ATOM     72  F   UNL     1      12.229   3.420   9.931  1.00  0.00    -0.206 F 
ATOM     73  C   UNL     1      12.055   5.361  12.972  1.00  0.00     0.060 A 
BRANCH  73  74
ATOM     74  S   UNL     1      13.139   5.965  14.279  1.00  0.00     0.124 S 
ATOM     75  O   UNL     1      13.240   7.381  13.944  1.00  0.00    -0.237 OA
ATOM     76  O   UNL     1      12.379   5.651  15.485  1.00  0.00    -0.237 OA
ATOM     77  O   UNL     1      14.359   5.186  14.094  1.00  0.00    -0.744 OA
ENDBRANCH  73  74
ENDBRANCH  41  66
ENDBRANCH  15  16
ENDBRANCH   8  10
ENDBRANCH   7   8
ENDBRANCH   6   7
ENDBRANCH   5   6
ENDBRANCH   4   5
ENDBRANCH   3   4
ENDBRANCH   2   3
ENDBRANCH   1   2
BRANCH   1  78
ATOM     78  C   UNL     1       4.920   2.168  -2.496  1.00  0.00     0.188 C 
BRANCH  78  79
ATOM     79  C   UNL     1       5.069   3.320  -1.498  1.00  0.00     0.188 C 
BRANCH  79  80
ATOM     80  O   UNL     1       3.868   3.648  -0.842  1.00  0.00    -0.376 OA
BRANCH  80  81
ATOM     81  C   UNL     1       3.143   4.772  -1.327  1.00  0.00     0.202 C 
BRANCH  81  82
ATOM     82  C   UNL     1       3.205   5.240  -2.802  1.00  0.00     0.261 C 
BRANCH  82  83
ATOM     83  O   UNL     1       3.378   4.240  -3.837  1.00  0.00    -0.463 OA
BRANCH  83  84
ATOM     84  C   UNL     1       4.453   4.411  -4.654  1.00  0.00     0.313 C 
ATOM     85  O   UNL     1       5.219   5.367  -4.516  1.00  0.00    -0.252 OA
BRANCH  84  86
ATOM     86  C   UNL     1       4.624   3.437  -5.859  1.00  0.00     0.079 C 
ATOM     87  C   UNL     1       6.156   3.593  -6.201  1.00  0.00     0.055 C 
ATOM     88  C   UNL     1       4.443   1.883  -5.799  1.00  0.00     0.055 C 
ATOM     89  C   UNL     1       6.569   2.287  -6.789  1.00  0.00    -0.044 A 
ATOM     90  C   UNL     1       5.587   1.326  -6.601  1.00  0.00    -0.044 A 
ATOM     91  C   UNL     1       7.801   1.957  -7.329  1.00  0.00     0.004 A 
ATOM     92  C   UNL     1       5.797   0.007  -6.980  1.00  0.00     0.004 A 
ATOM     93  C   UNL     1       8.024   0.636  -7.720  1.00  0.00     0.000 A 
ATOM     94  C   UNL     1       7.024  -0.333  -7.555  1.00  0.00     0.000 A 
BRANCH  86  95
ATOM     95  C   UNL     1       3.711   4.006  -6.982  1.00  0.00     0.047 C 
BRANCH  95  96
ATOM     96  C   UNL     1       2.243   3.738  -6.714  1.00  0.00    -0.025 C 
ATOM     97  C   UNL     1       1.393   4.633  -6.185  1.00  0.00     0.004 C 
BRANCH  97  98
ATOM     98  C   UNL     1       0.046   4.266  -5.730  1.00  0.00    -0.026 A 
ATOM     99  C   UNL     1      -1.059   5.014  -6.141  1.00  0.00     0.008 A 
ATOM    100  C   UNL     1      -0.144   3.224  -4.811  1.00  0.00     0.008 A 
ATOM    101  C   UNL     1      -2.335   4.713  -5.656  1.00  0.00     0.001 A 
ATOM    102  C   UNL     1      -1.417   2.927  -4.319  1.00  0.00     0.001 A 
ATOM    103  C   UNL     1      -2.513   3.672  -4.744  1.00  0.00     0.000 A 
ENDBRANCH  97  98
ENDBRANCH  95  96
ENDBRANCH  86  95
ENDBRANCH  84  86
ENDBRANCH  83  84
ENDBRANCH  82  83
ENDBRANCH  81  82
ENDBRANCH  80  81
ENDBRANCH  79  80
ENDBRANCH  78  79
ENDBRANCH   1  78
TORSDOF 26
