REMARK SMILES Cc1ccc(-c2noc(CCC(=O)OCCOCCOCCOCCOC(=O)c3ccc(-c4c5nc(c(-c6c(F)cc(S(=O)(=O)[O-])cc6F)c6ccc([nH]6)c(-c6c(F)cc(S(=O)(=O)[O-])cc6F)c6nc(c(-c7c(F)cc(S(=O)(=O)[O-])cc7F)c7ccc4[nH]7)C=C6)C=C5)cc3)n2)cc1C
REMARK SMILES IDX 20 1 19 2 18 3 17 4 16 5 15 6 14 7 12 8 13 9 11 10 10 11
REMARK SMILES IDX 9 12 6 13 7 14 95 15 8 16 5 17 1 18 2 19 3 20 97 21 4 22
REMARK SMILES IDX 96 23 98 24 21 25 22 26 23 27 24 28 25 29 26 30 27 31 28 32
REMARK SMILES IDX 29 33 30 34 94 35 31 36 93 37 32 38 33 39 34 40 87 41 35 42
REMARK SMILES IDX 92 43 86 44 88 45 36 46 91 47 85 48 84 49 37 51 71 52 50 53
REMARK SMILES IDX 70 54 51 55 54 56 69 57 89 58 52 59 53 60 68 62 90 63 55 64
REMARK SMILES IDX 38 65 39 66 48 67 40 68 41 69 47 70 49 71 42 72 43 73 44 74
REMARK SMILES IDX 45 75 46 76 72 77 73 78 82 79 74 80 75 81 81 82 83 83 76 84
REMARK SMILES IDX 77 85 78 86 79 87 80 88 56 89 57 90 66 91 58 92 59 93 65 94
REMARK SMILES IDX 67 95 60 96 61 97 62 98 63 99 64 100
REMARK H PARENT 88 50 54 61
REMARK Flexibility Score: inf
ROOT
ATOM      1  O   UNL     1      -6.910  -3.065   1.048  1.00  0.00    -0.377 OA
ENDROOT
BRANCH   1   2
ATOM      2  C   UNL     1      -7.977  -3.603   0.287  1.00  0.00     0.188 C 
BRANCH   2   3
ATOM      3  C   UNL     1      -8.230  -5.118   0.258  1.00  0.00     0.188 C 
BRANCH   3   4
ATOM      4  O   UNL     1      -7.779  -5.819   1.390  1.00  0.00    -0.376 OA
BRANCH   4   5
ATOM      5  C   UNL     1      -6.553  -6.528   1.361  1.00  0.00     0.202 C 
BRANCH   5   6
ATOM      6  C   UNL     1      -5.371  -6.179   0.437  1.00  0.00     0.261 C 
BRANCH   6   7
ATOM      7  O   UNL     1      -5.533  -5.067  -0.453  1.00  0.00    -0.463 OA
BRANCH   7   8
ATOM      8  C   UNL     1      -5.531  -5.331  -1.773  1.00  0.00     0.306 C 
ATOM      9  O   UNL     1      -5.587  -6.462  -2.247  1.00  0.00    -0.252 OA
BRANCH   8  10
ATOM     10  C   UNL     1      -5.502  -4.114  -2.675  1.00  0.00     0.132 C 
BRANCH  10  11
ATOM     11  C   UNL     1      -5.468  -2.678  -2.171  1.00  0.00     0.112 C 
BRANCH  11  12
ATOM     12  C   UNL     1      -4.375  -2.286  -1.259  1.00  0.00     0.227 A 
ATOM     13  C   UNL     1      -2.796  -1.380  -0.234  1.00  0.00     0.202 A 
ATOM     14  N   UNL     1      -3.216  -2.324   0.619  1.00  0.00    -0.057 NA
ATOM     15  N   UNL     1      -3.507  -1.314  -1.410  1.00  0.00    -0.191 NA
ATOM     16  O   UNL     1      -4.287  -2.899  -0.049  1.00  0.00    -0.339 OA
BRANCH  13  17
ATOM     17  C   UNL     1      -1.596  -0.606  -0.044  1.00  0.00     0.023 A 
ATOM     18  C   UNL     1       2.073   1.641   0.062  1.00  0.00     0.044 C 
ATOM     19  C   UNL     1       0.808   0.832   0.060  1.00  0.00    -0.048 A 
ATOM     20  C   UNL     1      -0.429   1.500   0.011  1.00  0.00     0.004 A 
ATOM     21  C   UNL     1       0.834  -0.576   0.084  1.00  0.00    -0.047 A 
ATOM     22  C   UNL     1      -1.626   0.787  -0.053  1.00  0.00     0.012 A 
ATOM     23  C   UNL     1      -0.376  -1.279   0.050  1.00  0.00     0.015 A 
ATOM     24  C   UNL     1       2.095  -1.395   0.114  1.00  0.00     0.044 C 
ENDBRANCH  13  17
ENDBRANCH  11  12
ENDBRANCH  10  11
ENDBRANCH   8  10
ENDBRANCH   7   8
ENDBRANCH   6   7
ENDBRANCH   5   6
ENDBRANCH   4   5
ENDBRANCH   3   4
ENDBRANCH   2   3
ENDBRANCH   1   2
BRANCH   1  25
ATOM     25  C   UNL     1      -6.788  -3.375   2.437  1.00  0.00     0.188 C 
BRANCH  25  26
ATOM     26  C   UNL     1      -8.037  -3.728   3.272  1.00  0.00     0.188 C 
BRANCH  26  27
ATOM     27  O   UNL     1      -9.274  -3.456   2.635  1.00  0.00    -0.376 OA
BRANCH  27  28
ATOM     28  C   UNL     1      -9.924  -2.237   2.964  1.00  0.00     0.202 C 
BRANCH  28  29
ATOM     29  C   UNL     1      -9.156  -0.927   2.725  1.00  0.00     0.261 C 
BRANCH  29  30
ATOM     30  O   UNL     1      -7.920  -0.771   3.439  1.00  0.00    -0.460 OA
BRANCH  30  31
ATOM     31  C   UNL     1      -7.966  -0.818   4.790  1.00  0.00     0.338 C 
ATOM     32  O   UNL     1      -8.950  -0.948   5.488  1.00  0.00    -0.246 OA
BRANCH  31  33
ATOM     33  C   UNL     1      -6.572  -0.863   5.279  1.00  0.00     0.060 A 
ATOM     34  C   UNL     1      -6.133  -1.989   5.987  1.00  0.00     0.016 A 
ATOM     35  C   UNL     1      -5.710   0.211   5.046  1.00  0.00     0.016 A 
ATOM     36  C   UNL     1      -4.836  -2.025   6.501  1.00  0.00     0.010 A 
ATOM     37  C   UNL     1      -4.419   0.180   5.577  1.00  0.00     0.010 A 
ATOM     38  C   UNL     1      -3.989  -0.921   6.338  1.00  0.00    -0.014 A 
BRANCH  38  39
ATOM     39  C   UNL     1      -2.739  -0.829   7.132  1.00  0.00     0.031 A 
ATOM     40  C   UNL     1      -2.757  -0.011   8.396  1.00  0.00     0.074 A 
ATOM     41  C   UNL     1      -1.620  -1.473   6.758  1.00  0.00     0.049 A 
ATOM     42  N   UNL     1      -1.788   0.248   9.235  1.00  0.00    -0.248 NA
ATOM     43  C   UNL     1      -4.047   0.599   8.757  1.00  0.00     0.031 C 
ATOM     44  C   UNL     1      -1.492  -2.332   5.583  1.00  0.00     0.029 A 
ATOM     45  N   UNL     1      -0.375  -1.498   7.334  1.00  0.00    -0.354 N 
ATOM     46  C   UNL     1      -2.349   1.054  10.220  1.00  0.00     0.074 A 
ATOM     47  C   UNL     1      -3.730   1.276   9.849  1.00  0.00     0.031 C 
ATOM     48  C   UNL     1      -0.233  -2.804   5.526  1.00  0.00     0.029 A 
ATOM     49  C   UNL     1       0.540  -2.249   6.637  1.00  0.00     0.049 A 
ATOM     50  H   UNL     1      -0.157  -1.022   8.168  1.00  0.00     0.167 HD
ATOM     51  C   UNL     1      -1.770   1.556  11.338  1.00  0.00     0.037 A 
ATOM     52  C   UNL     1       1.854  -2.450   6.863  1.00  0.00     0.037 A 
ATOM     53  C   UNL     1      -0.389   1.348  11.688  1.00  0.00     0.049 A 
ATOM     54  C   UNL     1       2.506  -1.802   8.059  1.00  0.00     0.074 A 
ATOM     55  C   UNL     1       0.299   1.812  12.794  1.00  0.00     0.029 A 
ATOM     56  N   UNL     1       0.520   0.624  10.927  1.00  0.00    -0.354 N 
ATOM     57  N   UNL     1       1.966  -1.052   8.991  1.00  0.00    -0.248 NA
ATOM     58  C   UNL     1       3.948  -2.029   8.233  1.00  0.00     0.031 C 
ATOM     59  C   UNL     1       1.637   1.421  12.672  1.00  0.00     0.029 A 
ATOM     60  C   UNL     1       1.770   0.655  11.525  1.00  0.00     0.049 A 
ATOM     61  H   UNL     1       0.308   0.158  10.087  1.00  0.00     0.167 HD
ATOM     62  C   UNL     1       2.993  -0.746   9.880  1.00  0.00     0.074 A 
ATOM     63  C   UNL     1       4.185  -1.398   9.376  1.00  0.00     0.031 C 
ATOM     64  C   UNL     1       2.951  -0.001  11.014  1.00  0.00     0.037 A 
BRANCH  51  65
ATOM     65  C   UNL     1      -2.629   2.414  12.230  1.00  0.00     0.058 A 
ATOM     66  C   UNL     1      -3.711   1.884  12.954  1.00  0.00     0.135 A 
ATOM     67  C   UNL     1      -2.380   3.791  12.348  1.00  0.00     0.135 A 
ATOM     68  F   UNL     1      -4.006   0.577  12.868  1.00  0.00    -0.206 F 
ATOM     69  C   UNL     1      -4.545   2.695  13.716  1.00  0.00     0.059 A 
ATOM     70  C   UNL     1      -3.181   4.616  13.133  1.00  0.00     0.059 A 
ATOM     71  F   UNL     1      -1.359   4.354  11.682  1.00  0.00    -0.206 F 
ATOM     72  C   UNL     1      -4.276   4.062  13.793  1.00  0.00     0.060 A 
BRANCH  72  73
ATOM     73  S   UNL     1      -5.392   5.109  14.751  1.00  0.00     0.124 S 
ATOM     74  O   UNL     1      -6.577   5.127  13.899  1.00  0.00    -0.237 OA
ATOM     75  O   UNL     1      -5.522   4.365  16.000  1.00  0.00    -0.237 OA
ATOM     76  O   UNL     1      -4.672   6.374  14.851  1.00  0.00    -0.744 OA
ENDBRANCH  72  73
ENDBRANCH  51  65
BRANCH  52  77
ATOM     77  C   UNL     1       2.639  -3.318   5.943  1.00  0.00     0.058 A 
ATOM     78  C   UNL     1       3.119  -4.566   6.366  1.00  0.00     0.135 A 
ATOM     79  C   UNL     1       2.905  -2.931   4.620  1.00  0.00     0.135 A 
ATOM     80  F   UNL     1       2.908  -4.974   7.627  1.00  0.00    -0.206 F 
ATOM     81  C   UNL     1       3.833  -5.401   5.513  1.00  0.00     0.059 A 
ATOM     82  C   UNL     1       3.593  -3.760   3.740  1.00  0.00     0.059 A 
ATOM     83  F   UNL     1       2.468  -1.747   4.163  1.00  0.00    -0.206 F 
ATOM     84  C   UNL     1       4.056  -4.993   4.197  1.00  0.00     0.060 A 
BRANCH  84  85
ATOM     85  S   UNL     1       4.914  -6.120   3.075  1.00  0.00     0.124 S 
ATOM     86  O   UNL     1       6.270  -6.092   3.609  1.00  0.00    -0.237 OA
ATOM     87  O   UNL     1       4.175  -7.363   3.270  1.00  0.00    -0.237 OA
ATOM     88  O   UNL     1       4.737  -5.492   1.769  1.00  0.00    -0.744 OA
ENDBRANCH  84  85
ENDBRANCH  52  77
BRANCH  64  89
ATOM     89  C   UNL     1       4.220   0.122  11.817  1.00  0.00     0.058 A 
ATOM     90  C   UNL     1       5.316   0.875  11.368  1.00  0.00     0.135 A 
ATOM     91  C   UNL     1       4.318  -0.481  13.083  1.00  0.00     0.135 A 
ATOM     92  F   UNL     1       5.281   1.469  10.164  1.00  0.00    -0.206 F 
ATOM     93  C   UNL     1       6.473   1.005  12.132  1.00  0.00     0.059 A 
ATOM     94  C   UNL     1       5.451  -0.337  13.878  1.00  0.00     0.059 A 
ATOM     95  F   UNL     1       3.297  -1.204  13.569  1.00  0.00    -0.206 F 
ATOM     96  C   UNL     1       6.529   0.398  13.388  1.00  0.00     0.060 A 
BRANCH  96  97
ATOM     97  S   UNL     1       8.023   0.602  14.382  1.00  0.00     0.124 S 
ATOM     98  O   UNL     1       8.976  -0.232  13.658  1.00  0.00    -0.237 OA
ATOM     99  O   UNL     1       8.253   2.042  14.305  1.00  0.00    -0.237 OA
ATOM    100  O   UNL     1       7.628   0.106  15.697  1.00  0.00    -0.744 OA
ENDBRANCH  96  97
ENDBRANCH  64  89
ENDBRANCH  38  39
ENDBRANCH  31  33
ENDBRANCH  30  31
ENDBRANCH  29  30
ENDBRANCH  28  29
ENDBRANCH  27  28
ENDBRANCH  26  27
ENDBRANCH  25  26
ENDBRANCH   1  25
TORSDOF 26
