REMARK SMILES CN(CC(=O)N[C@H]1C=C[C@H](C(=O)OCCOCCOCCOCCOC(=O)c2ccc(-c3c4nc(c(-c5c(F)cc(S(=O)(=O)[O-])cc5F)c5ccc([nH]5)c(-c5c(F)cc(S(=O)(=O)[O-])cc5F)c5nc(c(-c6c(F)cc(S(=O)(=O)[O-])cc6F)c6ccc3[nH]6)C=C5)C=C4)cc2)C1)C(=O)c1cccs1
REMARK SMILES IDX 18 1 17 2 16 3 15 4 14 5 13 6 11 7 12 8 10 9 7 10 8 11 94 12
REMARK SMILES IDX 9 13 6 14 4 15 5 16 3 18 2 19 1 20 95 21 96 22 97 23 98 24
REMARK SMILES IDX 101 25 99 26 100 27 19 28 20 29 21 30 22 31 23 32 24 33
REMARK SMILES IDX 25 34 26 35 27 36 28 37 29 38 93 39 30 40 92 41 31 42 32 43
REMARK SMILES IDX 33 44 86 45 34 46 91 47 85 48 87 49 35 50 90 51 84 52 83 53
REMARK SMILES IDX 36 55 70 56 49 57 69 58 50 59 53 60 68 61 88 62 51 63 52 64
REMARK SMILES IDX 67 66 89 67 54 68 37 69 38 70 47 71 39 72 40 73 46 74 48 75
REMARK SMILES IDX 41 76 42 77 43 78 44 79 45 80 71 81 72 82 81 83 73 84 74 85
REMARK SMILES IDX 80 86 82 87 75 88 76 89 77 90 78 91 79 92 55 93 56 94 65 95
REMARK SMILES IDX 57 96 58 97 64 98 66 99 59 100 60 101 61 102 62 103 63 104
REMARK H PARENT 6 17 87 54 53 65
REMARK Flexibility Score: inf
ROOT
ATOM      1  C   UNL     1      -0.524  -0.354   2.896  1.00  0.00     0.188 C 
ENDROOT
BRANCH   1   2
ATOM      2  C   UNL     1      -1.189  -0.227   4.278  1.00  0.00     0.188 C 
BRANCH   2   3
ATOM      3  O   UNL     1      -0.908  -1.152   5.319  1.00  0.00    -0.376 OA
BRANCH   3   4
ATOM      4  C   UNL     1      -0.635  -2.512   5.019  1.00  0.00     0.202 C 
BRANCH   4   5
ATOM      5  C   UNL     1      -1.655  -3.342   4.220  1.00  0.00     0.261 C 
BRANCH   5   6
ATOM      6  O   UNL     1      -2.094  -2.788   2.962  1.00  0.00    -0.463 OA
BRANCH   6   7
ATOM      7  C   UNL     1      -3.359  -2.301   2.917  1.00  0.00     0.312 C 
ATOM      8  O   UNL     1      -4.128  -2.294   3.875  1.00  0.00    -0.252 OA
BRANCH   7   9
ATOM      9  C   UNL     1      -3.762  -1.714   1.554  1.00  0.00     0.124 C 
ATOM     10  C   UNL     1      -2.559  -0.210  -0.028  1.00  0.00     0.106 C 
ATOM     11  C   UNL     1      -3.494   0.537   0.865  1.00  0.00    -0.006 C 
ATOM     12  C   UNL     1      -2.744  -1.685   0.393  1.00  0.00     0.048 C 
ATOM     13  C   UNL     1      -4.136  -0.266   1.719  1.00  0.00    -0.014 C 
BRANCH  10  14
ATOM     14  N   UNL     1      -2.943   0.038  -1.394  1.00  0.00    -0.348 N 
ATOM     15  C   UNL     1      -2.227  -0.139  -2.540  1.00  0.00     0.240 C 
ATOM     16  O   UNL     1      -2.860  -0.102  -3.600  1.00  0.00    -0.273 OA
ATOM     17  H   UNL     1      -3.855   0.386  -1.518  1.00  0.00     0.164 HD
BRANCH  15  18
ATOM     18  C   UNL     1      -0.732  -0.507  -2.533  1.00  0.00     0.219 C 
BRANCH  18  19
ATOM     19  N   UNL     1       0.151   0.325  -1.707  1.00  0.00    -0.332 N 
ATOM     20  C   UNL     1       0.881  -0.331  -0.636  1.00  0.00     0.147 C 
BRANCH  19  21
ATOM     21  C   UNL     1       0.626   1.599  -2.068  1.00  0.00     0.264 C 
ATOM     22  O   UNL     1       1.407   2.202  -1.328  1.00  0.00    -0.268 OA
BRANCH  21  23
ATOM     23  C   UNL     1       0.224   2.156  -3.346  1.00  0.00     0.092 A 
ATOM     24  C   UNL     1      -1.019   2.528  -3.815  1.00  0.00     0.025 A 
ATOM     25  S   UNL     1       1.453   2.500  -4.494  1.00  0.00    -0.139 S 
ATOM     26  C   UNL     1      -0.972   2.995  -5.161  1.00  0.00     0.012 A 
ATOM     27  C   UNL     1       0.314   3.035  -5.649  1.00  0.00     0.065 A 
ENDBRANCH  21  23
ENDBRANCH  19  21
ENDBRANCH  18  19
ENDBRANCH  15  18
ENDBRANCH  10  14
ENDBRANCH   7   9
ENDBRANCH   6   7
ENDBRANCH   5   6
ENDBRANCH   4   5
ENDBRANCH   3   4
ENDBRANCH   2   3
ENDBRANCH   1   2
BRANCH   1  28
ATOM     28  O   UNL     1       0.358  -1.443   2.715  1.00  0.00    -0.377 OA
BRANCH  28  29
ATOM     29  C   UNL     1       1.747  -1.169   2.852  1.00  0.00     0.188 C 
BRANCH  29  30
ATOM     30  C   UNL     1       2.165  -0.210   3.977  1.00  0.00     0.188 C 
BRANCH  30  31
ATOM     31  O   UNL     1       1.487   1.040   3.909  1.00  0.00    -0.376 OA
BRANCH  31  32
ATOM     32  C   UNL     1       2.172   2.160   3.369  1.00  0.00     0.202 C 
BRANCH  32  33
ATOM     33  C   UNL     1       2.522   2.151   1.871  1.00  0.00     0.261 C 
BRANCH  33  34
ATOM     34  O   UNL     1       3.222   0.999   1.379  1.00  0.00    -0.460 OA
BRANCH  34  35
ATOM     35  C   UNL     1       4.472   0.776   1.831  1.00  0.00     0.338 C 
ATOM     36  O   UNL     1       5.091   1.460   2.630  1.00  0.00    -0.246 OA
BRANCH  35  37
ATOM     37  C   UNL     1       4.883  -0.571   1.369  1.00  0.00     0.060 A 
ATOM     38  C   UNL     1       5.212  -1.540   2.325  1.00  0.00     0.016 A 
ATOM     39  C   UNL     1       4.933  -0.886   0.007  1.00  0.00     0.016 A 
ATOM     40  C   UNL     1       5.627  -2.812   1.925  1.00  0.00     0.010 A 
ATOM     41  C   UNL     1       5.370  -2.156  -0.393  1.00  0.00     0.010 A 
ATOM     42  C   UNL     1       5.753  -3.115   0.563  1.00  0.00    -0.014 A 
BRANCH  42  43
ATOM     43  C   UNL     1       6.483  -4.344   0.147  1.00  0.00     0.031 A 
ATOM     44  C   UNL     1       7.933  -4.210  -0.246  1.00  0.00     0.074 A 
ATOM     45  C   UNL     1       5.902  -5.559   0.163  1.00  0.00     0.049 A 
ATOM     46  N   UNL     1       8.761  -5.117  -0.693  1.00  0.00    -0.248 NA
ATOM     47  C   UNL     1       8.527  -2.868  -0.114  1.00  0.00     0.031 C 
ATOM     48  C   UNL     1       4.528  -5.837   0.578  1.00  0.00     0.029 A 
ATOM     49  N   UNL     1       6.401  -6.791  -0.188  1.00  0.00    -0.354 N 
ATOM     50  C   UNL     1       9.972  -4.462  -0.884  1.00  0.00     0.074 A 
ATOM     51  C   UNL     1       9.760  -3.071  -0.550  1.00  0.00     0.031 C 
ATOM     52  C   UNL     1       4.289  -7.155   0.441  1.00  0.00     0.029 A 
ATOM     53  C   UNL     1       5.479  -7.809  -0.103  1.00  0.00     0.049 A 
ATOM     54  H   UNL     1       7.333  -6.932  -0.473  1.00  0.00     0.167 HD
ATOM     55  C   UNL     1      11.161  -4.973  -1.283  1.00  0.00     0.037 A 
ATOM     56  C   UNL     1       5.577  -9.109  -0.452  1.00  0.00     0.037 A 
ATOM     57  C   UNL     1      11.373  -6.355  -1.623  1.00  0.00     0.049 A 
ATOM     58  C   UNL     1       6.885  -9.632  -1.004  1.00  0.00     0.074 A 
ATOM     59  C   UNL     1      12.537  -6.964  -2.061  1.00  0.00     0.029 A 
ATOM     60  N   UNL     1      10.404  -7.345  -1.562  1.00  0.00    -0.354 N 
ATOM     61  N   UNL     1       8.022  -9.001  -1.176  1.00  0.00    -0.248 NA
ATOM     62  C   UNL     1       6.922 -11.047  -1.407  1.00  0.00     0.031 C 
ATOM     63  C   UNL     1      12.259  -8.311  -2.309  1.00  0.00     0.029 A 
ATOM     64  C   UNL     1      10.939  -8.555  -1.969  1.00  0.00     0.049 A 
ATOM     65  H   UNL     1       9.473  -7.207  -1.271  1.00  0.00     0.167 HD
ATOM     66  C   UNL     1       8.915  -9.950  -1.668  1.00  0.00     0.074 A 
ATOM     67  C   UNL     1       8.192 -11.200  -1.753  1.00  0.00     0.031 C 
ATOM     68  C   UNL     1      10.217  -9.801  -2.020  1.00  0.00     0.037 A 
BRANCH  55  69
ATOM     69  C   UNL     1      12.332  -4.035  -1.377  1.00  0.00     0.058 A 
ATOM     70  C   UNL     1      12.954  -3.525  -0.227  1.00  0.00     0.135 A 
ATOM     71  C   UNL     1      12.880  -3.696  -2.624  1.00  0.00     0.135 A 
ATOM     72  F   UNL     1      12.457  -3.799   0.990  1.00  0.00    -0.206 F 
ATOM     73  C   UNL     1      14.074  -2.705  -0.310  1.00  0.00     0.059 A 
ATOM     74  C   UNL     1      14.017  -2.900  -2.730  1.00  0.00     0.059 A 
ATOM     75  F   UNL     1      12.319  -4.151  -3.756  1.00  0.00    -0.206 F 
ATOM     76  C   UNL     1      14.604  -2.405  -1.567  1.00  0.00     0.060 A 
BRANCH  76  77
ATOM     77  S   UNL     1      16.083  -1.375  -1.651  1.00  0.00     0.124 S 
ATOM     78  O   UNL     1      15.560  -0.078  -1.232  1.00  0.00    -0.237 OA
ATOM     79  O   UNL     1      16.974  -2.035  -0.702  1.00  0.00    -0.237 OA
ATOM     80  O   UNL     1      16.483  -1.466  -3.051  1.00  0.00    -0.744 OA
ENDBRANCH  76  77
ENDBRANCH  55  69
BRANCH  56  81
ATOM     81  C   UNL     1       4.402 -10.020  -0.338  1.00  0.00     0.058 A 
ATOM     82  C   UNL     1       4.416 -11.128   0.525  1.00  0.00     0.135 A 
ATOM     83  C   UNL     1       3.269  -9.845  -1.149  1.00  0.00     0.135 A 
ATOM     84  F   UNL     1       5.479 -11.350   1.313  1.00  0.00    -0.206 F 
ATOM     85  C   UNL     1       3.373 -12.050   0.549  1.00  0.00     0.059 A 
ATOM     86  C   UNL     1       2.199 -10.734  -1.118  1.00  0.00     0.059 A 
ATOM     87  F   UNL     1       3.195  -8.798  -1.986  1.00  0.00    -0.206 F 
ATOM     88  C   UNL     1       2.271 -11.847  -0.283  1.00  0.00     0.060 A 
BRANCH  88  89
ATOM     89  S   UNL     1       0.926 -13.052  -0.253  1.00  0.00     0.124 S 
ATOM     90  O   UNL     1       1.532 -14.184  -0.942  1.00  0.00    -0.237 OA
ATOM     91  O   UNL     1       0.699 -13.221   1.179  1.00  0.00    -0.237 OA
ATOM     92  O   UNL     1      -0.147 -12.373  -0.974  1.00  0.00    -0.744 OA
ENDBRANCH  88  89
ENDBRANCH  56  81
BRANCH  68  93
ATOM     93  C   UNL     1      10.969 -11.024  -2.475  1.00  0.00     0.058 A 
ATOM     94  C   UNL     1      10.722 -11.629  -3.717  1.00  0.00     0.135 A 
ATOM     95  C   UNL     1      11.999 -11.558  -1.682  1.00  0.00     0.135 A 
ATOM     96  F   UNL     1       9.746 -11.163  -4.514  1.00  0.00    -0.206 F 
ATOM     97  C   UNL     1      11.453 -12.732  -4.147  1.00  0.00     0.059 A 
ATOM     98  C   UNL     1      12.764 -12.640  -2.106  1.00  0.00     0.059 A 
ATOM     99  F   UNL     1      12.287 -11.011  -0.490  1.00  0.00    -0.206 F 
ATOM    100  C   UNL     1      12.477 -13.227  -3.337  1.00  0.00     0.060 A 
BRANCH 100 101
ATOM    101  S   UNL     1      13.445 -14.632  -3.928  1.00  0.00     0.124 S 
ATOM    102  O   UNL     1      12.483 -15.723  -3.813  1.00  0.00    -0.237 OA
ATOM    103  O   UNL     1      13.783 -14.225  -5.289  1.00  0.00    -0.237 OA
ATOM    104  O   UNL     1      14.569 -14.687  -2.999  1.00  0.00    -0.744 OA
ENDBRANCH 100 101
ENDBRANCH  68  93
ENDBRANCH  42  43
ENDBRANCH  35  37
ENDBRANCH  34  35
ENDBRANCH  33  34
ENDBRANCH  32  33
ENDBRANCH  31  32
ENDBRANCH  30  31
ENDBRANCH  29  30
ENDBRANCH  28  29
ENDBRANCH   1  28
TORSDOF 28
