REMARK SMILES C[C@@H]1C[NH+](Cc2ccccc2/C=C/C(=O)OCCOCCOCCOCCOC(=O)c2ccc(-c3c4nc(c(-c5c(F)cc(S(=O)(=O)[O-])cc5F)c5ccc([nH]5)c(-c5c(F)cc(S(=O)(=O)[O-])cc5F)c5nc(c(-c6c(F)cc(S(=O)(=O)[O-])cc6F)c6ccc3[nH]6)C=C5)C=C4)cc2)C[C@H]1C
REMARK SMILES IDX 22 1 21 2 20 3 19 4 18 5 17 6 16 7 14 8 15 9 13 10 12 11
REMARK SMILES IDX 11 12 6 13 7 14 8 15 10 16 9 17 5 18 4 19 1 20 2 21 3 22
REMARK SMILES IDX 98 23 97 24 99 25 23 27 24 28 25 29 26 30 27 31 28 32 29 33
REMARK SMILES IDX 30 34 31 35 32 36 96 37 33 38 95 39 34 40 35 41 36 42 89 43
REMARK SMILES IDX 37 44 94 45 88 46 90 47 38 48 93 49 87 50 86 51 39 53 73 54
REMARK SMILES IDX 52 55 72 56 53 57 56 58 71 59 91 60 54 61 55 62 70 64 92 65
REMARK SMILES IDX 57 66 40 67 41 68 50 69 42 70 43 71 49 72 51 73 44 74 45 75
REMARK SMILES IDX 46 76 47 77 48 78 74 79 75 80 84 81 76 82 77 83 83 84 85 85
REMARK SMILES IDX 78 86 79 87 80 88 81 89 82 90 58 91 59 92 68 93 60 94 61 95
REMARK SMILES IDX 67 96 69 97 62 98 63 99 64 100 65 101 66 102
REMARK H PARENT 4 26 90 52 56 63
REMARK Flexibility Score: inf
ROOT
ATOM      1  O   UNL     1       2.522   3.671   6.474  1.00  0.00    -0.377 OA
ENDROOT
BRANCH   1   2
ATOM      2  C   UNL     1       1.414   3.228   7.232  1.00  0.00     0.188 C 
BRANCH   2   3
ATOM      3  C   UNL     1       1.614   1.857   7.905  1.00  0.00     0.188 C 
BRANCH   3   4
ATOM      4  O   UNL     1       2.902   1.272   8.004  1.00  0.00    -0.376 OA
BRANCH   4   5
ATOM      5  C   UNL     1       3.788   1.148   6.904  1.00  0.00     0.202 C 
BRANCH   5   6
ATOM      6  C   UNL     1       3.360   1.011   5.436  1.00  0.00     0.261 C 
BRANCH   6   7
ATOM      7  O   UNL     1       2.045   1.438   5.096  1.00  0.00    -0.460 OA
BRANCH   7   8
ATOM      8  C   UNL     1       1.073   0.507   5.143  1.00  0.00     0.330 C 
ATOM      9  O   UNL     1       1.196  -0.655   5.496  1.00  0.00    -0.247 OA
BRANCH   8  10
ATOM     10  C   UNL     1      -0.208   1.053   4.643  1.00  0.00     0.094 C 
ATOM     11  C   UNL     1      -0.427   2.338   4.310  1.00  0.00     0.016 C 
BRANCH  11  12
ATOM     12  C   UNL     1      -1.605   2.718   3.533  1.00  0.00    -0.017 A 
ATOM     13  C   UNL     1      -1.497   3.402   2.300  1.00  0.00     0.013 A 
ATOM     14  C   UNL     1      -2.685   3.628   1.574  1.00  0.00     0.010 A 
ATOM     15  C   UNL     1      -3.930   3.212   2.058  1.00  0.00     0.001 A 
ATOM     16  C   UNL     1      -2.868   2.347   4.029  1.00  0.00     0.008 A 
ATOM     17  C   UNL     1      -4.023   2.584   3.293  1.00  0.00     0.001 A 
BRANCH  13  18
ATOM     18  C   UNL     1      -0.197   3.982   1.740  1.00  0.00     0.299 C 
BRANCH  18  19
ATOM     19  N   UNL     1       0.730   3.117   1.020  1.00  0.00    -0.331 N 
ATOM     20  C   UNL     1       0.586  -0.107  -0.816  1.00  0.00     0.014 C 
ATOM     21  C   UNL     1       0.497   0.884   0.333  1.00  0.00     0.049 C 
ATOM     22  C   UNL     1       0.243   2.324  -0.097  1.00  0.00     0.266 C 
ATOM     23  C   UNL     1       1.811   0.992   1.105  1.00  0.00     0.049 C 
ATOM     24  C   UNL     1       1.698   2.350   1.793  1.00  0.00     0.266 C 
ATOM     25  C   UNL     1       2.016  -0.187   2.045  1.00  0.00     0.014 C 
ATOM     26  H   UNL     1       1.230   3.901   0.600  1.00  0.00     0.348 HD
ENDBRANCH  18  19
ENDBRANCH  13  18
ENDBRANCH  11  12
ENDBRANCH   8  10
ENDBRANCH   7   8
ENDBRANCH   6   7
ENDBRANCH   5   6
ENDBRANCH   4   5
ENDBRANCH   3   4
ENDBRANCH   2   3
ENDBRANCH   1   2
BRANCH   1  27
ATOM     27  C   UNL     1       3.468   4.498   7.142  1.00  0.00     0.188 C 
BRANCH  27  28
ATOM     28  C   UNL     1       3.749   4.250   8.642  1.00  0.00     0.188 C 
BRANCH  28  29
ATOM     29  O   UNL     1       2.587   4.066   9.439  1.00  0.00    -0.376 OA
BRANCH  29  30
ATOM     30  C   UNL     1       2.065   5.153  10.185  1.00  0.00     0.202 C 
BRANCH  30  31
ATOM     31  C   UNL     1       1.530   6.370   9.414  1.00  0.00     0.261 C 
BRANCH  31  32
ATOM     32  O   UNL     1       2.446   7.006   8.515  1.00  0.00    -0.460 OA
BRANCH  32  33
ATOM     33  C   UNL     1       3.599   7.481   9.030  1.00  0.00     0.338 C 
ATOM     34  O   UNL     1       3.942   7.469  10.201  1.00  0.00    -0.246 OA
BRANCH  33  35
ATOM     35  C   UNL     1       4.472   7.841   7.897  1.00  0.00     0.060 A 
ATOM     36  C   UNL     1       5.723   7.221   7.772  1.00  0.00     0.016 A 
ATOM     37  C   UNL     1       4.047   8.783   6.958  1.00  0.00     0.016 A 
ATOM     38  C   UNL     1       6.576   7.578   6.728  1.00  0.00     0.010 A 
ATOM     39  C   UNL     1       4.910   9.157   5.929  1.00  0.00     0.010 A 
ATOM     40  C   UNL     1       6.193   8.587   5.836  1.00  0.00    -0.014 A 
BRANCH  40  41
ATOM     41  C   UNL     1       7.204   9.235   4.969  1.00  0.00     0.031 A 
ATOM     42  C   UNL     1       7.811  10.523   5.451  1.00  0.00     0.074 A 
ATOM     43  C   UNL     1       7.559   8.713   3.783  1.00  0.00     0.049 A 
ATOM     44  N   UNL     1       8.600  11.356   4.828  1.00  0.00    -0.248 NA
ATOM     45  C   UNL     1       7.464  10.930   6.823  1.00  0.00     0.031 C 
ATOM     46  C   UNL     1       7.075   7.448   3.236  1.00  0.00     0.029 A 
ATOM     47  N   UNL     1       8.396   9.205   2.813  1.00  0.00    -0.354 N 
ATOM     48  C   UNL     1       8.835  12.391   5.726  1.00  0.00     0.074 A 
ATOM     49  C   UNL     1       8.075  12.100   6.921  1.00  0.00     0.031 C 
ATOM     50  C   UNL     1       7.597   7.279   2.008  1.00  0.00     0.029 A 
ATOM     51  C   UNL     1       8.417   8.443   1.670  1.00  0.00     0.049 A 
ATOM     52  H   UNL     1       8.930  10.025   2.926  1.00  0.00     0.167 HD
ATOM     53  C   UNL     1       9.618  13.484   5.569  1.00  0.00     0.037 A 
ATOM     54  C   UNL     1       8.996   8.683   0.476  1.00  0.00     0.037 A 
ATOM     55  C   UNL     1      10.354  13.770   4.367  1.00  0.00     0.049 A 
ATOM     56  C   UNL     1       9.800   9.945   0.286  1.00  0.00     0.074 A 
ATOM     57  C   UNL     1      11.174  14.850   4.096  1.00  0.00     0.029 A 
ATOM     58  N   UNL     1      10.348  12.975   3.229  1.00  0.00    -0.354 N 
ATOM     59  N   UNL     1      10.022  10.917   1.140  1.00  0.00    -0.248 NA
ATOM     60  C   UNL     1      10.434  10.144  -1.025  1.00  0.00     0.031 C 
ATOM     61  C   UNL     1      11.618  14.738   2.775  1.00  0.00     0.029 A 
ATOM     62  C   UNL     1      11.133  13.551   2.246  1.00  0.00     0.049 A 
ATOM     63  H   UNL     1       9.857  12.127   3.135  1.00  0.00     0.167 HD
ATOM     64  C   UNL     1      10.850  11.824   0.483  1.00  0.00     0.074 A 
ATOM     65  C   UNL     1      11.087  11.285  -0.841  1.00  0.00     0.031 C 
ATOM     66  C   UNL     1      11.374  12.990   0.937  1.00  0.00     0.037 A 
BRANCH  53  67
ATOM     67  C   UNL     1       9.678  14.460   6.713  1.00  0.00     0.058 A 
ATOM     68  C   UNL     1      10.287  14.133   7.936  1.00  0.00     0.135 A 
ATOM     69  C   UNL     1       9.108  15.737   6.588  1.00  0.00     0.135 A 
ATOM     70  F   UNL     1      10.830  12.918   8.118  1.00  0.00    -0.206 F 
ATOM     71  C   UNL     1      10.289  15.019   9.008  1.00  0.00     0.059 A 
ATOM     72  C   UNL     1       9.130  16.653   7.636  1.00  0.00     0.059 A 
ATOM     73  F   UNL     1       8.510  16.103   5.444  1.00  0.00    -0.206 F 
ATOM     74  C   UNL     1       9.704  16.276   8.849  1.00  0.00     0.060 A 
BRANCH  74  75
ATOM     75  S   UNL     1       9.691  17.404  10.257  1.00  0.00     0.124 S 
ATOM     76  O   UNL     1       8.711  16.767  11.132  1.00  0.00    -0.237 OA
ATOM     77  O   UNL     1      11.076  17.349  10.713  1.00  0.00    -0.237 OA
ATOM     78  O   UNL     1       9.276  18.675   9.672  1.00  0.00    -0.744 OA
ENDBRANCH  74  75
ENDBRANCH  53  67
BRANCH  54  79
ATOM     79  C   UNL     1       8.812   7.712  -0.637  1.00  0.00     0.058 A 
ATOM     80  C   UNL     1       9.876   6.926  -1.102  1.00  0.00     0.135 A 
ATOM     81  C   UNL     1       7.556   7.531  -1.240  1.00  0.00     0.135 A 
ATOM     82  F   UNL     1      11.100   7.071  -0.570  1.00  0.00    -0.206 F 
ATOM     83  C   UNL     1       9.704   5.995  -2.122  1.00  0.00     0.059 A 
ATOM     84  C   UNL     1       7.353   6.588  -2.242  1.00  0.00     0.059 A 
ATOM     85  F   UNL     1       6.503   8.254  -0.828  1.00  0.00    -0.206 F 
ATOM     86  C   UNL     1       8.435   5.827  -2.679  1.00  0.00     0.060 A 
BRANCH  86  87
ATOM     87  S   UNL     1       8.210   4.563  -3.950  1.00  0.00     0.124 S 
ATOM     88  O   UNL     1       8.929   5.146  -5.077  1.00  0.00    -0.237 OA
ATOM     89  O   UNL     1       8.831   3.396  -3.331  1.00  0.00    -0.237 OA
ATOM     90  O   UNL     1       6.760   4.488  -4.098  1.00  0.00    -0.744 OA
ENDBRANCH  86  87
ENDBRANCH  54  79
BRANCH  66  91
ATOM     91  C   UNL     1      12.308  13.748   0.032  1.00  0.00     0.058 A 
ATOM     92  C   UNL     1      11.848  14.462  -1.085  1.00  0.00     0.135 A 
ATOM     93  C   UNL     1      13.672  13.844   0.355  1.00  0.00     0.135 A 
ATOM     94  F   UNL     1      10.556  14.400  -1.443  1.00  0.00    -0.206 F 
ATOM     95  C   UNL     1      12.710  15.242  -1.852  1.00  0.00     0.059 A 
ATOM     96  C   UNL     1      14.544  14.640  -0.380  1.00  0.00     0.059 A 
ATOM     97  F   UNL     1      14.162  13.189   1.419  1.00  0.00    -0.206 F 
ATOM     98  C   UNL     1      14.054  15.333  -1.485  1.00  0.00     0.060 A 
BRANCH  98  99
ATOM     99  S   UNL     1      15.143  16.406  -2.446  1.00  0.00     0.124 S 
ATOM    100  O   UNL     1      15.270  15.658  -3.692  1.00  0.00    -0.237 OA
ATOM    101  O   UNL     1      14.372  17.642  -2.523  1.00  0.00    -0.237 OA
ATOM    102  O   UNL     1      16.354  16.480  -1.633  1.00  0.00    -0.744 OA
ENDBRANCH  98  99
ENDBRANCH  66  91
ENDBRANCH  40  41
ENDBRANCH  33  35
ENDBRANCH  32  33
ENDBRANCH  31  32
ENDBRANCH  30  31
ENDBRANCH  29  30
ENDBRANCH  28  29
ENDBRANCH  27  28
ENDBRANCH   1  27
TORSDOF 26
