REMARK SMILES Cc1cccc(N2C(=O)/C(=C/c3ccc(C(=O)OCCOCCOCCOCCOC(=O)c4ccc(-c5c6nc(c(-c7c(F)cc(S(=O)(=O)[O-])cc7F)c7ccc([nH]7)c(-c7c(F)cc(S(=O)(=O)[O-])cc7F)c7nc(c(-c8c(F)cc(S(=O)(=O)[O-])cc8F)c8ccc5[nH]8)C=C7)C=C6)cc4)cc3)c3ccccc3C2=O)c1
REMARK SMILES IDX 25 1 24 2 23 3 22 4 21 5 20 6 19 7 18 8 16 9 17 10 15 11
REMARK SMILES IDX 12 12 13 13 100 14 14 15 99 16 11 17 7 18 8 19 107 20 9 21
REMARK SMILES IDX 10 22 106 23 108 24 101 25 105 26 102 27 104 28 103 29 6 30
REMARK SMILES IDX 1 31 2 32 3 33 109 34 4 35 5 36 26 37 27 38 28 39 29 40
REMARK SMILES IDX 30 41 31 42 32 43 33 44 34 45 98 46 35 47 97 48 36 49 37 50
REMARK SMILES IDX 38 51 91 52 39 53 96 54 90 55 92 56 40 57 95 58 89 59 88 60
REMARK SMILES IDX 41 62 75 63 54 64 74 65 55 66 58 67 73 68 93 69 56 70 57 71
REMARK SMILES IDX 72 73 94 74 59 75 42 76 43 77 52 78 44 79 45 80 51 81 53 82
REMARK SMILES IDX 46 83 47 84 48 85 49 86 50 87 76 88 77 89 86 90 78 91 79 92
REMARK SMILES IDX 85 93 87 94 80 95 81 96 82 97 83 98 84 99 60 100 61 101
REMARK SMILES IDX 70 102 62 103 63 104 69 105 71 106 64 107 65 108 66 109
REMARK SMILES IDX 67 110 68 111
REMARK H PARENT 92 61 58 72
REMARK Flexibility Score: inf
ROOT
ATOM      1  C   UNL     1      -3.350  11.813   2.443  1.00  0.00     0.188 C 
ENDROOT
BRANCH   1   2
ATOM      2  O   UNL     1      -2.840  10.627   1.825  1.00  0.00    -0.377 OA
BRANCH   2   3
ATOM      3  C   UNL     1      -1.504  10.639   1.336  1.00  0.00     0.188 C 
BRANCH   3   4
ATOM      4  C   UNL     1      -1.333  10.896  -0.161  1.00  0.00     0.188 C 
BRANCH   4   5
ATOM      5  O   UNL     1      -1.211  12.249  -0.587  1.00  0.00    -0.376 OA
BRANCH   5   6
ATOM      6  C   UNL     1      -2.417  12.808  -1.103  1.00  0.00     0.202 C 
BRANCH   6   7
ATOM      7  C   UNL     1      -2.820  12.369  -2.510  1.00  0.00     0.261 C 
BRANCH   7   8
ATOM      8  O   UNL     1      -3.161  10.986  -2.541  1.00  0.00    -0.460 OA
BRANCH   8   9
ATOM      9  C   UNL     1      -2.527  10.268  -3.489  1.00  0.00     0.338 C 
ATOM     10  O   UNL     1      -1.947  10.662  -4.480  1.00  0.00    -0.246 OA
BRANCH   9  11
ATOM     11  C   UNL     1      -2.319   8.945  -2.890  1.00  0.00     0.060 A 
ATOM     12  C   UNL     1      -1.655   6.707  -1.375  1.00  0.00    -0.025 A 
ATOM     13  C   UNL     1      -0.659   7.443  -2.036  1.00  0.00     0.009 A 
ATOM     14  C   UNL     1      -2.997   7.091  -1.503  1.00  0.00     0.009 A 
ATOM     15  C   UNL     1      -0.988   8.546  -2.804  1.00  0.00     0.016 A 
ATOM     16  C   UNL     1      -3.332   8.230  -2.241  1.00  0.00     0.016 A 
BRANCH  12  17
ATOM     17  C   UNL     1      -1.180   5.513  -0.675  1.00  0.00     0.022 C 
ATOM     18  N   UNL     1      -1.657   2.430   0.674  1.00  0.00    -0.242 N 
ATOM     19  C   UNL     1      -0.869   3.589   0.652  1.00  0.00     0.265 C 
ATOM     20  C   UNL     1      -3.029   2.530   1.021  1.00  0.00     0.265 C 
ATOM     21  O   UNL     1       0.340   3.706   0.836  1.00  0.00    -0.268 OA
ATOM     22  C   UNL     1      -1.652   4.827   0.379  1.00  0.00     0.049 C 
ATOM     23  C   UNL     1      -3.527   3.852   1.518  1.00  0.00     0.048 A 
ATOM     24  O   UNL     1      -3.867   1.631   1.002  1.00  0.00    -0.268 OA
ATOM     25  C   UNL     1      -2.831   5.018   1.200  1.00  0.00    -0.000 A 
ATOM     26  C   UNL     1      -4.680   3.921   2.310  1.00  0.00     0.014 A 
ATOM     27  C   UNL     1      -3.238   6.244   1.737  1.00  0.00     0.010 A 
ATOM     28  C   UNL     1      -5.103   5.149   2.820  1.00  0.00     0.001 A 
ATOM     29  C   UNL     1      -4.376   6.307   2.544  1.00  0.00     0.001 A 
BRANCH  18  30
ATOM     30  C   UNL     1      -1.030   1.131   0.399  1.00  0.00     0.053 A 
ATOM     31  C   UNL     1       2.496  -0.329  -0.071  1.00  0.00     0.044 C 
ATOM     32  C   UNL     1       0.999  -0.249   0.016  1.00  0.00    -0.049 A 
ATOM     33  C   UNL     1       0.223  -1.397  -0.092  1.00  0.00     0.003 A 
ATOM     34  C   UNL     1       0.366   0.987   0.248  1.00  0.00     0.030 A 
ATOM     35  C   UNL     1      -1.158  -1.295   0.009  1.00  0.00     0.002 A 
ATOM     36  C   UNL     1      -1.770  -0.054   0.246  1.00  0.00     0.027 A 
ENDBRANCH  18  30
ENDBRANCH  12  17
ENDBRANCH   9  11
ENDBRANCH   8   9
ENDBRANCH   7   8
ENDBRANCH   6   7
ENDBRANCH   5   6
ENDBRANCH   4   5
ENDBRANCH   3   4
ENDBRANCH   2   3
ENDBRANCH   1   2
BRANCH   1  37
ATOM     37  C   UNL     1      -2.377  12.660   3.254  1.00  0.00     0.188 C 
BRANCH  37  38
ATOM     38  O   UNL     1      -1.647  13.475   2.329  1.00  0.00    -0.376 OA
BRANCH  38  39
ATOM     39  C   UNL     1      -0.385  13.941   2.782  1.00  0.00     0.202 C 
BRANCH  39  40
ATOM     40  C   UNL     1      -0.452  14.822   4.034  1.00  0.00     0.261 C 
BRANCH  40  41
ATOM     41  O   UNL     1      -0.889  16.162   3.720  1.00  0.00    -0.460 OA
BRANCH  41  42
ATOM     42  C   UNL     1      -2.149  16.485   4.135  1.00  0.00     0.338 C 
ATOM     43  O   UNL     1      -2.395  16.975   5.223  1.00  0.00    -0.246 OA
BRANCH  42  44
ATOM     44  C   UNL     1      -3.139  16.269   3.047  1.00  0.00     0.060 A 
ATOM     45  C   UNL     1      -4.504  16.082   3.308  1.00  0.00     0.016 A 
ATOM     46  C   UNL     1      -2.676  16.136   1.748  1.00  0.00     0.016 A 
ATOM     47  C   UNL     1      -5.369  15.599   2.303  1.00  0.00     0.010 A 
ATOM     48  C   UNL     1      -3.515  15.612   0.788  1.00  0.00     0.010 A 
ATOM     49  C   UNL     1      -4.860  15.295   1.042  1.00  0.00    -0.014 A 
BRANCH  49  50
ATOM     50  C   UNL     1      -5.524  14.533  -0.046  1.00  0.00     0.031 A 
ATOM     51  C   UNL     1      -5.394  15.026  -1.469  1.00  0.00     0.074 A 
ATOM     52  C   UNL     1      -5.812  13.225   0.190  1.00  0.00     0.049 A 
ATOM     53  N   UNL     1      -5.734  14.369  -2.528  1.00  0.00    -0.248 NA
ATOM     54  C   UNL     1      -4.835  16.337  -1.823  1.00  0.00     0.031 C 
ATOM     55  C   UNL     1      -5.714  12.121  -0.774  1.00  0.00     0.029 A 
ATOM     56  N   UNL     1      -6.174  12.551   1.352  1.00  0.00    -0.354 N 
ATOM     57  C   UNL     1      -5.113  14.947  -3.625  1.00  0.00     0.074 A 
ATOM     58  C   UNL     1      -4.671  16.230  -3.148  1.00  0.00     0.031 C 
ATOM     59  C   UNL     1      -6.092  10.967  -0.205  1.00  0.00     0.029 A 
ATOM     60  C   UNL     1      -6.777  11.336   1.007  1.00  0.00     0.049 A 
ATOM     61  H   UNL     1      -6.030  12.877   2.269  1.00  0.00     0.167 HD
ATOM     62  C   UNL     1      -4.905  14.199  -4.756  1.00  0.00     0.037 A 
ATOM     63  C   UNL     1      -8.112  11.086   1.180  1.00  0.00     0.037 A 
ATOM     64  C   UNL     1      -5.641  12.921  -4.690  1.00  0.00     0.049 A 
ATOM     65  C   UNL     1      -8.843  10.971  -0.162  1.00  0.00     0.074 A 
ATOM     66  C   UNL     1      -5.301  11.593  -4.878  1.00  0.00     0.029 A 
ATOM     67  N   UNL     1      -6.959  12.906  -4.230  1.00  0.00    -0.354 N 
ATOM     68  N   UNL     1      -8.363  11.469  -1.280  1.00  0.00    -0.248 NA
ATOM     69  C   UNL     1     -10.076  10.225  -0.407  1.00  0.00     0.031 C 
ATOM     70  C   UNL     1      -6.345  10.789  -4.335  1.00  0.00     0.029 A 
ATOM     71  C   UNL     1      -7.388  11.625  -3.961  1.00  0.00     0.049 A 
ATOM     72  H   UNL     1      -7.514  13.711  -4.112  1.00  0.00     0.167 HD
ATOM     73  C   UNL     1      -9.116  11.081  -2.351  1.00  0.00     0.074 A 
ATOM     74  C   UNL     1     -10.204  10.332  -1.747  1.00  0.00     0.031 C 
ATOM     75  C   UNL     1      -8.789  11.370  -3.649  1.00  0.00     0.037 A 
BRANCH  62  76
ATOM     76  C   UNL     1      -3.865  14.490  -5.856  1.00  0.00     0.058 A 
ATOM     77  C   UNL     1      -3.860  13.744  -7.061  1.00  0.00     0.135 A 
ATOM     78  C   UNL     1      -2.776  15.388  -5.744  1.00  0.00     0.135 A 
ATOM     79  F   UNL     1      -4.832  12.860  -7.327  1.00  0.00    -0.206 F 
ATOM     80  C   UNL     1      -2.865  13.861  -8.048  1.00  0.00     0.059 A 
ATOM     81  C   UNL     1      -1.803  15.566  -6.744  1.00  0.00     0.059 A 
ATOM     82  F   UNL     1      -2.566  16.107  -4.634  1.00  0.00    -0.206 F 
ATOM     83  C   UNL     1      -1.840  14.782  -7.887  1.00  0.00     0.060 A 
BRANCH  83  84
ATOM     84  S   UNL     1      -0.593  14.971  -9.185  1.00  0.00     0.124 S 
ATOM     85  O   UNL     1       0.218  13.771  -9.016  1.00  0.00    -0.237 OA
ATOM     86  O   UNL     1      -1.403  15.023 -10.399  1.00  0.00    -0.237 OA
ATOM     87  O   UNL     1       0.071  16.226  -8.838  1.00  0.00    -0.744 OA
ENDBRANCH  83  84
ENDBRANCH  62  76
BRANCH  63  88
ATOM     88  C   UNL     1      -8.581  11.452   2.555  1.00  0.00     0.058 A 
ATOM     89  C   UNL     1      -8.052  10.616   3.566  1.00  0.00     0.135 A 
ATOM     90  C   UNL     1      -8.760  12.807   2.887  1.00  0.00     0.135 A 
ATOM     91  F   UNL     1      -7.929   9.297   3.341  1.00  0.00    -0.206 F 
ATOM     92  C   UNL     1      -7.425  11.142   4.694  1.00  0.00     0.059 A 
ATOM     93  C   UNL     1      -8.151  13.355   4.025  1.00  0.00     0.059 A 
ATOM     94  F   UNL     1      -9.294  13.652   1.993  1.00  0.00    -0.206 F 
ATOM     95  C   UNL     1      -7.402  12.523   4.864  1.00  0.00     0.060 A 
BRANCH  95  96
ATOM     96  S   UNL     1      -6.154  13.216   5.987  1.00  0.00     0.124 S 
ATOM     97  O   UNL     1      -6.689  12.862   7.295  1.00  0.00    -0.237 OA
ATOM     98  O   UNL     1      -4.947  12.504   5.573  1.00  0.00    -0.237 OA
ATOM     99  O   UNL     1      -6.173  14.635   5.654  1.00  0.00    -0.744 OA
ENDBRANCH  95  96
ENDBRANCH  63  88
BRANCH  75 100
ATOM    100  C   UNL     1      -9.758  11.421  -4.816  1.00  0.00     0.058 A 
ATOM    101  C   UNL     1     -11.129  11.672  -4.657  1.00  0.00     0.135 A 
ATOM    102  C   UNL     1      -9.285  11.470  -6.157  1.00  0.00     0.135 A 
ATOM    103  F   UNL     1     -11.691  11.749  -3.442  1.00  0.00    -0.206 F 
ATOM    104  C   UNL     1     -11.973  11.915  -5.741  1.00  0.00     0.059 A 
ATOM    105  C   UNL     1     -10.098  11.772  -7.244  1.00  0.00     0.059 A 
ATOM    106  F   UNL     1      -7.999  11.255  -6.467  1.00  0.00    -0.206 F 
ATOM    107  C   UNL     1     -11.448  11.974  -7.028  1.00  0.00     0.060 A 
BRANCH 107 108
ATOM    108  S   UNL     1     -12.533  12.366  -8.408  1.00  0.00     0.124 S 
ATOM    109  O   UNL     1     -13.131  11.062  -8.681  1.00  0.00    -0.237 OA
ATOM    110  O   UNL     1     -13.430  13.364  -7.832  1.00  0.00    -0.237 OA
ATOM    111  O   UNL     1     -11.620  12.869  -9.429  1.00  0.00    -0.744 OA
ENDBRANCH 107 108
ENDBRANCH  75 100
ENDBRANCH  49  50
ENDBRANCH  42  44
ENDBRANCH  41  42
ENDBRANCH  40  41
ENDBRANCH  39  40
ENDBRANCH  38  39
ENDBRANCH  37  38
ENDBRANCH   1  37
TORSDOF 25
