REMARK SMILES O=C(OCCOCCOCCOCCOC(=O)c1cn(C2CN(C(=O)[C@@H]3CC=CCC3)C2)nn1)c1ccc(-c2c3nc(c(-c4c(F)cc(S(=O)(=O)[O-])cc4F)c4ccc([nH]4)c(-c4c(F)cc(S(=O)(=O)[O-])cc4F)c4nc(c(-c5c(F)cc(S(=O)(=O)[O-])cc5F)c5ccc2[nH]5)C=C4)C=C3)cc1
REMARK SMILES IDX 8 1 7 2 6 3 5 4 4 5 3 6 2 7 1 8 35 9 36 10 100 11 37 12
REMARK SMILES IDX 99 13 38 14 39 15 40 16 93 17 41 18 98 19 92 20 94 21 42 22
REMARK SMILES IDX 97 23 91 24 90 25 43 27 77 28 56 29 76 30 57 31 60 32 75 33
REMARK SMILES IDX 95 34 58 35 59 36 74 38 96 39 61 40 44 41 45 42 54 43 46 44
REMARK SMILES IDX 47 45 53 46 55 47 48 48 49 49 50 50 51 51 52 52 78 53 79 54
REMARK SMILES IDX 88 55 80 56 81 57 87 58 89 59 82 60 83 61 84 62 85 63 86 64
REMARK SMILES IDX 62 65 63 66 72 67 64 68 65 69 71 70 73 71 66 72 67 73 68 74
REMARK SMILES IDX 69 75 70 76 9 77 10 78 11 79 12 80 13 81 14 82 15 83 16 84
REMARK SMILES IDX 17 85 18 86 19 87 34 88 20 89 33 90 21 91 22 92 32 93 23 94
REMARK SMILES IDX 24 95 25 96 26 97 27 98 31 99 28 100 30 101 29 102
REMARK H PARENT 94 26 60 37
REMARK Flexibility Score: inf
ROOT
ATOM      1  C   UNL     1       7.589  18.075 -16.160  1.00  0.00     0.188 C 
ENDROOT
BRANCH   1   2
ATOM      2  C   UNL     1       8.393  19.379 -16.068  1.00  0.00     0.188 C 
BRANCH   2   3
ATOM      3  O   UNL     1       8.367  20.262 -14.961  1.00  0.00    -0.376 OA
BRANCH   3   4
ATOM      4  C   UNL     1       7.298  20.607 -14.108  1.00  0.00     0.202 C 
BRANCH   4   5
ATOM      5  C   UNL     1       5.825  20.758 -14.498  1.00  0.00     0.261 C 
BRANCH   5   6
ATOM      6  O   UNL     1       5.354  20.011 -15.610  1.00  0.00    -0.460 OA
BRANCH   6   7
ATOM      7  C   UNL     1       5.380  20.341 -16.918  1.00  0.00     0.338 C 
ATOM      8  O   UNL     1       4.761  19.632 -17.709  1.00  0.00    -0.246 OA
BRANCH   7   9
ATOM      9  C   UNL     1       6.251  21.415 -17.464  1.00  0.00     0.060 A 
ATOM     10  C   UNL     1       6.717  22.528 -16.758  1.00  0.00     0.016 A 
ATOM     11  C   UNL     1       6.607  21.268 -18.820  1.00  0.00     0.016 A 
ATOM     12  C   UNL     1       7.381  23.545 -17.409  1.00  0.00     0.010 A 
ATOM     13  C   UNL     1       7.285  22.277 -19.480  1.00  0.00     0.010 A 
ATOM     14  C   UNL     1       7.552  23.453 -18.782  1.00  0.00    -0.014 A 
BRANCH  14  15
ATOM     15  C   UNL     1       7.720  24.721 -19.468  1.00  0.00     0.031 A 
ATOM     16  C   UNL     1       9.036  25.399 -19.343  1.00  0.00     0.074 A 
ATOM     17  C   UNL     1       6.663  25.186 -20.164  1.00  0.00     0.049 A 
ATOM     18  N   UNL     1       9.293  26.616 -18.983  1.00  0.00    -0.248 NA
ATOM     19  C   UNL     1      10.236  24.577 -19.577  1.00  0.00     0.031 C 
ATOM     20  C   UNL     1       5.410  24.475 -20.473  1.00  0.00     0.029 A 
ATOM     21  N   UNL     1       6.528  26.340 -20.863  1.00  0.00    -0.354 N 
ATOM     22  C   UNL     1      10.667  26.777 -19.152  1.00  0.00     0.074 A 
ATOM     23  C   UNL     1      11.212  25.465 -19.391  1.00  0.00     0.031 C 
ATOM     24  C   UNL     1       4.802  25.082 -21.510  1.00  0.00     0.029 A 
ATOM     25  C   UNL     1       5.550  26.277 -21.842  1.00  0.00     0.049 A 
ATOM     26  H   UNL     1       7.072  27.142 -20.691  1.00  0.00     0.167 HD
ATOM     27  C   UNL     1      11.251  27.995 -19.315  1.00  0.00     0.037 A 
ATOM     28  C   UNL     1       5.474  27.062 -22.941  1.00  0.00     0.037 A 
ATOM     29  C   UNL     1      10.453  29.068 -18.795  1.00  0.00     0.049 A 
ATOM     30  C   UNL     1       6.265  28.288 -22.657  1.00  0.00     0.074 A 
ATOM     31  C   UNL     1       9.986  29.405 -17.539  1.00  0.00     0.029 A 
ATOM     32  N   UNL     1       9.742  29.847 -19.673  1.00  0.00    -0.354 N 
ATOM     33  N   UNL     1       5.953  29.159 -21.733  1.00  0.00    -0.248 NA
ATOM     34  C   UNL     1       7.652  28.325 -23.095  1.00  0.00     0.031 C 
ATOM     35  C   UNL     1       8.712  30.002 -17.760  1.00  0.00     0.029 A 
ATOM     36  C   UNL     1       8.488  30.011 -19.137  1.00  0.00     0.049 A 
ATOM     37  H   UNL     1      10.068  30.217 -20.525  1.00  0.00     0.167 HD
ATOM     38  C   UNL     1       7.165  29.579 -21.201  1.00  0.00     0.074 A 
ATOM     39  C   UNL     1       8.174  29.104 -22.144  1.00  0.00     0.031 C 
ATOM     40  C   UNL     1       7.266  30.027 -19.913  1.00  0.00     0.037 A 
BRANCH  27  41
ATOM     41  C   UNL     1      12.409  28.208 -20.253  1.00  0.00     0.058 A 
ATOM     42  C   UNL     1      13.206  29.364 -20.164  1.00  0.00     0.135 A 
ATOM     43  C   UNL     1      12.592  27.420 -21.413  1.00  0.00     0.135 A 
ATOM     44  F   UNL     1      13.084  30.197 -19.118  1.00  0.00    -0.206 F 
ATOM     45  C   UNL     1      14.096  29.730 -21.177  1.00  0.00     0.059 A 
ATOM     46  C   UNL     1      13.510  27.735 -22.405  1.00  0.00     0.059 A 
ATOM     47  F   UNL     1      11.815  26.360 -21.675  1.00  0.00    -0.206 F 
ATOM     48  C   UNL     1      14.227  28.915 -22.300  1.00  0.00     0.060 A 
BRANCH  48  49
ATOM     49  S   UNL     1      15.276  29.440 -23.669  1.00  0.00     0.124 S 
ATOM     50  O   UNL     1      14.473  30.509 -24.251  1.00  0.00    -0.237 OA
ATOM     51  O   UNL     1      16.494  29.855 -22.981  1.00  0.00    -0.237 OA
ATOM     52  O   UNL     1      15.401  28.230 -24.477  1.00  0.00    -0.744 OA
ENDBRANCH  48  49
ENDBRANCH  27  41
BRANCH  28  53
ATOM     53  C   UNL     1       5.158  26.558 -24.305  1.00  0.00     0.058 A 
ATOM     54  C   UNL     1       4.787  27.428 -25.339  1.00  0.00     0.135 A 
ATOM     55  C   UNL     1       5.419  25.220 -24.682  1.00  0.00     0.135 A 
ATOM     56  F   UNL     1       4.566  28.726 -25.078  1.00  0.00    -0.206 F 
ATOM     57  C   UNL     1       4.686  27.000 -26.668  1.00  0.00     0.059 A 
ATOM     58  C   UNL     1       5.300  24.765 -25.991  1.00  0.00     0.059 A 
ATOM     59  F   UNL     1       5.880  24.321 -23.799  1.00  0.00    -0.206 F 
ATOM     60  C   UNL     1       4.950  25.666 -26.985  1.00  0.00     0.060 A 
BRANCH  60  61
ATOM     61  S   UNL     1       4.942  25.135 -28.711  1.00  0.00     0.124 S 
ATOM     62  O   UNL     1       3.529  25.254 -29.055  1.00  0.00    -0.237 OA
ATOM     63  O   UNL     1       5.835  26.106 -29.334  1.00  0.00    -0.237 OA
ATOM     64  O   UNL     1       5.455  23.769 -28.651  1.00  0.00    -0.744 OA
ENDBRANCH  60  61
ENDBRANCH  28  53
BRANCH  40  65
ATOM     65  C   UNL     1       5.988  30.271 -19.147  1.00  0.00     0.058 A 
ATOM     66  C   UNL     1       5.127  29.234 -18.744  1.00  0.00     0.135 A 
ATOM     67  C   UNL     1       5.721  31.551 -18.642  1.00  0.00     0.135 A 
ATOM     68  F   UNL     1       5.383  27.964 -19.079  1.00  0.00    -0.206 F 
ATOM     69  C   UNL     1       4.029  29.461 -17.915  1.00  0.00     0.059 A 
ATOM     70  C   UNL     1       4.647  31.798 -17.786  1.00  0.00     0.059 A 
ATOM     71  F   UNL     1       6.548  32.571 -18.925  1.00  0.00    -0.206 F 
ATOM     72  C   UNL     1       3.799  30.748 -17.434  1.00  0.00     0.060 A 
BRANCH  72  73
ATOM     73  S   UNL     1       2.447  31.011 -16.264  1.00  0.00     0.124 S 
ATOM     74  O   UNL     1       1.274  30.936 -17.127  1.00  0.00    -0.237 OA
ATOM     75  O   UNL     1       2.616  29.902 -15.327  1.00  0.00    -0.237 OA
ATOM     76  O   UNL     1       2.731  32.331 -15.706  1.00  0.00    -0.744 OA
ENDBRANCH  72  73
ENDBRANCH  40  65
ENDBRANCH  14  15
ENDBRANCH   7   9
ENDBRANCH   6   7
ENDBRANCH   5   6
ENDBRANCH   4   5
ENDBRANCH   3   4
ENDBRANCH   2   3
ENDBRANCH   1   2
BRANCH   1  77
ATOM     77  O   UNL     1       7.999  17.031 -15.292  1.00  0.00    -0.377 OA
BRANCH  77  78
ATOM     78  C   UNL     1       7.807  17.314 -13.925  1.00  0.00     0.188 C 
BRANCH  78  79
ATOM     79  C   UNL     1       9.087  17.678 -13.146  1.00  0.00     0.188 C 
BRANCH  79  80
ATOM     80  O   UNL     1      10.400  17.546 -13.680  1.00  0.00    -0.376 OA
BRANCH  80  81
ATOM     81  C   UNL     1      10.680  16.745 -14.813  1.00  0.00     0.202 C 
BRANCH  81  82
ATOM     82  C   UNL     1      10.589  15.223 -14.653  1.00  0.00     0.261 C 
BRANCH  82  83
ATOM     83  O   UNL     1       9.396  14.762 -14.005  1.00  0.00    -0.458 OA
BRANCH  83  84
ATOM     84  C   UNL     1       9.517  14.541 -12.661  1.00  0.00     0.360 C 
ATOM     85  O   UNL     1      10.565  14.511 -12.046  1.00  0.00    -0.244 OA
BRANCH  84  86
ATOM     86  C   UNL     1       8.215  14.461 -12.016  1.00  0.00     0.190 A 
ATOM     87  C   UNL     1       7.106  13.707 -12.345  1.00  0.00     0.147 A 
ATOM     88  N   UNL     1       7.902  15.264 -10.944  1.00  0.00    -0.123 NA
ATOM     89  N   UNL     1       6.186  14.047 -11.389  1.00  0.00    -0.245 N 
ATOM     90  N   UNL     1       6.637  15.056 -10.623  1.00  0.00    -0.066 NA
BRANCH  89  91
ATOM     91  C   UNL     1       5.065  13.285 -10.930  1.00  0.00     0.148 C 
ATOM     92  C   UNL     1       4.396  12.287 -11.878  1.00  0.00     0.148 C 
ATOM     93  C   UNL     1       5.617  12.073 -10.147  1.00  0.00     0.148 C 
ATOM     94  N   UNL     1       4.660  11.274 -10.864  1.00  0.00    -0.338 N 
ATOM     95  C   UNL     1       4.211   9.992 -10.790  1.00  0.00     0.226 C 
ATOM     96  O   UNL     1       3.334   9.584 -11.555  1.00  0.00    -0.275 OA
BRANCH  95  97
ATOM     97  C   UNL     1       4.837   9.044  -9.770  1.00  0.00     0.083 C 
ATOM     98  C   UNL     1       4.524   9.402  -8.312  1.00  0.00     0.040 C 
ATOM     99  C   UNL     1       6.343   8.854  -9.991  1.00  0.00     0.018 C 
ATOM    100  C   UNL     1       5.331   8.589  -7.333  1.00  0.00    -0.030 C 
ATOM    101  C   UNL     1       6.889   7.739  -9.100  1.00  0.00     0.028 C 
ATOM    102  C   UNL     1       6.378   7.830  -7.691  1.00  0.00    -0.031 C 
ENDBRANCH  95  97
ENDBRANCH  89  91
ENDBRANCH  84  86
ENDBRANCH  83  84
ENDBRANCH  82  83
ENDBRANCH  81  82
ENDBRANCH  80  81
ENDBRANCH  79  80
ENDBRANCH  78  79
ENDBRANCH  77  78
ENDBRANCH   1  77
TORSDOF 25
