REMARK SMILES O=C(OCCOCCOCCOCCOC(=O)[C@@H]1CCC(=O)N(CCCn2ccnc2)[C@H]1c1ccccc1)c1ccc(-c2c3nc(c(-c4c(F)cc(S(=O)(=O)[O-])cc4F)c4ccc([nH]4)c(-c4c(F)cc(S(=O)(=O)[O-])cc4F)c4nc(c(-c5c(F)cc(S(=O)(=O)[O-])cc5F)c5ccc2[nH]5)C=C4)C=C3)cc1
REMARK SMILES IDX 10 1 9 2 8 3 7 4 6 5 5 6 4 7 3 8 2 9 1 10 39 11 40 12 104 13
REMARK SMILES IDX 41 14 103 15 42 16 43 17 44 18 97 19 45 20 102 21 96 22
REMARK SMILES IDX 98 23 46 24 101 25 95 26 94 27 47 29 81 30 60 31 80 32 61 33
REMARK SMILES IDX 64 34 79 35 99 36 62 37 63 38 78 40 100 41 65 42 48 43 49 44
REMARK SMILES IDX 58 45 50 46 51 47 57 48 59 49 52 50 53 51 54 52 55 53 56 54
REMARK SMILES IDX 82 55 83 56 92 57 84 58 85 59 91 60 93 61 86 62 87 63 88 64
REMARK SMILES IDX 89 65 90 66 66 67 67 68 76 69 68 70 69 71 75 72 77 73 70 74
REMARK SMILES IDX 71 75 72 76 73 77 74 78 11 79 12 80 13 81 14 82 15 83 16 84
REMARK SMILES IDX 17 85 18 86 19 87 32 88 20 89 23 90 21 91 22 92 33 93 34 94
REMARK SMILES IDX 38 95 35 96 37 97 36 98 24 99 25 100 26 101 27 102 28 103
REMARK SMILES IDX 31 104 29 105 30 106
REMARK H PARENT 98 28 64 39
REMARK Flexibility Score: inf
ROOT
ATOM      1  C   UNL     1       3.817  -1.089  -2.733  1.00  0.00     0.188 C 
ENDROOT
BRANCH   1   2
ATOM      2  O   UNL     1       2.429  -0.894  -2.642  1.00  0.00    -0.377 OA
BRANCH   2   3
ATOM      3  C   UNL     1       1.963  -0.242  -1.475  1.00  0.00     0.188 C 
BRANCH   3   4
ATOM      4  C   UNL     1       2.740   0.894  -0.770  1.00  0.00     0.188 C 
BRANCH   4   5
ATOM      5  O   UNL     1       4.051   0.882  -0.223  1.00  0.00    -0.376 OA
BRANCH   5   6
ATOM      6  C   UNL     1       4.924  -0.167   0.119  1.00  0.00     0.202 C 
BRANCH   6   7
ATOM      7  C   UNL     1       4.509  -1.416   0.897  1.00  0.00     0.261 C 
BRANCH   7   8
ATOM      8  O   UNL     1       3.146  -1.800   0.804  1.00  0.00    -0.460 OA
BRANCH   8   9
ATOM      9  C   UNL     1       2.112  -1.356   1.552  1.00  0.00     0.338 C 
ATOM     10  O   UNL     1       1.040  -1.955   1.482  1.00  0.00    -0.246 OA
BRANCH   9  11
ATOM     11  C   UNL     1       2.152  -0.086   2.321  1.00  0.00     0.060 A 
ATOM     12  C   UNL     1       3.295   0.493   2.875  1.00  0.00     0.016 A 
ATOM     13  C   UNL     1       0.902   0.535   2.521  1.00  0.00     0.016 A 
ATOM     14  C   UNL     1       3.188   1.578   3.715  1.00  0.00     0.010 A 
ATOM     15  C   UNL     1       0.786   1.625   3.362  1.00  0.00     0.010 A 
ATOM     16  C   UNL     1       1.927   2.073   4.015  1.00  0.00    -0.014 A 
BRANCH  16  17
ATOM     17  C   UNL     1       1.869   3.003   5.122  1.00  0.00     0.031 A 
ATOM     18  C   UNL     1       2.470   4.329   4.862  1.00  0.00     0.074 A 
ATOM     19  C   UNL     1       1.315   2.606   6.283  1.00  0.00     0.049 A 
ATOM     20  N   UNL     1       3.480   4.879   5.453  1.00  0.00    -0.248 NA
ATOM     21  C   UNL     1       1.976   5.078   3.696  1.00  0.00     0.031 C 
ATOM     22  C   UNL     1       0.535   1.385   6.516  1.00  0.00     0.029 A 
ATOM     23  N   UNL     1       1.220   3.262   7.468  1.00  0.00    -0.354 N 
ATOM     24  C   UNL     1       3.577   6.155   4.904  1.00  0.00     0.074 A 
ATOM     25  C   UNL     1       2.773   6.146   3.712  1.00  0.00     0.031 C 
ATOM     26  C   UNL     1      -0.164   1.523   7.661  1.00  0.00     0.029 A 
ATOM     27  C   UNL     1       0.206   2.781   8.285  1.00  0.00     0.049 A 
ATOM     28  H   UNL     1       1.811   4.006   7.722  1.00  0.00     0.167 HD
ATOM     29  C   UNL     1       4.053   7.194   5.644  1.00  0.00     0.037 A 
ATOM     30  C   UNL     1      -0.370   3.435   9.324  1.00  0.00     0.037 A 
ATOM     31  C   UNL     1       4.907   6.728   6.711  1.00  0.00     0.049 A 
ATOM     32  C   UNL     1       0.575   4.501   9.752  1.00  0.00     0.074 A 
ATOM     33  C   UNL     1       6.044   5.943   6.772  1.00  0.00     0.029 A 
ATOM     34  N   UNL     1       4.431   6.790   7.999  1.00  0.00    -0.354 N 
ATOM     35  N   UNL     1       1.734   4.271  10.308  1.00  0.00    -0.248 NA
ATOM     36  C   UNL     1       0.427   5.825   9.162  1.00  0.00     0.031 C 
ATOM     37  C   UNL     1       5.924   5.201   7.982  1.00  0.00     0.029 A 
ATOM     38  C   UNL     1       4.751   5.610   8.617  1.00  0.00     0.049 A 
ATOM     39  H   UNL     1       3.948   7.546   8.404  1.00  0.00     0.167 HD
ATOM     40  C   UNL     1       2.585   5.226   9.770  1.00  0.00     0.074 A 
ATOM     41  C   UNL     1       1.703   6.218   9.162  1.00  0.00     0.031 C 
ATOM     42  C   UNL     1       3.920   4.978   9.618  1.00  0.00     0.037 A 
BRANCH  29  43
ATOM     43  C   UNL     1       3.379   8.554   5.673  1.00  0.00     0.058 A 
ATOM     44  C   UNL     1       3.951   9.580   6.454  1.00  0.00     0.135 A 
ATOM     45  C   UNL     1       2.049   8.790   5.249  1.00  0.00     0.135 A 
ATOM     46  F   UNL     1       5.216   9.479   6.894  1.00  0.00    -0.206 F 
ATOM     47  C   UNL     1       3.217  10.682   6.894  1.00  0.00     0.059 A 
ATOM     48  C   UNL     1       1.318   9.906   5.632  1.00  0.00     0.059 A 
ATOM     49  F   UNL     1       1.350   7.914   4.521  1.00  0.00    -0.206 F 
ATOM     50  C   UNL     1       1.889  10.816   6.502  1.00  0.00     0.060 A 
BRANCH  50  51
ATOM     51  S   UNL     1       0.884  12.138   7.193  1.00  0.00     0.124 S 
ATOM     52  O   UNL     1       0.730  11.686   8.570  1.00  0.00    -0.237 OA
ATOM     53  O   UNL     1       1.739  13.303   6.990  1.00  0.00    -0.237 OA
ATOM     54  O   UNL     1      -0.323  12.102   6.373  1.00  0.00    -0.744 OA
ENDBRANCH  50  51
ENDBRANCH  29  43
BRANCH  30  55
ATOM     55  C   UNL     1      -1.808   3.412   9.704  1.00  0.00     0.058 A 
ATOM     56  C   UNL     1      -2.245   3.973  10.916  1.00  0.00     0.135 A 
ATOM     57  C   UNL     1      -2.823   3.064   8.785  1.00  0.00     0.135 A 
ATOM     58  F   UNL     1      -1.352   4.359  11.840  1.00  0.00    -0.206 F 
ATOM     59  C   UNL     1      -3.598   4.214  11.182  1.00  0.00     0.059 A 
ATOM     60  C   UNL     1      -4.176   3.271   9.038  1.00  0.00     0.059 A 
ATOM     61  F   UNL     1      -2.533   2.594   7.564  1.00  0.00    -0.206 F 
ATOM     62  C   UNL     1      -4.556   3.873  10.229  1.00  0.00     0.060 A 
BRANCH  62  63
ATOM     63  S   UNL     1      -6.285   4.330  10.491  1.00  0.00     0.124 S 
ATOM     64  O   UNL     1      -6.671   3.437  11.578  1.00  0.00    -0.237 OA
ATOM     65  O   UNL     1      -6.181   5.744  10.832  1.00  0.00    -0.237 OA
ATOM     66  O   UNL     1      -6.910   4.048   9.201  1.00  0.00    -0.744 OA
ENDBRANCH  62  63
ENDBRANCH  30  55
BRANCH  42  67
ATOM     67  C   UNL     1       4.518   3.815  10.364  1.00  0.00     0.058 A 
ATOM     68  C   UNL     1       4.157   2.471  10.167  1.00  0.00     0.135 A 
ATOM     69  C   UNL     1       5.597   4.069  11.225  1.00  0.00     0.135 A 
ATOM     70  F   UNL     1       3.218   2.132   9.272  1.00  0.00    -0.206 F 
ATOM     71  C   UNL     1       4.800   1.432  10.842  1.00  0.00     0.059 A 
ATOM     72  C   UNL     1       6.275   3.046  11.882  1.00  0.00     0.059 A 
ATOM     73  F   UNL     1       6.037   5.326  11.401  1.00  0.00    -0.206 F 
ATOM     74  C   UNL     1       5.857   1.730  11.701  1.00  0.00     0.060 A 
BRANCH  74  75
ATOM     75  S   UNL     1       6.729   0.380  12.524  1.00  0.00     0.124 S 
ATOM     76  O   UNL     1       5.755  -0.052  13.521  1.00  0.00    -0.237 OA
ATOM     77  O   UNL     1       6.974  -0.554  11.429  1.00  0.00    -0.237 OA
ATOM     78  O   UNL     1       7.927   1.023  13.060  1.00  0.00    -0.744 OA
ENDBRANCH  74  75
ENDBRANCH  42  67
ENDBRANCH  16  17
ENDBRANCH   9  11
ENDBRANCH   8   9
ENDBRANCH   7   8
ENDBRANCH   6   7
ENDBRANCH   5   6
ENDBRANCH   4   5
ENDBRANCH   3   4
ENDBRANCH   2   3
ENDBRANCH   1   2
BRANCH   1  79
ATOM     79  C   UNL     1       4.531   0.170  -3.247  1.00  0.00     0.188 C 
BRANCH  79  80
ATOM     80  O   UNL     1       3.667   1.274  -3.485  1.00  0.00    -0.376 OA
BRANCH  80  81
ATOM     81  C   UNL     1       3.116   1.417  -4.792  1.00  0.00     0.202 C 
BRANCH  81  82
ATOM     82  C   UNL     1       2.344   0.216  -5.369  1.00  0.00     0.261 C 
BRANCH  82  83
ATOM     83  O   UNL     1       3.193  -0.944  -5.513  1.00  0.00    -0.463 OA
BRANCH  83  84
ATOM     84  C   UNL     1       4.128  -0.857  -6.496  1.00  0.00     0.311 C 
ATOM     85  O   UNL     1       4.034  -0.118  -7.448  1.00  0.00    -0.252 OA
BRANCH  84  86
ATOM     86  C   UNL     1       5.375  -1.675  -6.125  1.00  0.00     0.127 C 
ATOM     87  C   UNL     1       6.605  -0.769  -6.138  1.00  0.00     0.028 C 
ATOM     88  C   UNL     1       5.618  -2.837  -7.076  1.00  0.00     0.129 C 
ATOM     89  C   UNL     1       6.986  -0.336  -7.546  1.00  0.00     0.101 C 
ATOM     90  N   UNL     1       5.768  -2.341  -8.443  1.00  0.00    -0.335 N 
ATOM     91  C   UNL     1       6.483  -1.177  -8.720  1.00  0.00     0.223 C 
ATOM     92  O   UNL     1       6.720  -0.809  -9.872  1.00  0.00    -0.275 OA
BRANCH  88  93
ATOM     93  C   UNL     1       6.822  -3.695  -6.639  1.00  0.00    -0.025 A 
ATOM     94  C   UNL     1       8.065  -3.636  -7.303  1.00  0.00     0.006 A 
ATOM     95  C   UNL     1       6.693  -4.604  -5.574  1.00  0.00     0.006 A 
ATOM     96  C   UNL     1       9.129  -4.458  -6.936  1.00  0.00     0.000 A 
ATOM     97  C   UNL     1       7.761  -5.435  -5.213  1.00  0.00     0.000 A 
ATOM     98  C   UNL     1       8.975  -5.363  -5.895  1.00  0.00     0.000 A 
ENDBRANCH  88  93
BRANCH  90  99
ATOM     99  C   UNL     1       5.031  -3.009  -9.516  1.00  0.00     0.122 C 
BRANCH  99 100
ATOM    100  C   UNL     1       5.631  -4.320 -10.032  1.00  0.00     0.043 C 
BRANCH 100 101
ATOM    101  C   UNL     1       5.614  -5.566  -9.140  1.00  0.00     0.125 C 
BRANCH 101 102
ATOM    102  N   UNL     1       4.370  -6.252  -8.860  1.00  0.00    -0.337 N 
ATOM    103  C   UNL     1       4.275  -7.615  -8.712  1.00  0.00     0.107 A 
ATOM    104  C   UNL     1       3.163  -5.733  -8.500  1.00  0.00     0.199 A 
ATOM    105  C   UNL     1       2.984  -7.850  -8.307  1.00  0.00     0.130 A 
ATOM    106  N   UNL     1       2.298  -6.674  -8.190  1.00  0.00    -0.245 NA
ENDBRANCH 101 102
ENDBRANCH 100 101
ENDBRANCH  99 100
ENDBRANCH  90  99
ENDBRANCH  84  86
ENDBRANCH  83  84
ENDBRANCH  82  83
ENDBRANCH  81  82
ENDBRANCH  80  81
ENDBRANCH  79  80
ENDBRANCH   1  79
TORSDOF 28
