REMARK SMILES CC(=O)N[C@@H](C)C(=O)N1CCC[C@H]1C(=O)OCCOCCOCCOCCOC(=O)c1ccc(-c2c3nc(c(-c4c(F)cc(S(=O)(=O)[O-])cc4F)c4ccc([nH]4)c(-c4c(F)cc(S(=O)(=O)[O-])cc4F)c4nc(c(-c5c(F)cc(S(=O)(=O)[O-])cc5F)c5ccc2[nH]5)C=C4)C=C3)cc1
REMARK SMILES IDX 22 1 21 2 20 3 19 4 18 5 17 6 16 7 14 8 15 9 13 10 9 11
REMARK SMILES IDX 10 12 11 13 12 14 7 15 8 16 5 17 6 18 4 19 1 20 2 21 3 22
REMARK SMILES IDX 23 24 24 25 25 26 26 27 27 28 28 29 29 30 30 31 31 32 32 33
REMARK SMILES IDX 96 34 33 35 95 36 34 37 35 38 36 39 89 40 37 41 94 42 88 43
REMARK SMILES IDX 90 44 38 45 93 46 87 47 86 48 39 50 73 51 52 52 72 53 53 54
REMARK SMILES IDX 56 55 71 56 91 57 54 58 55 59 70 61 92 62 57 63 40 64 41 65
REMARK SMILES IDX 50 66 42 67 43 68 49 69 51 70 44 71 45 72 46 73 47 74 48 75
REMARK SMILES IDX 74 76 75 77 84 78 76 79 77 80 83 81 85 82 78 83 79 84 80 85
REMARK SMILES IDX 81 86 82 87 58 88 59 89 68 90 60 91 61 92 67 93 69 94 62 95
REMARK SMILES IDX 63 96 64 97 65 98 66 99
REMARK H PARENT 4 23 90 49 56 60
REMARK Flexibility Score: inf
ROOT
ATOM      1  O   UNL     1       0.872  -0.941   7.961  1.00  0.00    -0.377 OA
ENDROOT
BRANCH   1   2
ATOM      2  C   UNL     1       1.175   0.335   8.471  1.00  0.00     0.188 C 
BRANCH   2   3
ATOM      3  C   UNL     1      -0.057   1.083   9.016  1.00  0.00     0.188 C 
BRANCH   3   4
ATOM      4  O   UNL     1      -1.190   0.395   9.532  1.00  0.00    -0.376 OA
BRANCH   4   5
ATOM      5  C   UNL     1      -1.917  -0.576   8.781  1.00  0.00     0.202 C 
BRANCH   5   6
ATOM      6  C   UNL     1      -2.203  -0.453   7.278  1.00  0.00     0.261 C 
BRANCH   6   7
ATOM      7  O   UNL     1      -1.122   0.109   6.552  1.00  0.00    -0.462 OA
BRANCH   7   8
ATOM      8  C   UNL     1      -1.324   1.296   5.934  1.00  0.00     0.328 C 
ATOM      9  O   UNL     1      -2.401   1.859   5.782  1.00  0.00    -0.250 OA
BRANCH   8  10
ATOM     10  C   UNL     1       0.032   1.888   5.555  1.00  0.00     0.195 C 
ATOM     11  N   UNL     1       0.239   2.030   4.133  1.00  0.00    -0.327 N 
ATOM     12  C   UNL     1      -0.074   3.385   3.737  1.00  0.00     0.120 C 
ATOM     13  C   UNL     1       0.371   4.216   4.928  1.00  0.00     0.024 C 
ATOM     14  C   UNL     1       0.194   3.301   6.135  1.00  0.00     0.039 C 
BRANCH  11  15
ATOM     15  C   UNL     1       0.799   0.955   3.476  1.00  0.00     0.245 C 
ATOM     16  O   UNL     1       0.803  -0.162   4.006  1.00  0.00    -0.272 OA
BRANCH  15  17
ATOM     17  C   UNL     1       1.691   1.178   2.248  1.00  0.00     0.168 C 
ATOM     18  C   UNL     1       2.963   1.898   2.691  1.00  0.00     0.041 C 
BRANCH  17  19
ATOM     19  N   UNL     1       1.044   1.862   1.143  1.00  0.00    -0.345 N 
ATOM     20  C   UNL     1       0.824  -0.146  -0.270  1.00  0.00     0.114 C 
ATOM     21  C   UNL     1       0.532   1.302   0.013  1.00  0.00     0.217 C 
ATOM     22  O   UNL     1      -0.114   2.012  -0.755  1.00  0.00    -0.275 OA
ATOM     23  H   UNL     1       0.965   2.840   1.221  1.00  0.00     0.164 HD
ENDBRANCH  17  19
ENDBRANCH  15  17
ENDBRANCH  11  15
ENDBRANCH   8  10
ENDBRANCH   7   8
ENDBRANCH   6   7
ENDBRANCH   5   6
ENDBRANCH   4   5
ENDBRANCH   3   4
ENDBRANCH   2   3
ENDBRANCH   1   2
BRANCH   1  24
ATOM     24  C   UNL     1       1.101  -2.049   8.823  1.00  0.00     0.188 C 
BRANCH  24  25
ATOM     25  C   UNL     1       0.911  -1.870  10.350  1.00  0.00     0.188 C 
BRANCH  25  26
ATOM     26  O   UNL     1       1.495  -0.692  10.894  1.00  0.00    -0.376 OA
BRANCH  26  27
ATOM     27  C   UNL     1       2.741  -0.800  11.564  1.00  0.00     0.202 C 
BRANCH  27  28
ATOM     28  C   UNL     1       3.967  -1.187  10.722  1.00  0.00     0.261 C 
BRANCH  28  29
ATOM     29  O   UNL     1       3.880  -2.425  10.007  1.00  0.00    -0.460 OA
BRANCH  29  30
ATOM     30  C   UNL     1       3.680  -3.550  10.731  1.00  0.00     0.338 C 
ATOM     31  O   UNL     1       3.604  -3.640  11.937  1.00  0.00    -0.246 OA
BRANCH  30  32
ATOM     32  C   UNL     1       3.366  -4.635   9.776  1.00  0.00     0.060 A 
ATOM     33  C   UNL     1       2.138  -5.303   9.880  1.00  0.00     0.016 A 
ATOM     34  C   UNL     1       4.282  -4.982   8.781  1.00  0.00     0.016 A 
ATOM     35  C   UNL     1       1.840  -6.354   9.012  1.00  0.00     0.010 A 
ATOM     36  C   UNL     1       3.992  -6.048   7.929  1.00  0.00     0.010 A 
ATOM     37  C   UNL     1       2.789  -6.763   8.069  1.00  0.00    -0.014 A 
BRANCH  37  38
ATOM     38  C   UNL     1       2.652  -8.076   7.396  1.00  0.00     0.031 A 
ATOM     39  C   UNL     1       3.411  -9.239   7.973  1.00  0.00     0.074 A 
ATOM     40  C   UNL     1       1.903  -8.233   6.292  1.00  0.00     0.049 A 
ATOM     41  N   UNL     1       3.567 -10.448   7.504  1.00  0.00    -0.248 NA
ATOM     42  C   UNL     1       4.100  -8.992   9.251  1.00  0.00     0.031 C 
ATOM     43  C   UNL     1       1.091  -7.193   5.666  1.00  0.00     0.029 A 
ATOM     44  N   UNL     1       1.731  -9.331   5.487  1.00  0.00    -0.354 N 
ATOM     45  C   UNL     1       4.390 -11.099   8.416  1.00  0.00     0.074 A 
ATOM     46  C   UNL     1       4.723 -10.142   9.448  1.00  0.00     0.031 C 
ATOM     47  C   UNL     1       0.529  -7.695   4.552  1.00  0.00     0.029 A 
ATOM     48  C   UNL     1       0.977  -9.076   4.367  1.00  0.00     0.049 A 
ATOM     49  H   UNL     1       2.112 -10.216   5.691  1.00  0.00     0.167 HD
ATOM     50  C   UNL     1       4.828 -12.380   8.395  1.00  0.00     0.037 A 
ATOM     51  C   UNL     1       0.712  -9.856   3.299  1.00  0.00     0.037 A 
ATOM     52  C   UNL     1       4.500 -13.317   7.354  1.00  0.00     0.049 A 
ATOM     53  C   UNL     1       1.260 -11.260   3.254  1.00  0.00     0.074 A 
ATOM     54  C   UNL     1       4.876 -14.643   7.241  1.00  0.00     0.029 A 
ATOM     55  N   UNL     1       3.733 -13.021   6.235  1.00  0.00    -0.354 N 
ATOM     56  N   UNL     1       2.021 -11.877   4.128  1.00  0.00    -0.248 NA
ATOM     57  C   UNL     1       0.913 -12.076   2.082  1.00  0.00     0.031 C 
ATOM     58  C   UNL     1       4.390 -15.131   6.024  1.00  0.00     0.029 A 
ATOM     59  C   UNL     1       3.648 -14.132   5.412  1.00  0.00     0.049 A 
ATOM     60  H   UNL     1       3.312 -12.150   6.053  1.00  0.00     0.167 HD
ATOM     61  C   UNL     1       2.215 -13.162   3.629  1.00  0.00     0.074 A 
ATOM     62  C   UNL     1       1.494 -13.233   2.374  1.00  0.00     0.031 C 
ATOM     63  C   UNL     1       2.916 -14.192   4.168  1.00  0.00     0.037 A 
BRANCH  50  64
ATOM     64  C   UNL     1       5.750 -12.811   9.503  1.00  0.00     0.058 A 
ATOM     65  C   UNL     1       5.317 -12.918  10.836  1.00  0.00     0.135 A 
ATOM     66  C   UNL     1       7.098 -13.096   9.231  1.00  0.00     0.135 A 
ATOM     67  F   UNL     1       4.044 -12.640  11.158  1.00  0.00    -0.206 F 
ATOM     68  C   UNL     1       6.199 -13.237  11.864  1.00  0.00     0.059 A 
ATOM     69  C   UNL     1       7.989 -13.454  10.238  1.00  0.00     0.059 A 
ATOM     70  F   UNL     1       7.568 -13.011   7.977  1.00  0.00    -0.206 F 
ATOM     71  C   UNL     1       7.535 -13.495  11.555  1.00  0.00     0.060 A 
BRANCH  71  72
ATOM     72  S   UNL     1       8.676 -13.864  12.904  1.00  0.00     0.124 S 
ATOM     73  O   UNL     1       8.813 -12.555  13.534  1.00  0.00    -0.237 OA
ATOM     74  O   UNL     1       7.939 -14.862  13.672  1.00  0.00    -0.237 OA
ATOM     75  O   UNL     1       9.866 -14.358  12.218  1.00  0.00    -0.744 OA
ENDBRANCH  71  72
ENDBRANCH  50  64
BRANCH  51  76
ATOM     76  C   UNL     1      -0.103  -9.309   2.182  1.00  0.00     0.058 A 
ATOM     77  C   UNL     1      -1.414  -9.750   1.955  1.00  0.00     0.135 A 
ATOM     78  C   UNL     1       0.397  -8.291   1.353  1.00  0.00     0.135 A 
ATOM     79  F   UNL     1      -1.932 -10.732   2.708  1.00  0.00    -0.206 F 
ATOM     80  C   UNL     1      -2.206  -9.195   0.954  1.00  0.00     0.059 A 
ATOM     81  C   UNL     1      -0.383  -7.703   0.363  1.00  0.00     0.059 A 
ATOM     82  F   UNL     1       1.645  -7.831   1.532  1.00  0.00    -0.206 F 
ATOM     83  C   UNL     1      -1.685  -8.162   0.172  1.00  0.00     0.060 A 
BRANCH  83  84
ATOM     84  S   UNL     1      -2.757  -7.384  -1.057  1.00  0.00     0.124 S 
ATOM     85  O   UNL     1      -2.881  -8.443  -2.052  1.00  0.00    -0.237 OA
ATOM     86  O   UNL     1      -3.956  -7.098  -0.276  1.00  0.00    -0.237 OA
ATOM     87  O   UNL     1      -1.994  -6.212  -1.474  1.00  0.00    -0.744 OA
ENDBRANCH  83  84
ENDBRANCH  51  76
BRANCH  63  88
ATOM     88  C   UNL     1       2.904 -15.513   3.445  1.00  0.00     0.058 A 
ATOM     89  C   UNL     1       3.621 -15.721   2.258  1.00  0.00     0.135 A 
ATOM     90  C   UNL     1       2.242 -16.616   4.012  1.00  0.00     0.135 A 
ATOM     91  F   UNL     1       4.267 -14.702   1.670  1.00  0.00    -0.206 F 
ATOM     92  C   UNL     1       3.678 -16.975   1.654  1.00  0.00     0.059 A 
ATOM     93  C   UNL     1       2.309 -17.883   3.442  1.00  0.00     0.059 A 
ATOM     94  F   UNL     1       1.548 -16.475   5.153  1.00  0.00    -0.206 F 
ATOM     95  C   UNL     1       3.026 -18.052   2.259  1.00  0.00     0.060 A 
BRANCH  95  96
ATOM     96  S   UNL     1       3.164 -19.686   1.502  1.00  0.00     0.124 S 
ATOM     97  O   UNL     1       2.337 -19.529   0.310  1.00  0.00    -0.237 OA
ATOM     98  O   UNL     1       4.601 -19.799   1.267  1.00  0.00    -0.237 OA
ATOM     99  O   UNL     1       2.629 -20.581   2.523  1.00  0.00    -0.744 OA
ENDBRANCH  95  96
ENDBRANCH  63  88
ENDBRANCH  37  38
ENDBRANCH  30  32
ENDBRANCH  29  30
ENDBRANCH  28  29
ENDBRANCH  27  28
ENDBRANCH  26  27
ENDBRANCH  25  26
ENDBRANCH  24  25
ENDBRANCH   1  24
TORSDOF 26
