REMARK SMILES Cc1n[nH]c2c1[C@@]1(C(=O)N([C@@H](C)C(=O)OCCOCCOCCOCCOC(=O)c3ccc(-c4c5nc(c(-c6c(F)cc(S(=O)(=O)[O-])cc6F)c6ccc([nH]6)c(-c6c(F)cc(S(=O)(=O)[O-])cc6F)c6nc(c(-c7c(F)cc(S(=O)(=O)[O-])cc7F)c7ccc4[nH]7)C=C6)C=C5)cc3)c3ccccc31)C(C#N)=C(N)O2
REMARK SMILES IDX 22 1 21 2 20 3 19 4 18 5 17 6 16 7 15 8 13 9 14 10 11 11
REMARK SMILES IDX 12 12 10 13 1 14 2 15 3 16 6 17 4 18 5 19 7 20 107 22 8 23
REMARK SMILES IDX 101 24 102 25 105 26 9 27 96 28 100 29 97 30 99 31 98 32
REMARK SMILES IDX 103 33 104 34 106 35 23 38 24 39 25 40 26 41 27 42 28 43
REMARK SMILES IDX 29 44 30 45 31 46 95 47 32 48 94 49 33 50 34 51 35 52 88 53
REMARK SMILES IDX 36 54 93 55 87 56 89 57 37 58 92 59 86 60 85 61 38 63 72 64
REMARK SMILES IDX 51 65 71 66 52 67 55 68 70 69 90 70 53 71 54 72 69 74 91 75
REMARK SMILES IDX 56 76 39 77 40 78 49 79 41 80 42 81 48 82 50 83 43 84 44 85
REMARK SMILES IDX 45 86 46 87 47 88 73 89 74 90 83 91 75 92 76 93 82 94 84 95
REMARK SMILES IDX 77 96 78 97 79 98 80 99 81 100 57 101 58 102 67 103 59 104
REMARK SMILES IDX 60 105 66 106 68 107 61 108 62 109 63 110 64 111 65 112
REMARK H PARENT 4 21 106 36 106 37 89 62 55 73
REMARK Flexibility Score: inf
ROOT
ATOM      1  C   UNL     1      -2.135   7.224  -0.709  1.00  0.00     0.188 C 
ENDROOT
BRANCH   1   2
ATOM      2  O   UNL     1      -1.343   6.197  -1.250  1.00  0.00    -0.377 OA
BRANCH   2   3
ATOM      3  C   UNL     1      -0.026   6.388  -1.670  1.00  0.00     0.188 C 
BRANCH   3   4
ATOM      4  C   UNL     1       0.217   6.871  -3.099  1.00  0.00     0.188 C 
BRANCH   4   5
ATOM      5  O   UNL     1      -0.669   6.585  -4.173  1.00  0.00    -0.376 OA
BRANCH   5   6
ATOM      6  C   UNL     1      -2.064   6.518  -3.916  1.00  0.00     0.202 C 
BRANCH   6   7
ATOM      7  C   UNL     1      -2.579   5.084  -3.680  1.00  0.00     0.261 C 
BRANCH   7   8
ATOM      8  O   UNL     1      -1.733   4.252  -2.857  1.00  0.00    -0.462 OA
BRANCH   8   9
ATOM      9  C   UNL     1      -0.702   3.665  -3.499  1.00  0.00     0.329 C 
ATOM     10  O   UNL     1      -0.475   3.765  -4.704  1.00  0.00    -0.250 OA
BRANCH   9  11
ATOM     11  C   UNL     1       0.190   2.774  -2.615  1.00  0.00     0.197 C 
ATOM     12  C   UNL     1      -0.117   1.323  -2.991  1.00  0.00     0.044 C 
BRANCH  11  13
ATOM     13  N   UNL     1       0.368   2.953  -1.144  1.00  0.00    -0.297 N 
ATOM     14  C   UNL     1       0.997  -0.357   0.177  1.00  0.00     0.069 C 
ATOM     15  C   UNL     1       0.524   0.130   1.494  1.00  0.00     0.068 A 
ATOM     16  N   UNL     1       0.388  -0.750   2.500  1.00  0.00    -0.177 NA
ATOM     17  C   UNL     1       0.180   1.448   1.901  1.00  0.00     0.063 A 
ATOM     18  N   UNL     1      -0.113  -0.021   3.511  1.00  0.00    -0.246 N 
ATOM     19  C   UNL     1      -0.208   1.297   3.210  1.00  0.00     0.222 A 
ATOM     20  C   UNL     1       0.124   2.811   1.259  1.00  0.00     0.149 C 
ATOM     21  H   UNL     1      -0.382  -0.403   4.377  1.00  0.00     0.193 HD
ATOM     22  O   UNL     1      -0.633   2.221   4.059  1.00  0.00    -0.422 OA
ATOM     23  C   UNL     1      -0.605   2.734  -0.141  1.00  0.00     0.248 C 
ATOM     24  C   UNL     1       1.542   3.129   0.848  1.00  0.00     0.002 A 
ATOM     25  C   UNL     1      -0.413   3.837   2.277  1.00  0.00     0.114 C 
ATOM     26  C   UNL     1      -0.745   3.526   3.559  1.00  0.00     0.208 C 
ATOM     27  O   UNL     1      -1.782   2.455  -0.305  1.00  0.00    -0.273 OA
ATOM     28  C   UNL     1       1.628   3.217  -0.547  1.00  0.00     0.050 A 
ATOM     29  C   UNL     1       2.647   3.365   1.664  1.00  0.00     0.008 A 
ATOM     30  C   UNL     1       2.833   3.551  -1.147  1.00  0.00     0.027 A 
ATOM     31  C   UNL     1       3.854   3.709   1.063  1.00  0.00     0.001 A 
ATOM     32  C   UNL     1       3.944   3.806  -0.332  1.00  0.00     0.002 A 
BRANCH  25  33
ATOM     33  C   UNL     1      -0.687   5.251   1.791  1.00  0.00     0.102 C 
ATOM     34  N   UNL     1      -0.915   6.423   1.388  1.00  0.00    -0.193 NA
ENDBRANCH  25  33
BRANCH  26  35
ATOM     35  N   UNL     1      -1.216   4.404   4.492  1.00  0.00    -0.369 N 
ATOM     36  H   UNL     1      -1.337   5.353   4.258  1.00  0.00     0.159 HD
ATOM     37  H   UNL     1      -1.435   4.089   5.399  1.00  0.00     0.159 HD
ENDBRANCH  26  35
ENDBRANCH  11  13
ENDBRANCH   9  11
ENDBRANCH   8   9
ENDBRANCH   7   8
ENDBRANCH   6   7
ENDBRANCH   5   6
ENDBRANCH   4   5
ENDBRANCH   3   4
ENDBRANCH   2   3
ENDBRANCH   1   2
BRANCH   1  38
ATOM     38  C   UNL     1      -1.656   8.658  -0.387  1.00  0.00     0.188 C 
BRANCH  38  39
ATOM     39  O   UNL     1      -0.309   9.079  -0.258  1.00  0.00    -0.376 OA
BRANCH  39  40
ATOM     40  C   UNL     1       0.492   8.842   0.897  1.00  0.00     0.202 C 
BRANCH  40  41
ATOM     41  C   UNL     1       0.056   9.018   2.381  1.00  0.00     0.261 C 
BRANCH  41  42
ATOM     42  O   UNL     1      -1.201   8.434   2.730  1.00  0.00    -0.460 OA
BRANCH  42  43
ATOM     43  C   UNL     1      -2.164   9.208   3.279  1.00  0.00     0.338 C 
ATOM     44  O   UNL     1      -2.021  10.260   3.841  1.00  0.00    -0.246 OA
BRANCH  43  45
ATOM     45  C   UNL     1      -3.443   8.685   2.717  1.00  0.00     0.060 A 
ATOM     46  C   UNL     1      -3.735   7.319   2.611  1.00  0.00     0.016 A 
ATOM     47  C   UNL     1      -4.182   9.625   1.992  1.00  0.00     0.016 A 
ATOM     48  C   UNL     1      -4.671   6.892   1.665  1.00  0.00     0.010 A 
ATOM     49  C   UNL     1      -5.088   9.195   1.031  1.00  0.00     0.010 A 
ATOM     50  C   UNL     1      -5.284   7.828   0.814  1.00  0.00    -0.014 A 
BRANCH  50  51
ATOM     51  C   UNL     1      -6.247   7.371  -0.203  1.00  0.00     0.031 A 
ATOM     52  C   UNL     1      -7.477   6.759   0.384  1.00  0.00     0.074 A 
ATOM     53  C   UNL     1      -6.181   7.682  -1.521  1.00  0.00     0.049 A 
ATOM     54  N   UNL     1      -8.051   5.633   0.108  1.00  0.00    -0.248 NA
ATOM     55  C   UNL     1      -8.097   7.484   1.510  1.00  0.00     0.031 C 
ATOM     56  C   UNL     1      -5.209   8.556  -2.184  1.00  0.00     0.029 A 
ATOM     57  N   UNL     1      -7.052   7.396  -2.542  1.00  0.00    -0.354 N 
ATOM     58  C   UNL     1      -9.204   5.595   0.892  1.00  0.00     0.074 A 
ATOM     59  C   UNL     1      -9.102   6.676   1.836  1.00  0.00     0.031 C 
ATOM     60  C   UNL     1      -5.655   8.893  -3.411  1.00  0.00     0.029 A 
ATOM     61  C   UNL     1      -6.931   8.247  -3.642  1.00  0.00     0.049 A 
ATOM     62  H   UNL     1      -7.702   6.659  -2.502  1.00  0.00     0.167 HD
ATOM     63  C   UNL     1     -10.278   4.816   0.589  1.00  0.00     0.037 A 
ATOM     64  C   UNL     1      -7.863   8.524  -4.597  1.00  0.00     0.037 A 
ATOM     65  C   UNL     1      -9.941   3.752  -0.313  1.00  0.00     0.049 A 
ATOM     66  C   UNL     1      -8.866   7.428  -4.569  1.00  0.00     0.074 A 
ATOM     67  C   UNL     1      -9.047   2.700  -0.267  1.00  0.00     0.029 A 
ATOM     68  N   UNL     1     -10.311   3.864  -1.631  1.00  0.00    -0.354 N 
ATOM     69  N   UNL     1      -8.614   6.194  -4.911  1.00  0.00    -0.248 NA
ATOM     70  C   UNL     1     -10.018   7.613  -3.697  1.00  0.00     0.031 C 
ATOM     71  C   UNL     1      -8.538   2.595  -1.593  1.00  0.00     0.029 A 
ATOM     72  C   UNL     1      -9.202   3.541  -2.373  1.00  0.00     0.049 A 
ATOM     73  H   UNL     1     -11.196   4.124  -1.976  1.00  0.00     0.167 HD
ATOM     74  C   UNL     1      -9.281   5.425  -3.970  1.00  0.00     0.074 A 
ATOM     75  C   UNL     1     -10.176   6.355  -3.282  1.00  0.00     0.031 C 
ATOM     76  C   UNL     1      -8.864   4.169  -3.631  1.00  0.00     0.037 A 
BRANCH  63  77
ATOM     77  C   UNL     1     -11.697   5.225   0.879  1.00  0.00     0.058 A 
ATOM     78  C   UNL     1     -12.731   4.272   0.838  1.00  0.00     0.135 A 
ATOM     79  C   UNL     1     -12.107   6.577   0.937  1.00  0.00     0.135 A 
ATOM     80  F   UNL     1     -12.448   2.962   0.754  1.00  0.00    -0.206 F 
ATOM     81  C   UNL     1     -14.077   4.638   0.811  1.00  0.00     0.059 A 
ATOM     82  C   UNL     1     -13.441   6.962   0.969  1.00  0.00     0.059 A 
ATOM     83  F   UNL     1     -11.229   7.587   0.866  1.00  0.00    -0.206 F 
ATOM     84  C   UNL     1     -14.420   5.988   0.866  1.00  0.00     0.060 A 
BRANCH  84  85
ATOM     85  S   UNL     1     -16.151   6.467   0.723  1.00  0.00     0.124 S 
ATOM     86  O   UNL     1     -16.447   6.080  -0.651  1.00  0.00    -0.237 OA
ATOM     87  O   UNL     1     -16.774   5.658   1.765  1.00  0.00    -0.237 OA
ATOM     88  O   UNL     1     -16.125   7.903   0.984  1.00  0.00    -0.744 OA
ENDBRANCH  84  85
ENDBRANCH  63  77
BRANCH  64  89
ATOM     89  C   UNL     1      -8.148   9.869  -5.200  1.00  0.00     0.058 A 
ATOM     90  C   UNL     1      -9.004  10.027  -6.307  1.00  0.00     0.135 A 
ATOM     91  C   UNL     1      -7.783  11.066  -4.544  1.00  0.00     0.135 A 
ATOM     92  F   UNL     1      -9.438   8.951  -6.982  1.00  0.00    -0.206 F 
ATOM     93  C   UNL     1      -9.489  11.283  -6.713  1.00  0.00     0.059 A 
ATOM     94  C   UNL     1      -8.232  12.323  -4.942  1.00  0.00     0.059 A 
ATOM     95  F   UNL     1      -7.046  11.055  -3.425  1.00  0.00    -0.206 F 
ATOM     96  C   UNL     1      -9.108  12.426  -6.010  1.00  0.00     0.060 A 
BRANCH  96  97
ATOM     97  S   UNL     1      -9.851  14.029  -6.404  1.00  0.00     0.124 S 
ATOM     98  O   UNL     1      -9.329  14.287  -7.741  1.00  0.00    -0.237 OA
ATOM     99  O   UNL     1     -11.277  13.735  -6.319  1.00  0.00    -0.237 OA
ATOM    100  O   UNL     1      -9.336  14.908  -5.356  1.00  0.00    -0.744 OA
ENDBRANCH  96  97
ENDBRANCH  64  89
BRANCH  76 101
ATOM    101  C   UNL     1      -7.814   3.479  -4.464  1.00  0.00     0.058 A 
ATOM    102  C   UNL     1      -6.512   3.965  -4.678  1.00  0.00     0.135 A 
ATOM    103  C   UNL     1      -8.085   2.173  -4.909  1.00  0.00     0.135 A 
ATOM    104  F   UNL     1      -6.128   5.158  -4.199  1.00  0.00    -0.206 F 
ATOM    105  C   UNL     1      -5.542   3.200  -5.330  1.00  0.00     0.059 A 
ATOM    106  C   UNL     1      -7.119   1.379  -5.522  1.00  0.00     0.059 A 
ATOM    107  F   UNL     1      -9.294   1.627  -4.695  1.00  0.00    -0.206 F 
ATOM    108  C   UNL     1      -5.849   1.902  -5.735  1.00  0.00     0.060 A 
BRANCH 108 109
ATOM    109  S   UNL     1      -4.560   0.891  -6.496  1.00  0.00     0.124 S 
ATOM    110  O   UNL     1      -4.287   1.619  -7.731  1.00  0.00    -0.237 OA
ATOM    111  O   UNL     1      -3.501   0.920  -5.490  1.00  0.00    -0.237 OA
ATOM    112  O   UNL     1      -5.204  -0.409  -6.673  1.00  0.00    -0.744 OA
ENDBRANCH 108 109
ENDBRANCH  76 101
ENDBRANCH  50  51
ENDBRANCH  43  45
ENDBRANCH  42  43
ENDBRANCH  41  42
ENDBRANCH  40  41
ENDBRANCH  39  40
ENDBRANCH  38  39
ENDBRANCH   1  38
TORSDOF 26
