REMARK SMILES O=C(OCCOCCOCCOCCOC(=O)c1nn(Cc2ccc(F)cc2)c2ccccc12)c1ccc(-c2c3nc(c(-c4c(F)cc(S(=O)(=O)[O-])cc4F)c4ccc([nH]4)c(-c4c(F)cc(S(=O)(=O)[O-])cc4F)c4nc(c(-c5c(F)cc(S(=O)(=O)[O-])cc5F)c5ccc2[nH]5)C=C4)C=C3)cc1
REMARK SMILES IDX 8 1 7 2 6 3 5 4 4 5 3 6 2 7 1 8 35 9 36 10 100 11 37 12
REMARK SMILES IDX 99 13 38 14 39 15 40 16 93 17 41 18 98 19 92 20 94 21 42 22
REMARK SMILES IDX 97 23 91 24 90 25 43 27 77 28 56 29 76 30 57 31 60 32 75 33
REMARK SMILES IDX 95 34 58 35 59 36 74 38 96 39 61 40 44 41 45 42 54 43 46 44
REMARK SMILES IDX 47 45 53 46 55 47 48 48 49 49 50 50 51 51 52 52 78 53 79 54
REMARK SMILES IDX 88 55 80 56 81 57 87 58 89 59 82 60 83 61 84 62 85 63 86 64
REMARK SMILES IDX 62 65 63 66 72 67 64 68 65 69 71 70 73 71 66 72 67 73 68 74
REMARK SMILES IDX 69 75 70 76 9 77 10 78 11 79 12 80 13 81 14 82 15 83 16 84
REMARK SMILES IDX 17 85 18 86 19 87 34 88 20 89 29 90 33 91 30 92 32 93 31 94
REMARK SMILES IDX 21 95 22 96 23 97 28 98 24 99 27 100 25 101 26 102
REMARK H PARENT 94 26 60 37
REMARK Flexibility Score: inf
ROOT
ATOM      1  C   UNL     1       1.000  -0.281   2.101  1.00  0.00     0.188 C 
ENDROOT
BRANCH   1   2
ATOM      2  C   UNL     1       1.594   0.750   1.145  1.00  0.00     0.188 C 
BRANCH   2   3
ATOM      3  O   UNL     1       2.844   0.302   0.657  1.00  0.00    -0.376 OA
BRANCH   3   4
ATOM      4  C   UNL     1       3.933   1.202   0.741  1.00  0.00     0.202 C 
BRANCH   4   5
ATOM      5  C   UNL     1       4.052   1.949  -0.583  1.00  0.00     0.261 C 
BRANCH   5   6
ATOM      6  O   UNL     1       4.457   1.084  -1.671  1.00  0.00    -0.460 OA
BRANCH   6   7
ATOM      7  C   UNL     1       3.615   0.051  -1.966  1.00  0.00     0.338 C 
ATOM      8  O   UNL     1       2.506   0.183  -2.457  1.00  0.00    -0.246 OA
BRANCH   7   9
ATOM      9  C   UNL     1       4.238  -1.244  -1.539  1.00  0.00     0.060 A 
ATOM     10  C   UNL     1       3.505  -2.439  -1.571  1.00  0.00     0.016 A 
ATOM     11  C   UNL     1       5.511  -1.241  -0.955  1.00  0.00     0.016 A 
ATOM     12  C   UNL     1       4.040  -3.606  -0.992  1.00  0.00     0.010 A 
ATOM     13  C   UNL     1       5.995  -2.369  -0.300  1.00  0.00     0.010 A 
ATOM     14  C   UNL     1       5.272  -3.570  -0.315  1.00  0.00    -0.014 A 
BRANCH  14  15
ATOM     15  C   UNL     1       6.082  -4.776  -0.049  1.00  0.00     0.031 A 
ATOM     16  C   UNL     1       6.601  -5.278  -1.314  1.00  0.00     0.074 A 
ATOM     17  C   UNL     1       6.373  -5.487   1.067  1.00  0.00     0.049 A 
ATOM     18  N   UNL     1       6.005  -6.238  -1.940  1.00  0.00    -0.248 NA
ATOM     19  C   UNL     1       7.638  -4.587  -2.081  1.00  0.00     0.031 C 
ATOM     20  C   UNL     1       5.622  -5.478   2.289  1.00  0.00     0.029 A 
ATOM     21  N   UNL     1       7.390  -6.371   1.392  1.00  0.00    -0.354 N 
ATOM     22  C   UNL     1       6.885  -6.552  -2.938  1.00  0.00     0.074 A 
ATOM     23  C   UNL     1       7.681  -5.366  -3.168  1.00  0.00     0.031 C 
ATOM     24  C   UNL     1       6.296  -6.027   3.310  1.00  0.00     0.029 A 
ATOM     25  C   UNL     1       7.535  -6.554   2.779  1.00  0.00     0.049 A 
ATOM     26  H   UNL     1       7.951  -6.824   0.722  1.00  0.00     0.167 HD
ATOM     27  C   UNL     1       7.205  -7.861  -3.086  1.00  0.00     0.037 A 
ATOM     28  C   UNL     1       8.159  -7.504   3.514  1.00  0.00     0.037 A 
ATOM     29  C   UNL     1       6.252  -8.754  -2.465  1.00  0.00     0.049 A 
ATOM     30  C   UNL     1       7.851  -8.798   2.881  1.00  0.00     0.074 A 
ATOM     31  C   UNL     1       4.941  -9.111  -2.704  1.00  0.00     0.029 A 
ATOM     32  N   UNL     1       6.526  -9.110  -1.167  1.00  0.00    -0.354 N 
ATOM     33  N   UNL     1       6.668  -9.353   2.871  1.00  0.00    -0.248 NA
ATOM     34  C   UNL     1       8.805  -9.313   1.909  1.00  0.00     0.031 C 
ATOM     35  C   UNL     1       4.432  -9.680  -1.502  1.00  0.00     0.029 A 
ATOM     36  C   UNL     1       5.439  -9.683  -0.544  1.00  0.00     0.049 A 
ATOM     37  H   UNL     1       7.398  -8.972  -0.732  1.00  0.00     0.167 HD
ATOM     38  C   UNL     1       6.596  -9.919   1.613  1.00  0.00     0.074 A 
ATOM     39  C   UNL     1       7.971 -10.013   1.141  1.00  0.00     0.031 C 
ATOM     40  C   UNL     1       5.442  -9.923   0.891  1.00  0.00     0.037 A 
BRANCH  27  41
ATOM     41  C   UNL     1       8.615  -8.256  -3.366  1.00  0.00     0.058 A 
ATOM     42  C   UNL     1       8.885  -9.433  -4.066  1.00  0.00     0.135 A 
ATOM     43  C   UNL     1       9.721  -7.586  -2.792  1.00  0.00     0.135 A 
ATOM     44  F   UNL     1       7.881 -10.172  -4.564  1.00  0.00    -0.206 F 
ATOM     45  C   UNL     1      10.187  -9.894  -4.232  1.00  0.00     0.059 A 
ATOM     46  C   UNL     1      11.028  -7.979  -3.011  1.00  0.00     0.059 A 
ATOM     47  F   UNL     1       9.562  -6.575  -1.926  1.00  0.00    -0.206 F 
ATOM     48  C   UNL     1      11.250  -9.149  -3.717  1.00  0.00     0.060 A 
BRANCH  48  49
ATOM     49  S   UNL     1      12.933  -9.740  -3.931  1.00  0.00     0.124 S 
ATOM     50  O   UNL     1      12.976 -10.835  -2.969  1.00  0.00    -0.237 OA
ATOM     51  O   UNL     1      12.945 -10.120  -5.340  1.00  0.00    -0.237 OA
ATOM     52  O   UNL     1      13.741  -8.570  -3.599  1.00  0.00    -0.744 OA
ENDBRANCH  48  49
ENDBRANCH  27  41
BRANCH  28  53
ATOM     53  C   UNL     1       8.961  -7.293   4.745  1.00  0.00     0.058 A 
ATOM     54  C   UNL     1       9.553  -8.374   5.420  1.00  0.00     0.135 A 
ATOM     55  C   UNL     1       9.363  -6.006   5.161  1.00  0.00     0.135 A 
ATOM     56  F   UNL     1       9.204  -9.634   5.120  1.00  0.00    -0.206 F 
ATOM     57  C   UNL     1      10.570  -8.197   6.362  1.00  0.00     0.059 A 
ATOM     58  C   UNL     1      10.374  -5.804   6.104  1.00  0.00     0.059 A 
ATOM     59  F   UNL     1       8.832  -4.906   4.605  1.00  0.00    -0.206 F 
ATOM     60  C   UNL     1      11.006  -6.909   6.664  1.00  0.00     0.060 A 
BRANCH  60  61
ATOM     61  S   UNL     1      12.499  -6.703   7.665  1.00  0.00     0.124 S 
ATOM     62  O   UNL     1      12.047  -7.135   8.983  1.00  0.00    -0.237 OA
ATOM     63  O   UNL     1      13.442  -7.592   6.993  1.00  0.00    -0.237 OA
ATOM     64  O   UNL     1      12.798  -5.278   7.542  1.00  0.00    -0.744 OA
ENDBRANCH  60  61
ENDBRANCH  28  53
BRANCH  40  65
ATOM     65  C   UNL     1       4.136 -10.118   1.609  1.00  0.00     0.058 A 
ATOM     66  C   UNL     1       3.541  -9.223   2.512  1.00  0.00     0.135 A 
ATOM     67  C   UNL     1       3.404 -11.278   1.292  1.00  0.00     0.135 A 
ATOM     68  F   UNL     1       4.136  -8.071   2.846  1.00  0.00    -0.206 F 
ATOM     69  C   UNL     1       2.277  -9.467   3.061  1.00  0.00     0.059 A 
ATOM     70  C   UNL     1       2.132 -11.526   1.802  1.00  0.00     0.059 A 
ATOM     71  F   UNL     1       3.911 -12.180   0.434  1.00  0.00    -0.206 F 
ATOM     72  C   UNL     1       1.572 -10.611   2.685  1.00  0.00     0.060 A 
BRANCH  72  73
ATOM     73  S   UNL     1      -0.104 -10.855   3.311  1.00  0.00     0.124 S 
ATOM     74  O   UNL     1       0.115 -10.971   4.749  1.00  0.00    -0.237 OA
ATOM     75  O   UNL     1      -0.775  -9.635   2.870  1.00  0.00    -0.237 OA
ATOM     76  O   UNL     1      -0.546 -12.078   2.647  1.00  0.00    -0.744 OA
ENDBRANCH  72  73
ENDBRANCH  40  65
ENDBRANCH  14  15
ENDBRANCH   7   9
ENDBRANCH   6   7
ENDBRANCH   5   6
ENDBRANCH   4   5
ENDBRANCH   3   4
ENDBRANCH   2   3
ENDBRANCH   1   2
BRANCH   1  77
ATOM     77  O   UNL     1       1.786  -0.491   3.271  1.00  0.00    -0.377 OA
BRANCH  77  78
ATOM     78  C   UNL     1       3.061  -1.126   3.099  1.00  0.00     0.188 C 
BRANCH  78  79
ATOM     79  C   UNL     1       3.185  -2.168   1.983  1.00  0.00     0.188 C 
BRANCH  79  80
ATOM     80  O   UNL     1       2.022  -2.972   1.895  1.00  0.00    -0.376 OA
BRANCH  80  81
ATOM     81  C   UNL     1       2.241  -4.349   2.067  1.00  0.00     0.202 C 
BRANCH  81  82
ATOM     82  C   UNL     1       2.167  -4.793   3.531  1.00  0.00     0.261 C 
BRANCH  82  83
ATOM     83  O   UNL     1       2.941  -4.227   4.627  1.00  0.00    -0.458 OA
BRANCH  83  84
ATOM     84  C   UNL     1       4.197  -3.697   4.617  1.00  0.00     0.359 C 
ATOM     85  O   UNL     1       4.888  -3.501   3.662  1.00  0.00    -0.244 OA
BRANCH  84  86
ATOM     86  C   UNL     1       4.635  -3.227   5.925  1.00  0.00     0.178 A 
ATOM     87  N   UNL     1       5.566  -2.256   5.996  1.00  0.00    -0.164 NA
ATOM     88  C   UNL     1       4.228  -3.654   7.204  1.00  0.00     0.035 A 
ATOM     89  N   UNL     1       5.755  -2.073   7.307  1.00  0.00    -0.260 N 
ATOM     90  C   UNL     1       5.022  -2.932   8.093  1.00  0.00     0.070 A 
ATOM     91  C   UNL     1       3.302  -4.593   7.692  1.00  0.00     0.013 A 
ATOM     92  C   UNL     1       4.954  -3.140   9.475  1.00  0.00     0.028 A 
ATOM     93  C   UNL     1       3.198  -4.780   9.069  1.00  0.00     0.001 A 
ATOM     94  C   UNL     1       4.019  -4.071   9.943  1.00  0.00     0.002 A 
BRANCH  89  95
ATOM     95  C   UNL     1       6.627  -0.980   7.717  1.00  0.00     0.180 C 
BRANCH  95  96
ATOM     96  C   UNL     1       5.847   0.311   7.879  1.00  0.00    -0.026 A 
ATOM     97  C   UNL     1       4.913   0.448   8.920  1.00  0.00     0.008 A 
ATOM     98  C   UNL     1       6.017   1.379   6.982  1.00  0.00     0.008 A 
ATOM     99  C   UNL     1       4.159   1.611   9.056  1.00  0.00     0.039 A 
ATOM    100  C   UNL     1       5.271   2.553   7.129  1.00  0.00     0.039 A 
ATOM    101  C   UNL     1       4.347   2.656   8.163  1.00  0.00     0.123 A 
ATOM    102  F   UNL     1       3.627   3.777   8.301  1.00  0.00    -0.207 F 
ENDBRANCH  95  96
ENDBRANCH  89  95
ENDBRANCH  84  86
ENDBRANCH  83  84
ENDBRANCH  82  83
ENDBRANCH  81  82
ENDBRANCH  80  81
ENDBRANCH  79  80
ENDBRANCH  78  79
ENDBRANCH  77  78
ENDBRANCH   1  77
TORSDOF 25
