REMARK SMILES O=C(C[C@@H]1C[N@@H+](CCSc2ccccc2F)CCO1)OCCOCCOCCOCCOC(=O)c1ccc(-c2c3nc(c(-c4c(F)cc(S(=O)(=O)[O-])cc4F)c4ccc([nH]4)c(-c4c(F)cc(S(=O)(=O)[O-])cc4F)c4nc(c(-c5c(F)cc(S(=O)(=O)[O-])cc5F)c5ccc2[nH]5)C=C4)C=C3)cc1
REMARK SMILES IDX 25 1 24 2 23 3 22 4 21 5 20 6 2 7 1 8 3 9 4 10 5 11 19 12
REMARK SMILES IDX 6 13 18 14 17 15 7 17 8 18 9 19 10 20 11 21 15 22 12 23
REMARK SMILES IDX 14 24 16 25 13 26 26 27 27 28 28 29 29 30 30 31 31 32 32 33
REMARK SMILES IDX 33 34 34 35 35 36 36 37 100 38 37 39 99 40 38 41 39 42 40 43
REMARK SMILES IDX 93 44 41 45 98 46 92 47 94 48 42 49 97 50 91 51 90 52 43 54
REMARK SMILES IDX 77 55 56 56 76 57 57 58 60 59 75 60 95 61 58 62 59 63 74 65
REMARK SMILES IDX 96 66 61 67 44 68 45 69 54 70 46 71 47 72 53 73 55 74 48 75
REMARK SMILES IDX 49 76 50 77 51 78 52 79 78 80 79 81 88 82 80 83 81 84 87 85
REMARK SMILES IDX 89 86 82 87 83 88 84 89 85 90 86 91 62 92 63 93 72 94 64 95
REMARK SMILES IDX 65 96 71 97 73 98 66 99 67 100 68 101 69 102 70 103
REMARK H PARENT 6 16 94 53 60 64
REMARK Flexibility Score: inf
ROOT
ATOM      1  C   UNL     1       2.060  -2.033   1.953  1.00  0.00     0.188 C 
ENDROOT
BRANCH   1   2
ATOM      2  C   UNL     1       2.479  -2.199   0.495  1.00  0.00     0.188 C 
BRANCH   2   3
ATOM      3  O   UNL     1       3.831  -1.962   0.117  1.00  0.00    -0.376 OA
BRANCH   3   4
ATOM      4  C   UNL     1       4.539  -0.755   0.315  1.00  0.00     0.202 C 
BRANCH   4   5
ATOM      5  C   UNL     1       3.776   0.491   0.685  1.00  0.00     0.261 C 
BRANCH   5   6
ATOM      6  O   UNL     1       2.664   0.884  -0.160  1.00  0.00    -0.463 OA
BRANCH   6   7
ATOM      7  C   UNL     1       2.109   0.429  -1.300  1.00  0.00     0.308 C 
ATOM      8  O   UNL     1       0.937   0.746  -1.516  1.00  0.00    -0.252 OA
BRANCH   7   9
ATOM      9  C   UNL     1       2.860  -0.403  -2.332  1.00  0.00     0.160 C 
BRANCH   9  10
ATOM     10  C   UNL     1       3.567   0.258  -3.537  1.00  0.00     0.184 C 
ATOM     11  C   UNL     1       5.141   0.288  -3.526  1.00  0.00     0.295 C 
ATOM     12  O   UNL     1       3.052   1.557  -3.822  1.00  0.00    -0.366 OA
ATOM     13  N   UNL     1       5.759   1.518  -2.996  1.00  0.00    -0.330 N 
ATOM     14  C   UNL     1       3.448   2.506  -2.827  1.00  0.00     0.222 C 
ATOM     15  C   UNL     1       4.794   2.135  -2.140  1.00  0.00     0.291 C 
ATOM     16  H   UNL     1       6.610   1.196  -2.534  1.00  0.00     0.348 HD
BRANCH  13  17
ATOM     17  C   UNL     1       6.286   2.521  -3.938  1.00  0.00     0.273 C 
BRANCH  17  18
ATOM     18  C   UNL     1       5.795   4.034  -3.933  1.00  0.00     0.136 C 
BRANCH  18  19
ATOM     19  S   UNL     1       6.119   5.293  -2.540  1.00  0.00    -0.117 SA
BRANCH  19  20
ATOM     20  C   UNL     1       4.979   5.516  -1.114  1.00  0.00     0.043 A 
ATOM     21  C   UNL     1       4.208   4.593  -0.389  1.00  0.00     0.018 A 
ATOM     22  C   UNL     1       5.117   6.758  -0.462  1.00  0.00     0.136 A 
ATOM     23  C   UNL     1       3.792   4.790   0.943  1.00  0.00     0.001 A 
ATOM     24  C   UNL     1       4.667   6.992   0.850  1.00  0.00     0.040 A 
ATOM     25  F   UNL     1       5.721   7.782  -1.087  1.00  0.00    -0.206 F 
ATOM     26  C   UNL     1       4.053   5.984   1.579  1.00  0.00     0.003 A 
ENDBRANCH  19  20
ENDBRANCH  18  19
ENDBRANCH  17  18
ENDBRANCH  13  17
ENDBRANCH   9  10
ENDBRANCH   7   9
ENDBRANCH   6   7
ENDBRANCH   5   6
ENDBRANCH   4   5
ENDBRANCH   3   4
ENDBRANCH   2   3
ENDBRANCH   1   2
BRANCH   1  27
ATOM     27  O   UNL     1       2.724  -2.876   2.882  1.00  0.00    -0.377 OA
BRANCH  27  28
ATOM     28  C   UNL     1       4.124  -2.650   2.983  1.00  0.00     0.188 C 
BRANCH  28  29
ATOM     29  C   UNL     1       4.978  -3.630   2.149  1.00  0.00     0.188 C 
BRANCH  29  30
ATOM     30  O   UNL     1       4.237  -4.369   1.185  1.00  0.00    -0.376 OA
BRANCH  30  31
ATOM     31  C   UNL     1       3.912  -5.712   1.520  1.00  0.00     0.202 C 
BRANCH  31  32
ATOM     32  C   UNL     1       2.921  -5.907   2.678  1.00  0.00     0.261 C 
BRANCH  32  33
ATOM     33  O   UNL     1       3.346  -5.411   3.959  1.00  0.00    -0.460 OA
BRANCH  33  34
ATOM     34  C   UNL     1       4.528  -5.838   4.450  1.00  0.00     0.338 C 
ATOM     35  O   UNL     1       5.231  -6.727   4.001  1.00  0.00    -0.246 OA
BRANCH  34  36
ATOM     36  C   UNL     1       4.964  -4.851   5.466  1.00  0.00     0.060 A 
ATOM     37  C   UNL     1       6.264  -4.330   5.373  1.00  0.00     0.016 A 
ATOM     38  C   UNL     1       4.080  -4.371   6.439  1.00  0.00     0.016 A 
ATOM     39  C   UNL     1       6.698  -3.365   6.280  1.00  0.00     0.010 A 
ATOM     40  C   UNL     1       4.526  -3.433   7.373  1.00  0.00     0.010 A 
ATOM     41  C   UNL     1       5.853  -2.970   7.325  1.00  0.00    -0.014 A 
BRANCH  41  42
ATOM     42  C   UNL     1       6.474  -2.401   8.544  1.00  0.00     0.031 A 
ATOM     43  C   UNL     1       6.958  -3.391   9.572  1.00  0.00     0.074 A 
ATOM     44  C   UNL     1       6.669  -1.083   8.716  1.00  0.00     0.049 A 
ATOM     45  N   UNL     1       7.556  -3.182  10.713  1.00  0.00    -0.248 NA
ATOM     46  C   UNL     1       6.740  -4.816   9.259  1.00  0.00     0.031 C 
ATOM     47  C   UNL     1       6.299  -0.036   7.767  1.00  0.00     0.029 A 
ATOM     48  N   UNL     1       7.244  -0.404   9.762  1.00  0.00    -0.354 N 
ATOM     49  C   UNL     1       7.799  -4.445  11.241  1.00  0.00     0.074 A 
ATOM     50  C   UNL     1       7.245  -5.412  10.325  1.00  0.00     0.031 C 
ATOM     51  C   UNL     1       6.658   1.157   8.275  1.00  0.00     0.029 A 
ATOM     52  C   UNL     1       7.261   0.960   9.595  1.00  0.00     0.049 A 
ATOM     53  H   UNL     1       7.610  -0.853  10.558  1.00  0.00     0.167 HD
ATOM     54  C   UNL     1       8.444  -4.775  12.382  1.00  0.00     0.037 A 
ATOM     55  C   UNL     1       7.707   1.930  10.419  1.00  0.00     0.037 A 
ATOM     56  C   UNL     1       8.969  -3.812  13.307  1.00  0.00     0.049 A 
ATOM     57  C   UNL     1       8.332   1.548  11.738  1.00  0.00     0.074 A 
ATOM     58  C   UNL     1       9.607  -4.036  14.512  1.00  0.00     0.029 A 
ATOM     59  N   UNL     1       8.906  -2.437  13.132  1.00  0.00    -0.354 N 
ATOM     60  N   UNL     1       8.547   0.351  12.233  1.00  0.00    -0.248 NA
ATOM     61  C   UNL     1       8.776   2.645  12.609  1.00  0.00     0.031 C 
ATOM     62  C   UNL     1       9.890  -2.794  15.088  1.00  0.00     0.029 A 
ATOM     63  C   UNL     1       9.479  -1.797  14.215  1.00  0.00     0.049 A 
ATOM     64  H   UNL     1       8.511  -1.984  12.351  1.00  0.00     0.167 HD
ATOM     65  C   UNL     1       9.174   0.550  13.460  1.00  0.00     0.074 A 
ATOM     66  C   UNL     1       9.309   1.983  13.629  1.00  0.00     0.031 C 
ATOM     67  C   UNL     1       9.604  -0.368  14.363  1.00  0.00     0.037 A 
BRANCH  54  68
ATOM     68  C   UNL     1       8.585  -6.238  12.690  1.00  0.00     0.058 A 
ATOM     69  C   UNL     1       7.846  -6.823  13.729  1.00  0.00     0.135 A 
ATOM     70  C   UNL     1       9.445  -7.066  11.949  1.00  0.00     0.135 A 
ATOM     71  F   UNL     1       6.994  -6.081  14.454  1.00  0.00    -0.206 F 
ATOM     72  C   UNL     1       7.961  -8.175  14.030  1.00  0.00     0.059 A 
ATOM     73  C   UNL     1       9.556  -8.427  12.215  1.00  0.00     0.059 A 
ATOM     74  F   UNL     1      10.146  -6.564  10.919  1.00  0.00    -0.206 F 
ATOM     75  C   UNL     1       8.817  -8.970  13.266  1.00  0.00     0.060 A 
BRANCH  75  76
ATOM     76  S   UNL     1       8.912 -10.734  13.636  1.00  0.00     0.124 S 
ATOM     77  O   UNL     1       9.628 -10.735  14.906  1.00  0.00    -0.237 OA
ATOM     78  O   UNL     1       7.502 -11.110  13.697  1.00  0.00    -0.237 OA
ATOM     79  O   UNL     1       9.646 -11.279  12.497  1.00  0.00    -0.744 OA
ENDBRANCH  75  76
ENDBRANCH  54  68
BRANCH  55  80
ATOM     80  C   UNL     1       7.592   3.356  10.008  1.00  0.00     0.058 A 
ATOM     81  C   UNL     1       6.341   3.987   9.920  1.00  0.00     0.135 A 
ATOM     82  C   UNL     1       8.726   4.104   9.657  1.00  0.00     0.135 A 
ATOM     83  F   UNL     1       5.225   3.318  10.248  1.00  0.00    -0.206 F 
ATOM     84  C   UNL     1       6.214   5.292   9.458  1.00  0.00     0.059 A 
ATOM     85  C   UNL     1       8.626   5.421   9.213  1.00  0.00     0.059 A 
ATOM     86  F   UNL     1       9.945   3.553   9.746  1.00  0.00    -0.206 F 
ATOM     87  C   UNL     1       7.362   5.997   9.094  1.00  0.00     0.060 A 
BRANCH  87  88
ATOM     88  S   UNL     1       7.166   7.667   8.434  1.00  0.00     0.124 S 
ATOM     89  O   UNL     1       6.495   7.399   7.165  1.00  0.00    -0.237 OA
ATOM     90  O   UNL     1       6.350   8.307   9.461  1.00  0.00    -0.237 OA
ATOM     91  O   UNL     1       8.537   8.153   8.330  1.00  0.00    -0.744 OA
ENDBRANCH  87  88
ENDBRANCH  55  80
BRANCH  67  92
ATOM     92  C   UNL     1      10.284   0.133  15.607  1.00  0.00     0.058 A 
ATOM     93  C   UNL     1      11.658  -0.085  15.800  1.00  0.00     0.135 A 
ATOM     94  C   UNL     1       9.565   0.744  16.646  1.00  0.00     0.135 A 
ATOM     95  F   UNL     1      12.391  -0.676  14.843  1.00  0.00    -0.206 F 
ATOM     96  C   UNL     1      12.292   0.269  16.985  1.00  0.00     0.059 A 
ATOM     97  C   UNL     1      10.185   1.133  17.830  1.00  0.00     0.059 A 
ATOM     98  F   UNL     1       8.251   0.980  16.509  1.00  0.00    -0.206 F 
ATOM     99  C   UNL     1      11.546   0.876  17.996  1.00  0.00     0.060 A 
BRANCH  99 100
ATOM    100  S   UNL     1      12.390   1.347  19.521  1.00  0.00     0.124 S 
ATOM    101  O   UNL     1      12.646   0.048  20.135  1.00  0.00    -0.237 OA
ATOM    102  O   UNL     1      13.564   2.054  19.018  1.00  0.00    -0.237 OA
ATOM    103  O   UNL     1      11.409   2.184  20.206  1.00  0.00    -0.744 OA
ENDBRANCH  99 100
ENDBRANCH  67  92
ENDBRANCH  41  42
ENDBRANCH  34  36
ENDBRANCH  33  34
ENDBRANCH  32  33
ENDBRANCH  31  32
ENDBRANCH  30  31
ENDBRANCH  29  30
ENDBRANCH  28  29
ENDBRANCH  27  28
ENDBRANCH   1  27
TORSDOF 28
