REMARK SMILES COc1cccc([C@@H]2[NH2+][C@@](C)(C(=O)OCCOCCOCCOCCOC(=O)c3ccc(-c4c5nc(c(-c6c(F)cc(S(=O)(=O)[O-])cc6F)c6ccc([nH]6)c(-c6c(F)cc(S(=O)(=O)[O-])cc6F)c6nc(c(-c7c(F)cc(S(=O)(=O)[O-])cc7F)c7ccc4[nH]7)C=C6)C=C5)cc3)[C@@H]3C(=O)N(C)C(=O)[C@@H]32)c1O
REMARK SMILES IDX 21 1 20 2 19 3 18 4 17 5 16 6 15 7 14 8 12 9 13 10 10 11
REMARK SMILES IDX 8 12 9 13 102 14 95 17 100 18 11 19 96 20 98 21 101 22 97 23
REMARK SMILES IDX 99 24 7 25 3 26 4 27 103 28 5 29 6 30 2 31 1 32 104 33 22 35
REMARK SMILES IDX 23 36 24 37 25 38 26 39 27 40 28 41 29 42 30 43 94 44 31 45
REMARK SMILES IDX 93 46 32 47 33 48 34 49 87 50 35 51 92 52 86 53 88 54 36 55
REMARK SMILES IDX 91 56 85 57 84 58 37 60 71 61 50 62 70 63 51 64 54 65 69 66
REMARK SMILES IDX 89 67 52 68 53 69 68 71 90 72 55 73 38 74 39 75 48 76 40 77
REMARK SMILES IDX 41 78 47 79 49 80 42 81 43 82 44 83 45 84 46 85 72 86 73 87
REMARK SMILES IDX 82 88 74 89 75 90 81 91 83 92 76 93 77 94 78 95 79 96 80 97
REMARK SMILES IDX 56 98 57 99 66 100 58 101 59 102 65 103 67 104 60 105 61 106
REMARK SMILES IDX 62 107 63 108 64 109
REMARK H PARENT 9 15 9 16 104 34 88 59 54 70
REMARK Flexibility Score: inf
ROOT
ATOM      1  C   UNL     1      -6.161  -2.990  -7.184  1.00  0.00     0.188 C 
ENDROOT
BRANCH   1   2
ATOM      2  O   UNL     1      -5.457  -3.628  -6.142  1.00  0.00    -0.377 OA
BRANCH   2   3
ATOM      3  C   UNL     1      -4.113  -3.232  -5.981  1.00  0.00     0.188 C 
BRANCH   3   4
ATOM      4  C   UNL     1      -3.091  -4.240  -6.548  1.00  0.00     0.188 C 
BRANCH   4   5
ATOM      5  O   UNL     1      -3.456  -5.587  -6.827  1.00  0.00    -0.376 OA
BRANCH   5   6
ATOM      6  C   UNL     1      -4.591  -6.147  -6.190  1.00  0.00     0.202 C 
BRANCH   6   7
ATOM      7  C   UNL     1      -4.645  -6.195  -4.648  1.00  0.00     0.261 C 
BRANCH   7   8
ATOM      8  O   UNL     1      -4.021  -5.114  -3.919  1.00  0.00    -0.459 OA
BRANCH   8   9
ATOM      9  C   UNL     1      -2.722  -5.296  -3.575  1.00  0.00     0.368 C 
ATOM     10  O   UNL     1      -2.109  -6.335  -3.820  1.00  0.00    -0.245 OA
BRANCH   9  11
ATOM     11  C   UNL     1      -2.056  -4.113  -2.788  1.00  0.00     0.204 C 
ATOM     12  C   UNL     1      -1.703  -1.916  -3.816  1.00  0.00     0.232 C 
ATOM     13  N   UNL     1      -2.636  -2.747  -3.016  1.00  0.00    -0.325 N 
ATOM     14  C   UNL     1      -0.543  -2.813  -4.216  1.00  0.00     0.161 C 
ATOM     15  H   UNL     1      -3.520  -2.836  -3.517  1.00  0.00     0.347 HD
ATOM     16  H   UNL     1      -2.789  -2.297  -2.113  1.00  0.00     0.347 HD
ATOM     17  C   UNL     1      -0.618  -4.024  -3.298  1.00  0.00     0.170 C 
ATOM     18  C   UNL     1       0.840  -2.288  -3.989  1.00  0.00     0.239 C 
ATOM     19  C   UNL     1      -2.273  -4.501  -1.323  1.00  0.00     0.093 C 
ATOM     20  C   UNL     1       0.493  -3.796  -2.314  1.00  0.00     0.240 C 
ATOM     21  N   UNL     1       1.334  -2.859  -2.852  1.00  0.00    -0.285 N 
ATOM     22  O   UNL     1       1.413  -1.493  -4.719  1.00  0.00    -0.274 OA
ATOM     23  O   UNL     1       0.676  -4.428  -1.285  1.00  0.00    -0.274 OA
ATOM     24  C   UNL     1       2.624  -2.529  -2.311  1.00  0.00     0.156 C 
BRANCH  12  25
ATOM     25  C   UNL     1      -1.349  -0.545  -3.253  1.00  0.00     0.056 A 
ATOM     26  C   UNL     1      -0.370   0.928  -1.561  1.00  0.00     0.161 A 
ATOM     27  C   UNL     1      -0.460   2.015  -2.428  1.00  0.00     0.050 A 
ATOM     28  C   UNL     1      -0.862  -0.327  -1.958  1.00  0.00     0.166 A 
ATOM     29  C   UNL     1      -1.004   1.843  -3.697  1.00  0.00     0.005 A 
ATOM     30  C   UNL     1      -1.429   0.575  -4.108  1.00  0.00     0.014 A 
BRANCH  26  31
ATOM     31  O   UNL     1       0.133   1.185  -0.313  1.00  0.00    -0.493 OA
ATOM     32  C   UNL     1       1.215   0.341   0.081  1.00  0.00     0.278 C 
ENDBRANCH  26  31
BRANCH  28  33
ATOM     33  O   UNL     1      -0.907  -1.358  -1.062  1.00  0.00    -0.504 OA
ATOM     34  H   UNL     1      -0.587  -1.235  -0.191  1.00  0.00     0.293 HD
ENDBRANCH  28  33
ENDBRANCH  12  25
ENDBRANCH   9  11
ENDBRANCH   8   9
ENDBRANCH   7   8
ENDBRANCH   6   7
ENDBRANCH   5   6
ENDBRANCH   4   5
ENDBRANCH   3   4
ENDBRANCH   2   3
ENDBRANCH   1   2
BRANCH   1  35
ATOM     35  C   UNL     1      -5.461  -2.957  -8.552  1.00  0.00     0.188 C 
BRANCH  35  36
ATOM     36  O   UNL     1      -4.151  -2.395  -8.509  1.00  0.00    -0.376 OA
BRANCH  36  37
ATOM     37  C   UNL     1      -3.961  -1.056  -8.936  1.00  0.00     0.202 C 
BRANCH  37  38
ATOM     38  C   UNL     1      -4.442   0.064  -7.998  1.00  0.00     0.261 C 
BRANCH  38  39
ATOM     39  O   UNL     1      -5.813   0.015  -7.585  1.00  0.00    -0.460 OA
BRANCH  39  40
ATOM     40  C   UNL     1      -6.761   0.081  -8.544  1.00  0.00     0.338 C 
ATOM     41  O   UNL     1      -6.578   0.217  -9.742  1.00  0.00    -0.246 OA
BRANCH  40  42
ATOM     42  C   UNL     1      -8.057  -0.257  -7.916  1.00  0.00     0.060 A 
ATOM     43  C   UNL     1      -8.767  -1.369  -8.389  1.00  0.00     0.016 A 
ATOM     44  C   UNL     1      -8.542   0.481  -6.832  1.00  0.00     0.016 A 
ATOM     45  C   UNL     1      -9.972  -1.737  -7.791  1.00  0.00     0.010 A 
ATOM     46  C   UNL     1      -9.769   0.135  -6.258  1.00  0.00     0.010 A 
ATOM     47  C   UNL     1     -10.502  -0.958  -6.755  1.00  0.00    -0.014 A 
BRANCH  47  48
ATOM     48  C   UNL     1     -11.920  -1.139  -6.363  1.00  0.00     0.031 A 
ATOM     49  C   UNL     1     -12.943  -0.255  -7.026  1.00  0.00     0.074 A 
ATOM     50  C   UNL     1     -12.298  -2.076  -5.475  1.00  0.00     0.049 A 
ATOM     51  N   UNL     1     -14.229  -0.170  -6.816  1.00  0.00    -0.248 NA
ATOM     52  C   UNL     1     -12.442   0.657  -8.070  1.00  0.00     0.031 C 
ATOM     53  C   UNL     1     -11.405  -3.021  -4.806  1.00  0.00     0.029 A 
ATOM     54  N   UNL     1     -13.542  -2.378  -4.976  1.00  0.00    -0.354 N 
ATOM     55  C   UNL     1     -14.692   0.793  -7.705  1.00  0.00     0.074 A 
ATOM     56  C   UNL     1     -13.545   1.295  -8.428  1.00  0.00     0.031 C 
ATOM     57  C   UNL     1     -12.128  -3.782  -3.963  1.00  0.00     0.029 A 
ATOM     58  C   UNL     1     -13.527  -3.358  -4.011  1.00  0.00     0.049 A 
ATOM     59  H   UNL     1     -14.366  -1.935  -5.281  1.00  0.00     0.167 HD
ATOM     60  C   UNL     1     -15.962   1.209  -7.914  1.00  0.00     0.037 A 
ATOM     61  C   UNL     1     -14.525  -3.830  -3.236  1.00  0.00     0.037 A 
ATOM     62  C   UNL     1     -17.097   0.716  -7.182  1.00  0.00     0.049 A 
ATOM     63  C   UNL     1     -15.921  -3.278  -3.419  1.00  0.00     0.074 A 
ATOM     64  C   UNL     1     -18.424   1.090  -7.298  1.00  0.00     0.029 A 
ATOM     65  N   UNL     1     -17.039  -0.259  -6.197  1.00  0.00    -0.354 N 
ATOM     66  N   UNL     1     -16.347  -2.370  -4.267  1.00  0.00    -0.248 NA
ATOM     67  C   UNL     1     -16.973  -3.816  -2.544  1.00  0.00     0.031 C 
ATOM     68  C   UNL     1     -19.162   0.374  -6.352  1.00  0.00     0.029 A 
ATOM     69  C   UNL     1     -18.305  -0.490  -5.688  1.00  0.00     0.049 A 
ATOM     70  H   UNL     1     -16.220  -0.719  -5.904  1.00  0.00     0.167 HD
ATOM     71  C   UNL     1     -17.718  -2.260  -4.052  1.00  0.00     0.074 A 
ATOM     72  C   UNL     1     -18.053  -3.201  -3.005  1.00  0.00     0.031 C 
ATOM     73  C   UNL     1     -18.622  -1.452  -4.663  1.00  0.00     0.037 A 
BRANCH  60  74
ATOM     74  C   UNL     1     -16.191   2.252  -8.971  1.00  0.00     0.058 A 
ATOM     75  C   UNL     1     -16.075   1.948 -10.337  1.00  0.00     0.135 A 
ATOM     76  C   UNL     1     -16.586   3.553  -8.620  1.00  0.00     0.135 A 
ATOM     77  F   UNL     1     -15.674   0.727 -10.727  1.00  0.00    -0.206 F 
ATOM     78  C   UNL     1     -16.337   2.898 -11.318  1.00  0.00     0.059 A 
ATOM     79  C   UNL     1     -16.880   4.511  -9.585  1.00  0.00     0.059 A 
ATOM     80  F   UNL     1     -16.700   3.899  -7.329  1.00  0.00    -0.206 F 
ATOM     81  C   UNL     1     -16.748   4.175 -10.932  1.00  0.00     0.060 A 
BRANCH  81  82
ATOM     82  S   UNL     1     -17.127   5.380 -12.220  1.00  0.00     0.124 S 
ATOM     83  O   UNL     1     -15.800   5.651 -12.766  1.00  0.00    -0.237 OA
ATOM     84  O   UNL     1     -18.029   4.632 -13.089  1.00  0.00    -0.237 OA
ATOM     85  O   UNL     1     -17.738   6.484 -11.486  1.00  0.00    -0.744 OA
ENDBRANCH  81  82
ENDBRANCH  60  74
BRANCH  61  86
ATOM     86  C   UNL     1     -14.254  -4.851  -2.184  1.00  0.00     0.058 A 
ATOM     87  C   UNL     1     -14.819  -6.134  -2.244  1.00  0.00     0.135 A 
ATOM     88  C   UNL     1     -13.471  -4.540  -1.060  1.00  0.00     0.135 A 
ATOM     89  F   UNL     1     -15.584  -6.481  -3.291  1.00  0.00    -0.206 F 
ATOM     90  C   UNL     1     -14.655  -7.055  -1.213  1.00  0.00     0.059 A 
ATOM     91  C   UNL     1     -13.264  -5.455  -0.032  1.00  0.00     0.059 A 
ATOM     92  F   UNL     1     -12.897  -3.331  -0.952  1.00  0.00    -0.206 F 
ATOM     93  C   UNL     1     -13.879  -6.703  -0.107  1.00  0.00     0.060 A 
BRANCH  93  94
ATOM     94  S   UNL     1     -13.677  -7.901   1.229  1.00  0.00     0.124 S 
ATOM     95  O   UNL     1     -14.998  -7.877   1.847  1.00  0.00    -0.237 OA
ATOM     96  O   UNL     1     -13.335  -9.118   0.500  1.00  0.00    -0.237 OA
ATOM     97  O   UNL     1     -12.595  -7.333   2.028  1.00  0.00    -0.744 OA
ENDBRANCH  93  94
ENDBRANCH  61  86
BRANCH  73  98
ATOM     98  C   UNL     1     -20.066  -1.589  -4.263  1.00  0.00     0.058 A 
ATOM     99  C   UNL     1     -20.538  -1.146  -3.017  1.00  0.00     0.135 A 
ATOM    100  C   UNL     1     -21.004  -2.115  -5.168  1.00  0.00     0.135 A 
ATOM    101  F   UNL     1     -19.685  -0.638  -2.114  1.00  0.00    -0.206 F 
ATOM    102  C   UNL     1     -21.882  -1.245  -2.672  1.00  0.00     0.059 A 
ATOM    103  C   UNL     1     -22.358  -2.192  -4.857  1.00  0.00     0.059 A 
ATOM    104  F   UNL     1     -20.610  -2.540  -6.379  1.00  0.00    -0.206 F 
ATOM    105  C   UNL     1     -22.785  -1.767  -3.601  1.00  0.00     0.060 A 
BRANCH 105 106
ATOM    106  S   UNL     1     -24.531  -1.855  -3.152  1.00  0.00     0.124 S 
ATOM    107  O   UNL     1     -24.530  -2.942  -2.178  1.00  0.00    -0.237 OA
ATOM    108  O   UNL     1     -24.783  -0.522  -2.615  1.00  0.00    -0.237 OA
ATOM    109  O   UNL     1     -25.194  -2.150  -4.419  1.00  0.00    -0.744 OA
ENDBRANCH 105 106
ENDBRANCH  73  98
ENDBRANCH  47  48
ENDBRANCH  40  42
ENDBRANCH  39  40
ENDBRANCH  38  39
ENDBRANCH  37  38
ENDBRANCH  36  37
ENDBRANCH  35  36
ENDBRANCH   1  35
TORSDOF 26
