REMARK SMILES COc1ccc(-n2c(SCc3cn(-c4ccc(C(=O)OCCOCCOCCOCCOC(=O)c5ccc(-c6c7nc(c(-c8c(F)cc(S(=O)(=O)[O-])cc8F)c8ccc([nH]8)c(-c8c(F)cc(S(=O)(=O)[O-])cc8F)c8nc(c(-c9c(F)cc(S(=O)(=O)[O-])cc9F)c9ccc6[nH]9)C=C8)C=C7)cc5)cc4)nn3)nc3ccccc3c2=O)cc1
REMARK SMILES IDX 24 1 23 2 22 3 21 4 20 5 18 6 19 7 17 8 14 9 15 10 102 11
REMARK SMILES IDX 16 12 101 13 13 14 11 15 12 16 104 17 103 18 10 19 9 20 8 21
REMARK SMILES IDX 7 22 112 23 105 24 111 25 113 26 106 27 110 28 107 29 109 30
REMARK SMILES IDX 108 31 6 32 3 33 4 34 115 35 5 36 114 37 2 38 1 39 25 40
REMARK SMILES IDX 26 41 27 42 28 43 29 44 30 45 31 46 32 47 33 48 34 49 35 50
REMARK SMILES IDX 36 51 100 52 37 53 99 54 38 55 39 56 40 57 93 58 41 59 98 60
REMARK SMILES IDX 92 61 94 62 42 63 97 64 91 65 90 66 43 68 77 69 56 70 76 71
REMARK SMILES IDX 57 72 60 73 75 74 95 75 58 76 59 77 74 79 96 80 61 81 44 82
REMARK SMILES IDX 45 83 54 84 46 85 47 86 53 87 55 88 48 89 49 90 50 91 51 92
REMARK SMILES IDX 52 93 78 94 79 95 88 96 80 97 81 98 87 99 89 100 82 101
REMARK SMILES IDX 83 102 84 103 85 104 86 105 62 106 63 107 72 108 64 109
REMARK SMILES IDX 65 110 71 111 73 112 66 113 67 114 68 115 69 116 70 117
REMARK H PARENT 94 67 60 78
REMARK Flexibility Score: inf
ROOT
ATOM      1  C   UNL     1      -5.679   3.352  -3.682  1.00  0.00     0.188 C 
ENDROOT
BRANCH   1   2
ATOM      2  O   UNL     1      -7.052   3.109  -3.937  1.00  0.00    -0.376 OA
BRANCH   2   3
ATOM      3  C   UNL     1      -7.722   1.931  -3.524  1.00  0.00     0.202 C 
BRANCH   3   4
ATOM      4  C   UNL     1      -7.057   0.579  -3.199  1.00  0.00     0.261 C 
BRANCH   4   5
ATOM      5  O   UNL     1      -5.636   0.538  -3.141  1.00  0.00    -0.460 OA
BRANCH   5   6
ATOM      6  C   UNL     1      -4.983   0.286  -4.289  1.00  0.00     0.338 C 
ATOM      7  O   UNL     1      -5.471  -0.002  -5.379  1.00  0.00    -0.246 OA
BRANCH   6   8
ATOM      8  C   UNL     1      -3.570   0.655  -4.070  1.00  0.00     0.060 A 
ATOM      9  C   UNL     1      -1.016   1.614  -3.605  1.00  0.00     0.066 A 
ATOM     10  C   UNL     1      -1.674   2.002  -4.770  1.00  0.00     0.029 A 
ATOM     11  C   UNL     1      -1.619   0.758  -2.669  1.00  0.00     0.029 A 
ATOM     12  C   UNL     1      -2.948   1.495  -5.012  1.00  0.00     0.018 A 
ATOM     13  C   UNL     1      -2.913   0.300  -2.888  1.00  0.00     0.018 A 
BRANCH   9  14
ATOM     14  N   UNL     1       0.367   1.791  -3.535  1.00  0.00    -0.220 N 
ATOM     15  C   UNL     1       2.480   1.320  -3.636  1.00  0.00     0.093 A 
ATOM     16  C   UNL     1       1.239   0.775  -3.769  1.00  0.00     0.141 A 
ATOM     17  N   UNL     1       2.334   2.668  -3.423  1.00  0.00    -0.134 NA
ATOM     18  N   UNL     1       1.029   2.955  -3.451  1.00  0.00    -0.062 NA
BRANCH  15  19
ATOM     19  C   UNL     1       3.773   0.623  -3.664  1.00  0.00     0.138 C 
BRANCH  19  20
ATOM     20  S   UNL     1       4.332   0.139  -5.286  1.00  0.00    -0.081 SA
BRANCH  20  21
ATOM     21  C   UNL     1       3.052  -0.828  -6.084  1.00  0.00     0.176 A 
ATOM     22  N   UNL     1       3.010  -2.170  -5.714  1.00  0.00    -0.255 N 
ATOM     23  C   UNL     1       3.560  -3.104  -6.583  1.00  0.00     0.266 A 
ATOM     24  N   UNL     1       2.894  -0.514  -7.338  1.00  0.00    -0.223 NA
ATOM     25  C   UNL     1       4.266  -2.490  -7.735  1.00  0.00     0.066 A 
ATOM     26  O   UNL     1       3.552  -4.323  -6.448  1.00  0.00    -0.268 OA
ATOM     27  C   UNL     1       3.826  -1.218  -8.135  1.00  0.00     0.079 A 
ATOM     28  C   UNL     1       5.453  -3.029  -8.229  1.00  0.00     0.016 A 
ATOM     29  C   UNL     1       4.532  -0.525  -9.116  1.00  0.00     0.029 A 
ATOM     30  C   UNL     1       6.203  -2.283  -9.140  1.00  0.00     0.001 A 
ATOM     31  C   UNL     1       5.732  -1.049  -9.601  1.00  0.00     0.002 A 
BRANCH  22  32
ATOM     32  C   UNL     1       2.311  -2.578  -4.556  1.00  0.00     0.052 A 
ATOM     33  C   UNL     1       1.008  -2.449  -2.104  1.00  0.00     0.119 A 
ATOM     34  C   UNL     1       0.253  -2.524  -3.275  1.00  0.00     0.048 A 
ATOM     35  C   UNL     1       2.384  -2.668  -2.151  1.00  0.00     0.048 A 
ATOM     36  C   UNL     1       0.908  -2.568  -4.515  1.00  0.00     0.030 A 
ATOM     37  C   UNL     1       3.036  -2.753  -3.380  1.00  0.00     0.030 A 
BRANCH  33  38
ATOM     38  O   UNL     1       0.359  -2.132  -0.941  1.00  0.00    -0.497 OA
ATOM     39  C   UNL     1       0.957  -1.017  -0.262  1.00  0.00     0.278 C 
ENDBRANCH  33  38
ENDBRANCH  22  32
ENDBRANCH  20  21
ENDBRANCH  19  20
ENDBRANCH  15  19
ENDBRANCH   9  14
ENDBRANCH   6   8
ENDBRANCH   5   6
ENDBRANCH   4   5
ENDBRANCH   3   4
ENDBRANCH   2   3
ENDBRANCH   1   2
BRANCH   1  40
ATOM     40  C   UNL     1      -5.132   3.289  -2.241  1.00  0.00     0.188 C 
BRANCH  40  41
ATOM     41  O   UNL     1      -6.029   2.680  -1.330  1.00  0.00    -0.377 OA
BRANCH  41  42
ATOM     42  C   UNL     1      -6.938   3.552  -0.662  1.00  0.00     0.188 C 
BRANCH  42  43
ATOM     43  C   UNL     1      -7.545   4.776  -1.404  1.00  0.00     0.188 C 
BRANCH  43  44
ATOM     44  O   UNL     1      -6.680   5.411  -2.337  1.00  0.00    -0.376 OA
BRANCH  44  45
ATOM     45  C   UNL     1      -6.127   6.700  -2.141  1.00  0.00     0.202 C 
BRANCH  45  46
ATOM     46  C   UNL     1      -5.063   6.851  -1.059  1.00  0.00     0.261 C 
BRANCH  46  47
ATOM     47  O   UNL     1      -5.353   6.090   0.094  1.00  0.00    -0.460 OA
BRANCH  47  48
ATOM     48  C   UNL     1      -6.418   6.519   0.790  1.00  0.00     0.338 C 
ATOM     49  O   UNL     1      -7.200   7.409   0.469  1.00  0.00    -0.246 OA
BRANCH  48  50
ATOM     50  C   UNL     1      -6.435   5.809   2.070  1.00  0.00     0.060 A 
ATOM     51  C   UNL     1      -7.366   6.305   2.975  1.00  0.00     0.016 A 
ATOM     52  C   UNL     1      -5.253   5.156   2.462  1.00  0.00     0.016 A 
ATOM     53  C   UNL     1      -6.907   6.543   4.239  1.00  0.00     0.010 A 
ATOM     54  C   UNL     1      -4.790   5.409   3.720  1.00  0.00     0.010 A 
ATOM     55  C   UNL     1      -5.578   6.213   4.532  1.00  0.00    -0.014 A 
BRANCH  55  56
ATOM     56  C   UNL     1      -5.044   6.697   5.774  1.00  0.00     0.031 A 
ATOM     57  C   UNL     1      -5.575   5.926   6.907  1.00  0.00     0.074 A 
ATOM     58  C   UNL     1      -4.140   7.689   5.829  1.00  0.00     0.049 A 
ATOM     59  N   UNL     1      -6.492   6.289   7.737  1.00  0.00    -0.248 NA
ATOM     60  C   UNL     1      -5.254   4.490   6.942  1.00  0.00     0.031 C 
ATOM     61  C   UNL     1      -3.380   8.307   4.739  1.00  0.00     0.029 A 
ATOM     62  N   UNL     1      -3.638   8.293   6.932  1.00  0.00    -0.354 N 
ATOM     63  C   UNL     1      -6.659   5.196   8.574  1.00  0.00     0.074 A 
ATOM     64  C   UNL     1      -6.097   4.068   7.883  1.00  0.00     0.031 C 
ATOM     65  C   UNL     1      -2.355   9.020   5.266  1.00  0.00     0.029 A 
ATOM     66  C   UNL     1      -2.470   9.010   6.714  1.00  0.00     0.049 A 
ATOM     67  H   UNL     1      -4.067   8.229   7.816  1.00  0.00     0.167 HD
ATOM     68  C   UNL     1      -6.942   5.374   9.890  1.00  0.00     0.037 A 
ATOM     69  C   UNL     1      -1.631   9.435   7.694  1.00  0.00     0.037 A 
ATOM     70  C   UNL     1      -7.467   6.697  10.134  1.00  0.00     0.049 A 
ATOM     71  C   UNL     1      -2.424   9.450   8.960  1.00  0.00     0.074 A 
ATOM     72  C   UNL     1      -8.558   7.404   9.665  1.00  0.00     0.029 A 
ATOM     73  N   UNL     1      -6.614   7.636  10.667  1.00  0.00    -0.354 N 
ATOM     74  N   UNL     1      -3.433  10.255   9.172  1.00  0.00    -0.248 NA
ATOM     75  C   UNL     1      -2.418   8.243   9.778  1.00  0.00     0.031 C 
ATOM     76  C   UNL     1      -8.101   8.746   9.520  1.00  0.00     0.029 A 
ATOM     77  C   UNL     1      -6.778   8.802   9.962  1.00  0.00     0.049 A 
ATOM     78  H   UNL     1      -5.995   7.496  11.420  1.00  0.00     0.167 HD
ATOM     79  C   UNL     1      -4.385   9.483   9.828  1.00  0.00     0.074 A 
ATOM     80  C   UNL     1      -3.675   8.272  10.234  1.00  0.00     0.031 C 
ATOM     81  C   UNL     1      -5.720   9.761   9.727  1.00  0.00     0.037 A 
BRANCH  68  82
ATOM     82  C   UNL     1      -6.342   4.516  10.979  1.00  0.00     0.058 A 
ATOM     83  C   UNL     1      -6.780   4.705  12.303  1.00  0.00     0.135 A 
ATOM     84  C   UNL     1      -5.173   3.730  10.831  1.00  0.00     0.135 A 
ATOM     85  F   UNL     1      -7.881   5.428  12.561  1.00  0.00    -0.206 F 
ATOM     86  C   UNL     1      -6.058   4.235  13.398  1.00  0.00     0.059 A 
ATOM     87  C   UNL     1      -4.473   3.203  11.905  1.00  0.00     0.059 A 
ATOM     88  F   UNL     1      -4.583   3.509   9.652  1.00  0.00    -0.206 F 
ATOM     89  C   UNL     1      -4.893   3.503  13.186  1.00  0.00     0.060 A 
BRANCH  89  90
ATOM     90  S   UNL     1      -3.885   3.007  14.588  1.00  0.00     0.124 S 
ATOM     91  O   UNL     1      -3.379   4.295  15.047  1.00  0.00    -0.237 OA
ATOM     92  O   UNL     1      -4.869   2.358  15.448  1.00  0.00    -0.237 OA
ATOM     93  O   UNL     1      -2.896   2.114  13.991  1.00  0.00    -0.744 OA
ENDBRANCH  89  90
ENDBRANCH  68  82
BRANCH  69  94
ATOM     94  C   UNL     1      -0.143   9.392   7.670  1.00  0.00     0.058 A 
ATOM     95  C   UNL     1       0.621  10.043   8.654  1.00  0.00     0.135 A 
ATOM     96  C   UNL     1       0.557   8.490   6.841  1.00  0.00     0.135 A 
ATOM     97  F   UNL     1       0.034  10.899   9.505  1.00  0.00    -0.206 F 
ATOM     98  C   UNL     1       1.987   9.786   8.832  1.00  0.00     0.059 A 
ATOM     99  C   UNL     1       1.917   8.226   6.992  1.00  0.00     0.059 A 
ATOM    100  F   UNL     1      -0.079   7.762   5.912  1.00  0.00    -0.206 F 
ATOM    101  C   UNL     1       2.622   8.860   8.005  1.00  0.00     0.060 A 
BRANCH 101 102
ATOM    102  S   UNL     1       4.340   8.396   8.331  1.00  0.00     0.124 S 
ATOM    103  O   UNL     1       5.056   9.612   7.961  1.00  0.00    -0.237 OA
ATOM    104  O   UNL     1       4.311   8.080   9.754  1.00  0.00    -0.237 OA
ATOM    105  O   UNL     1       4.556   7.253   7.447  1.00  0.00    -0.744 OA
ENDBRANCH 101 102
ENDBRANCH  69  94
BRANCH  81 106
ATOM    106  C   UNL     1      -6.128  11.081   9.119  1.00  0.00     0.058 A 
ATOM    107  C   UNL     1      -5.894  11.446   7.781  1.00  0.00     0.135 A 
ATOM    108  C   UNL     1      -6.928  11.941   9.884  1.00  0.00     0.135 A 
ATOM    109  F   UNL     1      -5.230  10.629   6.951  1.00  0.00    -0.206 F 
ATOM    110  C   UNL     1      -6.397  12.633   7.242  1.00  0.00     0.059 A 
ATOM    111  C   UNL     1      -7.466  13.114   9.360  1.00  0.00     0.059 A 
ATOM    112  F   UNL     1      -7.244  11.618  11.149  1.00  0.00    -0.206 F 
ATOM    113  C   UNL     1      -7.185  13.461   8.041  1.00  0.00     0.060 A 
BRANCH 113 114
ATOM    114  S   UNL     1      -7.897  14.961   7.327  1.00  0.00     0.124 S 
ATOM    115  O   UNL     1      -6.723  15.812   7.169  1.00  0.00    -0.237 OA
ATOM    116  O   UNL     1      -8.496  14.469   6.090  1.00  0.00    -0.237 OA
ATOM    117  O   UNL     1      -8.854  15.400   8.340  1.00  0.00    -0.744 OA
ENDBRANCH 113 114
ENDBRANCH  81 106
ENDBRANCH  55  56
ENDBRANCH  48  50
ENDBRANCH  47  48
ENDBRANCH  46  47
ENDBRANCH  45  46
ENDBRANCH  44  45
ENDBRANCH  43  44
ENDBRANCH  42  43
ENDBRANCH  41  42
ENDBRANCH  40  41
ENDBRANCH   1  40
TORSDOF 29
