REMARK SMILES O=C(OCCOCCOCCOCCOC(=O)c1ccc(S(=O)(=O)[O-])cc1N1C(=O)/C(=C\C=C\c2ccccc2)[NH+]=C1c1ccccc1)c1ccc(-c2c3nc(c(-c4c(F)cc(S(=O)(=O)[O-])cc4F)c4ccc([nH]4)c(-c4c(F)cc(S(=O)(=O)[O-])cc4F)c4nc(c(-c5c(F)cc(S(=O)(=O)[O-])cc5F)c5ccc2[nH]5)C=C4)C=C3)cc1
REMARK SMILES IDX 9 1 8 2 7 3 6 4 5 5 4 6 3 7 2 8 1 9 49 10 50 11 114 12 51 13
REMARK SMILES IDX 113 14 52 15 53 16 54 17 107 18 55 19 112 20 106 21 108 22
REMARK SMILES IDX 56 23 111 24 105 25 104 26 57 28 91 29 70 30 90 31 71 32
REMARK SMILES IDX 74 33 89 34 109 35 72 36 73 37 88 39 110 40 75 41 58 42
REMARK SMILES IDX 59 43 68 44 60 45 61 46 67 47 69 48 62 49 63 50 64 51 65 52
REMARK SMILES IDX 66 53 92 54 93 55 102 56 94 57 95 58 101 59 103 60 96 61
REMARK SMILES IDX 97 62 98 63 99 64 100 65 76 66 77 67 86 68 78 69 79 70 85 71
REMARK SMILES IDX 87 72 80 73 81 74 82 75 83 76 84 77 10 78 11 79 12 80 13 81
REMARK SMILES IDX 14 82 15 83 16 84 17 85 18 86 19 87 27 88 20 89 26 90 21 91
REMARK SMILES IDX 28 92 29 93 42 94 30 95 31 96 41 97 32 98 43 100 44 101
REMARK SMILES IDX 48 102 45 103 47 104 46 105 33 106 34 107 35 108 36 109
REMARK SMILES IDX 40 110 37 111 39 112 38 113 22 114 23 115 24 116 25 117
REMARK H PARENT 108 27 74 38 41 99
REMARK Flexibility Score: inf
ROOT
ATOM      1  O   UNL     1       2.693  -1.485   3.510  1.00  0.00    -0.377 OA
ENDROOT
BRANCH   1   2
ATOM      2  C   UNL     1       1.916  -1.267   2.332  1.00  0.00     0.188 C 
BRANCH   2   3
ATOM      3  C   UNL     1       2.294  -0.016   1.539  1.00  0.00     0.188 C 
BRANCH   3   4
ATOM      4  O   UNL     1       3.611  -0.161   1.010  1.00  0.00    -0.376 OA
BRANCH   4   5
ATOM      5  C   UNL     1       4.400   1.023   0.962  1.00  0.00     0.202 C 
BRANCH   5   6
ATOM      6  C   UNL     1       4.172   1.868  -0.290  1.00  0.00     0.261 C 
BRANCH   6   7
ATOM      7  O   UNL     1       2.807   1.828  -0.724  1.00  0.00    -0.460 OA
BRANCH   7   8
ATOM      8  C   UNL     1       2.269   1.009  -1.662  1.00  0.00     0.338 C 
ATOM      9  O   UNL     1       1.089   1.179  -1.967  1.00  0.00    -0.246 OA
BRANCH   8  10
ATOM     10  C   UNL     1       3.018  -0.086  -2.361  1.00  0.00     0.060 A 
ATOM     11  C   UNL     1       4.094  -0.806  -1.834  1.00  0.00     0.016 A 
ATOM     12  C   UNL     1       2.525  -0.481  -3.616  1.00  0.00     0.016 A 
ATOM     13  C   UNL     1       4.680  -1.863  -2.520  1.00  0.00     0.010 A 
ATOM     14  C   UNL     1       3.098  -1.550  -4.312  1.00  0.00     0.010 A 
ATOM     15  C   UNL     1       4.186  -2.238  -3.763  1.00  0.00    -0.014 A 
BRANCH  15  16
ATOM     16  C   UNL     1       4.913  -3.267  -4.525  1.00  0.00     0.031 A 
ATOM     17  C   UNL     1       5.798  -2.807  -5.641  1.00  0.00     0.074 A 
ATOM     18  C   UNL     1       4.835  -4.559  -4.160  1.00  0.00     0.049 A 
ATOM     19  N   UNL     1       6.430  -3.511  -6.537  1.00  0.00    -0.248 NA
ATOM     20  C   UNL     1       6.008  -1.352  -5.759  1.00  0.00     0.031 C 
ATOM     21  C   UNL     1       4.094  -5.066  -3.000  1.00  0.00     0.029 A 
ATOM     22  N   UNL     1       5.382  -5.683  -4.720  1.00  0.00    -0.354 N 
ATOM     23  C   UNL     1       7.067  -2.587  -7.354  1.00  0.00     0.074 A 
ATOM     24  C   UNL     1       6.771  -1.271  -6.838  1.00  0.00     0.031 C 
ATOM     25  C   UNL     1       4.220  -6.403  -2.948  1.00  0.00     0.029 A 
ATOM     26  C   UNL     1       4.987  -6.849  -4.106  1.00  0.00     0.049 A 
ATOM     27  H   UNL     1       5.998  -5.658  -5.487  1.00  0.00     0.167 HD
ATOM     28  C   UNL     1       7.815  -2.833  -8.452  1.00  0.00     0.037 A 
ATOM     29  C   UNL     1       5.174  -8.129  -4.486  1.00  0.00     0.037 A 
ATOM     30  C   UNL     1       8.098  -4.161  -8.919  1.00  0.00     0.049 A 
ATOM     31  C   UNL     1       5.938  -8.371  -5.764  1.00  0.00     0.074 A 
ATOM     32  C   UNL     1       8.833  -4.549 -10.022  1.00  0.00     0.029 A 
ATOM     33  N   UNL     1       7.645  -5.321  -8.303  1.00  0.00    -0.354 N 
ATOM     34  N   UNL     1       6.519  -7.496  -6.554  1.00  0.00    -0.248 NA
ATOM     35  C   UNL     1       6.050  -9.761  -6.223  1.00  0.00     0.031 C 
ATOM     36  C   UNL     1       8.778  -5.944 -10.103  1.00  0.00     0.029 A 
ATOM     37  C   UNL     1       8.050  -6.427  -9.023  1.00  0.00     0.049 A 
ATOM     38  H   UNL     1       7.113  -5.349  -7.475  1.00  0.00     0.167 HD
ATOM     39  C   UNL     1       7.065  -8.227  -7.601  1.00  0.00     0.074 A 
ATOM     40  C   UNL     1       6.770  -9.621  -7.328  1.00  0.00     0.031 C 
ATOM     41  C   UNL     1       7.737  -7.796  -8.698  1.00  0.00     0.037 A 
BRANCH  28  42
ATOM     42  C   UNL     1       8.296  -1.657  -9.250  1.00  0.00     0.058 A 
ATOM     43  C   UNL     1       9.354  -0.841  -8.823  1.00  0.00     0.135 A 
ATOM     44  C   UNL     1       7.691  -1.356 -10.481  1.00  0.00     0.135 A 
ATOM     45  F   UNL     1       9.944  -1.062  -7.637  1.00  0.00    -0.206 F 
ATOM     46  C   UNL     1       9.793   0.236  -9.588  1.00  0.00     0.059 A 
ATOM     47  C   UNL     1       8.125  -0.298 -11.271  1.00  0.00     0.059 A 
ATOM     48  F   UNL     1       6.660  -2.093 -10.924  1.00  0.00    -0.206 F 
ATOM     49  C   UNL     1       9.175   0.497 -10.814  1.00  0.00     0.060 A 
BRANCH  49  50
ATOM     50  S   UNL     1       9.774   1.879 -11.808  1.00  0.00     0.124 S 
ATOM     51  O   UNL     1       9.296   3.023 -11.038  1.00  0.00    -0.237 OA
ATOM     52  O   UNL     1      11.218   1.667 -11.796  1.00  0.00    -0.237 OA
ATOM     53  O   UNL     1       9.125   1.677 -13.100  1.00  0.00    -0.744 OA
ENDBRANCH  49  50
ENDBRANCH  28  42
BRANCH  29  54
ATOM     54  C   UNL     1       4.552  -9.252  -3.727  1.00  0.00     0.058 A 
ATOM     55  C   UNL     1       5.327 -10.236  -3.097  1.00  0.00     0.135 A 
ATOM     56  C   UNL     1       3.154  -9.383  -3.646  1.00  0.00     0.135 A 
ATOM     57  F   UNL     1       6.666 -10.170  -3.150  1.00  0.00    -0.206 F 
ATOM     58  C   UNL     1       4.745 -11.320  -2.441  1.00  0.00     0.059 A 
ATOM     59  C   UNL     1       2.549 -10.439  -2.970  1.00  0.00     0.059 A 
ATOM     60  F   UNL     1       2.357  -8.471  -4.225  1.00  0.00    -0.206 F 
ATOM     61  C   UNL     1       3.353 -11.415  -2.387  1.00  0.00     0.060 A 
BRANCH  61  62
ATOM     62  S   UNL     1       2.602 -12.824  -1.540  1.00  0.00     0.124 S 
ATOM     63  O   UNL     1       2.827 -13.896  -2.503  1.00  0.00    -0.237 OA
ATOM     64  O   UNL     1       3.379 -12.900  -0.307  1.00  0.00    -0.237 OA
ATOM     65  O   UNL     1       1.211 -12.412  -1.369  1.00  0.00    -0.744 OA
ENDBRANCH  61  62
ENDBRANCH  29  54
BRANCH  41  66
ATOM     66  C   UNL     1       8.199  -8.839  -9.670  1.00  0.00     0.058 A 
ATOM     67  C   UNL     1       7.302  -9.451 -10.558  1.00  0.00     0.135 A 
ATOM     68  C   UNL     1       9.563  -9.148  -9.784  1.00  0.00     0.135 A 
ATOM     69  F   UNL     1       5.988  -9.191 -10.478  1.00  0.00    -0.206 F 
ATOM     70  C   UNL     1       7.744 -10.339 -11.530  1.00  0.00     0.059 A 
ATOM     71  C   UNL     1      10.030 -10.012 -10.766  1.00  0.00     0.059 A 
ATOM     72  F   UNL     1      10.457  -8.576  -8.962  1.00  0.00    -0.206 F 
ATOM     73  C   UNL     1       9.111 -10.605 -11.633  1.00  0.00     0.060 A 
BRANCH  73  74
ATOM     74  S   UNL     1       9.680 -11.698 -12.951  1.00  0.00     0.124 S 
ATOM     75  O   UNL     1       9.262 -13.003 -12.451  1.00  0.00    -0.237 OA
ATOM     76  O   UNL     1       8.947 -11.197 -14.109  1.00  0.00    -0.237 OA
ATOM     77  O   UNL     1      11.121 -11.469 -12.983  1.00  0.00    -0.744 OA
ENDBRANCH  73  74
ENDBRANCH  41  66
ENDBRANCH  15  16
ENDBRANCH   8  10
ENDBRANCH   7   8
ENDBRANCH   6   7
ENDBRANCH   5   6
ENDBRANCH   4   5
ENDBRANCH   3   4
ENDBRANCH   2   3
ENDBRANCH   1   2
BRANCH   1  78
ATOM     78  C   UNL     1       4.109  -1.439   3.374  1.00  0.00     0.188 C 
BRANCH  78  79
ATOM     79  C   UNL     1       4.805  -2.428   2.414  1.00  0.00     0.188 C 
BRANCH  79  80
ATOM     80  O   UNL     1       3.930  -3.271   1.678  1.00  0.00    -0.376 OA
BRANCH  80  81
ATOM     81  C   UNL     1       3.914  -4.635   2.095  1.00  0.00     0.202 C 
BRANCH  81  82
ATOM     82  C   UNL     1       3.124  -4.877   3.384  1.00  0.00     0.261 C 
BRANCH  82  83
ATOM     83  O   UNL     1       3.599  -4.133   4.522  1.00  0.00    -0.460 OA
BRANCH  83  84
ATOM     84  C   UNL     1       4.810  -4.444   5.034  1.00  0.00     0.342 C 
ATOM     85  O   UNL     1       5.594  -5.269   4.601  1.00  0.00    -0.246 OA
BRANCH  84  86
ATOM     86  C   UNL     1       5.148  -3.441   6.090  1.00  0.00     0.107 A 
ATOM     87  C   UNL     1       6.447  -2.907   5.993  1.00  0.00     0.021 A 
ATOM     88  C   UNL     1       4.217  -2.910   7.029  1.00  0.00     0.152 A 
ATOM     89  C   UNL     1       6.847  -1.866   6.825  1.00  0.00     0.020 A 
ATOM     90  C   UNL     1       4.646  -1.875   7.874  1.00  0.00     0.072 A 
ATOM     91  C   UNL     1       5.950  -1.370   7.770  1.00  0.00     0.059 A 
BRANCH  88  92
ATOM     92  N   UNL     1       2.904  -3.434   7.140  1.00  0.00    -0.153 N 
ATOM     93  C   UNL     1       2.668  -4.783   7.075  1.00  0.00     0.385 C 
ATOM     94  C   UNL     1       1.689  -2.838   7.377  1.00  0.00     0.295 C 
ATOM     95  O   UNL     1       3.462  -5.701   7.190  1.00  0.00    -0.236 OA
ATOM     96  C   UNL     1       1.186  -4.862   6.997  1.00  0.00     0.215 C 
ATOM     97  N   UNL     1       0.655  -3.638   7.347  1.00  0.00    -0.233 N 
ATOM     98  C   UNL     1       0.500  -5.912   6.522  1.00  0.00     0.060 C 
ATOM     99  H   UNL     1      -0.286  -3.417   7.531  1.00  0.00     0.312 HD
BRANCH  94 100
ATOM    100  C   UNL     1       1.523  -1.397   7.625  1.00  0.00     0.065 A 
ATOM    101  C   UNL     1       0.967  -0.983   8.839  1.00  0.00     0.017 A 
ATOM    102  C   UNL     1       1.858  -0.455   6.651  1.00  0.00     0.017 A 
ATOM    103  C   UNL     1       0.784   0.378   9.089  1.00  0.00     0.001 A 
ATOM    104  C   UNL     1       1.665   0.904   6.899  1.00  0.00     0.001 A 
ATOM    105  C   UNL     1       1.134   1.321   8.120  1.00  0.00     0.000 A 
ENDBRANCH  94 100
BRANCH  98 106
ATOM    106  C   UNL     1       1.110  -7.106   5.969  1.00  0.00     0.005 C 
ATOM    107  C   UNL     1       0.460  -8.215   5.586  1.00  0.00     0.008 C 
BRANCH 107 108
ATOM    108  C   UNL     1       1.166  -9.379   5.017  1.00  0.00    -0.026 A 
ATOM    109  C   UNL     1       0.526 -10.164   4.050  1.00  0.00     0.008 A 
ATOM    110  C   UNL     1       2.458  -9.748   5.430  1.00  0.00     0.008 A 
ATOM    111  C   UNL     1       1.177 -11.265   3.482  1.00  0.00     0.001 A 
ATOM    112  C   UNL     1       3.107 -10.847   4.862  1.00  0.00     0.001 A 
ATOM    113  C   UNL     1       2.467 -11.603   3.885  1.00  0.00     0.000 A 
ENDBRANCH 107 108
ENDBRANCH  98 106
ENDBRANCH  88  92
BRANCH  91 114
ATOM    114  S   UNL     1       6.517  -0.144   8.917  1.00  0.00     0.124 S 
ATOM    115  O   UNL     1       7.867  -0.514   9.322  1.00  0.00    -0.237 OA
ATOM    116  O   UNL     1       6.210   1.147   8.376  1.00  0.00    -0.237 OA
ATOM    117  O   UNL     1       5.627  -0.364  10.245  1.00  0.00    -0.744 OA
ENDBRANCH  91 114
ENDBRANCH  84  86
ENDBRANCH  83  84
ENDBRANCH  82  83
ENDBRANCH  81  82
ENDBRANCH  80  81
ENDBRANCH  79  80
ENDBRANCH  78  79
ENDBRANCH   1  78
TORSDOF 28
