REMARK SMILES CC(C)(C)OC(=O)N1CCC[C@H]1C(=O)N[C@@H](Cc1ccccc1)C(=O)OCCOCCOCCOCCOC(=O)c1ccc(-c2c3nc(c(-c4c(F)cc(S(=O)(=O)[O-])cc4F)c4ccc([nH]4)c(-c4c(F)cc(S(=O)(=O)[O-])cc4F)c4nc(c(-c5c(F)cc(S(=O)(=O)[O-])cc5F)c5ccc2[nH]5)C=C4)C=C3)cc1
REMARK SMILES IDX 31 1 30 2 29 3 28 4 27 5 26 6 24 7 25 8 16 9 15 10 13 11
REMARK SMILES IDX 14 12 12 14 8 15 9 16 10 17 11 18 6 19 7 20 5 21 2 22 1 23
REMARK SMILES IDX 3 24 4 25 17 26 18 27 19 28 23 29 20 30 22 31 21 32 32 33
REMARK SMILES IDX 33 34 34 35 35 36 36 37 37 38 38 39 39 40 40 41 41 42 42 43
REMARK SMILES IDX 106 44 43 45 105 46 44 47 45 48 46 49 99 50 47 51 104 52
REMARK SMILES IDX 98 53 100 54 48 55 103 56 97 57 96 58 49 60 83 61 62 62
REMARK SMILES IDX 82 63 63 64 66 65 81 66 101 67 64 68 65 69 80 71 102 72
REMARK SMILES IDX 67 73 50 74 51 75 60 76 52 77 53 78 59 79 61 80 54 81 55 82
REMARK SMILES IDX 56 83 57 84 58 85 84 86 85 87 94 88 86 89 87 90 93 91 95 92
REMARK SMILES IDX 88 93 89 94 90 95 91 96 92 97 68 98 69 99 78 100 70 101
REMARK SMILES IDX 71 102 77 103 79 104 72 105 73 106 74 107 75 108 76 109
REMARK H PARENT 15 13 100 59 66 70
REMARK Flexibility Score: inf
ROOT
ATOM      1  C   UNL     1      -0.495   2.317  -4.468  1.00  0.00     0.188 C 
ENDROOT
BRANCH   1   2
ATOM      2  C   UNL     1      -1.968   2.293  -4.169  1.00  0.00     0.188 C 
BRANCH   2   3
ATOM      3  O   UNL     1      -2.696   1.099  -4.398  1.00  0.00    -0.376 OA
BRANCH   3   4
ATOM      4  C   UNL     1      -3.993   1.330  -4.973  1.00  0.00     0.202 C 
BRANCH   4   5
ATOM      5  C   UNL     1      -4.840   2.559  -4.524  1.00  0.00     0.261 C 
BRANCH   5   6
ATOM      6  O   UNL     1      -4.134   3.827  -4.564  1.00  0.00    -0.462 OA
BRANCH   6   7
ATOM      7  C   UNL     1      -3.830   4.454  -3.390  1.00  0.00     0.329 C 
ATOM      8  O   UNL     1      -4.356   4.168  -2.319  1.00  0.00    -0.250 OA
BRANCH   7   9
ATOM      9  C   UNL     1      -2.781   5.618  -3.529  1.00  0.00     0.196 C 
BRANCH   9  10
ATOM     10  N   UNL     1      -1.428   5.438  -4.120  1.00  0.00    -0.341 N 
ATOM     11  C   UNL     1      -0.155   5.592  -3.641  1.00  0.00     0.243 C 
ATOM     12  O   UNL     1       0.741   5.631  -4.495  1.00  0.00    -0.273 OA
ATOM     13  H   UNL     1      -1.454   5.144  -5.059  1.00  0.00     0.164 HD
BRANCH  11  14
ATOM     14  C   UNL     1       0.219   5.596  -2.132  1.00  0.00     0.178 C 
ATOM     15  N   UNL     1       0.923   4.350  -1.747  1.00  0.00    -0.296 N 
ATOM     16  C   UNL     1       2.348   4.561  -1.603  1.00  0.00     0.124 C 
ATOM     17  C   UNL     1       2.403   5.987  -1.086  1.00  0.00     0.024 C 
ATOM     18  C   UNL     1       1.287   6.687  -1.867  1.00  0.00     0.037 C 
BRANCH  15  19
ATOM     19  C   UNL     1       0.250   3.217  -1.357  1.00  0.00     0.410 C 
ATOM     20  O   UNL     1      -0.969   3.212  -1.263  1.00  0.00    -0.224 OA
BRANCH  19  21
ATOM     21  O   UNL     1       1.070   2.158  -1.118  1.00  0.00    -0.444 OA
BRANCH  21  22
ATOM     22  C   UNL     1       0.618   0.805  -0.775  1.00  0.00     0.106 C 
ATOM     23  C   UNL     1       1.390   0.390   0.484  1.00  0.00     0.056 C 
ATOM     24  C   UNL     1       1.048  -0.139  -1.902  1.00  0.00     0.056 C 
ATOM     25  C   UNL     1      -0.882   0.628  -0.524  1.00  0.00     0.056 C 
ENDBRANCH  21  22
ENDBRANCH  19  21
ENDBRANCH  15  19
ENDBRANCH  11  14
ENDBRANCH   9  10
BRANCH   9  26
ATOM     26  C   UNL     1      -3.483   6.819  -4.206  1.00  0.00     0.072 C 
BRANCH  26  27
ATOM     27  C   UNL     1      -3.822   6.815  -5.691  1.00  0.00    -0.045 A 
ATOM     28  C   UNL     1      -4.523   7.931  -6.183  1.00  0.00     0.004 A 
ATOM     29  C   UNL     1      -3.530   5.788  -6.601  1.00  0.00     0.004 A 
ATOM     30  C   UNL     1      -4.963   7.989  -7.509  1.00  0.00     0.000 A 
ATOM     31  C   UNL     1      -3.984   5.837  -7.925  1.00  0.00     0.000 A 
ATOM     32  C   UNL     1      -4.710   6.931  -8.375  1.00  0.00     0.000 A 
ENDBRANCH  26  27
ENDBRANCH   9  26
ENDBRANCH   7   9
ENDBRANCH   6   7
ENDBRANCH   5   6
ENDBRANCH   4   5
ENDBRANCH   3   4
ENDBRANCH   2   3
ENDBRANCH   1   2
BRANCH   1  33
ATOM     33  O   UNL     1      -0.242   2.515  -5.858  1.00  0.00    -0.377 OA
BRANCH  33  34
ATOM     34  C   UNL     1      -0.748   1.507  -6.719  1.00  0.00     0.188 C 
BRANCH  34  35
ATOM     35  C   UNL     1      -0.343   0.070  -6.358  1.00  0.00     0.188 C 
BRANCH  35  36
ATOM     36  O   UNL     1       0.589  -0.076  -5.301  1.00  0.00    -0.376 OA
BRANCH  36  37
ATOM     37  C   UNL     1       1.977   0.154  -5.511  1.00  0.00     0.202 C 
BRANCH  37  38
ATOM     38  C   UNL     1       2.466   1.391  -6.280  1.00  0.00     0.261 C 
BRANCH  38  39
ATOM     39  O   UNL     1       2.041   1.475  -7.644  1.00  0.00    -0.460 OA
BRANCH  39  40
ATOM     40  C   UNL     1       2.214   0.392  -8.425  1.00  0.00     0.338 C 
ATOM     41  O   UNL     1       2.796  -0.646  -8.165  1.00  0.00    -0.246 OA
BRANCH  40  42
ATOM     42  C   UNL     1       1.378   0.604  -9.610  1.00  0.00     0.060 A 
ATOM     43  C   UNL     1       0.324  -0.284  -9.865  1.00  0.00     0.016 A 
ATOM     44  C   UNL     1       1.628   1.696 -10.441  1.00  0.00     0.016 A 
ATOM     45  C   UNL     1      -0.481  -0.091 -10.976  1.00  0.00     0.010 A 
ATOM     46  C   UNL     1       0.851   1.863 -11.579  1.00  0.00     0.010 A 
ATOM     47  C   UNL     1      -0.176   0.947 -11.862  1.00  0.00    -0.014 A 
BRANCH  47  48
ATOM     48  C   UNL     1      -0.750   0.912 -13.216  1.00  0.00     0.031 A 
ATOM     49  C   UNL     1       0.065   0.247 -14.286  1.00  0.00     0.074 A 
ATOM     50  C   UNL     1      -1.950   1.459 -13.465  1.00  0.00     0.049 A 
ATOM     51  N   UNL     1      -0.162   0.168 -15.567  1.00  0.00    -0.248 NA
ATOM     52  C   UNL     1       1.314  -0.409 -13.853  1.00  0.00     0.031 C 
ATOM     53  C   UNL     1      -2.816   2.091 -12.470  1.00  0.00     0.029 A 
ATOM     54  N   UNL     1      -2.635   1.588 -14.643  1.00  0.00    -0.354 N 
ATOM     55  C   UNL     1       0.922  -0.522 -16.095  1.00  0.00     0.074 A 
ATOM     56  C   UNL     1       1.815  -0.831 -15.003  1.00  0.00     0.031 C 
ATOM     57  C   UNL     1      -3.907   2.574 -13.089  1.00  0.00     0.029 A 
ATOM     58  C   UNL     1      -3.794   2.315 -14.523  1.00  0.00     0.049 A 
ATOM     59  H   UNL     1      -2.326   1.199 -15.493  1.00  0.00     0.167 HD
ATOM     60  C   UNL     1       1.144  -0.862 -17.383  1.00  0.00     0.037 A 
ATOM     61  C   UNL     1      -4.637   2.748 -15.479  1.00  0.00     0.037 A 
ATOM     62  C   UNL     1       0.231  -0.550 -18.448  1.00  0.00     0.049 A 
ATOM     63  C   UNL     1      -4.346   2.384 -16.913  1.00  0.00     0.074 A 
ATOM     64  C   UNL     1       0.328  -0.879 -19.786  1.00  0.00     0.029 A 
ATOM     65  N   UNL     1      -0.943   0.174 -18.292  1.00  0.00    -0.354 N 
ATOM     66  N   UNL     1      -3.340   1.693 -17.402  1.00  0.00    -0.248 NA
ATOM     67  C   UNL     1      -5.301   2.849 -17.925  1.00  0.00     0.031 C 
ATOM     68  C   UNL     1      -0.758  -0.304 -20.451  1.00  0.00     0.029 A 
ATOM     69  C   UNL     1      -1.566   0.328 -19.516  1.00  0.00     0.049 A 
ATOM     70  H   UNL     1      -1.281   0.526 -17.437  1.00  0.00     0.167 HD
ATOM     71  C   UNL     1      -3.561   1.616 -18.773  1.00  0.00     0.074 A 
ATOM     72  C   UNL     1      -4.801   2.318 -19.032  1.00  0.00     0.031 C 
ATOM     73  C   UNL     1      -2.811   1.021 -19.734  1.00  0.00     0.037 A 
BRANCH  60  74
ATOM     74  C   UNL     1       2.424  -1.571 -17.718  1.00  0.00     0.058 A 
ATOM     75  C   UNL     1       2.647  -2.910 -17.365  1.00  0.00     0.135 A 
ATOM     76  C   UNL     1       3.416  -0.914 -18.464  1.00  0.00     0.135 A 
ATOM     77  F   UNL     1       1.746  -3.575 -16.625  1.00  0.00    -0.206 F 
ATOM     78  C   UNL     1       3.808  -3.576 -17.745  1.00  0.00     0.059 A 
ATOM     79  C   UNL     1       4.572  -1.567 -18.877  1.00  0.00     0.059 A 
ATOM     80  F   UNL     1       3.259   0.373 -18.810  1.00  0.00    -0.206 F 
ATOM     81  C   UNL     1       4.759  -2.899 -18.512  1.00  0.00     0.060 A 
BRANCH  81  82
ATOM     82  S   UNL     1       6.228  -3.798 -19.053  1.00  0.00     0.124 S 
ATOM     83  O   UNL     1       6.956  -3.953 -17.798  1.00  0.00    -0.237 OA
ATOM     84  O   UNL     1       5.654  -5.020 -19.609  1.00  0.00    -0.237 OA
ATOM     85  O   UNL     1       6.839  -2.898 -20.026  1.00  0.00    -0.744 OA
ENDBRANCH  81  82
ENDBRANCH  60  74
BRANCH  61  86
ATOM     86  C   UNL     1      -5.803   3.599 -15.122  1.00  0.00     0.058 A 
ATOM     87  C   UNL     1      -7.118   3.141 -15.286  1.00  0.00     0.135 A 
ATOM     88  C   UNL     1      -5.624   4.902 -14.630  1.00  0.00     0.135 A 
ATOM     89  F   UNL     1      -7.344   1.904 -15.755  1.00  0.00    -0.206 F 
ATOM     90  C   UNL     1      -8.214   3.952 -15.007  1.00  0.00     0.059 A 
ATOM     91  C   UNL     1      -6.702   5.722 -14.315  1.00  0.00     0.059 A 
ATOM     92  F   UNL     1      -4.386   5.385 -14.436  1.00  0.00    -0.206 F 
ATOM     93  C   UNL     1      -7.994   5.244 -14.525  1.00  0.00     0.060 A 
BRANCH  93  94
ATOM     94  S   UNL     1      -9.421   6.286 -14.152  1.00  0.00     0.124 S 
ATOM     95  O   UNL     1      -9.896   6.622 -15.489  1.00  0.00    -0.237 OA
ATOM     96  O   UNL     1     -10.268   5.380 -13.381  1.00  0.00    -0.237 OA
ATOM     97  O   UNL     1      -8.841   7.388 -13.391  1.00  0.00    -0.744 OA
ENDBRANCH  93  94
ENDBRANCH  61  86
BRANCH  73  98
ATOM     98  C   UNL     1      -3.334   1.060 -21.142  1.00  0.00     0.058 A 
ATOM     99  C   UNL     1      -3.331   2.240 -21.901  1.00  0.00     0.135 A 
ATOM    100  C   UNL     1      -3.784  -0.119 -21.760  1.00  0.00     0.135 A 
ATOM    101  F   UNL     1      -2.913   3.393 -21.355  1.00  0.00    -0.206 F 
ATOM    102  C   UNL     1      -3.782   2.256 -23.215  1.00  0.00     0.059 A 
ATOM    103  C   UNL     1      -4.207  -0.133 -23.083  1.00  0.00     0.059 A 
ATOM    104  F   UNL     1      -3.792  -1.278 -21.081  1.00  0.00    -0.206 F 
ATOM    105  C   UNL     1      -4.215   1.063 -23.799  1.00  0.00     0.060 A 
BRANCH 105 106
ATOM    106  S   UNL     1      -4.768   1.093 -25.516  1.00  0.00     0.124 S 
ATOM    107  O   UNL     1      -6.056   1.768 -25.398  1.00  0.00    -0.237 OA
ATOM    108  O   UNL     1      -3.710   1.855 -26.171  1.00  0.00    -0.237 OA
ATOM    109  O   UNL     1      -4.831  -0.320 -25.878  1.00  0.00    -0.744 OA
ENDBRANCH 105 106
ENDBRANCH  73  98
ENDBRANCH  47  48
ENDBRANCH  40  42
ENDBRANCH  39  40
ENDBRANCH  38  39
ENDBRANCH  37  38
ENDBRANCH  36  37
ENDBRANCH  35  36
ENDBRANCH  34  35
ENDBRANCH  33  34
ENDBRANCH   1  33
TORSDOF 30
