REMARK SMILES O=C(OCCOCCOCCOCCOC(=O)[C@@H]1CC2(CC[NH2+]CC2)C[N@@H+]1Cc1cccc2nonc12)c1ccc(-c2c3nc(c(-c4c(F)cc(S(=O)(=O)[O-])cc4F)c4ccc([nH]4)c(-c4c(F)cc(S(=O)(=O)[O-])cc4F)c4nc(c(-c5c(F)cc(S(=O)(=O)[O-])cc5F)c5ccc2[nH]5)C=C4)C=C3)cc1
REMARK SMILES IDX 8 1 7 2 6 3 5 4 4 5 3 6 2 7 1 8 38 9 39 10 103 11 40 12
REMARK SMILES IDX 102 13 41 14 42 15 43 16 96 17 44 18 101 19 95 20 97 21
REMARK SMILES IDX 45 22 100 23 94 24 93 25 46 27 80 28 59 29 79 30 60 31 63 32
REMARK SMILES IDX 78 33 98 34 61 35 62 36 77 38 99 39 64 40 47 41 48 42 57 43
REMARK SMILES IDX 49 44 50 45 56 46 58 47 51 48 52 49 53 50 54 51 55 52 81 53
REMARK SMILES IDX 82 54 91 55 83 56 84 57 90 58 92 59 85 60 86 61 87 62 88 63
REMARK SMILES IDX 89 64 65 65 66 66 75 67 67 68 68 69 74 70 76 71 69 72 70 73
REMARK SMILES IDX 71 74 72 75 73 76 9 77 10 78 11 79 12 80 13 81 14 82 15 83
REMARK SMILES IDX 16 84 17 85 18 86 19 87 27 88 20 89 26 90 21 92 25 93 22 94
REMARK SMILES IDX 24 95 23 96 28 99 29 100 30 101 37 102 31 103 33 104 36 105
REMARK SMILES IDX 32 106 34 107 35 108
REMARK H PARENT 97 26 63 37 27 91 23 97 23 98
REMARK Flexibility Score: inf
ROOT
ATOM      1  C   UNL     1       2.526   1.706   1.731  1.00  0.00     0.188 C 
ENDROOT
BRANCH   1   2
ATOM      2  C   UNL     1       2.728   1.167   0.310  1.00  0.00     0.188 C 
BRANCH   2   3
ATOM      3  O   UNL     1       3.809   0.243   0.303  1.00  0.00    -0.376 OA
BRANCH   3   4
ATOM      4  C   UNL     1       4.680   0.305  -0.823  1.00  0.00     0.202 C 
BRANCH   4   5
ATOM      5  C   UNL     1       4.138  -0.489  -2.003  1.00  0.00     0.261 C 
BRANCH   5   6
ATOM      6  O   UNL     1       3.959  -1.844  -1.570  1.00  0.00    -0.460 OA
BRANCH   6   7
ATOM      7  C   UNL     1       2.700  -2.126  -1.148  1.00  0.00     0.338 C 
ATOM      8  O   UNL     1       1.668  -1.737  -1.668  1.00  0.00    -0.246 OA
BRANCH   7   9
ATOM      9  C   UNL     1       2.762  -2.931   0.094  1.00  0.00     0.060 A 
ATOM     10  C   UNL     1       1.664  -3.707   0.470  1.00  0.00     0.016 A 
ATOM     11  C   UNL     1       3.873  -2.852   0.937  1.00  0.00     0.016 A 
ATOM     12  C   UNL     1       1.706  -4.438   1.663  1.00  0.00     0.010 A 
ATOM     13  C   UNL     1       3.897  -3.555   2.134  1.00  0.00     0.010 A 
ATOM     14  C   UNL     1       2.828  -4.376   2.508  1.00  0.00    -0.014 A 
BRANCH  14  15
ATOM     15  C   UNL     1       2.957  -5.293   3.665  1.00  0.00     0.031 A 
ATOM     16  C   UNL     1       4.335  -5.492   4.221  1.00  0.00     0.074 A 
ATOM     17  C   UNL     1       1.956  -5.577   4.521  1.00  0.00     0.049 A 
ATOM     18  N   UNL     1       4.864  -4.710   5.120  1.00  0.00    -0.248 NA
ATOM     19  C   UNL     1       5.286  -6.412   3.598  1.00  0.00     0.031 C 
ATOM     20  C   UNL     1       0.955  -4.607   4.974  1.00  0.00     0.029 A 
ATOM     21  N   UNL     1       1.788  -6.660   5.347  1.00  0.00    -0.354 N 
ATOM     22  C   UNL     1       6.217  -4.992   5.156  1.00  0.00     0.074 A 
ATOM     23  C   UNL     1       6.431  -6.057   4.198  1.00  0.00     0.031 C 
ATOM     24  C   UNL     1       0.400  -5.072   6.114  1.00  0.00     0.029 A 
ATOM     25  C   UNL     1       0.876  -6.427   6.368  1.00  0.00     0.049 A 
ATOM     26  H   UNL     1       2.264  -7.513   5.228  1.00  0.00     0.167 HD
ATOM     27  C   UNL     1       7.110  -4.341   5.947  1.00  0.00     0.037 A 
ATOM     28  C   UNL     1       0.857  -7.067   7.568  1.00  0.00     0.037 A 
ATOM     29  C   UNL     1       6.572  -3.367   6.848  1.00  0.00     0.049 A 
ATOM     30  C   UNL     1       2.074  -6.483   8.238  1.00  0.00     0.074 A 
ATOM     31  C   UNL     1       6.304  -2.013   6.847  1.00  0.00     0.029 A 
ATOM     32  N   UNL     1       6.114  -3.811   8.068  1.00  0.00    -0.354 N 
ATOM     33  N   UNL     1       2.126  -5.369   8.915  1.00  0.00    -0.248 NA
ATOM     34  C   UNL     1       3.383  -7.034   7.871  1.00  0.00     0.031 C 
ATOM     35  C   UNL     1       5.309  -1.812   7.859  1.00  0.00     0.029 A 
ATOM     36  C   UNL     1       5.000  -3.068   8.370  1.00  0.00     0.049 A 
ATOM     37  H   UNL     1       6.509  -4.525   8.618  1.00  0.00     0.167 HD
ATOM     38  C   UNL     1       3.445  -4.929   8.786  1.00  0.00     0.074 A 
ATOM     39  C   UNL     1       4.178  -6.021   8.183  1.00  0.00     0.031 C 
ATOM     40  C   UNL     1       3.825  -3.637   8.982  1.00  0.00     0.037 A 
BRANCH  27  41
ATOM     41  C   UNL     1       8.533  -4.728   6.031  1.00  0.00     0.058 A 
ATOM     42  C   UNL     1       8.949  -5.557   7.083  1.00  0.00     0.135 A 
ATOM     43  C   UNL     1       9.507  -4.193   5.181  1.00  0.00     0.135 A 
ATOM     44  F   UNL     1       8.040  -6.087   7.918  1.00  0.00    -0.206 F 
ATOM     45  C   UNL     1      10.292  -5.821   7.311  1.00  0.00     0.059 A 
ATOM     46  C   UNL     1      10.862  -4.446   5.388  1.00  0.00     0.059 A 
ATOM     47  F   UNL     1       9.152  -3.399   4.159  1.00  0.00    -0.206 F 
ATOM     48  C   UNL     1      11.243  -5.246   6.468  1.00  0.00     0.060 A 
BRANCH  48  49
ATOM     49  S   UNL     1      12.986  -5.543   6.833  1.00  0.00     0.124 S 
ATOM     50  O   UNL     1      13.127  -4.924   8.147  1.00  0.00    -0.237 OA
ATOM     51  O   UNL     1      13.055  -7.000   6.805  1.00  0.00    -0.237 OA
ATOM     52  O   UNL     1      13.682  -4.866   5.743  1.00  0.00    -0.744 OA
ENDBRANCH  48  49
ENDBRANCH  27  41
BRANCH  28  53
ATOM     53  C   UNL     1       0.617  -8.545   7.499  1.00  0.00     0.058 A 
ATOM     54  C   UNL     1      -0.453  -9.020   6.709  1.00  0.00     0.135 A 
ATOM     55  C   UNL     1       1.375  -9.520   8.164  1.00  0.00     0.135 A 
ATOM     56  F   UNL     1      -1.311  -8.158   6.137  1.00  0.00    -0.206 F 
ATOM     57  C   UNL     1      -0.660 -10.375   6.472  1.00  0.00     0.059 A 
ATOM     58  C   UNL     1       1.202 -10.884   7.926  1.00  0.00     0.059 A 
ATOM     59  F   UNL     1       2.324  -9.177   9.045  1.00  0.00    -0.206 F 
ATOM     60  C   UNL     1       0.201 -11.299   7.053  1.00  0.00     0.060 A 
BRANCH  60  61
ATOM     61  S   UNL     1       0.026 -13.037   6.602  1.00  0.00     0.124 S 
ATOM     62  O   UNL     1      -1.268 -13.371   7.186  1.00  0.00    -0.237 OA
ATOM     63  O   UNL     1       0.070 -12.973   5.144  1.00  0.00    -0.237 OA
ATOM     64  O   UNL     1       1.183 -13.666   7.230  1.00  0.00    -0.744 OA
ENDBRANCH  60  61
ENDBRANCH  28  53
BRANCH  40  65
ATOM     65  C   UNL     1       2.815  -2.758   9.621  1.00  0.00     0.058 A 
ATOM     66  C   UNL     1       2.945  -2.429  10.975  1.00  0.00     0.135 A 
ATOM     67  C   UNL     1       1.730  -2.229   8.911  1.00  0.00     0.135 A 
ATOM     68  F   UNL     1       3.962  -2.929  11.697  1.00  0.00    -0.206 F 
ATOM     69  C   UNL     1       2.059  -1.558  11.598  1.00  0.00     0.059 A 
ATOM     70  C   UNL     1       0.798  -1.405   9.533  1.00  0.00     0.059 A 
ATOM     71  F   UNL     1       1.588  -2.466   7.597  1.00  0.00    -0.206 F 
ATOM     72  C   UNL     1       0.994  -1.037  10.863  1.00  0.00     0.060 A 
BRANCH  72  73
ATOM     73  S   UNL     1      -0.028   0.261  11.595  1.00  0.00     0.124 S 
ATOM     74  O   UNL     1      -1.047  -0.507  12.298  1.00  0.00    -0.237 OA
ATOM     75  O   UNL     1       0.925   0.979  12.438  1.00  0.00    -0.237 OA
ATOM     76  O   UNL     1      -0.492   1.012  10.432  1.00  0.00    -0.744 OA
ENDBRANCH  72  73
ENDBRANCH  40  65
ENDBRANCH  14  15
ENDBRANCH   7   9
ENDBRANCH   6   7
ENDBRANCH   5   6
ENDBRANCH   4   5
ENDBRANCH   3   4
ENDBRANCH   2   3
ENDBRANCH   1   2
BRANCH   1  77
ATOM     77  O   UNL     1       3.536   2.596   2.215  1.00  0.00    -0.377 OA
BRANCH  77  78
ATOM     78  C   UNL     1       4.902   2.228   2.055  1.00  0.00     0.188 C 
BRANCH  78  79
ATOM     79  C   UNL     1       5.531   1.099   2.904  1.00  0.00     0.188 C 
BRANCH  79  80
ATOM     80  O   UNL     1       4.893  -0.156   2.904  1.00  0.00    -0.376 OA
BRANCH  80  81
ATOM     81  C   UNL     1       3.934  -0.497   3.902  1.00  0.00     0.202 C 
BRANCH  81  82
ATOM     82  C   UNL     1       3.554   0.406   5.088  1.00  0.00     0.261 C 
BRANCH  82  83
ATOM     83  O   UNL     1       3.686   1.818   4.861  1.00  0.00    -0.459 OA
BRANCH  83  84
ATOM     84  C   UNL     1       4.523   2.470   5.723  1.00  0.00     0.365 C 
ATOM     85  O   UNL     1       5.025   1.925   6.697  1.00  0.00    -0.245 OA
BRANCH  84  86
ATOM     86  C   UNL     1       4.884   3.880   5.213  1.00  0.00     0.296 C 
ATOM     87  C   UNL     1       6.403   4.029   5.163  1.00  0.00     0.091 C 
ATOM     88  N   UNL     1       4.539   5.027   6.052  1.00  0.00    -0.319 N 
ATOM     89  C   UNL     1       6.831   4.606   6.540  1.00  0.00     0.036 C 
ATOM     90  C   UNL     1       5.595   5.422   6.965  1.00  0.00     0.270 C 
ATOM     91  H   UNL     1       4.512   5.799   5.386  1.00  0.00     0.349 HD
ATOM     92  C   UNL     1       8.118   5.441   6.378  1.00  0.00     0.074 C 
ATOM     93  C   UNL     1       7.177   3.570   7.638  1.00  0.00     0.074 C 
ATOM     94  C   UNL     1       9.315   4.541   6.025  1.00  0.00     0.261 C 
ATOM     95  C   UNL     1       8.328   2.660   7.220  1.00  0.00     0.261 C 
ATOM     96  N   UNL     1       9.539   3.457   6.983  1.00  0.00    -0.346 N 
ATOM     97  H   UNL     1       9.844   3.859   7.869  1.00  0.00     0.346 HD
ATOM     98  H   UNL     1      10.246   2.836   6.590  1.00  0.00     0.346 HD
BRANCH  88  99
ATOM     99  C   UNL     1       3.157   5.369   6.315  1.00  0.00     0.302 C 
BRANCH  99 100
ATOM    100  C   UNL     1       2.351   4.228   6.847  1.00  0.00     0.038 A 
ATOM    101  C   UNL     1       2.672   3.604   8.080  1.00  0.00     0.012 A 
ATOM    102  C   UNL     1       1.332   3.568   6.115  1.00  0.00     0.144 A 
ATOM    103  C   UNL     1       2.106   2.381   8.505  1.00  0.00     0.003 A 
ATOM    104  C   UNL     1       0.748   2.315   6.559  1.00  0.00     0.135 A 
ATOM    105  N   UNL     1       0.777   3.890   4.937  1.00  0.00    -0.049 NA
ATOM    106  C   UNL     1       1.145   1.693   7.750  1.00  0.00     0.034 A 
ATOM    107  N   UNL     1      -0.134   1.908   5.638  1.00  0.00    -0.050 NA
ATOM    108  O   UNL     1      -0.120   2.875   4.653  1.00  0.00    -0.243 OA
ENDBRANCH  99 100
ENDBRANCH  88  99
ENDBRANCH  84  86
ENDBRANCH  83  84
ENDBRANCH  82  83
ENDBRANCH  81  82
ENDBRANCH  80  81
ENDBRANCH  79  80
ENDBRANCH  78  79
ENDBRANCH  77  78
ENDBRANCH   1  77
TORSDOF 25
