REMARK SMILES O=C(OCCOCCOCCOCCOC(=O)c1cnc(-c2ccccc2Cl)nc1)c1ccc(-c2c3nc(c(-c4c(F)cc(S(=O)(=O)[O-])cc4F)c4ccc([nH]4)c(-c4c(F)cc(S(=O)(=O)[O-])cc4F)c4nc(c(-c5c(F)cc(S(=O)(=O)[O-])cc5F)c5ccc2[nH]5)C=C4)C=C3)cc1
REMARK SMILES IDX 8 1 7 2 6 3 5 4 4 5 3 6 2 7 1 8 31 9 32 10 96 11 33 12 95 13
REMARK SMILES IDX 34 14 35 15 36 16 89 17 37 18 94 19 88 20 90 21 38 22 93 23
REMARK SMILES IDX 87 24 86 25 39 27 73 28 52 29 72 30 53 31 56 32 71 33 91 34
REMARK SMILES IDX 54 35 55 36 70 38 92 39 57 40 40 41 41 42 50 43 42 44 43 45
REMARK SMILES IDX 49 46 51 47 44 48 45 49 46 50 47 51 48 52 74 53 75 54 84 55
REMARK SMILES IDX 76 56 77 57 83 58 85 59 78 60 79 61 80 62 81 63 82 64 58 65
REMARK SMILES IDX 59 66 68 67 60 68 61 69 67 70 69 71 62 72 63 73 64 74 65 75
REMARK SMILES IDX 66 76 9 77 10 78 11 79 12 80 13 81 14 82 15 83 16 84 17 85
REMARK SMILES IDX 18 86 19 87 30 88 20 89 29 90 21 91 22 92 23 93 27 94 24 95
REMARK SMILES IDX 26 96 28 97 25 98
REMARK H PARENT 90 26 56 37
REMARK Flexibility Score: inf
ROOT
ATOM      1  C   UNL     1       1.801   0.045   2.712  1.00  0.00     0.188 C 
ENDROOT
BRANCH   1   2
ATOM      2  C   UNL     1       2.245   0.789   1.451  1.00  0.00     0.188 C 
BRANCH   2   3
ATOM      3  O   UNL     1       3.557   0.369   1.067  1.00  0.00    -0.376 OA
BRANCH   3   4
ATOM      4  C   UNL     1       4.378   1.383   0.489  1.00  0.00     0.202 C 
BRANCH   4   5
ATOM      5  C   UNL     1       4.171   1.573  -1.015  1.00  0.00     0.261 C 
BRANCH   5   6
ATOM      6  O   UNL     1       2.807   1.362  -1.406  1.00  0.00    -0.460 OA
BRANCH   6   7
ATOM      7  C   UNL     1       2.260   0.220  -1.896  1.00  0.00     0.338 C 
ATOM      8  O   UNL     1       1.084   0.244  -2.256  1.00  0.00    -0.246 OA
BRANCH   7   9
ATOM      9  C   UNL     1       3.013  -1.066  -2.051  1.00  0.00     0.060 A 
ATOM     10  C   UNL     1       4.085  -1.473  -1.255  1.00  0.00     0.016 A 
ATOM     11  C   UNL     1       2.548  -1.963  -3.028  1.00  0.00     0.016 A 
ATOM     12  C   UNL     1       4.727  -2.686  -1.456  1.00  0.00     0.010 A 
ATOM     13  C   UNL     1       3.163  -3.206  -3.215  1.00  0.00     0.010 A 
ATOM     14  C   UNL     1       4.272  -3.559  -2.438  1.00  0.00    -0.014 A 
BRANCH  14  15
ATOM     15  C   UNL     1       5.063  -4.774  -2.699  1.00  0.00     0.031 A 
ATOM     16  C   UNL     1       5.939  -4.793  -3.915  1.00  0.00     0.074 A 
ATOM     17  C   UNL     1       5.085  -5.768  -1.791  1.00  0.00     0.049 A 
ATOM     18  N   UNL     1       6.666  -5.764  -4.393  1.00  0.00    -0.248 NA
ATOM     19  C   UNL     1       6.019  -3.541  -4.690  1.00  0.00     0.031 C 
ATOM     20  C   UNL     1       4.359  -5.762  -0.516  1.00  0.00     0.029 A 
ATOM     21  N   UNL     1       5.755  -6.962  -1.785  1.00  0.00    -0.354 N 
ATOM     22  C   UNL     1       7.255  -5.256  -5.544  1.00  0.00     0.074 A 
ATOM     23  C   UNL     1       6.817  -3.888  -5.689  1.00  0.00     0.031 C 
ATOM     24  C   UNL     1       4.630  -6.897   0.149  1.00  0.00     0.029 A 
ATOM     25  C   UNL     1       5.486  -7.737  -0.681  1.00  0.00     0.049 A 
ATOM     26  H   UNL     1       6.370  -7.238  -2.502  1.00  0.00     0.167 HD
ATOM     27  C   UNL     1       8.077  -5.895  -6.405  1.00  0.00     0.037 A 
ATOM     28  C   UNL     1       5.854  -9.004  -0.408  1.00  0.00     0.037 A 
ATOM     29  C   UNL     1       8.503  -7.255  -6.218  1.00  0.00     0.049 A 
ATOM     30  C   UNL     1       6.701  -9.720  -1.429  1.00  0.00     0.074 A 
ATOM     31  C   UNL     1       9.296  -8.034  -7.038  1.00  0.00     0.029 A 
ATOM     32  N   UNL     1       8.163  -8.036  -5.120  1.00  0.00    -0.354 N 
ATOM     33  N   UNL     1       7.205  -9.257  -2.550  1.00  0.00    -0.248 NA
ATOM     34  C   UNL     1       7.008 -11.132  -1.168  1.00  0.00     0.031 C 
ATOM     35  C   UNL     1       9.400  -9.302  -6.456  1.00  0.00     0.029 A 
ATOM     36  C   UNL     1       8.710  -9.298  -5.252  1.00  0.00     0.049 A 
ATOM     37  H   UNL     1       7.614  -7.735  -4.361  1.00  0.00     0.167 HD
ATOM     38  C   UNL     1       7.892 -10.318  -3.126  1.00  0.00     0.074 A 
ATOM     39  C   UNL     1       7.763 -11.438  -2.214  1.00  0.00     0.031 C 
ATOM     40  C   UNL     1       8.559 -10.375  -4.306  1.00  0.00     0.037 A 
BRANCH  27  41
ATOM     41  C   UNL     1       8.496  -5.160  -7.644  1.00  0.00     0.058 A 
ATOM     42  C   UNL     1       9.461  -4.143  -7.622  1.00  0.00     0.135 A 
ATOM     43  C   UNL     1       7.920  -5.491  -8.882  1.00  0.00     0.135 A 
ATOM     44  F   UNL     1      10.016  -3.762  -6.460  1.00  0.00    -0.206 F 
ATOM     45  C   UNL     1       9.838  -3.474  -8.784  1.00  0.00     0.059 A 
ATOM     46  C   UNL     1       8.295  -4.850 -10.058  1.00  0.00     0.059 A 
ATOM     47  F   UNL     1       6.977  -6.443  -8.954  1.00  0.00    -0.206 F 
ATOM     48  C   UNL     1       9.251  -3.837  -9.998  1.00  0.00     0.060 A 
BRANCH  48  49
ATOM     49  S   UNL     1       9.764  -2.976 -11.500  1.00  0.00     0.124 S 
ATOM     50  O   UNL     1       9.142  -1.669 -11.314  1.00  0.00    -0.237 OA
ATOM     51  O   UNL     1      11.219  -3.006 -11.393  1.00  0.00    -0.237 OA
ATOM     52  O   UNL     1       9.200  -3.793 -12.570  1.00  0.00    -0.744 OA
ENDBRANCH  48  49
ENDBRANCH  27  41
BRANCH  28  53
ATOM     53  C   UNL     1       5.359  -9.700   0.814  1.00  0.00     0.058 A 
ATOM     54  C   UNL     1       6.236 -10.149   1.812  1.00  0.00     0.135 A 
ATOM     55  C   UNL     1       3.990  -9.967   0.987  1.00  0.00     0.135 A 
ATOM     56  F   UNL     1       7.554  -9.929   1.696  1.00  0.00    -0.206 F 
ATOM     57  C   UNL     1       5.780 -10.864   2.919  1.00  0.00     0.059 A 
ATOM     58  C   UNL     1       3.507 -10.650   2.099  1.00  0.00     0.059 A 
ATOM     59  F   UNL     1       3.101  -9.554   0.070  1.00  0.00    -0.206 F 
ATOM     60  C   UNL     1       4.413 -11.114   3.050  1.00  0.00     0.060 A 
BRANCH  60  61
ATOM     61  S   UNL     1       3.825 -12.043   4.483  1.00  0.00     0.124 S 
ATOM     62  O   UNL     1       4.213 -13.403   4.129  1.00  0.00    -0.237 OA
ATOM     63  O   UNL     1       4.572 -11.430   5.577  1.00  0.00    -0.237 OA
ATOM     64  O   UNL     1       2.390 -11.776   4.489  1.00  0.00    -0.744 OA
ENDBRANCH  60  61
ENDBRANCH  28  53
BRANCH  40  65
ATOM     65  C   UNL     1       9.207 -11.681  -4.655  1.00  0.00     0.058 A 
ATOM     66  C   UNL     1       8.451 -12.773  -5.103  1.00  0.00     0.135 A 
ATOM     67  C   UNL     1      10.604 -11.813  -4.609  1.00  0.00     0.135 A 
ATOM     68  F   UNL     1       7.112 -12.692  -5.156  1.00  0.00    -0.206 F 
ATOM     69  C   UNL     1       9.058 -13.964  -5.481  1.00  0.00     0.059 A 
ATOM     70  C   UNL     1      11.233 -12.985  -5.007  1.00  0.00     0.059 A 
ATOM     71  F   UNL     1      11.367 -10.788  -4.198  1.00  0.00    -0.206 F 
ATOM     72  C   UNL     1      10.450 -14.058  -5.433  1.00  0.00     0.060 A 
BRANCH  72  73
ATOM     73  S   UNL     1      11.231 -15.591  -5.975  1.00  0.00     0.124 S 
ATOM     74  O   UNL     1      10.972 -16.469  -4.839  1.00  0.00    -0.237 OA
ATOM     75  O   UNL     1      10.497 -15.902  -7.198  1.00  0.00    -0.237 OA
ATOM     76  O   UNL     1      12.627 -15.210  -6.169  1.00  0.00    -0.744 OA
ENDBRANCH  72  73
ENDBRANCH  40  65
ENDBRANCH  14  15
ENDBRANCH   7   9
ENDBRANCH   6   7
ENDBRANCH   5   6
ENDBRANCH   4   5
ENDBRANCH   3   4
ENDBRANCH   2   3
ENDBRANCH   1   2
BRANCH   1  77
ATOM     77  O   UNL     1       2.506   0.408   3.903  1.00  0.00    -0.377 OA
BRANCH  77  78
ATOM     78  C   UNL     1       3.928   0.408   3.814  1.00  0.00     0.188 C 
BRANCH  78  79
ATOM     79  C   UNL     1       4.639  -0.927   3.511  1.00  0.00     0.188 C 
BRANCH  79  80
ATOM     80  O   UNL     1       3.756  -2.011   3.261  1.00  0.00    -0.376 OA
BRANCH  80  81
ATOM     81  C   UNL     1       3.754  -3.044   4.241  1.00  0.00     0.202 C 
BRANCH  81  82
ATOM     82  C   UNL     1       3.021  -2.699   5.547  1.00  0.00     0.261 C 
BRANCH  82  83
ATOM     83  O   UNL     1       3.455  -1.487   6.193  1.00  0.00    -0.460 OA
BRANCH  83  84
ATOM     84  C   UNL     1       4.660  -1.487   6.806  1.00  0.00     0.341 C 
ATOM     85  O   UNL     1       5.422  -2.417   6.938  1.00  0.00    -0.246 OA
BRANCH  84  86
ATOM     86  C   UNL     1       5.004  -0.086   7.091  1.00  0.00     0.096 A 
ATOM     87  C   UNL     1       4.096   0.852   7.533  1.00  0.00     0.131 A 
ATOM     88  C   UNL     1       6.245   0.402   6.743  1.00  0.00     0.131 A 
ATOM     89  N   UNL     1       4.376   2.173   7.629  1.00  0.00    -0.236 NA
ATOM     90  N   UNL     1       6.572   1.715   6.796  1.00  0.00    -0.236 NA
ATOM     91  C   UNL     1       5.603   2.553   7.219  1.00  0.00     0.160 A 
BRANCH  91  92
ATOM     92  C   UNL     1       5.959   3.960   7.374  1.00  0.00     0.038 A 
ATOM     93  C   UNL     1       6.577   4.370   8.570  1.00  0.00     0.013 A 
ATOM     94  C   UNL     1       5.722   4.931   6.388  1.00  0.00     0.052 A 
ATOM     95  C   UNL     1       6.945   5.700   8.780  1.00  0.00     0.001 A 
ATOM     96  C   UNL     1       6.091   6.268   6.599  1.00  0.00     0.021 A 
ATOM     97  Cl  UNL     1       4.982   4.539   4.873  1.00  0.00    -0.084 Cl
ATOM     98  C   UNL     1       6.702   6.651   7.794  1.00  0.00     0.002 A 
ENDBRANCH  91  92
ENDBRANCH  84  86
ENDBRANCH  83  84
ENDBRANCH  82  83
ENDBRANCH  81  82
ENDBRANCH  80  81
ENDBRANCH  79  80
ENDBRANCH  78  79
ENDBRANCH  77  78
ENDBRANCH   1  77
TORSDOF 24
