REMARK SMILES CC(C)(C[S@](=O)c1cccc(Cl)c1)C(=O)OCCOCCOCCOCCOC(=O)c1ccc(-c2c3nc(c(-c4c(F)cc(S(=O)(=O)[O-])cc4F)c4ccc([nH]4)c(-c4c(F)cc(S(=O)(=O)[O-])cc4F)c4nc(c(-c5c(F)cc(S(=O)(=O)[O-])cc5F)c5ccc2[nH]5)C=C4)C=C3)cc1
REMARK SMILES IDX 22 1 21 2 20 3 19 4 18 5 17 6 16 7 14 8 15 9 2 10 1 11 3 12
REMARK SMILES IDX 4 13 5 14 6 15 7 16 8 17 13 18 9 19 11 20 10 21 12 22 23 23
REMARK SMILES IDX 24 24 25 25 26 26 27 27 28 28 29 29 30 30 31 31 32 32 96 33
REMARK SMILES IDX 33 34 95 35 34 36 35 37 36 38 89 39 37 40 94 41 88 42 90 43
REMARK SMILES IDX 38 44 93 45 87 46 86 47 39 49 73 50 52 51 72 52 53 53 56 54
REMARK SMILES IDX 71 55 91 56 54 57 55 58 70 60 92 61 57 62 40 63 41 64 50 65
REMARK SMILES IDX 42 66 43 67 49 68 51 69 44 70 45 71 46 72 47 73 48 74 74 75
REMARK SMILES IDX 75 76 84 77 76 78 77 79 83 80 85 81 78 82 79 83 80 84 81 85
REMARK SMILES IDX 82 86 58 87 59 88 68 89 60 90 61 91 67 92 69 93 62 94 63 95
REMARK SMILES IDX 64 96 65 97 66 98
REMARK H PARENT 90 48 56 59
REMARK Flexibility Score: inf
ROOT
ATOM      1  O   UNL     1      -1.049  -0.660   3.647  1.00  0.00    -0.377 OA
ENDROOT
BRANCH   1   2
ATOM      2  C   UNL     1      -2.023  -0.010   2.850  1.00  0.00     0.188 C 
BRANCH   2   3
ATOM      3  C   UNL     1      -1.583   1.312   2.172  1.00  0.00     0.188 C 
BRANCH   3   4
ATOM      4  O   UNL     1      -1.894   2.528   2.840  1.00  0.00    -0.376 OA
BRANCH   4   5
ATOM      5  C   UNL     1      -3.125   2.601   3.533  1.00  0.00     0.202 C 
BRANCH   5   6
ATOM      6  C   UNL     1      -4.448   2.134   2.879  1.00  0.00     0.261 C 
BRANCH   6   7
ATOM      7  O   UNL     1      -4.405   1.035   1.931  1.00  0.00    -0.463 OA
BRANCH   7   8
ATOM      8  C   UNL     1      -4.293   1.397   0.623  1.00  0.00     0.312 C 
ATOM      9  O   UNL     1      -4.176   2.568   0.272  1.00  0.00    -0.252 OA
BRANCH   8  10
ATOM     10  C   UNL     1      -4.495   0.238  -0.387  1.00  0.00     0.074 C 
ATOM     11  C   UNL     1      -4.273   0.835  -1.780  1.00  0.00     0.024 C 
ATOM     12  C   UNL     1      -6.004  -0.099  -0.239  1.00  0.00     0.024 C 
BRANCH  10  13
ATOM     13  C   UNL     1      -3.748  -1.113  -0.244  1.00  0.00     0.128 C 
BRANCH  13  14
ATOM     14  S   UNL     1      -1.976  -1.355  -0.538  1.00  0.00     0.054 S 
ATOM     15  O   UNL     1      -1.198  -0.176  -0.062  1.00  0.00    -0.254 OA
BRANCH  14  16
ATOM     16  C   UNL     1      -1.620  -1.386  -2.299  1.00  0.00     0.040 A 
ATOM     17  C   UNL     1      -1.295  -2.603  -2.914  1.00  0.00     0.018 A 
ATOM     18  C   UNL     1      -1.237  -0.193  -2.929  1.00  0.00     0.038 A 
ATOM     19  C   UNL     1      -0.580  -2.617  -4.121  1.00  0.00     0.003 A 
ATOM     20  C   UNL     1      -0.543  -0.211  -4.136  1.00  0.00     0.042 A 
ATOM     21  C   UNL     1      -0.199  -1.420  -4.729  1.00  0.00     0.020 A 
ATOM     22  Cl  UNL     1      -0.025   1.271  -4.840  1.00  0.00    -0.084 Cl
ENDBRANCH  14  16
ENDBRANCH  13  14
ENDBRANCH  10  13
ENDBRANCH   8  10
ENDBRANCH   7   8
ENDBRANCH   6   7
ENDBRANCH   5   6
ENDBRANCH   4   5
ENDBRANCH   3   4
ENDBRANCH   2   3
ENDBRANCH   1   2
BRANCH   1  23
ATOM     23  C   UNL     1      -0.508   0.185   4.628  1.00  0.00     0.188 C 
BRANCH  23  24
ATOM     24  C   UNL     1       0.904   0.702   4.322  1.00  0.00     0.188 C 
BRANCH  24  25
ATOM     25  O   UNL     1       1.526   0.565   3.049  1.00  0.00    -0.376 OA
BRANCH  25  26
ATOM     26  C   UNL     1       1.383  -0.597   2.240  1.00  0.00     0.202 C 
BRANCH  26  27
ATOM     27  C   UNL     1       1.982  -1.917   2.720  1.00  0.00     0.261 C 
BRANCH  27  28
ATOM     28  O   UNL     1       1.313  -2.445   3.871  1.00  0.00    -0.460 OA
BRANCH  28  29
ATOM     29  C   UNL     1       1.978  -2.276   5.039  1.00  0.00     0.338 C 
ATOM     30  O   UNL     1       3.083  -1.808   5.200  1.00  0.00    -0.246 OA
BRANCH  29  31
ATOM     31  C   UNL     1       1.056  -2.577   6.151  1.00  0.00     0.060 A 
ATOM     32  C   UNL     1       0.952  -1.621   7.170  1.00  0.00     0.016 A 
ATOM     33  C   UNL     1       0.307  -3.755   6.193  1.00  0.00     0.016 A 
ATOM     34  C   UNL     1       0.086  -1.831   8.233  1.00  0.00     0.010 A 
ATOM     35  C   UNL     1      -0.516  -3.995   7.294  1.00  0.00     0.010 A 
ATOM     36  C   UNL     1      -0.605  -3.043   8.324  1.00  0.00    -0.014 A 
BRANCH  36  37
ATOM     37  C   UNL     1      -1.187  -3.405   9.630  1.00  0.00     0.031 A 
ATOM     38  C   UNL     1      -0.297  -4.132  10.598  1.00  0.00     0.074 A 
ATOM     39  C   UNL     1      -2.437  -3.042   9.962  1.00  0.00     0.049 A 
ATOM     40  N   UNL     1      -0.557  -4.561  11.802  1.00  0.00    -0.248 NA
ATOM     41  C   UNL     1       1.078  -4.408  10.143  1.00  0.00     0.031 C 
ATOM     42  C   UNL     1      -3.353  -2.285   9.110  1.00  0.00     0.029 A 
ATOM     43  N   UNL     1      -3.149  -3.268  11.110  1.00  0.00    -0.354 N 
ATOM     44  C   UNL     1       0.616  -5.159  12.246  1.00  0.00     0.074 A 
ATOM     45  C   UNL     1       1.582  -5.060  11.177  1.00  0.00     0.031 C 
ATOM     46  C   UNL     1      -4.519  -2.128   9.761  1.00  0.00     0.029 A 
ATOM     47  C   UNL     1      -4.438  -2.796  11.058  1.00  0.00     0.049 A 
ATOM     48  H   UNL     1      -2.773  -3.724  11.897  1.00  0.00     0.167 HD
ATOM     49  C   UNL     1       0.860  -5.736  13.443  1.00  0.00     0.037 A 
ATOM     50  C   UNL     1      -5.438  -2.921  11.953  1.00  0.00     0.037 A 
ATOM     51  C   UNL     1      -0.120  -5.835  14.489  1.00  0.00     0.049 A 
ATOM     52  C   UNL     1      -5.162  -3.634  13.253  1.00  0.00     0.074 A 
ATOM     53  C   UNL     1       0.017  -6.392  15.746  1.00  0.00     0.029 A 
ATOM     54  N   UNL     1      -1.427  -5.375  14.392  1.00  0.00    -0.354 N 
ATOM     55  N   UNL     1      -4.044  -4.177  13.676  1.00  0.00    -0.248 NA
ATOM     56  C   UNL     1      -6.279  -3.746  14.201  1.00  0.00     0.031 C 
ATOM     57  C   UNL     1      -1.224  -6.325  16.386  1.00  0.00     0.029 A 
ATOM     58  C   UNL     1      -2.116  -5.664  15.555  1.00  0.00     0.049 A 
ATOM     59  H   UNL     1      -1.806  -4.913  13.610  1.00  0.00     0.167 HD
ATOM     60  C   UNL     1      -4.314  -4.669  14.950  1.00  0.00     0.074 A 
ATOM     61  C   UNL     1      -5.698  -4.346  15.231  1.00  0.00     0.031 C 
ATOM     62  C   UNL     1      -3.495  -5.324  15.811  1.00  0.00     0.037 A 
BRANCH  49  63
ATOM     63  C   UNL     1       2.217  -6.343  13.660  1.00  0.00     0.058 A 
ATOM     64  C   UNL     1       3.371  -5.556  13.805  1.00  0.00     0.135 A 
ATOM     65  C   UNL     1       2.361  -7.737  13.745  1.00  0.00     0.135 A 
ATOM     66  F   UNL     1       3.297  -4.219  13.701  1.00  0.00    -0.206 F 
ATOM     67  C   UNL     1       4.622  -6.131  14.011  1.00  0.00     0.059 A 
ATOM     68  C   UNL     1       3.596  -8.332  13.980  1.00  0.00     0.059 A 
ATOM     69  F   UNL     1       1.293  -8.536  13.599  1.00  0.00    -0.206 F 
ATOM     70  C   UNL     1       4.722  -7.520  14.102  1.00  0.00     0.060 A 
BRANCH  70  71
ATOM     71  S   UNL     1       6.347  -8.250  14.397  1.00  0.00     0.124 S 
ATOM     72  O   UNL     1       7.009  -8.015  13.117  1.00  0.00    -0.237 OA
ATOM     73  O   UNL     1       6.841  -7.461  15.521  1.00  0.00    -0.237 OA
ATOM     74  O   UNL     1       6.044  -9.645  14.699  1.00  0.00    -0.744 OA
ENDBRANCH  70  71
ENDBRANCH  49  63
BRANCH  50  75
ATOM     75  C   UNL     1      -6.791  -2.385  11.641  1.00  0.00     0.058 A 
ATOM     76  C   UNL     1      -7.336  -1.309  12.357  1.00  0.00     0.135 A 
ATOM     77  C   UNL     1      -7.571  -2.948  10.618  1.00  0.00     0.135 A 
ATOM     78  F   UNL     1      -6.636  -0.742  13.351  1.00  0.00    -0.206 F 
ATOM     79  C   UNL     1      -8.611  -0.821  12.083  1.00  0.00     0.059 A 
ATOM     80  C   UNL     1      -8.836  -2.459  10.306  1.00  0.00     0.059 A 
ATOM     81  F   UNL     1      -7.095  -3.973   9.894  1.00  0.00    -0.206 F 
ATOM     82  C   UNL     1      -9.352  -1.401  11.052  1.00  0.00     0.060 A 
BRANCH  82  83
ATOM     83  S   UNL     1     -10.985  -0.731  10.673  1.00  0.00     0.124 S 
ATOM     84  O   UNL     1     -11.761  -1.177  11.824  1.00  0.00    -0.237 OA
ATOM     85  O   UNL     1     -10.717   0.702  10.599  1.00  0.00    -0.237 OA
ATOM     86  O   UNL     1     -11.321  -1.364   9.401  1.00  0.00    -0.744 OA
ENDBRANCH  82  83
ENDBRANCH  50  75
BRANCH  62  87
ATOM     87  C   UNL     1      -4.058  -5.699  17.155  1.00  0.00     0.058 A 
ATOM     88  C   UNL     1      -5.011  -6.718  17.302  1.00  0.00     0.135 A 
ATOM     89  C   UNL     1      -3.588  -5.066  18.318  1.00  0.00     0.135 A 
ATOM     90  F   UNL     1      -5.495  -7.353  16.222  1.00  0.00    -0.206 F 
ATOM     91  C   UNL     1      -5.499  -7.079  18.553  1.00  0.00     0.059 A 
ATOM     92  C   UNL     1      -4.037  -5.434  19.582  1.00  0.00     0.059 A 
ATOM     93  F   UNL     1      -2.666  -4.094  18.235  1.00  0.00    -0.206 F 
ATOM     94  C   UNL     1      -5.004  -6.432  19.688  1.00  0.00     0.060 A 
BRANCH  94  95
ATOM     95  S   UNL     1      -5.626  -6.930  21.307  1.00  0.00     0.124 S 
ATOM     96  O   UNL     1      -6.975  -6.375  21.286  1.00  0.00    -0.237 OA
ATOM     97  O   UNL     1      -5.538  -8.386  21.240  1.00  0.00    -0.237 OA
ATOM     98  O   UNL     1      -4.700  -6.294  22.238  1.00  0.00    -0.744 OA
ENDBRANCH  94  95
ENDBRANCH  62  87
ENDBRANCH  36  37
ENDBRANCH  29  31
ENDBRANCH  28  29
ENDBRANCH  27  28
ENDBRANCH  26  27
ENDBRANCH  25  26
ENDBRANCH  24  25
ENDBRANCH  23  24
ENDBRANCH   1  23
TORSDOF 26
