REMARK SMILES [NH3+][C@]1(C(=O)OCCOCCOCCOCCOC(=O)c2ccc(-c3c4nc(c(-c5c(F)cc(S(=O)(=O)[O-])cc5F)c5ccc([nH]5)c(-c5c(F)cc(S(=O)(=O)[O-])cc5F)c5nc(c(-c6c(F)cc(S(=O)(=O)[O-])cc6F)c6ccc3[nH]6)C=C5)C=C4)cc2)CC[C@@H](Sc2cc3ccccc3[nH]2)C1
REMARK SMILES IDX 12 1 11 2 10 3 9 4 8 5 7 6 6 7 5 8 3 9 4 10 2 11 86 12 99 13
REMARK SMILES IDX 87 14 88 15 1 16 89 20 90 21 91 22 98 23 92 24 97 25 93 27
REMARK SMILES IDX 96 28 94 29 95 30 13 31 14 32 15 33 16 34 17 35 18 36 19 37
REMARK SMILES IDX 20 38 21 39 85 40 22 41 84 42 23 43 24 44 25 45 78 46 26 47
REMARK SMILES IDX 83 48 77 49 79 50 27 51 82 52 76 53 75 54 28 56 62 57 41 58
REMARK SMILES IDX 61 59 42 60 45 61 60 62 80 63 43 64 44 65 59 67 81 68 46 69
REMARK SMILES IDX 29 70 30 71 39 72 31 73 32 74 38 75 40 76 33 77 34 78 35 79
REMARK SMILES IDX 36 80 37 81 63 82 64 83 73 84 65 85 66 86 72 87 74 88 67 89
REMARK SMILES IDX 68 90 69 91 70 92 71 93 47 94 48 95 57 96 49 97 50 98 56 99
REMARK SMILES IDX 58 100 51 101 52 102 53 103 54 104 55 105
REMARK H PARENT 1 17 1 18 1 19 98 26 79 55 45 66
REMARK Flexibility Score: inf
ROOT
ATOM      1  C   UNL     1       2.013  -3.712  -1.456  1.00  0.00     0.188 C 
ENDROOT
BRANCH   1   2
ATOM      2  O   UNL     1       1.851  -2.471  -0.783  1.00  0.00    -0.377 OA
BRANCH   2   3
ATOM      3  C   UNL     1       0.525  -2.142  -0.426  1.00  0.00     0.188 C 
BRANCH   3   4
ATOM      4  C   UNL     1      -0.192  -1.204  -1.418  1.00  0.00     0.188 C 
BRANCH   4   5
ATOM      5  O   UNL     1       0.443  -0.734  -2.598  1.00  0.00    -0.376 OA
BRANCH   5   6
ATOM      6  C   UNL     1       1.836  -0.470  -2.643  1.00  0.00     0.202 C 
BRANCH   6   7
ATOM      7  C   UNL     1       2.554   0.362  -1.564  1.00  0.00     0.261 C 
BRANCH   7   8
ATOM      8  O   UNL     1       2.056   0.263  -0.226  1.00  0.00    -0.459 OA
BRANCH   8   9
ATOM      9  C   UNL     1       1.124   1.176   0.140  1.00  0.00     0.368 C 
ATOM     10  O   UNL     1       0.666   2.039  -0.604  1.00  0.00    -0.245 OA
BRANCH   9  11
ATOM     11  C   UNL     1       0.597   0.945   1.582  1.00  0.00     0.193 C 
ATOM     12  C   UNL     1       1.417  -0.033   2.446  1.00  0.00     0.082 C 
ATOM     13  C   UNL     1       0.651   2.289   2.318  1.00  0.00     0.096 C 
ATOM     14  C   UNL     1       1.296   0.503   3.858  1.00  0.00     0.022 C 
ATOM     15  C   UNL     1       1.270   2.011   3.683  1.00  0.00     0.060 C 
BRANCH  11  16
ATOM     16  N   UNL     1      -0.839   0.549   1.570  1.00  0.00    -0.343 N 
ATOM     17  H   UNL     1      -1.160   0.404   2.527  1.00  0.00     0.345 HD
ATOM     18  H   UNL     1      -0.950  -0.315   1.039  1.00  0.00     0.345 HD
ATOM     19  H   UNL     1      -1.392   1.288   1.135  1.00  0.00     0.345 HD
ENDBRANCH  11  16
BRANCH  15  20
ATOM     20  S   UNL     1       2.817   2.919   3.746  1.00  0.00    -0.105 SA
BRANCH  20  21
ATOM     21  C   UNL     1       4.117   1.801   3.412  1.00  0.00     0.073 A 
ATOM     22  C   UNL     1       5.152   1.970   2.507  1.00  0.00     0.043 A 
ATOM     23  N   UNL     1       4.719   1.256   4.524  1.00  0.00    -0.350 N 
ATOM     24  C   UNL     1       6.238   2.365   3.363  1.00  0.00     0.001 A 
ATOM     25  C   UNL     1       5.887   1.984   4.660  1.00  0.00     0.046 A 
ATOM     26  H   UNL     1       4.394   0.519   5.090  1.00  0.00     0.167 HD
ATOM     27  C   UNL     1       7.374   3.171   3.183  1.00  0.00     0.010 A 
ATOM     28  C   UNL     1       6.545   2.425   5.806  1.00  0.00     0.027 A 
ATOM     29  C   UNL     1       8.004   3.688   4.324  1.00  0.00     0.001 A 
ATOM     30  C   UNL     1       7.580   3.338   5.609  1.00  0.00     0.002 A 
ENDBRANCH  20  21
ENDBRANCH  15  20
ENDBRANCH   9  11
ENDBRANCH   8   9
ENDBRANCH   7   8
ENDBRANCH   6   7
ENDBRANCH   5   6
ENDBRANCH   4   5
ENDBRANCH   3   4
ENDBRANCH   2   3
ENDBRANCH   1   2
BRANCH   1  31
ATOM     31  C   UNL     1       0.983  -4.045  -2.554  1.00  0.00     0.188 C 
BRANCH  31  32
ATOM     32  O   UNL     1      -0.369  -3.983  -2.108  1.00  0.00    -0.376 OA
BRANCH  32  33
ATOM     33  C   UNL     1      -1.041  -5.191  -1.785  1.00  0.00     0.202 C 
BRANCH  33  34
ATOM     34  C   UNL     1      -0.597  -5.914  -0.504  1.00  0.00     0.261 C 
BRANCH  34  35
ATOM     35  O   UNL     1       0.782  -6.304  -0.441  1.00  0.00    -0.460 OA
BRANCH  35  36
ATOM     36  C   UNL     1       1.243  -7.114  -1.424  1.00  0.00     0.338 C 
ATOM     37  O   UNL     1       0.604  -7.606  -2.322  1.00  0.00    -0.246 OA
BRANCH  36  38
ATOM     38  C   UNL     1       2.722  -7.118  -1.334  1.00  0.00     0.060 A 
ATOM     39  C   UNL     1       3.464  -6.723  -2.455  1.00  0.00     0.016 A 
ATOM     40  C   UNL     1       3.367  -7.497  -0.155  1.00  0.00     0.016 A 
ATOM     41  C   UNL     1       4.857  -6.743  -2.412  1.00  0.00     0.010 A 
ATOM     42  C   UNL     1       4.763  -7.543  -0.121  1.00  0.00     0.010 A 
ATOM     43  C   UNL     1       5.511  -7.203  -1.262  1.00  0.00    -0.014 A 
BRANCH  43  44
ATOM     44  C   UNL     1       6.951  -7.549  -1.334  1.00  0.00     0.031 A 
ATOM     45  C   UNL     1       7.318  -8.987  -1.587  1.00  0.00     0.074 A 
ATOM     46  C   UNL     1       7.909  -6.612  -1.215  1.00  0.00     0.049 A 
ATOM     47  N   UNL     1       8.497  -9.546  -1.652  1.00  0.00    -0.248 NA
ATOM     48  C   UNL     1       6.197  -9.921  -1.795  1.00  0.00     0.031 C 
ATOM     49  C   UNL     1       7.676  -5.182  -1.019  1.00  0.00     0.029 A 
ATOM     50  N   UNL     1       9.276  -6.730  -1.238  1.00  0.00    -0.354 N 
ATOM     51  C   UNL     1       8.262 -10.892  -1.910  1.00  0.00     0.074 A 
ATOM     52  C   UNL     1       6.829 -11.074  -1.948  1.00  0.00     0.031 C 
ATOM     53  C   UNL     1       8.863  -4.556  -0.928  1.00  0.00     0.029 A 
ATOM     54  C   UNL     1       9.937  -5.543  -1.027  1.00  0.00     0.049 A 
ATOM     55  H   UNL     1       9.739  -7.585  -1.392  1.00  0.00     0.167 HD
ATOM     56  C   UNL     1       9.161 -11.884  -2.111  1.00  0.00     0.037 A 
ATOM     57  C   UNL     1      11.257  -5.293  -0.907  1.00  0.00     0.037 A 
ATOM     58  C   UNL     1      10.586 -11.698  -2.061  1.00  0.00     0.049 A 
ATOM     59  C   UNL     1      12.237  -6.434  -1.040  1.00  0.00     0.074 A 
ATOM     60  C   UNL     1      11.584 -12.639  -2.242  1.00  0.00     0.029 A 
ATOM     61  N   UNL     1      11.218 -10.489  -1.807  1.00  0.00    -0.354 N 
ATOM     62  N   UNL     1      12.004  -7.701  -1.294  1.00  0.00    -0.248 NA
ATOM     63  C   UNL     1      13.661  -6.110  -0.875  1.00  0.00     0.031 C 
ATOM     64  C   UNL     1      12.818 -12.009  -2.046  1.00  0.00     0.029 A 
ATOM     65  C   UNL     1      12.591 -10.664  -1.805  1.00  0.00     0.049 A 
ATOM     66  H   UNL     1      10.757  -9.633  -1.651  1.00  0.00     0.167 HD
ATOM     67  C   UNL     1      13.252  -8.315  -1.356  1.00  0.00     0.074 A 
ATOM     68  C   UNL     1      14.236  -7.278  -1.123  1.00  0.00     0.031 C 
ATOM     69  C   UNL     1      13.559  -9.616  -1.587  1.00  0.00     0.037 A 
BRANCH  56  70
ATOM     70  C   UNL     1       8.624 -13.263  -2.381  1.00  0.00     0.058 A 
ATOM     71  C   UNL     1       7.980 -13.582  -3.587  1.00  0.00     0.135 A 
ATOM     72  C   UNL     1       8.778 -14.286  -1.431  1.00  0.00     0.135 A 
ATOM     73  F   UNL     1       7.784 -12.637  -4.520  1.00  0.00    -0.206 F 
ATOM     74  C   UNL     1       7.487 -14.860  -3.833  1.00  0.00     0.059 A 
ATOM     75  C   UNL     1       8.320 -15.579  -1.669  1.00  0.00     0.059 A 
ATOM     76  F   UNL     1       9.379 -14.035  -0.258  1.00  0.00    -0.206 F 
ATOM     77  C   UNL     1       7.664 -15.852  -2.868  1.00  0.00     0.060 A 
BRANCH  77  78
ATOM     78  S   UNL     1       7.027 -17.506  -3.208  1.00  0.00     0.124 S 
ATOM     79  O   UNL     1       5.587 -17.288  -3.114  1.00  0.00    -0.237 OA
ATOM     80  O   UNL     1       7.542 -17.768  -4.548  1.00  0.00    -0.237 OA
ATOM     81  O   UNL     1       7.608 -18.321  -2.145  1.00  0.00    -0.744 OA
ENDBRANCH  77  78
ENDBRANCH  56  70
BRANCH  57  82
ATOM     82  C   UNL     1      11.739  -3.911  -0.632  1.00  0.00     0.058 A 
ATOM     83  C   UNL     1      12.498  -3.206  -1.579  1.00  0.00     0.135 A 
ATOM     84  C   UNL     1      11.479  -3.279   0.594  1.00  0.00     0.135 A 
ATOM     85  F   UNL     1      12.785  -3.770  -2.762  1.00  0.00    -0.206 F 
ATOM     86  C   UNL     1      13.003  -1.937  -1.312  1.00  0.00     0.059 A 
ATOM     87  C   UNL     1      11.947  -1.998   0.873  1.00  0.00     0.059 A 
ATOM     88  F   UNL     1      10.752  -3.905   1.533  1.00  0.00    -0.206 F 
ATOM     89  C   UNL     1      12.721  -1.341  -0.082  1.00  0.00     0.060 A 
BRANCH  89  90
ATOM     90  S   UNL     1      13.364   0.316   0.242  1.00  0.00     0.124 S 
ATOM     91  O   UNL     1      14.789   0.052   0.403  1.00  0.00    -0.237 OA
ATOM     92  O   UNL     1      12.979   1.034  -0.969  1.00  0.00    -0.237 OA
ATOM     93  O   UNL     1      12.656   0.720   1.453  1.00  0.00    -0.744 OA
ENDBRANCH  89  90
ENDBRANCH  57  82
BRANCH  69  94
ATOM     94  C   UNL     1      15.016  -9.990  -1.652  1.00  0.00     0.058 A 
ATOM     95  C   UNL     1      15.830 -10.012  -0.509  1.00  0.00     0.135 A 
ATOM     96  C   UNL     1      15.592 -10.384  -2.872  1.00  0.00     0.135 A 
ATOM     97  F   UNL     1      15.333  -9.642   0.682  1.00  0.00    -0.206 F 
ATOM     98  C   UNL     1      17.170 -10.383  -0.577  1.00  0.00     0.059 A 
ATOM     99  C   UNL     1      16.920 -10.790  -2.958  1.00  0.00     0.059 A 
ATOM    100  F   UNL     1      14.855 -10.396  -3.994  1.00  0.00    -0.206 F 
ATOM    101  C   UNL     1      17.705 -10.772  -1.806  1.00  0.00     0.060 A 
BRANCH 101 102
ATOM    102  S   UNL     1      19.436 -11.279  -1.875  1.00  0.00     0.124 S 
ATOM    103  O   UNL     1      20.123 -10.002  -1.714  1.00  0.00    -0.237 OA
ATOM    104  O   UNL     1      19.537 -12.199  -0.747  1.00  0.00    -0.237 OA
ATOM    105  O   UNL     1      19.559 -11.896  -3.192  1.00  0.00    -0.744 OA
ENDBRANCH 101 102
ENDBRANCH  69  94
ENDBRANCH  43  44
ENDBRANCH  36  38
ENDBRANCH  35  36
ENDBRANCH  34  35
ENDBRANCH  33  34
ENDBRANCH  32  33
ENDBRANCH  31  32
ENDBRANCH   1  31
TORSDOF 26
