REMARK SMILES O=C(OCCOCCOCCOCCOC(=O)[C@H]1Cc2[nH]cnc2CN1C(=O)c1ccncc1Cl)c1ccc(-c2c3nc(c(-c4c(F)cc(S(=O)(=O)[O-])cc4F)c4ccc([nH]4)c(-c4c(F)cc(S(=O)(=O)[O-])cc4F)c4nc(c(-c5c(F)cc(S(=O)(=O)[O-])cc5F)c5ccc2[nH]5)C=C4)C=C3)cc1
REMARK SMILES IDX 8 1 7 2 6 3 5 4 4 5 3 6 2 7 1 8 36 9 37 10 101 11 38 12
REMARK SMILES IDX 100 13 39 14 40 15 41 16 94 17 42 18 99 19 93 20 95 21 43 22
REMARK SMILES IDX 98 23 92 24 91 25 44 27 78 28 57 29 77 30 58 31 61 32 76 33
REMARK SMILES IDX 96 34 59 35 60 36 75 38 97 39 62 40 45 41 46 42 55 43 47 44
REMARK SMILES IDX 48 45 54 46 56 47 49 48 50 49 51 50 52 51 53 52 79 53 80 54
REMARK SMILES IDX 89 55 81 56 82 57 88 58 90 59 83 60 84 61 85 62 86 63 87 64
REMARK SMILES IDX 63 65 64 66 73 67 65 68 66 69 72 70 74 71 67 72 68 73 69 74
REMARK SMILES IDX 70 75 71 76 9 77 10 78 11 79 12 80 13 81 14 82 15 83 16 84
REMARK SMILES IDX 17 85 18 86 19 87 26 88 20 89 25 90 21 91 24 92 22 93 23 95
REMARK SMILES IDX 27 96 28 97 29 98 30 99 34 100 31 101 33 102 35 103 32 104
REMARK H PARENT 95 26 61 37 21 94
REMARK Flexibility Score: inf
ROOT
ATOM      1  C   UNL     1       2.500  -0.224   1.774  1.00  0.00     0.188 C 
ENDROOT
BRANCH   1   2
ATOM      2  C   UNL     1       3.454  -1.267   1.178  1.00  0.00     0.188 C 
BRANCH   2   3
ATOM      3  O   UNL     1       4.784  -0.963   0.801  1.00  0.00    -0.376 OA
BRANCH   3   4
ATOM      4  C   UNL     1       5.287   0.036  -0.062  1.00  0.00     0.202 C 
BRANCH   4   5
ATOM      5  C   UNL     1       4.529   0.835  -1.123  1.00  0.00     0.261 C 
BRANCH   5   6
ATOM      6  O   UNL     1       3.186   1.163  -0.811  1.00  0.00    -0.460 OA
BRANCH   6   7
ATOM      7  C   UNL     1       2.062   0.593  -1.297  1.00  0.00     0.338 C 
ATOM      8  O   UNL     1       1.000   1.197  -1.151  1.00  0.00    -0.246 OA
BRANCH   7   9
ATOM      9  C   UNL     1       2.010  -0.803  -1.814  1.00  0.00     0.060 A 
ATOM     10  C   UNL     1       3.079  -1.536  -2.335  1.00  0.00     0.016 A 
ATOM     11  C   UNL     1       0.740  -1.413  -1.761  1.00  0.00     0.016 A 
ATOM     12  C   UNL     1       2.858  -2.751  -2.950  1.00  0.00     0.010 A 
ATOM     13  C   UNL     1       0.519  -2.650  -2.343  1.00  0.00     0.010 A 
ATOM     14  C   UNL     1       1.567  -3.264  -3.013  1.00  0.00    -0.014 A 
BRANCH  14  15
ATOM     15  C   UNL     1       1.380  -4.420  -3.868  1.00  0.00     0.031 A 
ATOM     16  C   UNL     1       2.146  -5.632  -3.482  1.00  0.00     0.074 A 
ATOM     17  C   UNL     1       0.603  -4.348  -4.964  1.00  0.00     0.049 A 
ATOM     18  N   UNL     1       3.151  -6.169  -4.093  1.00  0.00    -0.248 NA
ATOM     19  C   UNL     1       1.848  -6.237  -2.176  1.00  0.00     0.031 C 
ATOM     20  C   UNL     1      -0.363  -3.309  -5.337  1.00  0.00     0.029 A 
ATOM     21  N   UNL     1       0.466  -5.260  -5.958  1.00  0.00    -0.354 N 
ATOM     22  C   UNL     1       3.484  -7.306  -3.360  1.00  0.00     0.074 A 
ATOM     23  C   UNL     1       2.754  -7.214  -2.122  1.00  0.00     0.031 C 
ATOM     24  C   UNL     1      -1.149  -3.771  -6.335  1.00  0.00     0.029 A 
ATOM     25  C   UNL     1      -0.642  -5.060  -6.767  1.00  0.00     0.049 A 
ATOM     26  H   UNL     1       1.099  -6.002  -6.094  1.00  0.00     0.167 HD
ATOM     27  C   UNL     1       4.180  -8.338  -3.914  1.00  0.00     0.037 A 
ATOM     28  C   UNL     1      -1.141  -5.941  -7.668  1.00  0.00     0.037 A 
ATOM     29  C   UNL     1       4.868  -7.926  -5.109  1.00  0.00     0.049 A 
ATOM     30  C   UNL     1      -0.034  -6.870  -8.024  1.00  0.00     0.074 A 
ATOM     31  C   UNL     1       5.866  -7.013  -5.385  1.00  0.00     0.029 A 
ATOM     32  N   UNL     1       4.302  -8.240  -6.321  1.00  0.00    -0.354 N 
ATOM     33  N   UNL     1       1.044  -6.500  -8.666  1.00  0.00    -0.248 NA
ATOM     34  C   UNL     1       0.092  -8.101  -7.257  1.00  0.00     0.031 C 
ATOM     35  C   UNL     1       5.521  -6.463  -6.652  1.00  0.00     0.029 A 
ATOM     36  C   UNL     1       4.369  -7.113  -7.099  1.00  0.00     0.049 A 
ATOM     37  H   UNL     1       3.921  -9.109  -6.581  1.00  0.00     0.167 HD
ATOM     38  C   UNL     1       2.079  -7.207  -8.069  1.00  0.00     0.074 A 
ATOM     39  C   UNL     1       1.422  -8.231  -7.260  1.00  0.00     0.031 C 
ATOM     40  C   UNL     1       3.359  -6.732  -8.064  1.00  0.00     0.037 A 
BRANCH  27  41
ATOM     41  C   UNL     1       3.961  -9.793  -3.575  1.00  0.00     0.058 A 
ATOM     42  C   UNL     1       4.827 -10.771  -4.111  1.00  0.00     0.135 A 
ATOM     43  C   UNL     1       2.771 -10.287  -2.996  1.00  0.00     0.135 A 
ATOM     44  F   UNL     1       5.989 -10.417  -4.684  1.00  0.00    -0.206 F 
ATOM     45  C   UNL     1       4.491 -12.125  -4.151  1.00  0.00     0.059 A 
ATOM     46  C   UNL     1       2.441 -11.636  -2.979  1.00  0.00     0.059 A 
ATOM     47  F   UNL     1       1.823  -9.477  -2.510  1.00  0.00    -0.206 F 
ATOM     48  C   UNL     1       3.283 -12.543  -3.602  1.00  0.00     0.060 A 
BRANCH  48  49
ATOM     49  S   UNL     1       2.781 -14.264  -3.771  1.00  0.00     0.124 S 
ATOM     50  O   UNL     1       2.528 -14.351  -5.205  1.00  0.00    -0.237 OA
ATOM     51  O   UNL     1       3.960 -14.972  -3.284  1.00  0.00    -0.237 OA
ATOM     52  O   UNL     1       1.603 -14.355  -2.914  1.00  0.00    -0.744 OA
ENDBRANCH  48  49
ENDBRANCH  27  41
BRANCH  28  53
ATOM     53  C   UNL     1      -2.579  -6.263  -7.870  1.00  0.00     0.058 A 
ATOM     54  C   UNL     1      -3.009  -7.017  -8.974  1.00  0.00     0.135 A 
ATOM     55  C   UNL     1      -3.529  -6.068  -6.843  1.00  0.00     0.135 A 
ATOM     56  F   UNL     1      -2.164  -7.274  -9.984  1.00  0.00    -0.206 F 
ATOM     57  C   UNL     1      -4.290  -7.579  -9.039  1.00  0.00     0.059 A 
ATOM     58  C   UNL     1      -4.812  -6.607  -6.891  1.00  0.00     0.059 A 
ATOM     59  F   UNL     1      -3.207  -5.420  -5.713  1.00  0.00    -0.206 F 
ATOM     60  C   UNL     1      -5.179  -7.383  -7.982  1.00  0.00     0.060 A 
BRANCH  60  61
ATOM     61  S   UNL     1      -6.771  -8.241  -7.982  1.00  0.00     0.124 S 
ATOM     62  O   UNL     1      -7.483  -7.553  -9.054  1.00  0.00    -0.237 OA
ATOM     63  O   UNL     1      -6.378  -9.618  -8.259  1.00  0.00    -0.237 OA
ATOM     64  O   UNL     1      -7.286  -8.001  -6.637  1.00  0.00    -0.744 OA
ENDBRANCH  60  61
ENDBRANCH  28  53
BRANCH  40  65
ATOM     65  C   UNL     1       3.704  -5.564  -8.950  1.00  0.00     0.058 A 
ATOM     66  C   UNL     1       3.221  -4.258  -8.757  1.00  0.00     0.135 A 
ATOM     67  C   UNL     1       4.731  -5.737  -9.891  1.00  0.00     0.135 A 
ATOM     68  F   UNL     1       2.310  -3.993  -7.810  1.00  0.00    -0.206 F 
ATOM     69  C   UNL     1       3.731  -3.174  -9.476  1.00  0.00     0.059 A 
ATOM     70  C   UNL     1       5.274  -4.668 -10.598  1.00  0.00     0.059 A 
ATOM     71  F   UNL     1       5.275  -6.952 -10.075  1.00  0.00    -0.206 F 
ATOM     72  C   UNL     1       4.768  -3.388 -10.386  1.00  0.00     0.060 A 
BRANCH  72  73
ATOM     73  S   UNL     1       5.519  -1.967 -11.212  1.00  0.00     0.124 S 
ATOM     74  O   UNL     1       4.487  -1.583 -12.165  1.00  0.00    -0.237 OA
ATOM     75  O   UNL     1       5.745  -1.040 -10.108  1.00  0.00    -0.237 OA
ATOM     76  O   UNL     1       6.739  -2.523 -11.803  1.00  0.00    -0.744 OA
ENDBRANCH  72  73
ENDBRANCH  40  65
ENDBRANCH  14  15
ENDBRANCH   7   9
ENDBRANCH   6   7
ENDBRANCH   5   6
ENDBRANCH   4   5
ENDBRANCH   3   4
ENDBRANCH   2   3
ENDBRANCH   1   2
BRANCH   1  77
ATOM     77  O   UNL     1       2.936   0.395   2.966  1.00  0.00    -0.377 OA
BRANCH  77  78
ATOM     78  C   UNL     1       4.105   1.165   2.820  1.00  0.00     0.188 C 
BRANCH  78  79
ATOM     79  C   UNL     1       5.370   0.513   3.418  1.00  0.00     0.188 C 
BRANCH  79  80
ATOM     80  O   UNL     1       5.287  -0.695   4.159  1.00  0.00    -0.376 OA
BRANCH  80  81
ATOM     81  C   UNL     1       4.170  -0.919   5.003  1.00  0.00     0.202 C 
BRANCH  81  82
ATOM     82  C   UNL     1       3.861   0.120   6.089  1.00  0.00     0.261 C 
BRANCH  82  83
ATOM     83  O   UNL     1       3.797   1.496   5.649  1.00  0.00    -0.462 OA
BRANCH  83  84
ATOM     84  C   UNL     1       4.772   2.327   6.087  1.00  0.00     0.329 C 
ATOM     85  O   UNL     1       5.739   1.944   6.744  1.00  0.00    -0.250 OA
BRANCH  84  86
ATOM     86  C   UNL     1       4.723   3.764   5.511  1.00  0.00     0.201 C 
ATOM     87  C   UNL     1       5.818   3.844   4.378  1.00  0.00     0.093 C 
ATOM     88  N   UNL     1       3.546   4.681   5.213  1.00  0.00    -0.318 N 
ATOM     89  C   UNL     1       5.974   5.236   3.912  1.00  0.00     0.042 A 
ATOM     90  C   UNL     1       3.930   6.126   5.108  1.00  0.00     0.179 C 
ATOM     91  N   UNL     1       6.887   5.743   3.037  1.00  0.00    -0.348 N 
ATOM     92  C   UNL     1       5.123   6.266   4.219  1.00  0.00     0.081 A 
ATOM     93  C   UNL     1       6.578   7.068   2.878  1.00  0.00     0.197 A 
ATOM     94  H   UNL     1       7.624   5.253   2.604  1.00  0.00     0.167 HD
ATOM     95  N   UNL     1       5.528   7.416   3.594  1.00  0.00    -0.240 NA
BRANCH  88  96
ATOM     96  C   UNL     1       2.205   4.440   4.912  1.00  0.00     0.256 C 
ATOM     97  O   UNL     1       1.437   5.348   4.575  1.00  0.00    -0.269 OA
BRANCH  96  98
ATOM     98  C   UNL     1       1.528   3.145   5.004  1.00  0.00     0.061 A 
ATOM     99  C   UNL     1       0.902   2.685   3.837  1.00  0.00     0.035 A 
ATOM    100  C   UNL     1       1.220   2.545   6.222  1.00  0.00     0.072 A 
ATOM    101  C   UNL     1       0.061   1.588   3.921  1.00  0.00     0.112 A 
ATOM    102  C   UNL     1       0.380   1.438   6.195  1.00  0.00     0.132 A 
ATOM    103  Cl  UNL     1       1.802   3.118   7.739  1.00  0.00    -0.082 Cl
ATOM    104  N   UNL     1      -0.200   0.941   5.076  1.00  0.00    -0.263 NA
ENDBRANCH  96  98
ENDBRANCH  88  96
ENDBRANCH  84  86
ENDBRANCH  83  84
ENDBRANCH  82  83
ENDBRANCH  81  82
ENDBRANCH  80  81
ENDBRANCH  79  80
ENDBRANCH  78  79
ENDBRANCH  77  78
ENDBRANCH   1  77
TORSDOF 25
