REMARK SMILES Cc1ccc(C2=NN(C(=O)CCC(=O)OCCOCCOCCOCCOC(=O)c3ccc(-c4c5nc(c(-c6c(F)cc(S(=O)(=O)[O-])cc6F)c6ccc([nH]6)c(-c6c(F)cc(S(=O)(=O)[O-])cc6F)c6nc(c(-c7c(F)cc(S(=O)(=O)[O-])cc7F)c7ccc4[nH]7)C=C6)C=C5)cc3)[C@H](C[C@H]3C=c4cccc(C)c4=NC3=O)C2)cc1
REMARK SMILES IDX 20 1 19 2 18 3 17 4 16 5 15 6 13 7 14 8 12 9 11 10 9 11
REMARK SMILES IDX 10 12 8 13 6 14 7 15 110 16 96 17 5 18 1 19 2 20 3 21 112 22
REMARK SMILES IDX 4 23 111 24 97 25 98 26 99 27 108 28 100 29 107 30 109 31
REMARK SMILES IDX 101 32 106 33 102 34 104 35 103 36 105 37 21 38 22 39 23 40
REMARK SMILES IDX 24 41 25 42 26 43 27 44 28 45 29 46 30 47 31 48 95 49 32 50
REMARK SMILES IDX 94 51 33 52 34 53 35 54 88 55 36 56 93 57 87 58 89 59 37 60
REMARK SMILES IDX 92 61 86 62 85 63 38 65 72 66 51 67 71 68 52 69 55 70 70 71
REMARK SMILES IDX 90 72 53 73 54 74 69 76 91 77 56 78 39 79 40 80 49 81 41 82
REMARK SMILES IDX 42 83 48 84 50 85 43 86 44 87 45 88 46 89 47 90 73 91 74 92
REMARK SMILES IDX 83 93 75 94 76 95 82 96 84 97 77 98 78 99 79 100 80 101
REMARK SMILES IDX 81 102 57 103 58 104 67 105 59 106 60 107 66 108 68 109
REMARK SMILES IDX 61 110 62 111 63 112 64 113 65 114
REMARK H PARENT 89 64 55 75
REMARK Flexibility Score: inf
ROOT
ATOM      1  C   UNL     1      -7.770  -0.498  -0.494  1.00  0.00     0.188 C 
ENDROOT
BRANCH   1   2
ATOM      2  C   UNL     1      -9.059   0.074  -1.386  1.00  0.00     0.188 C 
BRANCH   2   3
ATOM      3  O   UNL     1      -8.959   0.868  -2.573  1.00  0.00    -0.376 OA
BRANCH   3   4
ATOM      4  C   UNL     1      -8.259   2.090  -2.444  1.00  0.00     0.202 C 
BRANCH   4   5
ATOM      5  C   UNL     1      -8.582   2.938  -1.253  1.00  0.00     0.261 C 
BRANCH   5   6
ATOM      6  O   UNL     1      -8.202   2.152  -0.102  1.00  0.00    -0.463 OA
BRANCH   6   7
ATOM      7  C   UNL     1      -8.914   2.044   1.011  1.00  0.00     0.306 C 
ATOM      8  O   UNL     1      -9.962   2.654   1.191  1.00  0.00    -0.252 OA
BRANCH   7   9
ATOM      9  C   UNL     1      -8.382   0.956   1.998  1.00  0.00     0.132 C 
BRANCH   9  10
ATOM     10  C   UNL     1      -7.177  -0.153   2.163  1.00  0.00     0.114 C 
BRANCH  10  11
ATOM     11  C   UNL     1      -5.847  -1.221   1.692  1.00  0.00     0.243 C 
ATOM     12  O   UNL     1      -5.913  -2.255   2.402  1.00  0.00    -0.273 OA
BRANCH  11  13
ATOM     13  N   UNL     1      -4.699  -1.067   0.611  1.00  0.00    -0.230 N 
ATOM     14  C   UNL     1      -1.803  -0.650  -0.332  1.00  0.00     0.070 C 
ATOM     15  N   UNL     1      -2.652  -1.186   0.908  1.00  0.00    -0.174 NA
ATOM     16  C   UNL     1      -3.005  -0.086  -1.831  1.00  0.00     0.086 C 
ATOM     17  C   UNL     1      -4.926  -0.510  -1.288  1.00  0.00     0.118 C 
BRANCH  14  18
ATOM     18  C   UNL     1      -0.402  -0.397  -0.262  1.00  0.00    -0.002 A 
ATOM     19  C   UNL     1       3.753   0.182   0.034  1.00  0.00     0.044 C 
ATOM     20  C   UNL     1       2.272   0.008   0.037  1.00  0.00    -0.051 A 
ATOM     21  C   UNL     1       1.754  -1.297   0.081  1.00  0.00     0.004 A 
ATOM     22  C   UNL     1       1.419   1.117  -0.069  1.00  0.00     0.004 A 
ATOM     23  C   UNL     1       0.398  -1.504  -0.050  1.00  0.00     0.010 A 
ATOM     24  C   UNL     1       0.059   0.915  -0.226  1.00  0.00     0.010 A 
ENDBRANCH  14  18
BRANCH  17  25
ATOM     25  C   UNL     1      -6.540  -0.963  -2.334  1.00  0.00     0.045 C 
BRANCH  25  26
ATOM     26  C   UNL     1      -8.018  -2.306  -1.987  1.00  0.00     0.106 C 
ATOM     27  C   UNL     1      -8.362  -2.883  -0.407  1.00  0.00    -0.003 C 
ATOM     28  C   UNL     1      -9.493  -2.584  -2.564  1.00  0.00     0.253 C 
ATOM     29  C   UNL     1      -9.410  -3.483   0.133  1.00  0.00    -0.003 A 
ATOM     30  N   UNL     1     -10.004  -3.865  -2.222  1.00  0.00    -0.212 NA
ATOM     31  O   UNL     1     -10.079  -1.867  -3.364  1.00  0.00    -0.272 OA
ATOM     32  C   UNL     1      -9.236  -3.952   1.502  1.00  0.00     0.010 A 
ATOM     33  C   UNL     1      -9.869  -4.291  -0.993  1.00  0.00     0.077 A 
ATOM     34  C   UNL     1      -9.225  -5.267   1.732  1.00  0.00     0.001 A 
ATOM     35  C   UNL     1      -9.887  -5.756  -0.597  1.00  0.00    -0.025 A 
ATOM     36  C   UNL     1      -9.547  -6.168   0.649  1.00  0.00     0.005 A 
ATOM     37  C   UNL     1     -10.036  -6.698  -1.730  1.00  0.00     0.047 C 
ENDBRANCH  25  26
ENDBRANCH  17  25
ENDBRANCH  11  13
ENDBRANCH  10  11
ENDBRANCH   9  10
ENDBRANCH   7   9
ENDBRANCH   6   7
ENDBRANCH   5   6
ENDBRANCH   4   5
ENDBRANCH   3   4
ENDBRANCH   2   3
ENDBRANCH   1   2
BRANCH   1  38
ATOM     38  O   UNL     1      -6.535  -1.700  -0.500  1.00  0.00    -0.377 OA
BRANCH  38  39
ATOM     39  C   UNL     1      -5.915  -2.991  -1.489  1.00  0.00     0.188 C 
BRANCH  39  40
ATOM     40  C   UNL     1      -5.719  -3.183  -3.173  1.00  0.00     0.188 C 
BRANCH  40  41
ATOM     41  O   UNL     1      -6.653  -2.497  -4.048  1.00  0.00    -0.376 OA
BRANCH  41  42
ATOM     42  C   UNL     1      -7.536  -2.997  -4.996  1.00  0.00     0.202 C 
BRANCH  42  43
ATOM     43  C   UNL     1      -6.791  -4.036  -5.702  1.00  0.00     0.261 C 
BRANCH  43  44
ATOM     44  O   UNL     1      -5.593  -3.434  -6.348  1.00  0.00    -0.460 OA
BRANCH  44  45
ATOM     45  C   UNL     1      -4.702  -2.380  -6.237  1.00  0.00     0.338 C 
ATOM     46  O   UNL     1      -3.623  -2.580  -6.808  1.00  0.00    -0.246 OA
BRANCH  45  47
ATOM     47  C   UNL     1      -4.776  -0.977  -5.530  1.00  0.00     0.060 A 
ATOM     48  C   UNL     1      -3.631  -0.348  -5.000  1.00  0.00     0.016 A 
ATOM     49  C   UNL     1      -5.864  -0.125  -5.426  1.00  0.00     0.016 A 
ATOM     50  C   UNL     1      -3.669   0.873  -4.151  1.00  0.00     0.010 A 
ATOM     51  C   UNL     1      -5.896   0.981  -4.455  1.00  0.00     0.010 A 
ATOM     52  C   UNL     1      -4.851   1.363  -3.555  1.00  0.00    -0.014 A 
BRANCH  52  53
ATOM     53  C   UNL     1      -5.128   2.505  -2.232  1.00  0.00     0.031 A 
ATOM     54  C   UNL     1      -5.435   3.773  -3.008  1.00  0.00     0.074 A 
ATOM     55  C   UNL     1      -5.423   2.484  -0.728  1.00  0.00     0.049 A 
ATOM     56  N   UNL     1      -5.947   4.809  -2.481  1.00  0.00    -0.248 NA
ATOM     57  C   UNL     1      -5.470   3.896  -4.478  1.00  0.00     0.031 C 
ATOM     58  C   UNL     1      -6.088   3.397   0.288  1.00  0.00     0.029 A 
ATOM     59  N   UNL     1      -5.351   1.552   0.348  1.00  0.00    -0.354 N 
ATOM     60  C   UNL     1      -6.827   5.367  -3.394  1.00  0.00     0.074 A 
ATOM     61  C   UNL     1      -6.418   4.825  -4.661  1.00  0.00     0.031 C 
ATOM     62  C   UNL     1      -5.985   3.100   1.627  1.00  0.00     0.029 A 
ATOM     63  C   UNL     1      -5.165   1.955   1.684  1.00  0.00     0.049 A 
ATOM     64  H   UNL     1      -5.434   0.591   0.150  1.00  0.00     0.167 HD
ATOM     65  C   UNL     1      -7.874   6.080  -2.874  1.00  0.00     0.037 A 
ATOM     66  C   UNL     1      -3.943   1.806   2.288  1.00  0.00     0.037 A 
ATOM     67  C   UNL     1      -7.696   6.220  -1.387  1.00  0.00     0.049 A 
ATOM     68  C   UNL     1      -3.323   3.233   1.875  1.00  0.00     0.074 A 
ATOM     69  C   UNL     1      -8.462   6.024  -0.250  1.00  0.00     0.029 A 
ATOM     70  N   UNL     1      -6.395   6.393  -0.892  1.00  0.00    -0.354 N 
ATOM     71  N   UNL     1      -3.775   3.977   0.870  1.00  0.00    -0.248 NA
ATOM     72  C   UNL     1      -2.446   4.066   2.698  1.00  0.00     0.031 C 
ATOM     73  C   UNL     1      -7.568   6.005   0.895  1.00  0.00     0.029 A 
ATOM     74  C   UNL     1      -6.235   6.114   0.454  1.00  0.00     0.049 A 
ATOM     75  H   UNL     1      -5.649   6.692  -1.461  1.00  0.00     0.167 HD
ATOM     76  C   UNL     1      -3.849   5.297   1.267  1.00  0.00     0.074 A 
ATOM     77  C   UNL     1      -2.688   5.291   2.170  1.00  0.00     0.031 C 
ATOM     78  C   UNL     1      -4.872   6.253   1.058  1.00  0.00     0.037 A 
BRANCH  65  79
ATOM     79  C   UNL     1      -9.133   6.558  -3.617  1.00  0.00     0.058 A 
ATOM     80  C   UNL     1     -10.028   7.414  -2.936  1.00  0.00     0.135 A 
ATOM     81  C   UNL     1      -9.557   6.237  -4.934  1.00  0.00     0.135 A 
ATOM     82  F   UNL     1      -9.781   7.828  -1.688  1.00  0.00    -0.206 F 
ATOM     83  C   UNL     1     -11.205   7.922  -3.490  1.00  0.00     0.059 A 
ATOM     84  C   UNL     1     -10.721   6.777  -5.534  1.00  0.00     0.059 A 
ATOM     85  F   UNL     1      -8.875   5.375  -5.701  1.00  0.00    -0.206 F 
ATOM     86  C   UNL     1     -11.535   7.631  -4.801  1.00  0.00     0.060 A 
BRANCH  86  87
ATOM     87  S   UNL     1     -12.978   8.467  -5.502  1.00  0.00     0.124 S 
ATOM     88  O   UNL     1     -14.071   7.914  -4.708  1.00  0.00    -0.237 OA
ATOM     89  O   UNL     1     -12.665   9.871  -5.251  1.00  0.00    -0.237 OA
ATOM     90  O   UNL     1     -12.960   8.069  -6.906  1.00  0.00    -0.744 OA
ENDBRANCH  86  87
ENDBRANCH  65  79
BRANCH  66  91
ATOM     91  C   UNL     1      -3.514   0.367   1.916  1.00  0.00     0.058 A 
ATOM     92  C   UNL     1      -3.533  -1.195   2.739  1.00  0.00     0.135 A 
ATOM     93  C   UNL     1      -3.467   0.228   0.190  1.00  0.00     0.135 A 
ATOM     94  F   UNL     1      -3.666  -1.227   4.078  1.00  0.00    -0.206 F 
ATOM     95  C   UNL     1      -3.471  -2.802   1.952  1.00  0.00     0.059 A 
ATOM     96  C   UNL     1      -3.443  -1.648  -0.636  1.00  0.00     0.059 A 
ATOM     97  F   UNL     1      -2.998   1.402  -0.300  1.00  0.00    -0.206 F 
ATOM     98  C   UNL     1      -3.433  -3.025   0.304  1.00  0.00     0.060 A 
BRANCH  98  99
ATOM     99  S   UNL     1      -2.823  -4.461  -0.690  1.00  0.00     0.124 S 
ATOM    100  O   UNL     1      -1.713  -4.977   0.094  1.00  0.00    -0.237 OA
ATOM    101  O   UNL     1      -4.000  -5.313  -0.828  1.00  0.00    -0.237 OA
ATOM    102  O   UNL     1      -2.415  -3.857  -1.967  1.00  0.00    -0.744 OA
ENDBRANCH  98  99
ENDBRANCH  66  91
BRANCH  78 103
ATOM    103  C   UNL     1      -4.620   7.691   1.359  1.00  0.00     0.058 A 
ATOM    104  C   UNL     1      -3.856   8.094   2.436  1.00  0.00     0.135 A 
ATOM    105  C   UNL     1      -5.124   8.720   0.517  1.00  0.00     0.135 A 
ATOM    106  F   UNL     1      -3.630   7.280   3.477  1.00  0.00    -0.206 F 
ATOM    107  C   UNL     1      -3.322   9.361   2.470  1.00  0.00     0.059 A 
ATOM    108  C   UNL     1      -4.689  10.010   0.587  1.00  0.00     0.059 A 
ATOM    109  F   UNL     1      -6.073   8.559  -0.411  1.00  0.00    -0.206 F 
ATOM    110  C   UNL     1      -3.727  10.299   1.522  1.00  0.00     0.060 A 
BRANCH 110 111
ATOM    111  S   UNL     1      -3.076  11.947   1.605  1.00  0.00     0.124 S 
ATOM    112  O   UNL     1      -3.220  12.237   3.028  1.00  0.00    -0.237 OA
ATOM    113  O   UNL     1      -1.716  11.738   1.123  1.00  0.00    -0.237 OA
ATOM    114  O   UNL     1      -3.953  12.706   0.719  1.00  0.00    -0.744 OA
ENDBRANCH 110 111
ENDBRANCH  78 103
ENDBRANCH  52  53
ENDBRANCH  45  47
ENDBRANCH  44  45
ENDBRANCH  43  44
ENDBRANCH  42  43
ENDBRANCH  41  42
ENDBRANCH  40  41
ENDBRANCH  39  40
ENDBRANCH  38  39
ENDBRANCH   1  38
TORSDOF 29
