REMARK SMILES C[C@H](CCC(=O)OCCOCCOCCOCCOC(=O)c1ccc(-c2c3nc(c(-c4c(F)cc(S(=O)(=O)[O-])cc4F)c4ccc([nH]4)c(-c4c(F)cc(S(=O)(=O)[O-])cc4F)c4nc(c(-c5c(F)cc(S(=O)(=O)[O-])cc5F)c5ccc2[nH]5)C=C4)C=C3)cc1)NC(=O)OC(C)(C)C
REMARK SMILES IDX 12 1 11 2 10 3 9 4 8 5 7 6 5 7 6 8 4 9 3 10 2 11 1 12 88 13
REMARK SMILES IDX 89 14 90 16 91 17 92 18 93 19 94 20 95 21 13 22 14 23 15 24
REMARK SMILES IDX 16 25 17 26 18 27 19 28 20 29 21 30 22 31 23 32 87 33 24 34
REMARK SMILES IDX 86 35 25 36 26 37 27 38 80 39 28 40 85 41 79 42 81 43 29 44
REMARK SMILES IDX 84 45 78 46 77 47 30 49 64 50 43 51 63 52 44 53 47 54 62 55
REMARK SMILES IDX 82 56 45 57 46 58 61 60 83 61 48 62 31 63 32 64 41 65 33 66
REMARK SMILES IDX 34 67 40 68 42 69 35 70 36 71 37 72 38 73 39 74 65 75 66 76
REMARK SMILES IDX 75 77 67 78 68 79 74 80 76 81 69 82 70 83 71 84 72 85 73 86
REMARK SMILES IDX 49 87 50 88 59 89 51 90 52 91 58 92 60 93 53 94 54 95 55 96
REMARK SMILES IDX 56 97 57 98
REMARK H PARENT 88 15 81 48 47 59
REMARK Flexibility Score: inf
ROOT
ATOM      1  C   UNL     1       2.770   1.817  -1.663  1.00  0.00     0.188 C 
ENDROOT
BRANCH   1   2
ATOM      2  C   UNL     1       2.556   2.889  -2.736  1.00  0.00     0.188 C 
BRANCH   2   3
ATOM      3  O   UNL     1       2.500   4.200  -2.231  1.00  0.00    -0.376 OA
BRANCH   3   4
ATOM      4  C   UNL     1       1.288   4.883  -1.999  1.00  0.00     0.202 C 
BRANCH   4   5
ATOM      5  C   UNL     1       0.044   4.230  -1.373  1.00  0.00     0.261 C 
BRANCH   5   6
ATOM      6  O   UNL     1       0.135   2.841  -1.031  1.00  0.00    -0.463 OA
BRANCH   6   7
ATOM      7  C   UNL     1      -0.687   2.001  -1.697  1.00  0.00     0.305 C 
ATOM      8  O   UNL     1      -1.407   2.341  -2.631  1.00  0.00    -0.252 OA
BRANCH   7   9
ATOM      9  C   UNL     1      -0.601   0.546  -1.272  1.00  0.00     0.125 C 
BRANCH   9  10
ATOM     10  C   UNL     1       0.168   0.038  -0.045  1.00  0.00     0.036 C 
BRANCH  10  11
ATOM     11  C   UNL     1      -0.126   0.608   1.344  1.00  0.00     0.083 C 
ATOM     12  C   UNL     1       0.659   1.838   1.778  1.00  0.00     0.031 C 
BRANCH  11  13
ATOM     13  N   UNL     1      -1.549   0.784   1.535  1.00  0.00    -0.319 N 
ATOM     14  C   UNL     1      -2.278   0.209   2.528  1.00  0.00     0.407 C 
ATOM     15  H   UNL     1      -2.025   1.365   0.898  1.00  0.00     0.167 HD
ATOM     16  O   UNL     1      -3.501   0.282   2.539  1.00  0.00    -0.225 OA
BRANCH  14  17
ATOM     17  O   UNL     1      -1.499  -0.417   3.433  1.00  0.00    -0.444 OA
BRANCH  17  18
ATOM     18  C   UNL     1      -2.064  -1.060   4.594  1.00  0.00     0.106 C 
ATOM     19  C   UNL     1      -2.865  -0.069   5.442  1.00  0.00     0.056 C 
ATOM     20  C   UNL     1      -2.881  -2.283   4.172  1.00  0.00     0.056 C 
ATOM     21  C   UNL     1      -0.847  -1.530   5.407  1.00  0.00     0.056 C 
ENDBRANCH  17  18
ENDBRANCH  14  17
ENDBRANCH  11  13
ENDBRANCH  10  11
ENDBRANCH   9  10
ENDBRANCH   7   9
ENDBRANCH   6   7
ENDBRANCH   5   6
ENDBRANCH   4   5
ENDBRANCH   3   4
ENDBRANCH   2   3
ENDBRANCH   1   2
BRANCH   1  22
ATOM     22  O   UNL     1       3.487   2.030  -0.463  1.00  0.00    -0.377 OA
BRANCH  22  23
ATOM     23  C   UNL     1       3.603   3.333   0.073  1.00  0.00     0.188 C 
BRANCH  23  24
ATOM     24  C   UNL     1       4.776   4.151  -0.502  1.00  0.00     0.188 C 
BRANCH  24  25
ATOM     25  O   UNL     1       5.915   3.519  -1.079  1.00  0.00    -0.376 OA
BRANCH  25  26
ATOM     26  C   UNL     1       6.194   2.154  -0.832  1.00  0.00     0.202 C 
BRANCH  26  27
ATOM     27  C   UNL     1       6.546   1.699   0.593  1.00  0.00     0.261 C 
BRANCH  27  28
ATOM     28  O   UNL     1       5.906   2.391   1.670  1.00  0.00    -0.460 OA
BRANCH  28  29
ATOM     29  C   UNL     1       6.552   3.501   2.099  1.00  0.00     0.338 C 
ATOM     30  O   UNL     1       7.592   3.963   1.665  1.00  0.00    -0.246 OA
BRANCH  29  31
ATOM     31  C   UNL     1       5.739   4.165   3.137  1.00  0.00     0.060 A 
ATOM     32  C   UNL     1       5.343   5.492   2.931  1.00  0.00     0.016 A 
ATOM     33  C   UNL     1       5.447   3.516   4.338  1.00  0.00     0.016 A 
ATOM     34  C   UNL     1       4.683   6.189   3.940  1.00  0.00     0.010 A 
ATOM     35  C   UNL     1       4.808   4.224   5.360  1.00  0.00     0.010 A 
ATOM     36  C   UNL     1       4.460   5.574   5.177  1.00  0.00    -0.014 A 
BRANCH  36  37
ATOM     37  C   UNL     1       4.047   6.406   6.332  1.00  0.00     0.031 A 
ATOM     38  C   UNL     1       5.101   6.847   7.311  1.00  0.00     0.074 A 
ATOM     39  C   UNL     1       2.769   6.794   6.482  1.00  0.00     0.049 A 
ATOM     40  N   UNL     1       4.974   7.536   8.414  1.00  0.00    -0.248 NA
ATOM     41  C   UNL     1       6.487   6.455   7.002  1.00  0.00     0.031 C 
ATOM     42  C   UNL     1       1.676   6.472   5.566  1.00  0.00     0.029 A 
ATOM     43  N   UNL     1       2.175   7.541   7.468  1.00  0.00    -0.354 N 
ATOM     44  C   UNL     1       6.257   7.650   8.937  1.00  0.00     0.074 A 
ATOM     45  C   UNL     1       7.144   6.934   8.048  1.00  0.00     0.031 C 
ATOM     46  C   UNL     1       0.538   7.008   6.041  1.00  0.00     0.029 A 
ATOM     47  C   UNL     1       0.816   7.676   7.311  1.00  0.00     0.049 A 
ATOM     48  H   UNL     1       2.674   7.942   8.215  1.00  0.00     0.167 HD
ATOM     49  C   UNL     1       6.658   8.301  10.055  1.00  0.00     0.037 A 
ATOM     50  C   UNL     1      -0.099   8.248   8.119  1.00  0.00     0.037 A 
ATOM     51  C   UNL     1       5.762   9.010  10.932  1.00  0.00     0.049 A 
ATOM     52  C   UNL     1       0.359   8.898   9.400  1.00  0.00     0.074 A 
ATOM     53  C   UNL     1       6.064   9.715  12.083  1.00  0.00     0.029 A 
ATOM     54  N   UNL     1       4.387   9.094  10.761  1.00  0.00    -0.354 N 
ATOM     55  N   UNL     1       1.576   9.016   9.877  1.00  0.00    -0.248 NA
ATOM     56  C   UNL     1      -0.679   9.496  10.251  1.00  0.00     0.031 C 
ATOM     57  C   UNL     1       4.867  10.171  12.642  1.00  0.00     0.029 A 
ATOM     58  C   UNL     1       3.823   9.812  11.803  1.00  0.00     0.049 A 
ATOM     59  H   UNL     1       3.887   8.702  10.010  1.00  0.00     0.167 HD
ATOM     60  C   UNL     1       1.453   9.726  11.068  1.00  0.00     0.074 A 
ATOM     61  C   UNL     1       0.044  10.022  11.229  1.00  0.00     0.031 C 
ATOM     62  C   UNL     1       2.417  10.101  11.946  1.00  0.00     0.037 A 
BRANCH  49  63
ATOM     63  C   UNL     1       8.119   8.243  10.413  1.00  0.00     0.058 A 
ATOM     64  C   UNL     1       9.100   8.903   9.655  1.00  0.00     0.135 A 
ATOM     65  C   UNL     1       8.542   7.538  11.552  1.00  0.00     0.135 A 
ATOM     66  F   UNL     1       8.757   9.577   8.545  1.00  0.00    -0.206 F 
ATOM     67  C   UNL     1      10.448   8.843   9.996  1.00  0.00     0.059 A 
ATOM     68  C   UNL     1       9.880   7.490  11.930  1.00  0.00     0.059 A 
ATOM     69  F   UNL     1       7.649   6.884  12.312  1.00  0.00    -0.206 F 
ATOM     70  C   UNL     1      10.828   8.135  11.137  1.00  0.00     0.060 A 
BRANCH  70  71
ATOM     71  S   UNL     1      12.579   8.072  11.570  1.00  0.00     0.124 S 
ATOM     72  O   UNL     1      13.111   7.216  10.514  1.00  0.00    -0.237 OA
ATOM     73  O   UNL     1      12.966   9.478  11.500  1.00  0.00    -0.237 OA
ATOM     74  O   UNL     1      12.580   7.490  12.908  1.00  0.00    -0.744 OA
ENDBRANCH  70  71
ENDBRANCH  49  63
BRANCH  50  75
ATOM     75  C   UNL     1      -1.540   8.217   7.749  1.00  0.00     0.058 A 
ATOM     76  C   UNL     1      -2.231   9.392   7.418  1.00  0.00     0.135 A 
ATOM     77  C   UNL     1      -2.256   7.009   7.715  1.00  0.00     0.135 A 
ATOM     78  F   UNL     1      -1.597  10.574   7.445  1.00  0.00    -0.206 F 
ATOM     79  C   UNL     1      -3.581   9.374   7.080  1.00  0.00     0.059 A 
ATOM     80  C   UNL     1      -3.597   6.961   7.351  1.00  0.00     0.059 A 
ATOM     81  F   UNL     1      -1.641   5.854   8.015  1.00  0.00    -0.206 F 
ATOM     82  C   UNL     1      -4.254   8.151   7.043  1.00  0.00     0.060 A 
BRANCH  82  83
ATOM     83  S   UNL     1      -5.991   8.136   6.550  1.00  0.00     0.124 S 
ATOM     84  O   UNL     1      -6.628   8.774   7.696  1.00  0.00    -0.237 OA
ATOM     85  O   UNL     1      -5.962   8.918   5.318  1.00  0.00    -0.237 OA
ATOM     86  O   UNL     1      -6.278   6.716   6.376  1.00  0.00    -0.744 OA
ENDBRANCH  82  83
ENDBRANCH  50  75
BRANCH  62  87
ATOM     87  C   UNL     1       1.991  10.907  13.146  1.00  0.00     0.058 A 
ATOM     88  C   UNL     1       1.252  10.341  14.196  1.00  0.00     0.135 A 
ATOM     89  C   UNL     1       2.378  12.252  13.270  1.00  0.00     0.135 A 
ATOM     90  F   UNL     1       0.851   9.061  14.128  1.00  0.00    -0.206 F 
ATOM     91  C   UNL     1       0.889  11.086  15.314  1.00  0.00     0.059 A 
ATOM     92  C   UNL     1       2.056  13.006  14.393  1.00  0.00     0.059 A 
ATOM     93  F   UNL     1       3.096  12.841  12.300  1.00  0.00    -0.206 F 
ATOM     94  C   UNL     1       1.300  12.417  15.405  1.00  0.00     0.060 A 
BRANCH  94  95
ATOM     95  S   UNL     1       0.851  13.361  16.877  1.00  0.00     0.124 S 
ATOM     96  O   UNL     1      -0.584  13.544  16.683  1.00  0.00    -0.237 OA
ATOM     97  O   UNL     1       1.234  12.455  17.956  1.00  0.00    -0.237 OA
ATOM     98  O   UNL     1       1.659  14.572  16.766  1.00  0.00    -0.744 OA
ENDBRANCH  94  95
ENDBRANCH  62  87
ENDBRANCH  36  37
ENDBRANCH  29  31
ENDBRANCH  28  29
ENDBRANCH  27  28
ENDBRANCH  26  27
ENDBRANCH  25  26
ENDBRANCH  24  25
ENDBRANCH  23  24
ENDBRANCH  22  23
ENDBRANCH   1  22
TORSDOF 28
