REMARK SMILES C[C@@H]1Cc2cc(C(=O)NC3(C(=O)OCCOCCOCCOCCOC(=O)c4ccc(-c5c6nc(c(-c7c(F)cc(S(=O)(=O)[O-])cc7F)c7ccc([nH]7)c(-c7c(F)cc(S(=O)(=O)[O-])cc7F)c7nc(c(-c8c(F)cc(S(=O)(=O)[O-])cc8F)c8ccc5[nH]8)C=C7)C=C6)cc4)CCCCC3)ccc2N1S(C)(=O)=O
REMARK SMILES IDX 19 1 18 2 17 3 16 4 15 5 14 6 13 7 11 8 12 9 10 10 94 11
REMARK SMILES IDX 98 12 95 13 97 14 96 15 9 16 7 17 8 18 6 20 1 21 2 22 3 23
REMARK SMILES IDX 102 24 4 25 101 26 5 27 100 28 99 29 103 30 104 31 105 32
REMARK SMILES IDX 106 33 20 34 21 35 22 36 23 37 24 38 25 39 26 40 27 41 28 42
REMARK SMILES IDX 29 43 93 44 30 45 92 46 31 47 32 48 33 49 86 50 34 51 91 52
REMARK SMILES IDX 85 53 87 54 35 55 90 56 84 57 83 58 36 60 70 61 49 62 69 63
REMARK SMILES IDX 50 64 53 65 68 66 88 67 51 68 52 69 67 71 89 72 54 73 37 74
REMARK SMILES IDX 38 75 47 76 39 77 40 78 46 79 48 80 41 81 42 82 43 83 44 84
REMARK SMILES IDX 45 85 71 86 72 87 81 88 73 89 74 90 80 91 82 92 75 93 76 94
REMARK SMILES IDX 77 95 78 96 79 97 55 98 56 99 65 100 57 101 58 102 64 103
REMARK SMILES IDX 66 104 59 105 60 106 61 107 62 108 63 109
REMARK H PARENT 9 19 87 59 53 70
REMARK Flexibility Score: inf
ROOT
ATOM      1  O   UNL     1       4.923   6.484   0.367  1.00  0.00    -0.377 OA
ENDROOT
BRANCH   1   2
ATOM      2  C   UNL     1       3.941   6.377  -0.642  1.00  0.00     0.188 C 
BRANCH   2   3
ATOM      3  C   UNL     1       4.186   7.248  -1.883  1.00  0.00     0.188 C 
BRANCH   3   4
ATOM      4  O   UNL     1       5.472   7.787  -2.143  1.00  0.00    -0.376 OA
BRANCH   4   5
ATOM      5  C   UNL     1       6.191   8.498  -1.141  1.00  0.00     0.202 C 
BRANCH   5   6
ATOM      6  C   UNL     1       5.516   9.531  -0.224  1.00  0.00     0.261 C 
BRANCH   6   7
ATOM      7  O   UNL     1       4.449   9.044   0.607  1.00  0.00    -0.461 OA
BRANCH   7   8
ATOM      8  C   UNL     1       3.187   9.411   0.277  1.00  0.00     0.331 C 
ATOM      9  O   UNL     1       2.902  10.085  -0.712  1.00  0.00    -0.249 OA
BRANCH   8  10
ATOM     10  C   UNL     1       2.110   8.946   1.300  1.00  0.00     0.138 C 
ATOM     11  C   UNL     1       1.622  10.274   1.954  1.00  0.00     0.040 C 
ATOM     12  C   UNL     1       2.555   8.016   2.409  1.00  0.00     0.040 C 
ATOM     13  C   UNL     1       2.585  10.808   3.028  1.00  0.00     0.003 C 
ATOM     14  C   UNL     1       3.455   8.527   3.513  1.00  0.00     0.003 C 
ATOM     15  C   UNL     1       2.849   9.778   4.119  1.00  0.00     0.000 C 
BRANCH  10  16
ATOM     16  N   UNL     1       0.946   8.341   0.506  1.00  0.00    -0.336 N 
ATOM     17  C   UNL     1       0.352   7.137   0.161  1.00  0.00     0.252 C 
ATOM     18  O   UNL     1      -0.469   7.225  -0.764  1.00  0.00    -0.269 OA
ATOM     19  H   UNL     1       0.434   9.073   0.092  1.00  0.00     0.165 HD
BRANCH  17  20
ATOM     20  C   UNL     1       0.571   5.736   0.703  1.00  0.00     0.040 A 
ATOM     21  C   UNL     1       1.054  -0.174   0.020  1.00  0.00     0.032 C 
ATOM     22  C   UNL     1       0.338   0.949   0.759  1.00  0.00     0.101 C 
ATOM     23  C   UNL     1      -0.196   2.043  -0.216  1.00  0.00     0.063 C 
ATOM     24  N   UNL     1       1.273   1.668   1.672  1.00  0.00    -0.267 N 
ATOM     25  C   UNL     1       0.308   3.324   0.379  1.00  0.00    -0.021 A 
ATOM     26  C   UNL     1       1.040   3.062   1.527  1.00  0.00     0.055 A 
ATOM     27  C   UNL     1       0.103   4.641  -0.063  1.00  0.00     0.019 A 
ATOM     28  C   UNL     1       1.474   4.095   2.310  1.00  0.00     0.028 A 
ATOM     29  C   UNL     1       1.133   5.400   1.936  1.00  0.00     0.016 A 
BRANCH  24  30
ATOM     30  S   UNL     1       1.749   0.980   3.131  1.00  0.00     0.232 S 
ATOM     31  C   UNL     1       3.508   1.232   3.047  1.00  0.00     0.183 C 
ATOM     32  O   UNL     1       1.227   1.754   4.237  1.00  0.00    -0.207 OA
ATOM     33  O   UNL     1       1.533  -0.450   3.061  1.00  0.00    -0.207 OA
ENDBRANCH  24  30
ENDBRANCH  17  20
ENDBRANCH  10  16
ENDBRANCH   8  10
ENDBRANCH   7   8
ENDBRANCH   6   7
ENDBRANCH   5   6
ENDBRANCH   4   5
ENDBRANCH   3   4
ENDBRANCH   2   3
ENDBRANCH   1   2
BRANCH   1  34
ATOM     34  C   UNL     1       5.972   5.525   0.386  1.00  0.00     0.188 C 
BRANCH  34  35
ATOM     35  C   UNL     1       6.440   4.913  -0.948  1.00  0.00     0.188 C 
BRANCH  35  36
ATOM     36  O   UNL     1       5.384   4.399  -1.750  1.00  0.00    -0.376 OA
BRANCH  36  37
ATOM     37  C   UNL     1       5.086   3.013  -1.667  1.00  0.00     0.202 C 
BRANCH  37  38
ATOM     38  C   UNL     1       4.572   2.479  -0.323  1.00  0.00     0.261 C 
BRANCH  38  39
ATOM     39  O   UNL     1       5.454   2.601   0.805  1.00  0.00    -0.460 OA
BRANCH  39  40
ATOM     40  C   UNL     1       6.695   2.075   0.734  1.00  0.00     0.338 C 
ATOM     41  O   UNL     1       7.164   1.420  -0.179  1.00  0.00    -0.246 OA
BRANCH  40  42
ATOM     42  C   UNL     1       7.448   2.602   1.896  1.00  0.00     0.060 A 
ATOM     43  C   UNL     1       6.991   2.355   3.191  1.00  0.00     0.016 A 
ATOM     44  C   UNL     1       8.591   3.383   1.692  1.00  0.00     0.016 A 
ATOM     45  C   UNL     1       7.677   2.886   4.284  1.00  0.00     0.010 A 
ATOM     46  C   UNL     1       9.290   3.900   2.790  1.00  0.00     0.010 A 
ATOM     47  C   UNL     1       8.851   3.635   4.095  1.00  0.00    -0.014 A 
BRANCH  47  48
ATOM     48  C   UNL     1       9.703   3.956   5.270  1.00  0.00     0.031 A 
ATOM     49  C   UNL     1       9.844   5.351   5.803  1.00  0.00     0.074 A 
ATOM     50  C   UNL     1      10.353   2.935   5.863  1.00  0.00     0.049 A 
ATOM     51  N   UNL     1      10.500   5.759   6.860  1.00  0.00    -0.248 NA
ATOM     52  C   UNL     1       9.175   6.427   5.059  1.00  0.00     0.031 C 
ATOM     53  C   UNL     1      10.309   1.542   5.409  1.00  0.00     0.029 A 
ATOM     54  N   UNL     1      11.156   2.895   6.974  1.00  0.00    -0.354 N 
ATOM     55  C   UNL     1      10.313   7.134   6.923  1.00  0.00     0.074 A 
ATOM     56  C   UNL     1       9.518   7.497   5.767  1.00  0.00     0.031 C 
ATOM     57  C   UNL     1      11.011   0.779   6.259  1.00  0.00     0.029 A 
ATOM     58  C   UNL     1      11.595   1.631   7.289  1.00  0.00     0.049 A 
ATOM     59  H   UNL     1      11.395   3.695   7.495  1.00  0.00     0.167 HD
ATOM     60  C   UNL     1      10.751   8.003   7.867  1.00  0.00     0.037 A 
ATOM     61  C   UNL     1      12.383   1.199   8.293  1.00  0.00     0.037 A 
ATOM     62  C   UNL     1      11.555   7.626   9.006  1.00  0.00     0.049 A 
ATOM     63  C   UNL     1      12.894   2.192   9.296  1.00  0.00     0.074 A 
ATOM     64  C   UNL     1      12.023   8.432  10.031  1.00  0.00     0.029 A 
ATOM     65  N   UNL     1      12.020   6.345   9.267  1.00  0.00    -0.354 N 
ATOM     66  N   UNL     1      12.656   3.480   9.373  1.00  0.00    -0.248 NA
ATOM     67  C   UNL     1      13.781   1.679  10.348  1.00  0.00     0.031 C 
ATOM     68  C   UNL     1      12.816   7.651  10.877  1.00  0.00     0.029 A 
ATOM     69  C   UNL     1      12.796   6.345  10.417  1.00  0.00     0.049 A 
ATOM     70  H   UNL     1      11.828   5.551   8.716  1.00  0.00     0.167 HD
ATOM     71  C   UNL     1      13.351   3.928  10.489  1.00  0.00     0.074 A 
ATOM     72  C   UNL     1      14.001   2.770  11.069  1.00  0.00     0.031 C 
ATOM     73  C   UNL     1      13.444   5.187  10.985  1.00  0.00     0.037 A 
BRANCH  60  74
ATOM     74  C   UNL     1      10.372   9.454   7.726  1.00  0.00     0.058 A 
ATOM     75  C   UNL     1       9.054   9.890   7.933  1.00  0.00     0.135 A 
ATOM     76  C   UNL     1      11.348  10.431   7.464  1.00  0.00     0.135 A 
ATOM     77  F   UNL     1       8.078   9.001   8.178  1.00  0.00    -0.206 F 
ATOM     78  C   UNL     1       8.712  11.237   7.864  1.00  0.00     0.059 A 
ATOM     79  C   UNL     1      11.034  11.788   7.418  1.00  0.00     0.059 A 
ATOM     80  F   UNL     1      12.626  10.073   7.263  1.00  0.00    -0.206 F 
ATOM     81  C   UNL     1       9.710  12.179   7.609  1.00  0.00     0.060 A 
BRANCH  81  82
ATOM     82  S   UNL     1       9.243  13.921   7.527  1.00  0.00     0.124 S 
ATOM     83  O   UNL     1       8.427  13.946   6.317  1.00  0.00    -0.237 OA
ATOM     84  O   UNL     1       8.520  14.107   8.781  1.00  0.00    -0.237 OA
ATOM     85  O   UNL     1      10.523  14.616   7.433  1.00  0.00    -0.744 OA
ENDBRANCH  81  82
ENDBRANCH  60  74
BRANCH  61  86
ATOM     86  C   UNL     1      12.710  -0.248   8.399  1.00  0.00     0.058 A 
ATOM     87  C   UNL     1      12.195  -1.030   9.442  1.00  0.00     0.135 A 
ATOM     88  C   UNL     1      13.510  -0.886   7.436  1.00  0.00     0.135 A 
ATOM     89  F   UNL     1      11.430  -0.465  10.389  1.00  0.00    -0.206 F 
ATOM     90  C   UNL     1      12.466  -2.391   9.534  1.00  0.00     0.059 A 
ATOM     91  C   UNL     1      13.769  -2.251   7.489  1.00  0.00     0.059 A 
ATOM     92  F   UNL     1      14.012  -0.186   6.407  1.00  0.00    -0.206 F 
ATOM     93  C   UNL     1      13.248  -2.994   8.547  1.00  0.00     0.060 A 
BRANCH  93  94
ATOM     94  S   UNL     1      13.544  -4.772   8.648  1.00  0.00     0.124 S 
ATOM     95  O   UNL     1      14.401  -4.861   9.824  1.00  0.00    -0.237 OA
ATOM     96  O   UNL     1      12.190  -5.296   8.802  1.00  0.00    -0.237 OA
ATOM     97  O   UNL     1      14.187  -5.079   7.374  1.00  0.00    -0.744 OA
ENDBRANCH  93  94
ENDBRANCH  61  86
BRANCH  73  98
ATOM     98  C   UNL     1      14.275   5.388  12.223  1.00  0.00     0.058 A 
ATOM     99  C   UNL     1      15.676   5.316  12.186  1.00  0.00     0.135 A 
ATOM    100  C   UNL     1      13.670   5.732  13.443  1.00  0.00     0.135 A 
ATOM    101  F   UNL     1      16.306   4.981  11.048  1.00  0.00    -0.206 F 
ATOM    102  C   UNL     1      16.448   5.568  13.316  1.00  0.00     0.059 A 
ATOM    103  C   UNL     1      14.422   6.018  14.578  1.00  0.00     0.059 A 
ATOM    104  F   UNL     1      12.333   5.822  13.533  1.00  0.00    -0.206 F 
ATOM    105  C   UNL     1      15.812   5.928  14.505  1.00  0.00     0.060 A 
BRANCH 105 106
ATOM    106  S   UNL     1      16.832   6.306  15.946  1.00  0.00     0.124 S 
ATOM    107  O   UNL     1      17.379   4.994  16.274  1.00  0.00    -0.237 OA
ATOM    108  O   UNL     1      17.784   7.272  15.404  1.00  0.00    -0.237 OA
ATOM    109  O   UNL     1      15.878   6.847  16.909  1.00  0.00    -0.744 OA
ENDBRANCH 105 106
ENDBRANCH  73  98
ENDBRANCH  47  48
ENDBRANCH  40  42
ENDBRANCH  39  40
ENDBRANCH  38  39
ENDBRANCH  37  38
ENDBRANCH  36  37
ENDBRANCH  35  36
ENDBRANCH  34  35
ENDBRANCH   1  34
TORSDOF 26
