REMARK SMILES O=C(OCCOCCOCCOCCOC(=O)c1cc(F)c(F)cc1NS(=O)(=O)c1ccc2c(c1)CCC2)c1ccc(-c2c3nc(c(-c4c(F)cc(S(=O)(=O)[O-])cc4F)c4ccc([nH]4)c(-c4c(F)cc(S(=O)(=O)[O-])cc4F)c4nc(c(-c5c(F)cc(S(=O)(=O)[O-])cc5F)c5ccc2[nH]5)C=C4)C=C3)cc1
REMARK SMILES IDX 9 1 8 2 7 3 6 4 5 5 4 6 3 7 2 8 1 9 39 10 40 11 104 12 41 13
REMARK SMILES IDX 103 14 42 15 43 16 44 17 97 18 45 19 102 20 96 21 98 22
REMARK SMILES IDX 46 23 101 24 95 25 94 26 47 28 81 29 60 30 80 31 61 32 64 33
REMARK SMILES IDX 79 34 99 35 62 36 63 37 78 39 100 40 65 41 48 42 49 43 58 44
REMARK SMILES IDX 50 45 51 46 57 47 59 48 52 49 53 50 54 51 55 52 56 53 82 54
REMARK SMILES IDX 83 55 92 56 84 57 85 58 91 59 93 60 86 61 87 62 88 63 89 64
REMARK SMILES IDX 90 65 66 66 67 67 76 68 68 69 69 70 75 71 77 72 70 73 71 74
REMARK SMILES IDX 72 75 73 76 74 77 10 78 11 79 12 80 13 81 14 82 15 83 16 84
REMARK SMILES IDX 17 85 18 86 19 87 25 88 20 89 24 90 21 91 22 92 23 93 26 94
REMARK SMILES IDX 27 96 28 97 29 98 30 99 31 100 35 101 32 102 34 103 33 104
REMARK SMILES IDX 36 105 38 106 37 107
REMARK H PARENT 98 27 64 38 26 95
REMARK Flexibility Score: inf
ROOT
ATOM      1  O   UNL     1       2.259  -2.942   2.354  1.00  0.00    -0.377 OA
ENDROOT
BRANCH   1   2
ATOM      2  C   UNL     1       1.645  -2.205   1.298  1.00  0.00     0.188 C 
BRANCH   2   3
ATOM      3  C   UNL     1       2.047  -0.732   1.264  1.00  0.00     0.188 C 
BRANCH   3   4
ATOM      4  O   UNL     1       3.385  -0.624   0.774  1.00  0.00    -0.376 OA
BRANCH   4   5
ATOM      5  C   UNL     1       4.184   0.394   1.371  1.00  0.00     0.202 C 
BRANCH   5   6
ATOM      6  C   UNL     1       4.155   1.709   0.594  1.00  0.00     0.261 C 
BRANCH   6   7
ATOM      7  O   UNL     1       2.838   2.003   0.107  1.00  0.00    -0.460 OA
BRANCH   7   8
ATOM      8  C   UNL     1       2.280   1.601  -1.063  1.00  0.00     0.338 C 
ATOM      9  O   UNL     1       1.098   1.888  -1.260  1.00  0.00    -0.246 OA
BRANCH   8  10
ATOM     10  C   UNL     1       3.009   0.870  -2.153  1.00  0.00     0.060 A 
ATOM     11  C   UNL     1       4.143   0.065  -1.999  1.00  0.00     0.016 A 
ATOM     12  C   UNL     1       2.460   0.975  -3.445  1.00  0.00     0.016 A 
ATOM     13  C   UNL     1       4.760  -0.547  -3.085  1.00  0.00     0.010 A 
ATOM     14  C   UNL     1       3.059   0.348  -4.541  1.00  0.00     0.010 A 
ATOM     15  C   UNL     1       4.235  -0.386  -4.363  1.00  0.00    -0.014 A 
BRANCH  15  16
ATOM     16  C   UNL     1       5.044  -0.830  -5.511  1.00  0.00     0.031 A 
ATOM     17  C   UNL     1       5.838   0.212  -6.241  1.00  0.00     0.074 A 
ATOM     18  C   UNL     1       5.148  -2.137  -5.805  1.00  0.00     0.049 A 
ATOM     19  N   UNL     1       6.555   0.102  -7.324  1.00  0.00    -0.248 NA
ATOM     20  C   UNL     1       5.831   1.567  -5.657  1.00  0.00     0.031 C 
ATOM     21  C   UNL     1       4.515  -3.223  -5.054  1.00  0.00     0.029 A 
ATOM     22  N   UNL     1       5.839  -2.776  -6.799  1.00  0.00    -0.354 N 
ATOM     23  C   UNL     1       7.056   1.375  -7.570  1.00  0.00     0.074 A 
ATOM     24  C   UNL     1       6.568   2.243  -6.524  1.00  0.00     0.031 C 
ATOM     25  C   UNL     1       4.851  -4.397  -5.615  1.00  0.00     0.029 A 
ATOM     26  C   UNL     1       5.667  -4.140  -6.798  1.00  0.00     0.049 A 
ATOM     27  H   UNL     1       6.404  -2.304  -7.453  1.00  0.00     0.167 HD
ATOM     28  C   UNL     1       7.845   1.776  -8.593  1.00  0.00     0.037 A 
ATOM     29  C   UNL     1       6.093  -5.061  -7.684  1.00  0.00     0.037 A 
ATOM     30  C   UNL     1       8.306   0.880  -9.617  1.00  0.00     0.049 A 
ATOM     31  C   UNL     1       6.891  -4.578  -8.868  1.00  0.00     0.074 A 
ATOM     32  C   UNL     1       9.045   1.163 -10.749  1.00  0.00     0.029 A 
ATOM     33  N   UNL     1       8.064  -0.488  -9.622  1.00  0.00    -0.354 N 
ATOM     34  N   UNL     1       7.294  -3.358  -9.146  1.00  0.00    -0.248 NA
ATOM     35  C   UNL     1       7.273  -5.581  -9.869  1.00  0.00     0.031 C 
ATOM     36  C   UNL     1       9.217  -0.031 -11.459  1.00  0.00     0.029 A 
ATOM     37  C   UNL     1       8.625  -1.065 -10.745  1.00  0.00     0.049 A 
ATOM     38  H   UNL     1       7.566  -0.976  -8.927  1.00  0.00     0.167 HD
ATOM     39  C   UNL     1       7.985  -3.447 -10.348  1.00  0.00     0.074 A 
ATOM     40  C   UNL     1       7.960  -4.846 -10.734  1.00  0.00     0.031 C 
ATOM     41  C   UNL     1       8.579  -2.469 -11.076  1.00  0.00     0.037 A 
BRANCH  28  42
ATOM     42  C   UNL     1       8.170   3.240  -8.674  1.00  0.00     0.058 A 
ATOM     43  C   UNL     1       9.066   3.857  -7.786  1.00  0.00     0.135 A 
ATOM     44  C   UNL     1       7.531   4.051  -9.626  1.00  0.00     0.135 A 
ATOM     45  F   UNL     1       9.678   3.136  -6.834  1.00  0.00    -0.206 F 
ATOM     46  C   UNL     1       9.292   5.231  -7.819  1.00  0.00     0.059 A 
ATOM     47  C   UNL     1       7.759   5.423  -9.692  1.00  0.00     0.059 A 
ATOM     48  F   UNL     1       6.653   3.516 -10.489  1.00  0.00    -0.206 F 
ATOM     49  C   UNL     1       8.627   6.006  -8.771  1.00  0.00     0.060 A 
BRANCH  49  50
ATOM     50  S   UNL     1       8.903   7.791  -8.781  1.00  0.00     0.124 S 
ATOM     51  O   UNL     1       8.154   8.209  -7.600  1.00  0.00    -0.237 OA
ATOM     52  O   UNL     1      10.356   7.884  -8.674  1.00  0.00    -0.237 OA
ATOM     53  O   UNL     1       8.344   8.214 -10.061  1.00  0.00    -0.744 OA
ENDBRANCH  49  50
ENDBRANCH  28  42
BRANCH  29  54
ATOM     54  C   UNL     1       5.723  -6.495  -7.521  1.00  0.00     0.058 A 
ATOM     55  C   UNL     1       6.689  -7.477  -7.263  1.00  0.00     0.135 A 
ATOM     56  C   UNL     1       4.385  -6.913  -7.617  1.00  0.00     0.135 A 
ATOM     57  F   UNL     1       7.984  -7.137  -7.172  1.00  0.00    -0.206 F 
ATOM     58  C   UNL     1       6.347  -8.820  -7.114  1.00  0.00     0.059 A 
ATOM     59  C   UNL     1       4.014  -8.243  -7.445  1.00  0.00     0.059 A 
ATOM     60  F   UNL     1       3.415  -6.017  -7.858  1.00  0.00    -0.206 F 
ATOM     61  C   UNL     1       5.004  -9.193  -7.205  1.00  0.00     0.060 A 
BRANCH  61  62
ATOM     62  S   UNL     1       4.562 -10.929  -6.969  1.00  0.00     0.124 S 
ATOM     63  O   UNL     1       5.014 -11.521  -8.222  1.00  0.00    -0.237 OA
ATOM     64  O   UNL     1       5.331 -11.285  -5.780  1.00  0.00    -0.237 OA
ATOM     65  O   UNL     1       3.115 -10.884  -6.778  1.00  0.00    -0.744 OA
ENDBRANCH  61  62
ENDBRANCH  29  54
BRANCH  41  66
ATOM     66  C   UNL     1       9.267  -2.885 -12.342  1.00  0.00     0.058 A 
ATOM     67  C   UNL     1       8.540  -3.188 -13.502  1.00  0.00     0.135 A 
ATOM     68  C   UNL     1      10.668  -2.895 -12.414  1.00  0.00     0.135 A 
ATOM     69  F   UNL     1       7.198  -3.196 -13.478  1.00  0.00    -0.206 F 
ATOM     70  C   UNL     1       9.183  -3.498 -14.695  1.00  0.00     0.059 A 
ATOM     71  C   UNL     1      11.331  -3.178 -13.601  1.00  0.00     0.059 A 
ATOM     72  F   UNL     1      11.403  -2.599 -11.330  1.00  0.00    -0.206 F 
ATOM     73  C   UNL     1      10.579  -3.485 -14.735  1.00  0.00     0.060 A 
BRANCH  73  74
ATOM     74  S   UNL     1      11.401  -3.829 -16.304  1.00  0.00     0.124 S 
ATOM     75  O   UNL     1      11.252  -5.277 -16.401  1.00  0.00    -0.237 OA
ATOM     76  O   UNL     1      10.614  -3.045 -17.250  1.00  0.00    -0.237 OA
ATOM     77  O   UNL     1      12.763  -3.350 -16.084  1.00  0.00    -0.744 OA
ENDBRANCH  73  74
ENDBRANCH  41  66
ENDBRANCH  15  16
ENDBRANCH   8  10
ENDBRANCH   7   8
ENDBRANCH   6   7
ENDBRANCH   5   6
ENDBRANCH   4   5
ENDBRANCH   3   4
ENDBRANCH   2   3
ENDBRANCH   1   2
BRANCH   1  78
ATOM     78  C   UNL     1       3.683  -2.916   2.391  1.00  0.00     0.188 C 
BRANCH  78  79
ATOM     79  C   UNL     1       4.453  -3.376   1.138  1.00  0.00     0.188 C 
BRANCH  79  80
ATOM     80  O   UNL     1       3.686  -4.213   0.282  1.00  0.00    -0.376 OA
BRANCH  80  81
ATOM     81  C   UNL     1       4.039  -5.590   0.292  1.00  0.00     0.202 C 
BRANCH  81  82
ATOM     82  C   UNL     1       3.455  -6.346   1.484  1.00  0.00     0.261 C 
BRANCH  82  83
ATOM     83  O   UNL     1       3.962  -5.988   2.786  1.00  0.00    -0.460 OA
BRANCH  83  84
ATOM     84  C   UNL     1       5.282  -5.974   3.073  1.00  0.00     0.340 C 
ATOM     85  O   UNL     1       6.223  -6.247   2.354  1.00  0.00    -0.246 OA
BRANCH  84  86
ATOM     86  C   UNL     1       5.387  -5.351   4.415  1.00  0.00     0.087 A 
ATOM     87  C   UNL     1       4.514  -5.827   5.412  1.00  0.00     0.060 A 
ATOM     88  C   UNL     1       6.164  -4.187   4.621  1.00  0.00     0.066 A 
ATOM     89  C   UNL     1       4.380  -5.126   6.597  1.00  0.00     0.159 A 
ATOM     90  C   UNL     1       5.953  -3.475   5.808  1.00  0.00     0.070 A 
ATOM     91  F   UNL     1       3.550  -5.579   7.545  1.00  0.00    -0.204 F 
ATOM     92  C   UNL     1       5.077  -3.945   6.784  1.00  0.00     0.160 A 
ATOM     93  F   UNL     1       4.927  -3.245   7.916  1.00  0.00    -0.204 F 
BRANCH  88  94
ATOM     94  N   UNL     1       7.206  -3.824   3.700  1.00  0.00    -0.279 N 
ATOM     95  H   UNL     1       7.638  -4.553   3.199  1.00  0.00     0.180 HD
BRANCH  94  96
ATOM     96  S   UNL     1       7.753  -2.258   3.404  1.00  0.00     0.261 S 
ATOM     97  O   UNL     1       8.788  -2.354   2.401  1.00  0.00    -0.201 OA
ATOM     98  O   UNL     1       6.582  -1.427   3.208  1.00  0.00    -0.201 OA
BRANCH  96  99
ATOM     99  C   UNL     1       8.544  -1.725   4.911  1.00  0.00     0.088 A 
ATOM    100  C   UNL     1       9.165  -2.674   5.745  1.00  0.00     0.022 A 
ATOM    101  C   UNL     1       8.300  -0.415   5.353  1.00  0.00     0.026 A 
ATOM    102  C   UNL     1       9.443  -2.352   7.076  1.00  0.00     0.005 A 
ATOM    103  C   UNL     1       8.612  -0.105   6.666  1.00  0.00    -0.043 A 
ATOM    104  C   UNL     1       9.136  -1.077   7.526  1.00  0.00    -0.045 A 
ATOM    105  C   UNL     1       8.344   1.174   7.398  1.00  0.00     0.036 C 
ATOM    106  C   UNL     1       9.182  -0.562   8.932  1.00  0.00     0.036 C 
ATOM    107  C   UNL     1       9.131   0.954   8.699  1.00  0.00     0.010 C 
ENDBRANCH  96  99
ENDBRANCH  94  96
ENDBRANCH  88  94
ENDBRANCH  84  86
ENDBRANCH  83  84
ENDBRANCH  82  83
ENDBRANCH  81  82
ENDBRANCH  80  81
ENDBRANCH  79  80
ENDBRANCH  78  79
ENDBRANCH   1  78
TORSDOF 26
