REMARK SMILES COC(=O)CCN(C)C(=O)NCc1ccc(C(=O)OCCOCCOCCOCCOC(=O)c2ccc(-c3c4nc(c(-c5c(F)cc(S(=O)(=O)[O-])cc5F)c5ccc([nH]5)c(-c5c(F)cc(S(=O)(=O)[O-])cc5F)c5nc(c(-c6c(F)cc(S(=O)(=O)[O-])cc6F)c6ccc3[nH]6)C=C5)C=C4)cc2)o1
REMARK SMILES IDX 23 1 22 2 21 3 20 4 19 5 17 6 18 7 16 8 13 9 14 10 100 11
REMARK SMILES IDX 15 12 12 13 11 14 9 15 10 16 7 18 8 19 6 20 5 21 3 22 4 23
REMARK SMILES IDX 2 24 1 25 24 26 25 27 26 28 27 29 28 30 29 31 30 32 31 33
REMARK SMILES IDX 32 34 33 35 34 36 35 37 99 38 36 39 98 40 37 41 38 42 39 43
REMARK SMILES IDX 92 44 40 45 97 46 91 47 93 48 41 49 96 50 90 51 89 52 42 54
REMARK SMILES IDX 76 55 55 56 75 57 56 58 59 59 74 60 94 61 57 62 58 63 73 65
REMARK SMILES IDX 95 66 60 67 43 68 44 69 53 70 45 71 46 72 52 73 54 74 47 75
REMARK SMILES IDX 48 76 49 77 50 78 51 79 77 80 78 81 87 82 79 83 80 84 86 85
REMARK SMILES IDX 88 86 81 87 82 88 83 89 84 90 85 91 61 92 62 93 71 94 63 95
REMARK SMILES IDX 64 96 70 97 72 98 65 99 66 100 67 101 68 102 69 103
REMARK H PARENT 11 17 93 53 59 64
REMARK Flexibility Score: inf
ROOT
ATOM      1  C   UNL     1       3.293   4.583  -5.940  1.00  0.00     0.188 C 
ENDROOT
BRANCH   1   2
ATOM      2  O   UNL     1       3.679   4.717  -7.303  1.00  0.00    -0.376 OA
BRANCH   2   3
ATOM      3  C   UNL     1       2.664   4.978  -8.266  1.00  0.00     0.202 C 
BRANCH   3   4
ATOM      4  C   UNL     1       1.743   6.206  -8.123  1.00  0.00     0.261 C 
BRANCH   4   5
ATOM      5  O   UNL     1       1.069   6.374  -6.867  1.00  0.00    -0.457 OA
BRANCH   5   6
ATOM      6  C   UNL     1       0.152   5.455  -6.476  1.00  0.00     0.374 C 
ATOM      7  O   UNL     1      -0.224   4.508  -7.158  1.00  0.00    -0.242 OA
BRANCH   6   8
ATOM      8  C   UNL     1      -0.162   5.703  -5.084  1.00  0.00     0.211 A 
ATOM      9  C   UNL     1      -0.540   5.099  -2.993  1.00  0.00     0.124 A 
ATOM     10  C   UNL     1      -0.306   6.457  -2.967  1.00  0.00     0.048 A 
ATOM     11  O   UNL     1      -0.493   4.642  -4.280  1.00  0.00    -0.452 OA
ATOM     12  C   UNL     1      -0.064   6.845  -4.306  1.00  0.00     0.058 A 
BRANCH   9  13
ATOM     13  C   UNL     1      -0.743   4.081  -1.933  1.00  0.00     0.193 C 
BRANCH  13  14
ATOM     14  N   UNL     1       0.564   3.704  -1.430  1.00  0.00    -0.331 N 
ATOM     15  C   UNL     1       1.116   3.539  -0.217  1.00  0.00     0.317 C 
ATOM     16  O   UNL     1       2.156   2.873  -0.189  1.00  0.00    -0.249 OA
ATOM     17  H   UNL     1       1.204   3.525  -2.156  1.00  0.00     0.165 HD
BRANCH  15  18
ATOM     18  N   UNL     1       0.559   4.045   0.926  1.00  0.00    -0.327 N 
ATOM     19  C   UNL     1      -0.460   5.077   1.002  1.00  0.00     0.148 C 
BRANCH  18  20
ATOM     20  C   UNL     1       1.070   3.546   2.214  1.00  0.00     0.132 C 
BRANCH  20  21
ATOM     21  C   UNL     1       0.299   2.337   2.728  1.00  0.00     0.144 C 
BRANCH  21  22
ATOM     22  C   UNL     1       0.846   1.065   2.141  1.00  0.00     0.307 C 
ATOM     23  O   UNL     1       1.736   0.404   2.660  1.00  0.00    -0.252 OA
BRANCH  22  24
ATOM     24  O   UNL     1       0.217   0.768   0.972  1.00  0.00    -0.469 OA
ATOM     25  C   UNL     1       0.829  -0.290   0.234  1.00  0.00     0.282 C 
ENDBRANCH  22  24
ENDBRANCH  21  22
ENDBRANCH  20  21
ENDBRANCH  18  20
ENDBRANCH  15  18
ENDBRANCH  13  14
ENDBRANCH   9  13
ENDBRANCH   6   8
ENDBRANCH   5   6
ENDBRANCH   4   5
ENDBRANCH   3   4
ENDBRANCH   2   3
ENDBRANCH   1   2
BRANCH   1  26
ATOM     26  C   UNL     1       3.494   5.882  -5.143  1.00  0.00     0.188 C 
BRANCH  26  27
ATOM     27  O   UNL     1       3.738   6.991  -5.999  1.00  0.00    -0.377 OA
BRANCH  27  28
ATOM     28  C   UNL     1       5.110   7.338  -6.184  1.00  0.00     0.188 C 
BRANCH  28  29
ATOM     29  C   UNL     1       6.123   6.211  -6.468  1.00  0.00     0.188 C 
BRANCH  29  30
ATOM     30  O   UNL     1       6.238   5.277  -5.390  1.00  0.00    -0.376 OA
BRANCH  30  31
ATOM     31  C   UNL     1       7.428   5.368  -4.610  1.00  0.00     0.202 C 
BRANCH  31  32
ATOM     32  C   UNL     1       7.390   6.486  -3.559  1.00  0.00     0.261 C 
BRANCH  32  33
ATOM     33  O   UNL     1       7.355   7.819  -4.094  1.00  0.00    -0.460 OA
BRANCH  33  34
ATOM     34  C   UNL     1       8.382   8.190  -4.890  1.00  0.00     0.338 C 
ATOM     35  O   UNL     1       9.381   7.544  -5.150  1.00  0.00    -0.246 OA
BRANCH  34  36
ATOM     36  C   UNL     1       8.010   9.455  -5.553  1.00  0.00     0.060 A 
ATOM     37  C   UNL     1       8.102   9.536  -6.948  1.00  0.00     0.016 A 
ATOM     38  C   UNL     1       7.596  10.557  -4.801  1.00  0.00     0.016 A 
ATOM     39  C   UNL     1       7.823  10.742  -7.593  1.00  0.00     0.010 A 
ATOM     40  C   UNL     1       7.332  11.765  -5.445  1.00  0.00     0.010 A 
ATOM     41  C   UNL     1       7.480  11.872  -6.839  1.00  0.00    -0.014 A 
BRANCH  41  42
ATOM     42  C   UNL     1       7.469  13.214  -7.467  1.00  0.00     0.031 A 
ATOM     43  C   UNL     1       8.718  14.047  -7.380  1.00  0.00     0.074 A 
ATOM     44  C   UNL     1       6.372  13.691  -8.078  1.00  0.00     0.049 A 
ATOM     45  N   UNL     1       8.924  15.277  -7.772  1.00  0.00    -0.248 NA
ATOM     46  C   UNL     1       9.891  13.407  -6.760  1.00  0.00     0.031 C 
ATOM     47  C   UNL     1       5.114  12.966  -8.248  1.00  0.00     0.029 A 
ATOM     48  N   UNL     1       6.138  14.914  -8.655  1.00  0.00    -0.354 N 
ATOM     49  C   UNL     1      10.245  15.560  -7.442  1.00  0.00     0.074 A 
ATOM     50  C   UNL     1      10.785  14.383  -6.797  1.00  0.00     0.031 C 
ATOM     51  C   UNL     1       4.231  13.768  -8.870  1.00  0.00     0.029 A 
ATOM     52  C   UNL     1       4.853  15.069  -9.115  1.00  0.00     0.049 A 
ATOM     53  H   UNL     1       6.826  15.614  -8.731  1.00  0.00     0.167 HD
ATOM     54  C   UNL     1      10.945  16.697  -7.662  1.00  0.00     0.037 A 
ATOM     55  C   UNL     1       4.246  16.147  -9.651  1.00  0.00     0.037 A 
ATOM     56  C   UNL     1      10.402  17.868  -8.294  1.00  0.00     0.049 A 
ATOM     57  C   UNL     1       5.028  17.423  -9.834  1.00  0.00     0.074 A 
ATOM     58  C   UNL     1      11.032  19.069  -8.568  1.00  0.00     0.029 A 
ATOM     59  N   UNL     1       9.096  17.988  -8.744  1.00  0.00    -0.354 N 
ATOM     60  N   UNL     1       6.282  17.671  -9.537  1.00  0.00    -0.248 NA
ATOM     61  C   UNL     1       4.315  18.564 -10.425  1.00  0.00     0.031 C 
ATOM     62  C   UNL     1      10.095  19.929  -9.151  1.00  0.00     0.029 A 
ATOM     63  C   UNL     1       8.894  19.248  -9.279  1.00  0.00     0.049 A 
ATOM     64  H   UNL     1       8.413  17.281  -8.690  1.00  0.00     0.167 HD
ATOM     65  C   UNL     1       6.515  18.985  -9.933  1.00  0.00     0.074 A 
ATOM     66  C   UNL     1       5.273  19.479 -10.491  1.00  0.00     0.031 C 
ATOM     67  C   UNL     1       7.654  19.716  -9.845  1.00  0.00     0.037 A 
BRANCH  54  68
ATOM     68  C   UNL     1      12.370  16.729  -7.189  1.00  0.00     0.058 A 
ATOM     69  C   UNL     1      13.381  16.017  -7.853  1.00  0.00     0.135 A 
ATOM     70  C   UNL     1      12.731  17.489  -6.065  1.00  0.00     0.135 A 
ATOM     71  F   UNL     1      13.084  15.257  -8.919  1.00  0.00    -0.206 F 
ATOM     72  C   UNL     1      14.697  16.037  -7.404  1.00  0.00     0.059 A 
ATOM     73  C   UNL     1      14.045  17.543  -5.613  1.00  0.00     0.059 A 
ATOM     74  F   UNL     1      11.800  18.182  -5.391  1.00  0.00    -0.206 F 
ATOM     75  C   UNL     1      15.019  16.801  -6.281  1.00  0.00     0.060 A 
BRANCH  75  76
ATOM     76  S   UNL     1      16.730  16.816  -5.706  1.00  0.00     0.124 S 
ATOM     77  O   UNL     1      16.834  15.504  -5.073  1.00  0.00    -0.237 OA
ATOM     78  O   UNL     1      17.477  16.980  -6.949  1.00  0.00    -0.237 OA
ATOM     79  O   UNL     1      16.773  17.957  -4.797  1.00  0.00    -0.744 OA
ENDBRANCH  75  76
ENDBRANCH  54  68
BRANCH  55  80
ATOM     80  C   UNL     1       2.814  16.074 -10.044  1.00  0.00     0.058 A 
ATOM     81  C   UNL     1       2.434  16.073 -11.394  1.00  0.00     0.135 A 
ATOM     82  C   UNL     1       1.798  16.008  -9.078  1.00  0.00     0.135 A 
ATOM     83  F   UNL     1       3.369  16.148 -12.354  1.00  0.00    -0.206 F 
ATOM     84  C   UNL     1       1.097  16.019 -11.774  1.00  0.00     0.059 A 
ATOM     85  C   UNL     1       0.455  15.931  -9.434  1.00  0.00     0.059 A 
ATOM     86  F   UNL     1       2.111  15.998  -7.773  1.00  0.00    -0.206 F 
ATOM     87  C   UNL     1       0.114  15.946 -10.785  1.00  0.00     0.060 A 
BRANCH  87  88
ATOM     88  S   UNL     1      -1.617  15.824 -11.287  1.00  0.00     0.124 S 
ATOM     89  O   UNL     1      -1.901  17.193 -11.700  1.00  0.00    -0.237 OA
ATOM     90  O   UNL     1      -1.558  14.833 -12.358  1.00  0.00    -0.237 OA
ATOM     91  O   UNL     1      -2.287  15.378 -10.069  1.00  0.00    -0.744 OA
ENDBRANCH  87  88
ENDBRANCH  55  80
BRANCH  67  92
ATOM     92  C   UNL     1       7.632  21.111 -10.402  1.00  0.00     0.058 A 
ATOM     93  C   UNL     1       7.002  22.167  -9.725  1.00  0.00     0.135 A 
ATOM     94  C   UNL     1       8.312  21.408 -11.595  1.00  0.00     0.135 A 
ATOM     95  F   UNL     1       6.335  21.934  -8.584  1.00  0.00    -0.206 F 
ATOM     96  C   UNL     1       7.035  23.467 -10.219  1.00  0.00     0.059 A 
ATOM     97  C   UNL     1       8.376  22.704 -12.095  1.00  0.00     0.059 A 
ATOM     98  F   UNL     1       8.939  20.435 -12.275  1.00  0.00    -0.206 F 
ATOM     99  C   UNL     1       7.727  23.726 -11.404  1.00  0.00     0.060 A 
BRANCH  99 100
ATOM    100  S   UNL     1       7.803  25.425 -12.013  1.00  0.00     0.124 S 
ATOM    101  O   UNL     1       6.469  25.593 -12.580  1.00  0.00    -0.237 OA
ATOM    102  O   UNL     1       8.074  26.183 -10.795  1.00  0.00    -0.237 OA
ATOM    103  O   UNL     1       8.897  25.390 -12.978  1.00  0.00    -0.744 OA
ENDBRANCH  99 100
ENDBRANCH  67  92
ENDBRANCH  41  42
ENDBRANCH  34  36
ENDBRANCH  33  34
ENDBRANCH  32  33
ENDBRANCH  31  32
ENDBRANCH  30  31
ENDBRANCH  29  30
ENDBRANCH  28  29
ENDBRANCH  27  28
ENDBRANCH  26  27
ENDBRANCH   1  26
TORSDOF 30
