REMARK SMILES CC[C@H]1CCCC[C@@H]1C1(C(=O)OCCOCCOCCOCCOC(=O)c2ccc(-c3c4nc(c(-c5c(F)cc(S(=O)(=O)[O-])cc5F)c5ccc([nH]5)c(-c5c(F)cc(S(=O)(=O)[O-])cc5F)c5nc(c(-c6c(F)cc(S(=O)(=O)[O-])cc6F)c6ccc3[nH]6)C=C5)C=C4)cc2)CC1
REMARK SMILES IDX 19 1 18 2 17 3 16 4 15 5 14 6 13 7 12 8 10 9 11 10 9 11
REMARK SMILES IDX 93 12 94 13 8 14 3 15 4 16 5 17 7 18 6 19 2 20 1 21 20 22
REMARK SMILES IDX 21 23 22 24 23 25 24 26 25 27 26 28 27 29 28 30 92 31 29 32
REMARK SMILES IDX 91 33 30 34 31 35 32 36 85 37 33 38 90 39 84 40 86 41 34 42
REMARK SMILES IDX 89 43 83 44 82 45 35 47 69 48 48 49 68 50 49 51 52 52 67 53
REMARK SMILES IDX 87 54 50 55 51 56 66 58 88 59 53 60 36 61 37 62 46 63 38 64
REMARK SMILES IDX 39 65 45 66 47 67 40 68 41 69 42 70 43 71 44 72 70 73 71 74
REMARK SMILES IDX 80 75 72 76 73 77 79 78 81 79 74 80 75 81 76 82 77 83 78 84
REMARK SMILES IDX 54 85 55 86 64 87 56 88 57 89 63 90 65 91 58 92 59 93 60 94
REMARK SMILES IDX 61 95 62 96
REMARK H PARENT 86 46 52 57
REMARK Flexibility Score: inf
ROOT
ATOM      1  C   UNL     1       2.384   9.187  -2.140  1.00  0.00     0.188 C 
ENDROOT
BRANCH   1   2
ATOM      2  O   UNL     1       1.926   8.305  -1.129  1.00  0.00    -0.377 OA
BRANCH   2   3
ATOM      3  C   UNL     1       1.790   6.959  -1.531  1.00  0.00     0.188 C 
BRANCH   3   4
ATOM      4  C   UNL     1       0.397   6.713  -2.156  1.00  0.00     0.188 C 
BRANCH   4   5
ATOM      5  O   UNL     1      -0.509   7.766  -1.848  1.00  0.00    -0.376 OA
BRANCH   5   6
ATOM      6  C   UNL     1      -1.347   7.517  -0.723  1.00  0.00     0.202 C 
BRANCH   6   7
ATOM      7  C   UNL     1      -0.665   7.217   0.625  1.00  0.00     0.261 C 
BRANCH   7   8
ATOM      8  O   UNL     1       0.235   6.085   0.650  1.00  0.00    -0.463 OA
BRANCH   8   9
ATOM      9  C   UNL     1      -0.211   4.823   0.449  1.00  0.00     0.312 C 
ATOM     10  O   UNL     1      -1.382   4.486   0.373  1.00  0.00    -0.252 OA
BRANCH   9  11
ATOM     11  C   UNL     1       0.945   3.821   0.231  1.00  0.00     0.071 C 
ATOM     12  C   UNL     1       1.408   3.152   1.534  1.00  0.00     0.020 C 
ATOM     13  C   UNL     1       2.310   4.127   0.859  1.00  0.00     0.020 C 
BRANCH  11  14
ATOM     14  C   UNL     1       0.902   3.019  -1.118  1.00  0.00     0.009 C 
ATOM     15  C   UNL     1       1.093   1.480  -1.044  1.00  0.00    -0.007 C 
ATOM     16  C   UNL     1       2.583   1.079  -1.121  1.00  0.00     0.004 C 
ATOM     17  C   UNL     1       3.299   1.633  -2.348  1.00  0.00     0.000 C 
ATOM     18  C   UNL     1       1.736   3.602  -2.280  1.00  0.00     0.005 C 
ATOM     19  C   UNL     1       3.181   3.143  -2.405  1.00  0.00     0.000 C 
BRANCH  15  20
ATOM     20  C   UNL     1       0.248   0.835  -2.179  1.00  0.00     0.000 C 
ATOM     21  C   UNL     1       0.260  -0.683  -2.202  1.00  0.00     0.004 C 
ENDBRANCH  15  20
ENDBRANCH  11  14
ENDBRANCH   9  11
ENDBRANCH   8   9
ENDBRANCH   7   8
ENDBRANCH   6   7
ENDBRANCH   5   6
ENDBRANCH   4   5
ENDBRANCH   3   4
ENDBRANCH   2   3
ENDBRANCH   1   2
BRANCH   1  22
ATOM     22  C   UNL     1       2.055   8.905  -3.628  1.00  0.00     0.188 C 
BRANCH  22  23
ATOM     23  O   UNL     1       2.365   7.579  -4.064  1.00  0.00    -0.376 OA
BRANCH  23  24
ATOM     24  C   UNL     1       3.498   7.360  -4.885  1.00  0.00     0.202 C 
BRANCH  24  25
ATOM     25  C   UNL     1       4.856   7.359  -4.170  1.00  0.00     0.261 C 
BRANCH  25  26
ATOM     26  O   UNL     1       5.158   8.537  -3.417  1.00  0.00    -0.460 OA
BRANCH  26  27
ATOM     27  C   UNL     1       5.228   9.709  -4.099  1.00  0.00     0.338 C 
ATOM     28  O   UNL     1       5.129   9.868  -5.287  1.00  0.00    -0.246 OA
BRANCH  27  29
ATOM     29  C   UNL     1       5.199  10.782  -3.074  1.00  0.00     0.060 A 
ATOM     30  C   UNL     1       4.174  11.735  -3.140  1.00  0.00     0.016 A 
ATOM     31  C   UNL     1       6.088  10.764  -1.995  1.00  0.00     0.016 A 
ATOM     32  C   UNL     1       4.032  12.672  -2.119  1.00  0.00     0.010 A 
ATOM     33  C   UNL     1       5.972  11.731  -0.995  1.00  0.00     0.010 A 
ATOM     34  C   UNL     1       4.958  12.701  -1.069  1.00  0.00    -0.014 A 
BRANCH  34  35
ATOM     35  C   UNL     1       5.034  13.908  -0.218  1.00  0.00     0.031 A 
ATOM     36  C   UNL     1       5.936  15.015  -0.686  1.00  0.00     0.074 A 
ATOM     37  C   UNL     1       4.321  14.032   0.913  1.00  0.00     0.049 A 
ATOM     38  N   UNL     1       6.199  16.166  -0.131  1.00  0.00    -0.248 NA
ATOM     39  C   UNL     1       6.638  14.782  -1.960  1.00  0.00     0.031 C 
ATOM     40  C   UNL     1       3.391  13.037   1.443  1.00  0.00     0.029 A 
ATOM     41  N   UNL     1       4.282  15.055   1.827  1.00  0.00    -0.354 N 
ATOM     42  C   UNL     1       7.093  16.796  -0.988  1.00  0.00     0.074 A 
ATOM     43  C   UNL     1       7.357  15.885  -2.078  1.00  0.00     0.031 C 
ATOM     44  C   UNL     1       2.888  13.492   2.606  1.00  0.00     0.029 A 
ATOM     45  C   UNL     1       3.480  14.794   2.911  1.00  0.00     0.049 A 
ATOM     46  H   UNL     1       4.781  15.896   1.716  1.00  0.00     0.167 HD
ATOM     47  C   UNL     1       7.642  18.028  -0.879  1.00  0.00     0.037 A 
ATOM     48  C   UNL     1       3.271  15.518   4.029  1.00  0.00     0.037 A 
ATOM     49  C   UNL     1       7.400  18.910   0.229  1.00  0.00     0.049 A 
ATOM     50  C   UNL     1       3.949  16.858   4.174  1.00  0.00     0.074 A 
ATOM     51  C   UNL     1       7.902  20.179   0.445  1.00  0.00     0.029 A 
ATOM     52  N   UNL     1       6.601  18.602   1.323  1.00  0.00    -0.354 N 
ATOM     53  N   UNL     1       4.768  17.463   3.343  1.00  0.00    -0.248 NA
ATOM     54  C   UNL     1       3.672  17.617   5.401  1.00  0.00     0.031 C 
ATOM     55  C   UNL     1       7.453  20.616   1.696  1.00  0.00     0.029 A 
ATOM     56  C   UNL     1       6.620  19.645   2.232  1.00  0.00     0.049 A 
ATOM     57  H   UNL     1       6.096  17.764   1.435  1.00  0.00     0.167 HD
ATOM     58  C   UNL     1       5.085  18.681   3.936  1.00  0.00     0.074 A 
ATOM     59  C   UNL     1       4.362  18.731   5.191  1.00  0.00     0.031 C 
ATOM     60  C   UNL     1       5.895  19.672   3.481  1.00  0.00     0.037 A 
BRANCH  47  61
ATOM     61  C   UNL     1       8.592  18.446  -1.966  1.00  0.00     0.058 A 
ATOM     62  C   UNL     1       8.155  18.698  -3.277  1.00  0.00     0.135 A 
ATOM     63  C   UNL     1       9.967  18.552  -1.703  1.00  0.00     0.135 A 
ATOM     64  F   UNL     1       6.854  18.586  -3.591  1.00  0.00    -0.206 F 
ATOM     65  C   UNL     1       9.053  18.990  -4.299  1.00  0.00     0.059 A 
ATOM     66  C   UNL     1      10.879  18.875  -2.702  1.00  0.00     0.059 A 
ATOM     67  F   UNL     1      10.440  18.314  -0.469  1.00  0.00    -0.206 F 
ATOM     68  C   UNL     1      10.415  19.068  -4.003  1.00  0.00     0.060 A 
BRANCH  68  69
ATOM     69  S   UNL     1      11.572  19.406  -5.345  1.00  0.00     0.124 S 
ATOM     70  O   UNL     1      11.564  18.134  -6.062  1.00  0.00    -0.237 OA
ATOM     71  O   UNL     1      10.936  20.525  -6.032  1.00  0.00    -0.237 OA
ATOM     72  O   UNL     1      12.815  19.726  -4.650  1.00  0.00    -0.744 OA
ENDBRANCH  68  69
ENDBRANCH  47  61
BRANCH  48  73
ATOM     73  C   UNL     1       2.391  14.977   5.099  1.00  0.00     0.058 A 
ATOM     74  C   UNL     1       1.127  15.529   5.356  1.00  0.00     0.135 A 
ATOM     75  C   UNL     1       2.783  13.864   5.860  1.00  0.00     0.135 A 
ATOM     76  F   UNL     1       0.713  16.605   4.670  1.00  0.00    -0.206 F 
ATOM     77  C   UNL     1       0.279  14.991   6.320  1.00  0.00     0.059 A 
ATOM     78  C   UNL     1       1.943  13.293   6.812  1.00  0.00     0.059 A 
ATOM     79  F   UNL     1       3.982  13.297   5.653  1.00  0.00    -0.206 F 
ATOM     80  C   UNL     1       0.691  13.864   7.034  1.00  0.00     0.060 A 
BRANCH  80  81
ATOM     81  S   UNL     1      -0.457  13.116   8.212  1.00  0.00     0.124 S 
ATOM     82  O   UNL     1      -0.467  14.104   9.284  1.00  0.00    -0.237 OA
ATOM     83  O   UNL     1      -1.681  13.018   7.423  1.00  0.00    -0.237 OA
ATOM     84  O   UNL     1       0.175  11.840   8.535  1.00  0.00    -0.744 OA
ENDBRANCH  80  81
ENDBRANCH  48  73
BRANCH  60  85
ATOM     85  C   UNL     1       6.027  20.910   4.327  1.00  0.00     0.058 A 
ATOM     86  C   UNL     1       6.747  20.911   5.532  1.00  0.00     0.135 A 
ATOM     87  C   UNL     1       5.485  22.129   3.887  1.00  0.00     0.135 A 
ATOM     88  F   UNL     1       7.284  19.773   6.000  1.00  0.00    -0.206 F 
ATOM     89  C   UNL     1       6.906  22.073   6.282  1.00  0.00     0.059 A 
ATOM     90  C   UNL     1       5.658  23.308   4.605  1.00  0.00     0.059 A 
ATOM     91  F   UNL     1       4.800  22.188   2.734  1.00  0.00    -0.206 F 
ATOM     92  C   UNL     1       6.361  23.267   5.808  1.00  0.00     0.060 A 
BRANCH  92  93
ATOM     93  S   UNL     1       6.607  24.774   6.771  1.00  0.00     0.124 S 
ATOM     94  O   UNL     1       5.713  24.548   7.903  1.00  0.00    -0.237 OA
ATOM     95  O   UNL     1       8.034  24.724   7.071  1.00  0.00    -0.237 OA
ATOM     96  O   UNL     1       6.201  25.835   5.854  1.00  0.00    -0.744 OA
ENDBRANCH  92  93
ENDBRANCH  60  85
ENDBRANCH  34  35
ENDBRANCH  27  29
ENDBRANCH  26  27
ENDBRANCH  25  26
ENDBRANCH  24  25
ENDBRANCH  23  24
ENDBRANCH  22  23
ENDBRANCH   1  22
TORSDOF 25
