REMARK SMILES NS(=O)(=O)c1ccc(C#Cc2cc(Cl)cc3c2O[C@H](C(F)(F)F)C(C(=O)OCCOCCOCCOCCOC(=O)c2ccc(-c4c5nc(c(-c6c(F)cc(S(=O)(=O)[O-])cc6F)c6ccc([nH]6)c(-c6c(F)cc(S(=O)(=O)[O-])cc6F)c6nc(c(-c7c(F)cc(S(=O)(=O)[O-])cc7F)c7ccc4[nH]7)C=C6)C=C5)cc2)=C3)cc1
REMARK SMILES IDX 32 1 31 2 30 3 29 4 28 5 27 6 25 7 26 8 24 9 11 10 12 11
REMARK SMILES IDX 17 12 13 13 16 14 18 15 14 16 15 17 108 18 19 19 10 20 9 21
REMARK SMILES IDX 8 22 5 23 6 24 110 25 7 26 109 27 2 28 3 29 4 30 1 31 20 34
REMARK SMILES IDX 21 35 22 36 23 37 33 38 34 39 35 40 36 41 37 42 38 43 39 44
REMARK SMILES IDX 40 45 41 46 42 47 43 48 107 49 44 50 106 51 45 52 46 53
REMARK SMILES IDX 47 54 100 55 48 56 105 57 99 58 101 59 49 60 104 61 98 62
REMARK SMILES IDX 97 63 50 65 84 66 63 67 83 68 64 69 67 70 82 71 102 72 65 73
REMARK SMILES IDX 66 74 81 76 103 77 68 78 51 79 52 80 61 81 53 82 54 83 60 84
REMARK SMILES IDX 62 85 55 86 56 87 57 88 58 89 59 90 85 91 86 92 95 93 87 94
REMARK SMILES IDX 88 95 94 96 96 97 89 98 90 99 91 100 92 101 93 102 69 103
REMARK SMILES IDX 70 104 79 105 71 106 72 107 78 108 80 109 73 110 74 111
REMARK SMILES IDX 75 112 76 113 77 114
REMARK H PARENT 1 32 1 33 101 64 67 75
REMARK Flexibility Score: inf
ROOT
ATOM      1  C   UNL     1       5.057  -5.557  12.590  1.00  0.00     0.188 C 
ENDROOT
BRANCH   1   2
ATOM      2  C   UNL     1       6.077  -6.673  12.901  1.00  0.00     0.188 C 
BRANCH   2   3
ATOM      3  O   UNL     1       7.092  -6.360  13.830  1.00  0.00    -0.376 OA
BRANCH   3   4
ATOM      4  C   UNL     1       8.282  -5.672  13.486  1.00  0.00     0.202 C 
BRANCH   4   5
ATOM      5  C   UNL     1       8.537  -4.864  12.200  1.00  0.00     0.261 C 
BRANCH   5   6
ATOM      6  O   UNL     1       7.553  -4.921  11.173  1.00  0.00    -0.460 OA
BRANCH   6   7
ATOM      7  C   UNL     1       7.681  -5.920  10.281  1.00  0.00     0.338 C 
ATOM      8  O   UNL     1       8.539  -6.787  10.269  1.00  0.00    -0.246 OA
BRANCH   7   9
ATOM      9  C   UNL     1       6.482  -5.926   9.416  1.00  0.00     0.087 C 
ATOM     10  C   UNL     1       3.287  -6.113   6.728  1.00  0.00     0.069 A 
ATOM     11  C   UNL     1       2.756  -7.366   6.396  1.00  0.00     0.041 A 
ATOM     12  C   UNL     1       4.298  -6.013   7.697  1.00  0.00     0.143 A 
ATOM     13  C   UNL     1       3.208  -8.508   7.048  1.00  0.00     0.043 A 
ATOM     14  C   UNL     1       4.771  -7.176   8.315  1.00  0.00     0.020 A 
ATOM     15  O   UNL     1       4.790  -4.770   7.991  1.00  0.00    -0.474 OA
ATOM     16  Cl  UNL     1       2.560 -10.046   6.631  1.00  0.00    -0.084 Cl
ATOM     17  C   UNL     1       4.204  -8.419   8.014  1.00  0.00     0.032 A 
ATOM     18  C   UNL     1       5.909  -7.117   9.212  1.00  0.00     0.027 C 
ATOM     19  C   UNL     1       5.959  -4.633   8.850  1.00  0.00     0.316 C 
BRANCH  10  20
ATOM     20  C   UNL     1       2.796  -4.972   6.006  1.00  0.00    -0.058 C 
ATOM     21  C   UNL     1       2.369  -4.069   5.345  1.00  0.00    -0.062 C 
BRANCH  21  22
ATOM     22  C   UNL     1       1.868  -3.013   4.514  1.00  0.00     0.025 A 
ATOM     23  C   UNL     1       0.949  -0.966   2.858  1.00  0.00     0.082 A 
ATOM     24  C   UNL     1       1.893  -0.685   3.850  1.00  0.00     0.023 A 
ATOM     25  C   UNL     1       0.443  -2.260   2.702  1.00  0.00     0.023 A 
ATOM     26  C   UNL     1       2.353  -1.713   4.676  1.00  0.00     0.018 A 
ATOM     27  C   UNL     1       0.908  -3.285   3.532  1.00  0.00     0.018 A 
BRANCH  23  28
ATOM     28  S   UNL     1       0.380   0.328   1.796  1.00  0.00     0.238 S 
ATOM     29  O   UNL     1       0.984   1.580   2.184  1.00  0.00    -0.207 OA
ATOM     30  O   UNL     1      -1.042   0.178   1.595  1.00  0.00    -0.207 OA
BRANCH  28  31
ATOM     31  N   UNL     1       1.101  -0.077   0.332  1.00  0.00    -0.225 NA
ATOM     32  H   UNL     1       0.843   0.610  -0.376  1.00  0.00     0.137 HD
ATOM     33  H   UNL     1       0.783  -1.002   0.041  1.00  0.00     0.137 HD
ENDBRANCH  28  31
ENDBRANCH  23  28
ENDBRANCH  21  22
ENDBRANCH  10  20
BRANCH  19  34
ATOM     34  C   UNL     1       7.049  -3.880   8.074  1.00  0.00     0.430 C 
ATOM     35  F   UNL     1       6.554  -2.771   7.477  1.00  0.00    -0.167 F 
ATOM     36  F   UNL     1       8.056  -3.482   8.883  1.00  0.00    -0.167 F 
ATOM     37  F   UNL     1       7.588  -4.659   7.106  1.00  0.00    -0.167 F 
ENDBRANCH  19  34
ENDBRANCH   7   9
ENDBRANCH   6   7
ENDBRANCH   5   6
ENDBRANCH   4   5
ENDBRANCH   3   4
ENDBRANCH   2   3
ENDBRANCH   1   2
BRANCH   1  38
ATOM     38  O   UNL     1       5.482  -4.236  12.862  1.00  0.00    -0.377 OA
BRANCH  38  39
ATOM     39  C   UNL     1       5.604  -3.800  14.215  1.00  0.00     0.188 C 
BRANCH  39  40
ATOM     40  C   UNL     1       5.418  -4.747  15.429  1.00  0.00     0.188 C 
BRANCH  40  41
ATOM     41  O   UNL     1       4.650  -5.905  15.173  1.00  0.00    -0.376 OA
BRANCH  41  42
ATOM     42  C   UNL     1       3.307  -5.995  15.596  1.00  0.00     0.202 C 
BRANCH  42  43
ATOM     43  C   UNL     1       2.301  -4.901  15.214  1.00  0.00     0.261 C 
BRANCH  43  44
ATOM     44  O   UNL     1       2.758  -3.548  15.275  1.00  0.00    -0.460 OA
BRANCH  44  45
ATOM     45  C   UNL     1       2.939  -3.000  16.500  1.00  0.00     0.338 C 
ATOM     46  O   UNL     1       2.787  -3.547  17.575  1.00  0.00    -0.246 OA
BRANCH  45  47
ATOM     47  C   UNL     1       3.551  -1.670  16.279  1.00  0.00     0.060 A 
ATOM     48  C   UNL     1       2.889  -0.722  15.495  1.00  0.00     0.016 A 
ATOM     49  C   UNL     1       4.826  -1.397  16.794  1.00  0.00     0.016 A 
ATOM     50  C   UNL     1       3.497   0.509  15.245  1.00  0.00     0.010 A 
ATOM     51  C   UNL     1       5.436  -0.166  16.534  1.00  0.00     0.010 A 
ATOM     52  C   UNL     1       4.766   0.806  15.777  1.00  0.00    -0.014 A 
BRANCH  52  53
ATOM     53  C   UNL     1       5.290   2.193  15.686  1.00  0.00     0.031 A 
ATOM     54  C   UNL     1       6.406   2.572  14.759  1.00  0.00     0.074 A 
ATOM     55  C   UNL     1       4.717   3.127  16.470  1.00  0.00     0.049 A 
ATOM     56  N   UNL     1       6.894   3.761  14.511  1.00  0.00    -0.248 NA
ATOM     57  C   UNL     1       7.064   1.484  14.022  1.00  0.00     0.031 C 
ATOM     58  C   UNL     1       3.647   2.862  17.434  1.00  0.00     0.029 A 
ATOM     59  N   UNL     1       4.933   4.477  16.573  1.00  0.00    -0.354 N 
ATOM     60  C   UNL     1       7.901   3.575  13.572  1.00  0.00     0.074 A 
ATOM     61  C   UNL     1       7.988   2.147  13.336  1.00  0.00     0.031 C 
ATOM     62  C   UNL     1       3.270   4.018  17.999  1.00  0.00     0.029 A 
ATOM     63  C   UNL     1       4.095   5.099  17.468  1.00  0.00     0.049 A 
ATOM     64  H   UNL     1       5.621   4.954  16.056  1.00  0.00     0.167 HD
ATOM     65  C   UNL     1       8.662   4.512  12.953  1.00  0.00     0.037 A 
ATOM     66  C   UNL     1       3.996   6.394  17.823  1.00  0.00     0.037 A 
ATOM     67  C   UNL     1       8.576   5.930  13.216  1.00  0.00     0.049 A 
ATOM     68  C   UNL     1       4.887   7.406  17.159  1.00  0.00     0.074 A 
ATOM     69  C   UNL     1       9.282   6.959  12.614  1.00  0.00     0.029 A 
ATOM     70  N   UNL     1       7.751   6.521  14.164  1.00  0.00    -0.354 N 
ATOM     71  N   UNL     1       5.779   7.223  16.215  1.00  0.00    -0.248 NA
ATOM     72  C   UNL     1       4.756   8.799  17.603  1.00  0.00     0.031 C 
ATOM     73  C   UNL     1       8.934   8.159  13.242  1.00  0.00     0.029 A 
ATOM     74  C   UNL     1       7.960   7.892  14.190  1.00  0.00     0.049 A 
ATOM     75  H   UNL     1       7.112   6.037  14.735  1.00  0.00     0.167 HD
ATOM     76  C   UNL     1       6.305   8.480  15.940  1.00  0.00     0.074 A 
ATOM     77  C   UNL     1       5.613   9.418  16.801  1.00  0.00     0.031 C 
ATOM     78  C   UNL     1       7.276   8.823  15.057  1.00  0.00     0.037 A 
BRANCH  65  79
ATOM     79  C   UNL     1       9.660   4.047  11.924  1.00  0.00     0.058 A 
ATOM     80  C   UNL     1       9.249   3.521  10.688  1.00  0.00     0.135 A 
ATOM     81  C   UNL     1      11.040   4.199  12.139  1.00  0.00     0.135 A 
ATOM     82  F   UNL     1       7.943   3.349  10.427  1.00  0.00    -0.206 F 
ATOM     83  C   UNL     1      10.168   3.138   9.716  1.00  0.00     0.059 A 
ATOM     84  C   UNL     1      11.977   3.852  11.168  1.00  0.00     0.059 A 
ATOM     85  F   UNL     1      11.493   4.703  13.297  1.00  0.00    -0.206 F 
ATOM     86  C   UNL     1      11.530   3.310   9.964  1.00  0.00     0.060 A 
BRANCH  86  87
ATOM     87  S   UNL     1      12.705   2.803   8.691  1.00  0.00     0.124 S 
ATOM     88  O   UNL     1      12.521   1.355   8.684  1.00  0.00    -0.237 OA
ATOM     89  O   UNL     1      12.211   3.511   7.514  1.00  0.00    -0.237 OA
ATOM     90  O   UNL     1      13.990   3.266   9.206  1.00  0.00    -0.744 OA
ENDBRANCH  86  87
ENDBRANCH  65  79
BRANCH  66  91
ATOM     91  C   UNL     1       2.988   6.799  18.840  1.00  0.00     0.058 A 
ATOM     92  C   UNL     1       1.870   7.566  18.483  1.00  0.00     0.135 A 
ATOM     93  C   UNL     1       3.098   6.385  20.177  1.00  0.00     0.135 A 
ATOM     94  F   UNL     1       1.723   7.991  17.219  1.00  0.00    -0.206 F 
ATOM     95  C   UNL     1       0.899   7.913  19.416  1.00  0.00     0.059 A 
ATOM     96  C   UNL     1       2.125   6.693  21.121  1.00  0.00     0.059 A 
ATOM     97  F   UNL     1       4.142   5.635  20.566  1.00  0.00    -0.206 F 
ATOM     98  C   UNL     1       1.030   7.462  20.731  1.00  0.00     0.060 A 
BRANCH  98  99
ATOM     99  S   UNL     1      -0.272   7.866  21.914  1.00  0.00     0.124 S 
ATOM    100  O   UNL     1      -0.129   9.312  22.029  1.00  0.00    -0.237 OA
ATOM    101  O   UNL     1      -1.467   7.395  21.220  1.00  0.00    -0.237 OA
ATOM    102  O   UNL     1       0.099   7.099  23.099  1.00  0.00    -0.744 OA
ENDBRANCH  98  99
ENDBRANCH  66  91
BRANCH  78 103
ATOM    103  C   UNL     1       7.656  10.278  14.967  1.00  0.00     0.058 A 
ATOM    104  C   UNL     1       8.347  10.925  16.005  1.00  0.00     0.135 A 
ATOM    105  C   UNL     1       7.387  11.020  13.803  1.00  0.00     0.135 A 
ATOM    106  F   UNL     1       8.624  10.269  17.143  1.00  0.00    -0.206 F 
ATOM    107  C   UNL     1       8.738  12.256  15.902  1.00  0.00     0.059 A 
ATOM    108  C   UNL     1       7.800  12.342  13.665  1.00  0.00     0.059 A 
ATOM    109  F   UNL     1       6.738  10.452  12.775  1.00  0.00    -0.206 F 
ATOM    110  C   UNL     1       8.467  12.954  14.724  1.00  0.00     0.060 A 
BRANCH 110 111
ATOM    111  S   UNL     1       9.017  14.669  14.595  1.00  0.00     0.124 S 
ATOM    112  O   UNL     1       8.166  15.328  15.581  1.00  0.00    -0.237 OA
ATOM    113  O   UNL     1      10.430  14.567  14.947  1.00  0.00    -0.237 OA
ATOM    114  O   UNL     1       8.745  15.013  13.203  1.00  0.00    -0.744 OA
ENDBRANCH 110 111
ENDBRANCH  78 103
ENDBRANCH  52  53
ENDBRANCH  45  47
ENDBRANCH  44  45
ENDBRANCH  43  44
ENDBRANCH  42  43
ENDBRANCH  41  42
ENDBRANCH  40  41
ENDBRANCH  39  40
ENDBRANCH  38  39
ENDBRANCH   1  38
TORSDOF 28
