REMARK SMILES COc1ccc(OCc2cccs2)c(C(=O)OCCOCCOCCOCCOC(=O)c2ccc(-c3c4nc(c(-c5c(F)cc(S(=O)(=O)[O-])cc5F)c5ccc([nH]5)c(-c5c(F)cc(S(=O)(=O)[O-])cc5F)c5nc(c(-c6c(F)cc(S(=O)(=O)[O-])cc6F)c6ccc3[nH]6)C=C5)C=C4)cc2)c1
REMARK SMILES IDX 23 1 22 2 21 3 20 4 19 5 18 6 17 7 15 8 16 9 14 10 3 11 4 12
REMARK SMILES IDX 98 13 5 14 6 15 2 16 1 17 7 18 8 19 9 20 10 21 13 22 11 23
REMARK SMILES IDX 12 24 24 25 25 26 26 27 27 28 28 29 29 30 30 31 31 32 32 33
REMARK SMILES IDX 33 34 97 35 34 36 96 37 35 38 36 39 37 40 90 41 38 42 95 43
REMARK SMILES IDX 89 44 91 45 39 46 94 47 88 48 87 49 40 51 74 52 53 53 73 54
REMARK SMILES IDX 54 55 57 56 72 57 92 58 55 59 56 60 71 62 93 63 58 64 41 65
REMARK SMILES IDX 42 66 51 67 43 68 44 69 50 70 52 71 45 72 46 73 47 74 48 75
REMARK SMILES IDX 49 76 75 77 76 78 85 79 77 80 78 81 84 82 86 83 79 84 80 85
REMARK SMILES IDX 81 86 82 87 83 88 59 89 60 90 69 91 61 92 62 93 68 94 70 95
REMARK SMILES IDX 63 96 64 97 65 98 66 99 67 100
REMARK H PARENT 91 50 57 61
REMARK Flexibility Score: inf
ROOT
ATOM      1  O   UNL     1       5.395  -4.585  -0.746  1.00  0.00    -0.377 OA
ENDROOT
BRANCH   1   2
ATOM      2  C   UNL     1       4.477  -5.007  -1.736  1.00  0.00     0.188 C 
BRANCH   2   3
ATOM      3  C   UNL     1       4.931  -5.032  -3.205  1.00  0.00     0.188 C 
BRANCH   3   4
ATOM      4  O   UNL     1       6.252  -4.574  -3.470  1.00  0.00    -0.376 OA
BRANCH   4   5
ATOM      5  C   UNL     1       6.380  -3.251  -3.985  1.00  0.00     0.202 C 
BRANCH   5   6
ATOM      6  C   UNL     1       6.031  -2.149  -2.982  1.00  0.00     0.261 C 
BRANCH   6   7
ATOM      7  O   UNL     1       4.648  -2.203  -2.598  1.00  0.00    -0.460 OA
BRANCH   7   8
ATOM      8  C   UNL     1       3.761  -1.845  -3.556  1.00  0.00     0.342 C 
ATOM      9  O   UNL     1       4.058  -1.362  -4.628  1.00  0.00    -0.246 OA
BRANCH   8  10
ATOM     10  C   UNL     1       2.404  -2.151  -3.047  1.00  0.00     0.105 A 
ATOM     11  C   UNL     1       0.934  -1.760  -1.128  1.00  0.00     0.119 A 
ATOM     12  C   UNL     1       0.019  -2.652  -1.661  1.00  0.00     0.050 A 
ATOM     13  C   UNL     1       2.131  -1.537  -1.800  1.00  0.00     0.066 A 
ATOM     14  C   UNL     1       0.267  -3.241  -2.901  1.00  0.00     0.051 A 
ATOM     15  C   UNL     1       1.440  -2.982  -3.639  1.00  0.00     0.134 A 
BRANCH  11  16
ATOM     16  O   UNL     1       0.588  -1.184   0.061  1.00  0.00    -0.497 OA
ATOM     17  C   UNL     1       1.092   0.137   0.251  1.00  0.00     0.278 C 
ENDBRANCH  11  16
BRANCH  15  18
ATOM     18  O   UNL     1       1.359  -3.626  -4.837  1.00  0.00    -0.487 OA
BRANCH  18  19
ATOM     19  C   UNL     1       2.340  -3.650  -5.867  1.00  0.00     0.276 C 
BRANCH  19  20
ATOM     20  C   UNL     1       2.408  -2.361  -6.614  1.00  0.00     0.042 A 
ATOM     21  C   UNL     1       1.697  -1.187  -6.450  1.00  0.00     0.019 A 
ATOM     22  S   UNL     1       3.645  -2.180  -7.798  1.00  0.00    -0.145 S 
ATOM     23  C   UNL     1       2.344  -0.088  -7.088  1.00  0.00     0.012 A 
ATOM     24  C   UNL     1       3.437  -0.485  -7.824  1.00  0.00     0.065 A 
ENDBRANCH  19  20
ENDBRANCH  18  19
ENDBRANCH  15  18
ENDBRANCH   8  10
ENDBRANCH   7   8
ENDBRANCH   6   7
ENDBRANCH   5   6
ENDBRANCH   4   5
ENDBRANCH   3   4
ENDBRANCH   2   3
ENDBRANCH   1   2
BRANCH   1  25
ATOM     25  C   UNL     1       6.732  -5.060  -0.789  1.00  0.00     0.188 C 
BRANCH  25  26
ATOM     26  C   UNL     1       7.065  -6.443  -1.385  1.00  0.00     0.188 C 
BRANCH  26  27
ATOM     27  O   UNL     1       5.951  -7.311  -1.564  1.00  0.00    -0.376 OA
BRANCH  27  28
ATOM     28  C   UNL     1       5.862  -8.399  -0.654  1.00  0.00     0.202 C 
BRANCH  28  29
ATOM     29  C   UNL     1       5.322  -8.004   0.725  1.00  0.00     0.261 C 
BRANCH  29  30
ATOM     30  O   UNL     1       6.149  -7.088   1.458  1.00  0.00    -0.460 OA
BRANCH  30  31
ATOM     31  C   UNL     1       7.408  -7.490   1.739  1.00  0.00     0.338 C 
ATOM     32  O   UNL     1       7.909  -8.571   1.486  1.00  0.00    -0.246 OA
BRANCH  31  33
ATOM     33  C   UNL     1       8.156  -6.319   2.233  1.00  0.00     0.060 A 
ATOM     34  C   UNL     1       9.375  -5.995   1.623  1.00  0.00     0.016 A 
ATOM     35  C   UNL     1       7.648  -5.536   3.275  1.00  0.00     0.016 A 
ATOM     36  C   UNL     1      10.123  -4.920   2.099  1.00  0.00     0.010 A 
ATOM     37  C   UNL     1       8.408  -4.475   3.766  1.00  0.00     0.010 A 
ATOM     38  C   UNL     1       9.670  -4.200   3.213  1.00  0.00    -0.014 A 
BRANCH  38  39
ATOM     39  C   UNL     1      10.642  -3.392   3.985  1.00  0.00     0.031 A 
ATOM     40  C   UNL     1      11.407  -4.096   5.074  1.00  0.00     0.074 A 
ATOM     41  C   UNL     1      10.862  -2.093   3.722  1.00  0.00     0.049 A 
ATOM     42  N   UNL     1      12.330  -3.636   5.875  1.00  0.00    -0.248 NA
ATOM     43  C   UNL     1      11.081  -5.518   5.284  1.00  0.00     0.031 C 
ATOM     44  C   UNL     1      10.205  -1.315   2.674  1.00  0.00     0.029 A 
ATOM     45  N   UNL     1      11.712  -1.202   4.325  1.00  0.00    -0.354 N 
ATOM     46  C   UNL     1      12.696  -4.710   6.679  1.00  0.00     0.074 A 
ATOM     47  C   UNL     1      11.872  -5.833   6.296  1.00  0.00     0.031 C 
ATOM     48  C   UNL     1      10.682  -0.057   2.705  1.00  0.00     0.029 A 
ATOM     49  C   UNL     1      11.661   0.060   3.786  1.00  0.00     0.049 A 
ATOM     50  H   UNL     1      12.303  -1.444   5.074  1.00  0.00     0.167 HD
ATOM     51  C   UNL     1      13.640  -4.761   7.646  1.00  0.00     0.037 A 
ATOM     52  C   UNL     1      12.332   1.177   4.132  1.00  0.00     0.037 A 
ATOM     53  C   UNL     1      14.443  -3.637   8.040  1.00  0.00     0.049 A 
ATOM     54  C   UNL     1      13.331   1.117   5.261  1.00  0.00     0.074 A 
ATOM     55  C   UNL     1      15.434  -3.580   9.003  1.00  0.00     0.029 A 
ATOM     56  N   UNL     1      14.333  -2.365   7.498  1.00  0.00    -0.354 N 
ATOM     57  N   UNL     1      13.696   0.087   5.990  1.00  0.00    -0.248 NA
ATOM     58  C   UNL     1      14.013   2.371   5.611  1.00  0.00     0.031 C 
ATOM     59  C   UNL     1      15.895  -2.260   9.072  1.00  0.00     0.029 A 
ATOM     60  C   UNL     1      15.223  -1.508   8.120  1.00  0.00     0.049 A 
ATOM     61  H   UNL     1      13.713  -2.110   6.776  1.00  0.00     0.167 HD
ATOM     62  C   UNL     1      14.676   0.561   6.857  1.00  0.00     0.074 A 
ATOM     63  C   UNL     1      14.844   1.970   6.564  1.00  0.00     0.031 C 
ATOM     64  C   UNL     1      15.380  -0.110   7.804  1.00  0.00     0.037 A 
BRANCH  51  65
ATOM     65  C   UNL     1      13.810  -6.072   8.359  1.00  0.00     0.058 A 
ATOM     66  C   UNL     1      14.386  -7.186   7.726  1.00  0.00     0.135 A 
ATOM     67  C   UNL     1      13.350  -6.230   9.675  1.00  0.00     0.135 A 
ATOM     68  F   UNL     1      14.818  -7.096   6.458  1.00  0.00    -0.206 F 
ATOM     69  C   UNL     1      14.459  -8.423   8.358  1.00  0.00     0.059 A 
ATOM     70  C   UNL     1      13.437  -7.451  10.336  1.00  0.00     0.059 A 
ATOM     71  F   UNL     1      12.784  -5.199  10.321  1.00  0.00    -0.206 F 
ATOM     72  C   UNL     1      13.972  -8.547   9.660  1.00  0.00     0.060 A 
BRANCH  72  73
ATOM     73  S   UNL     1      14.033 -10.165  10.458  1.00  0.00     0.124 S 
ATOM     74  O   UNL     1      12.922 -10.852   9.805  1.00  0.00    -0.237 OA
ATOM     75  O   UNL     1      15.366 -10.641  10.104  1.00  0.00    -0.237 OA
ATOM     76  O   UNL     1      13.836  -9.854  11.870  1.00  0.00    -0.744 OA
ENDBRANCH  72  73
ENDBRANCH  51  65
BRANCH  52  77
ATOM     77  C   UNL     1      12.107   2.443   3.386  1.00  0.00     0.058 A 
ATOM     78  C   UNL     1      13.089   2.954   2.524  1.00  0.00     0.135 A 
ATOM     79  C   UNL     1      10.909   3.163   3.513  1.00  0.00     0.135 A 
ATOM     80  F   UNL     1      14.256   2.308   2.380  1.00  0.00    -0.206 F 
ATOM     81  C   UNL     1      12.895   4.137   1.818  1.00  0.00     0.059 A 
ATOM     82  C   UNL     1      10.684   4.338   2.802  1.00  0.00     0.059 A 
ATOM     83  F   UNL     1       9.937   2.713   4.321  1.00  0.00    -0.206 F 
ATOM     84  C   UNL     1      11.686   4.820   1.960  1.00  0.00     0.060 A 
BRANCH  84  85
ATOM     85  S   UNL     1      11.419   6.320   0.990  1.00  0.00     0.124 S 
ATOM     86  O   UNL     1      12.275   7.276   1.683  1.00  0.00    -0.237 OA
ATOM     87  O   UNL     1      11.865   5.909  -0.338  1.00  0.00    -0.237 OA
ATOM     88  O   UNL     1       9.983   6.550   1.116  1.00  0.00    -0.744 OA
ENDBRANCH  84  85
ENDBRANCH  52  77
BRANCH  64  89
ATOM     89  C   UNL     1      16.430   0.656   8.559  1.00  0.00     0.058 A 
ATOM     90  C   UNL     1      16.096   1.588   9.554  1.00  0.00     0.135 A 
ATOM     91  C   UNL     1      17.792   0.410   8.320  1.00  0.00     0.135 A 
ATOM     92  F   UNL     1      14.808   1.861   9.819  1.00  0.00    -0.206 F 
ATOM     93  C   UNL     1      17.076   2.268  10.269  1.00  0.00     0.059 A 
ATOM     94  C   UNL     1      18.789   1.061   9.041  1.00  0.00     0.059 A 
ATOM     95  F   UNL     1      18.165  -0.482   7.389  1.00  0.00    -0.206 F 
ATOM     96  C   UNL     1      18.421   1.998  10.005  1.00  0.00     0.060 A 
BRANCH  96  97
ATOM     97  S   UNL     1      19.686   2.864  10.957  1.00  0.00     0.124 S 
ATOM     98  O   UNL     1      19.678   4.180  10.326  1.00  0.00    -0.237 OA
ATOM     99  O   UNL     1      19.151   2.810  12.315  1.00  0.00    -0.237 OA
ATOM    100  O   UNL     1      20.886   2.065  10.732  1.00  0.00    -0.744 OA
ENDBRANCH  96  97
ENDBRANCH  64  89
ENDBRANCH  38  39
ENDBRANCH  31  33
ENDBRANCH  30  31
ENDBRANCH  29  30
ENDBRANCH  28  29
ENDBRANCH  27  28
ENDBRANCH  26  27
ENDBRANCH  25  26
ENDBRANCH   1  25
TORSDOF 27
