REMARK SMILES C[N@@H+]1[C@@H]2CC[C@H]1CN(C(=O)NC(C)(C)CC(=O)OCCOCCOCCOCCOC(=O)c1ccc(-c3c4nc(c(-c5c(F)cc(S(=O)(=O)[O-])cc5F)c5ccc([nH]5)c(-c5c(F)cc(S(=O)(=O)[O-])cc5F)c5nc(c(-c6c(F)cc(S(=O)(=O)[O-])cc6F)c6ccc3[nH]6)C=C5)C=C4)cc1)CC2
REMARK SMILES IDX 23 1 22 2 21 3 20 4 19 5 18 6 16 7 17 8 15 9 12 10 13 11
REMARK SMILES IDX 14 12 11 13 9 14 10 15 8 17 7 18 6 19 1 20 2 21 3 22 4 24
REMARK SMILES IDX 5 26 99 27 100 28 24 30 25 31 26 32 27 33 28 34 29 35 30 36
REMARK SMILES IDX 31 37 32 38 33 39 34 40 98 41 35 42 97 43 36 44 37 45 38 46
REMARK SMILES IDX 91 47 39 48 96 49 90 50 92 51 40 52 95 53 89 54 88 55 41 57
REMARK SMILES IDX 75 58 54 59 74 60 55 61 58 62 73 63 93 64 56 65 57 66 72 68
REMARK SMILES IDX 94 69 59 70 42 71 43 72 52 73 44 74 45 75 51 76 53 77 46 78
REMARK SMILES IDX 47 79 48 80 49 81 50 82 76 83 77 84 86 85 78 86 79 87 85 88
REMARK SMILES IDX 87 89 80 90 81 91 82 92 83 93 84 94 60 95 61 96 70 97 62 98
REMARK SMILES IDX 63 99 69 100 71 101 64 102 65 103 66 104 67 105 68 106
REMARK H PARENT 11 16 2 23 92 56 58 67
REMARK Flexibility Score: 90.00
ROOT
ATOM      1  C   UNL     1       0.498  -4.657   5.371  1.00  0.00     0.188 C 
ENDROOT
BRANCH   1   2
ATOM      2  C   UNL     1       1.614  -3.645   5.061  1.00  0.00     0.188 C 
BRANCH   2   3
ATOM      3  O   UNL     1       2.585  -3.527   6.075  1.00  0.00    -0.376 OA
BRANCH   3   4
ATOM      4  C   UNL     1       2.493  -2.426   6.952  1.00  0.00     0.202 C 
BRANCH   4   5
ATOM      5  C   UNL     1       1.159  -2.003   7.601  1.00  0.00     0.261 C 
BRANCH   5   6
ATOM      6  O   UNL     1      -0.076  -2.359   6.947  1.00  0.00    -0.463 OA
BRANCH   6   7
ATOM      7  C   UNL     1      -0.729  -1.383   6.277  1.00  0.00     0.308 C 
ATOM      8  O   UNL     1      -0.272  -0.254   6.115  1.00  0.00    -0.252 OA
BRANCH   7   9
ATOM      9  C   UNL     1      -2.166  -1.723   5.902  1.00  0.00     0.150 C 
BRANCH   9  10
ATOM     10  C   UNL     1      -2.650  -2.907   5.001  1.00  0.00     0.047 C 
ATOM     11  C   UNL     1      -4.008  -2.518   4.364  1.00  0.00     0.035 C 
ATOM     12  C   UNL     1      -2.980  -4.090   5.966  1.00  0.00     0.035 C 
BRANCH  10  13
ATOM     13  N   UNL     1      -1.834  -3.467   3.871  1.00  0.00    -0.333 N 
ATOM     14  C   UNL     1      -0.964  -3.227   2.876  1.00  0.00     0.318 C 
ATOM     15  O   UNL     1      -0.656  -4.232   2.224  1.00  0.00    -0.249 OA
ATOM     16  H   UNL     1      -2.017  -4.435   3.851  1.00  0.00     0.165 HD
BRANCH  14  17
ATOM     17  N   UNL     1      -0.366  -2.027   2.647  1.00  0.00    -0.319 N 
BRANCH  17  18
ATOM     18  C   UNL     1       0.922  -2.061   1.914  1.00  0.00     0.186 C 
BRANCH  18  19
ATOM     19  C   UNL     1       1.553  -0.766   1.349  1.00  0.00     0.204 C 
ATOM     20  C   UNL     1       1.268   0.582  -0.655  1.00  0.00     0.333 C 
ATOM     21  N   UNL     1       0.603  -0.039   0.486  1.00  0.00    -0.331 N 
ATOM     22  C   UNL     1      -0.049   0.932   1.371  1.00  0.00     0.186 CG0
ATOM     23  H   UNL     1      -0.083  -0.662   0.061  1.00  0.00     0.348 HD
ATOM     24  C   UNL     1       1.034   1.396   2.340  1.00  0.00     0.071 C 
ATOM     25  G   UNL     1      -1.235   0.250   2.053  1.00  0.00     0.000 G0
ATOM     26  C   UNL     1       2.019   0.235   2.416  1.00  0.00     0.073 C 
ENDBRANCH  18  19
ENDBRANCH  17  18
BRANCH  17  27
ATOM     27  C   UNL     1      -0.876  -0.767   3.119  1.00  0.00     0.128 C 
BRANCH  27  28
ATOM     28  C   UNL     1      -1.235   0.250   2.053  1.00  0.00     0.086 CG0
ATOM     29  G   UNL     1      -0.049   0.932   1.371  1.00  0.00     0.000 G0
ENDBRANCH  27  28
ENDBRANCH  17  27
ENDBRANCH  14  17
ENDBRANCH  10  13
ENDBRANCH   9  10
ENDBRANCH   7   9
ENDBRANCH   6   7
ENDBRANCH   5   6
ENDBRANCH   4   5
ENDBRANCH   3   4
ENDBRANCH   2   3
ENDBRANCH   1   2
BRANCH   1  30
ATOM     30  O   UNL     1       0.553  -5.556   6.463  1.00  0.00    -0.377 OA
BRANCH  30  31
ATOM     31  C   UNL     1       1.828  -5.967   6.904  1.00  0.00     0.188 C 
BRANCH  31  32
ATOM     32  C   UNL     1       2.787  -6.552   5.851  1.00  0.00     0.188 C 
BRANCH  32  33
ATOM     33  O   UNL     1       2.406  -6.296   4.507  1.00  0.00    -0.376 OA
BRANCH  33  34
ATOM     34  C   UNL     1       1.881  -7.372   3.742  1.00  0.00     0.202 C 
BRANCH  34  35
ATOM     35  C   UNL     1       0.566  -8.051   4.171  1.00  0.00     0.261 C 
BRANCH  35  36
ATOM     36  O   UNL     1       0.405  -8.345   5.563  1.00  0.00    -0.460 OA
BRANCH  36  37
ATOM     37  C   UNL     1       1.161  -9.338   6.084  1.00  0.00     0.338 C 
ATOM     38  O   UNL     1       1.969 -10.024   5.501  1.00  0.00    -0.246 OA
BRANCH  37  39
ATOM     39  C   UNL     1       0.985  -9.280   7.555  1.00  0.00     0.060 A 
ATOM     40  C   UNL     1       2.116  -9.043   8.349  1.00  0.00     0.016 A 
ATOM     41  C   UNL     1      -0.283  -9.375   8.137  1.00  0.00     0.016 A 
ATOM     42  C   UNL     1       1.978  -8.876   9.725  1.00  0.00     0.010 A 
ATOM     43  C   UNL     1      -0.412  -9.270   9.526  1.00  0.00     0.010 A 
ATOM     44  C   UNL     1       0.722  -9.041  10.323  1.00  0.00    -0.014 A 
BRANCH  44  45
ATOM     45  C   UNL     1       0.676  -9.268  11.786  1.00  0.00     0.031 A 
ATOM     46  C   UNL     1       0.825 -10.690  12.256  1.00  0.00     0.074 A 
ATOM     47  C   UNL     1       0.588  -8.256  12.666  1.00  0.00     0.049 A 
ATOM     48  N   UNL     1       0.857 -11.165  13.472  1.00  0.00    -0.248 NA
ATOM     49  C   UNL     1       0.966 -11.713  11.204  1.00  0.00     0.031 C 
ATOM     50  C   UNL     1       0.492  -6.838  12.323  1.00  0.00     0.029 A 
ATOM     51  N   UNL     1       0.571  -8.272  14.038  1.00  0.00    -0.354 N 
ATOM     52  C   UNL     1       1.038 -12.536  13.330  1.00  0.00     0.074 A 
ATOM     53  C   UNL     1       1.065 -12.824  11.915  1.00  0.00     0.031 C 
ATOM     54  C   UNL     1       0.410  -6.120  13.459  1.00  0.00     0.029 A 
ATOM     55  C   UNL     1       0.425  -7.028  14.605  1.00  0.00     0.049 A 
ATOM     56  H   UNL     1       0.654  -9.098  14.568  1.00  0.00     0.167 HD
ATOM     57  C   UNL     1       1.184 -13.471  14.296  1.00  0.00     0.037 A 
ATOM     58  C   UNL     1       0.300  -6.675  15.901  1.00  0.00     0.037 A 
ATOM     59  C   UNL     1       1.130 -13.179  15.701  1.00  0.00     0.049 A 
ATOM     60  C   UNL     1       0.367  -7.750  16.961  1.00  0.00     0.074 A 
ATOM     61  C   UNL     1       1.243 -14.052  16.767  1.00  0.00     0.029 A 
ATOM     62  N   UNL     1       0.935 -11.913  16.236  1.00  0.00    -0.354 N 
ATOM     63  N   UNL     1       0.556  -9.041  16.818  1.00  0.00    -0.248 NA
ATOM     64  C   UNL     1       0.213  -7.320  18.358  1.00  0.00     0.031 C 
ATOM     65  C   UNL     1       1.063 -13.323  17.946  1.00  0.00     0.029 A 
ATOM     66  C   UNL     1       0.902 -11.986  17.618  1.00  0.00     0.049 A 
ATOM     67  H   UNL     1       0.834 -11.087  15.711  1.00  0.00     0.167 HD
ATOM     68  C   UNL     1       0.574  -9.572  18.105  1.00  0.00     0.074 A 
ATOM     69  C   UNL     1       0.391  -8.459  19.014  1.00  0.00     0.031 C 
ATOM     70  C   UNL     1       0.730 -10.860  18.503  1.00  0.00     0.037 A 
BRANCH  57  71
ATOM     71  C   UNL     1       1.386 -14.894  13.855  1.00  0.00     0.058 A 
ATOM     72  C   UNL     1       2.577 -15.315  13.241  1.00  0.00     0.135 A 
ATOM     73  C   UNL     1       0.380 -15.851  14.058  1.00  0.00     0.135 A 
ATOM     74  F   UNL     1       3.560 -14.434  12.996  1.00  0.00    -0.206 F 
ATOM     75  C   UNL     1       2.756 -16.630  12.826  1.00  0.00     0.059 A 
ATOM     76  C   UNL     1       0.549 -17.179  13.679  1.00  0.00     0.059 A 
ATOM     77  F   UNL     1      -0.783 -15.500  14.628  1.00  0.00    -0.206 F 
ATOM     78  C   UNL     1       1.736 -17.556  13.053  1.00  0.00     0.060 A 
BRANCH  78  79
ATOM     79  S   UNL     1       1.990 -19.263  12.524  1.00  0.00     0.124 S 
ATOM     80  O   UNL     1       1.925 -19.131  11.071  1.00  0.00    -0.237 OA
ATOM     81  O   UNL     1       3.308 -19.565  13.074  1.00  0.00    -0.237 OA
ATOM     82  O   UNL     1       0.878 -19.980  13.138  1.00  0.00    -0.744 OA
ENDBRANCH  78  79
ENDBRANCH  57  71
BRANCH  58  83
ATOM     83  C   UNL     1       0.071  -5.251  16.276  1.00  0.00     0.058 A 
ATOM     84  C   UNL     1       1.021  -4.520  17.005  1.00  0.00     0.135 A 
ATOM     85  C   UNL     1      -1.125  -4.598  15.934  1.00  0.00     0.135 A 
ATOM     86  F   UNL     1       2.176  -5.099  17.371  1.00  0.00    -0.206 F 
ATOM     87  C   UNL     1       0.788  -3.205  17.401  1.00  0.00     0.059 A 
ATOM     88  C   UNL     1      -1.369  -3.276  16.291  1.00  0.00     0.059 A 
ATOM     89  F   UNL     1      -2.068  -5.246  15.231  1.00  0.00    -0.206 F 
ATOM     90  C   UNL     1      -0.411  -2.591  17.036  1.00  0.00     0.060 A 
BRANCH  90  91
ATOM     91  S   UNL     1      -0.691  -0.874  17.523  1.00  0.00     0.124 S 
ATOM     92  O   UNL     1      -0.904  -1.006  18.959  1.00  0.00    -0.237 OA
ATOM     93  O   UNL     1       0.556  -0.235  17.117  1.00  0.00    -0.237 OA
ATOM     94  O   UNL     1      -1.865  -0.491  16.743  1.00  0.00    -0.744 OA
ENDBRANCH  90  91
ENDBRANCH  58  83
BRANCH  70  95
ATOM     95  C   UNL     1       0.752 -11.136  19.983  1.00  0.00     0.058 A 
ATOM     96  C   UNL     1      -0.405 -11.047  20.772  1.00  0.00     0.135 A 
ATOM     97  C   UNL     1       1.938 -11.562  20.605  1.00  0.00     0.135 A 
ATOM     98  F   UNL     1      -1.564 -10.643  20.229  1.00  0.00    -0.206 F 
ATOM     99  C   UNL     1      -0.381 -11.343  22.131  1.00  0.00     0.059 A 
ATOM    100  C   UNL     1       1.977 -11.895  21.954  1.00  0.00     0.059 A 
ATOM    101  F   UNL     1       3.071 -11.679  19.893  1.00  0.00    -0.206 F 
ATOM    102  C   UNL     1       0.815 -11.770  22.712  1.00  0.00     0.060 A 
BRANCH 102 103
ATOM    103  S   UNL     1       0.822 -12.184  24.469  1.00  0.00     0.124 S 
ATOM    104  O   UNL     1       0.711 -10.864  25.083  1.00  0.00    -0.237 OA
ATOM    105  O   UNL     1      -0.353 -13.041  24.592  1.00  0.00    -0.237 OA
ATOM    106  O   UNL     1       2.104 -12.856  24.656  1.00  0.00    -0.744 OA
ENDBRANCH 102 103
ENDBRANCH  70  95
ENDBRANCH  44  45
ENDBRANCH  37  39
ENDBRANCH  36  37
ENDBRANCH  35  36
ENDBRANCH  34  35
ENDBRANCH  33  34
ENDBRANCH  32  33
ENDBRANCH  31  32
ENDBRANCH  30  31
ENDBRANCH   1  30
TORSDOF 26
