REMARK SMILES C[C@H](C(=O)OCCOCCOCCOCCOC(=O)c1ccc(-c2c3nc(c(-c4c(F)cc(S(=O)(=O)[O-])cc4F)c4ccc([nH]4)c(-c4c(F)cc(S(=O)(=O)[O-])cc4F)c4nc(c(-c5c(F)cc(S(=O)(=O)[O-])cc5F)c5ccc2[nH]5)C=C4)C=C3)cc1)c1ccc2c(c1)OCCO2
REMARK SMILES IDX 12 1 11 2 10 3 9 4 8 5 7 6 6 7 5 8 3 9 4 10 2 11 1 12 86 13
REMARK SMILES IDX 87 14 91 15 88 16 90 17 89 18 92 19 95 20 93 21 94 22 13 23
REMARK SMILES IDX 14 24 15 25 16 26 17 27 18 28 19 29 20 30 21 31 85 32 22 33
REMARK SMILES IDX 84 34 23 35 24 36 25 37 78 38 26 39 83 40 77 41 79 42 27 43
REMARK SMILES IDX 82 44 76 45 75 46 28 48 62 49 41 50 61 51 42 52 45 53 60 54
REMARK SMILES IDX 80 55 43 56 44 57 59 59 81 60 46 61 29 62 30 63 39 64 31 65
REMARK SMILES IDX 32 66 38 67 40 68 33 69 34 70 35 71 36 72 37 73 63 74 64 75
REMARK SMILES IDX 73 76 65 77 66 78 72 79 74 80 67 81 68 82 69 83 70 84 71 85
REMARK SMILES IDX 47 86 48 87 57 88 49 89 50 90 56 91 58 92 51 93 52 94 53 95
REMARK SMILES IDX 54 96 55 97
REMARK H PARENT 79 47 45 58
REMARK Flexibility Score: inf
ROOT
ATOM      1  C   UNL     1      -0.694  -2.572   2.134  1.00  0.00     0.188 C 
ENDROOT
BRANCH   1   2
ATOM      2  O   UNL     1      -0.322  -2.530   0.778  1.00  0.00    -0.377 OA
BRANCH   2   3
ATOM      3  C   UNL     1       0.994  -2.325   0.319  1.00  0.00     0.188 C 
BRANCH   3   4
ATOM      4  C   UNL     1       2.222  -2.342   1.208  1.00  0.00     0.188 C 
BRANCH   4   5
ATOM      5  O   UNL     1       2.022  -1.962   2.544  1.00  0.00    -0.376 OA
BRANCH   5   6
ATOM      6  C   UNL     1       1.946  -0.615   2.971  1.00  0.00     0.202 C 
BRANCH   6   7
ATOM      7  C   UNL     1       1.810   0.621   2.064  1.00  0.00     0.261 C 
BRANCH   7   8
ATOM      8  O   UNL     1       0.880   0.590   0.963  1.00  0.00    -0.463 OA
BRANCH   8   9
ATOM      9  C   UNL     1       1.320   1.253  -0.148  1.00  0.00     0.313 C 
ATOM     10  O   UNL     1       2.460   1.711  -0.248  1.00  0.00    -0.252 OA
BRANCH   9  11
ATOM     11  C   UNL     1       0.385   1.325  -1.350  1.00  0.00     0.126 C 
ATOM     12  C   UNL     1       0.968   0.418  -2.459  1.00  0.00     0.025 C 
BRANCH  11  13
ATOM     13  C   UNL     1      -1.111   1.068  -1.220  1.00  0.00    -0.030 A 
ATOM     14  C   UNL     1      -2.049   1.969  -1.753  1.00  0.00     0.009 A 
ATOM     15  C   UNL     1      -1.577  -0.191  -0.857  1.00  0.00     0.055 A 
ATOM     16  C   UNL     1      -3.356   1.548  -2.053  1.00  0.00     0.051 A 
ATOM     17  C   UNL     1      -2.849  -0.632  -1.174  1.00  0.00     0.161 A 
ATOM     18  C   UNL     1      -3.712   0.219  -1.844  1.00  0.00     0.161 A 
ATOM     19  O   UNL     1      -3.095  -1.957  -0.942  1.00  0.00    -0.486 OA
ATOM     20  O   UNL     1      -4.841  -0.276  -2.451  1.00  0.00    -0.486 OA
ATOM     21  C   UNL     1      -4.128  -2.498  -1.765  1.00  0.00     0.271 C 
ATOM     22  C   UNL     1      -4.504  -1.590  -2.931  1.00  0.00     0.271 C 
ENDBRANCH  11  13
ENDBRANCH   9  11
ENDBRANCH   8   9
ENDBRANCH   7   8
ENDBRANCH   6   7
ENDBRANCH   5   6
ENDBRANCH   4   5
ENDBRANCH   3   4
ENDBRANCH   2   3
ENDBRANCH   1   2
BRANCH   1  23
ATOM     23  C   UNL     1      -0.340  -3.887   2.833  1.00  0.00     0.188 C 
BRANCH  23  24
ATOM     24  O   UNL     1      -0.178  -5.065   2.043  1.00  0.00    -0.376 OA
BRANCH  24  25
ATOM     25  C   UNL     1      -0.989  -5.259   0.891  1.00  0.00     0.202 C 
BRANCH  25  26
ATOM     26  C   UNL     1      -2.493  -5.462   1.082  1.00  0.00     0.261 C 
BRANCH  26  27
ATOM     27  O   UNL     1      -3.144  -4.416   1.817  1.00  0.00    -0.460 OA
BRANCH  27  28
ATOM     28  C   UNL     1      -3.604  -4.789   3.035  1.00  0.00     0.338 C 
ATOM     29  O   UNL     1      -3.551  -5.899   3.534  1.00  0.00    -0.246 OA
BRANCH  28  30
ATOM     30  C   UNL     1      -4.091  -3.618   3.787  1.00  0.00     0.060 A 
ATOM     31  C   UNL     1      -3.466  -3.336   5.006  1.00  0.00     0.016 A 
ATOM     32  C   UNL     1      -5.231  -2.916   3.391  1.00  0.00     0.016 A 
ATOM     33  C   UNL     1      -4.012  -2.388   5.866  1.00  0.00     0.010 A 
ATOM     34  C   UNL     1      -5.790  -1.975   4.266  1.00  0.00     0.010 A 
ATOM     35  C   UNL     1      -5.208  -1.744   5.526  1.00  0.00    -0.014 A 
BRANCH  35  36
ATOM     36  C   UNL     1      -5.934  -0.996   6.580  1.00  0.00     0.031 A 
ATOM     37  C   UNL     1      -7.038  -1.695   7.330  1.00  0.00     0.074 A 
ATOM     38  C   UNL     1      -5.566   0.251   6.921  1.00  0.00     0.049 A 
ATOM     39  N   UNL     1      -7.796  -1.250   8.298  1.00  0.00    -0.248 NA
ATOM     40  C   UNL     1      -7.320  -3.087   6.938  1.00  0.00     0.031 C 
ATOM     41  C   UNL     1      -4.471   1.004   6.310  1.00  0.00     0.029 A 
ATOM     42  N   UNL     1      -6.071   1.102   7.872  1.00  0.00    -0.354 N 
ATOM     43  C   UNL     1      -8.647  -2.299   8.627  1.00  0.00     0.074 A 
ATOM     44  C   UNL     1      -8.329  -3.396   7.738  1.00  0.00     0.031 C 
ATOM     45  C   UNL     1      -4.392   2.210   6.899  1.00  0.00     0.029 A 
ATOM     46  C   UNL     1      -5.448   2.326   7.902  1.00  0.00     0.049 A 
ATOM     47  H   UNL     1      -6.811   0.858   8.474  1.00  0.00     0.167 HD
ATOM     48  C   UNL     1      -9.601  -2.345   9.586  1.00  0.00     0.037 A 
ATOM     49  C   UNL     1      -5.716   3.421   8.643  1.00  0.00     0.037 A 
ATOM     50  C   UNL     1      -9.909  -1.249  10.467  1.00  0.00     0.049 A 
ATOM     51  C   UNL     1      -6.838   3.372   9.648  1.00  0.00     0.074 A 
ATOM     52  C   UNL     1     -10.849  -1.199  11.482  1.00  0.00     0.029 A 
ATOM     53  N   UNL     1      -9.292  -0.007  10.432  1.00  0.00    -0.354 N 
ATOM     54  N   UNL     1      -7.625   2.369   9.961  1.00  0.00    -0.248 NA
ATOM     55  C   UNL     1      -7.109   4.604  10.404  1.00  0.00     0.031 C 
ATOM     56  C   UNL     1     -10.841   0.091  12.021  1.00  0.00     0.029 A 
ATOM     57  C   UNL     1      -9.853   0.827  11.386  1.00  0.00     0.049 A 
ATOM     58  H   UNL     1      -8.564   0.245   9.820  1.00  0.00     0.167 HD
ATOM     59  C   UNL     1      -8.462   2.839  10.969  1.00  0.00     0.074 A 
ATOM     60  C   UNL     1      -8.078   4.213  11.220  1.00  0.00     0.031 C 
ATOM     61  C   UNL     1      -9.454   2.192  11.630  1.00  0.00     0.037 A 
BRANCH  48  62
ATOM     62  C   UNL     1     -10.410  -3.608   9.707  1.00  0.00     0.058 A 
ATOM     63  C   UNL     1      -9.864  -4.798  10.214  1.00  0.00     0.135 A 
ATOM     64  C   UNL     1     -11.765  -3.618   9.338  1.00  0.00     0.135 A 
ATOM     65  F   UNL     1      -8.569  -4.852  10.565  1.00  0.00    -0.206 F 
ATOM     66  C   UNL     1     -10.625  -5.958  10.328  1.00  0.00     0.059 A 
ATOM     67  C   UNL     1     -12.553  -4.757   9.469  1.00  0.00     0.059 A 
ATOM     68  F   UNL     1     -12.339  -2.509   8.844  1.00  0.00    -0.206 F 
ATOM     69  C   UNL     1     -11.970  -5.927   9.953  1.00  0.00     0.060 A 
BRANCH  69  70
ATOM     70  S   UNL     1     -12.946  -7.437  10.113  1.00  0.00     0.124 S 
ATOM     71  O   UNL     1     -12.401  -8.253   9.033  1.00  0.00    -0.237 OA
ATOM     72  O   UNL     1     -12.620  -7.877  11.466  1.00  0.00    -0.237 OA
ATOM     73  O   UNL     1     -14.318  -6.978   9.920  1.00  0.00    -0.744 OA
ENDBRANCH  69  70
ENDBRANCH  48  62
BRANCH  49  74
ATOM     74  C   UNL     1      -4.920   4.663   8.450  1.00  0.00     0.058 A 
ATOM     75  C   UNL     1      -4.060   5.139   9.451  1.00  0.00     0.135 A 
ATOM     76  C   UNL     1      -5.008   5.403   7.260  1.00  0.00     0.135 A 
ATOM     77  F   UNL     1      -3.949   4.475  10.612  1.00  0.00    -0.206 F 
ATOM     78  C   UNL     1      -3.327   6.310   9.286  1.00  0.00     0.059 A 
ATOM     79  C   UNL     1      -4.265   6.561   7.061  1.00  0.00     0.059 A 
ATOM     80  F   UNL     1      -5.811   4.988   6.268  1.00  0.00    -0.206 F 
ATOM     81  C   UNL     1      -3.433   7.013   8.084  1.00  0.00     0.060 A 
BRANCH  81  82
ATOM     82  S   UNL     1      -2.441   8.505   7.862  1.00  0.00     0.124 S 
ATOM     83  O   UNL     1      -3.117   9.443   8.749  1.00  0.00    -0.237 OA
ATOM     84  O   UNL     1      -1.119   8.059   8.290  1.00  0.00    -0.237 OA
ATOM     85  O   UNL     1      -2.567   8.782   6.434  1.00  0.00    -0.744 OA
ENDBRANCH  81  82
ENDBRANCH  49  74
BRANCH  61  86
ATOM     86  C   UNL     1     -10.174   2.943  12.718  1.00  0.00     0.058 A 
ATOM     87  C   UNL     1     -11.071   3.984  12.433  1.00  0.00     0.135 A 
ATOM     88  C   UNL     1     -10.005   2.576  14.064  1.00  0.00     0.135 A 
ATOM     89  F   UNL     1     -11.267   4.379  11.165  1.00  0.00    -0.206 F 
ATOM     90  C   UNL     1     -11.758   4.649  13.444  1.00  0.00     0.059 A 
ATOM     91  C   UNL     1     -10.703   3.207  15.088  1.00  0.00     0.059 A 
ATOM     92  F   UNL     1      -9.168   1.579  14.393  1.00  0.00    -0.206 F 
ATOM     93  C   UNL     1     -11.569   4.252  14.769  1.00  0.00     0.060 A 
BRANCH  93  94
ATOM     94  S   UNL     1     -12.492   5.101  16.068  1.00  0.00     0.124 S 
ATOM     95  O   UNL     1     -11.806   6.388  16.122  1.00  0.00    -0.237 OA
ATOM     96  O   UNL     1     -13.846   5.126  15.524  1.00  0.00    -0.237 OA
ATOM     97  O   UNL     1     -12.307   4.243  17.234  1.00  0.00    -0.744 OA
ENDBRANCH  93  94
ENDBRANCH  61  86
ENDBRANCH  35  36
ENDBRANCH  28  30
ENDBRANCH  27  28
ENDBRANCH  26  27
ENDBRANCH  25  26
ENDBRANCH  24  25
ENDBRANCH  23  24
ENDBRANCH   1  23
TORSDOF 24
