REMARK SMILES Cc1c(CC(=O)N[C@@H](CCO)C(=O)OCCOCCOCCOCCOC(=O)c2ccc(-c3c4nc(c(-c5c(F)cc(S(=O)(=O)[O-])cc5F)c5ccc([nH]5)c(-c5c(F)cc(S(=O)(=O)[O-])cc5F)c5nc(c(-c6c(F)cc(S(=O)(=O)[O-])cc6F)c6ccc3[nH]6)C=C5)C=C4)cc2)cc(-c2ccc(S(C)(=O)=O)cc2)n1-c1ccc(F)cc1
REMARK SMILES IDX 19 1 18 2 17 3 16 4 15 5 14 6 12 7 13 8 8 9 7 10 5 11 6 12
REMARK SMILES IDX 4 14 3 15 1 16 2 17 107 18 95 19 96 20 108 21 109 22 114 23
REMARK SMILES IDX 110 24 113 25 111 26 112 27 97 28 98 29 106 30 99 31 105 32
REMARK SMILES IDX 100 33 101 34 102 35 103 36 104 37 9 38 10 39 11 40 20 42
REMARK SMILES IDX 21 43 22 44 23 45 24 46 25 47 26 48 27 49 28 50 29 51 30 52
REMARK SMILES IDX 94 53 31 54 93 55 32 56 33 57 34 58 87 59 35 60 92 61 86 62
REMARK SMILES IDX 88 63 36 64 91 65 85 66 84 67 37 69 71 70 50 71 70 72 51 73
REMARK SMILES IDX 54 74 69 75 89 76 52 77 53 78 68 80 90 81 55 82 38 83 39 84
REMARK SMILES IDX 48 85 40 86 41 87 47 88 49 89 42 90 43 91 44 92 45 93 46 94
REMARK SMILES IDX 72 95 73 96 82 97 74 98 75 99 81 100 83 101 76 102 77 103
REMARK SMILES IDX 78 104 79 105 80 106 56 107 57 108 66 109 58 110 59 111
REMARK SMILES IDX 65 112 67 113 60 114 61 115 62 116 63 117 64 118
REMARK H PARENT 7 13 11 41 88 68 54 79
REMARK Flexibility Score: inf
ROOT
ATOM      1  C   UNL     1      -5.032   0.585  -3.441  1.00  0.00     0.188 C 
ENDROOT
BRANCH   1   2
ATOM      2  C   UNL     1      -5.475   1.957  -2.896  1.00  0.00     0.188 C 
BRANCH   2   3
ATOM      3  O   UNL     1      -5.919   3.036  -3.711  1.00  0.00    -0.376 OA
BRANCH   3   4
ATOM      4  C   UNL     1      -5.696   3.012  -5.108  1.00  0.00     0.202 C 
BRANCH   4   5
ATOM      5  C   UNL     1      -4.251   3.261  -5.548  1.00  0.00     0.261 C 
BRANCH   5   6
ATOM      6  O   UNL     1      -3.269   2.558  -4.764  1.00  0.00    -0.462 OA
BRANCH   6   7
ATOM      7  C   UNL     1      -2.473   3.346  -3.991  1.00  0.00     0.328 C 
ATOM      8  O   UNL     1      -2.515   4.572  -3.951  1.00  0.00    -0.250 OA
BRANCH   7   9
ATOM      9  C   UNL     1      -1.405   2.547  -3.225  1.00  0.00     0.194 C 
BRANCH   9  10
ATOM     10  N   UNL     1      -1.621   1.111  -3.003  1.00  0.00    -0.342 N 
ATOM     11  C   UNL     1      -1.763   0.408  -1.840  1.00  0.00     0.225 C 
ATOM     12  O   UNL     1      -1.876  -0.818  -1.928  1.00  0.00    -0.275 OA
ATOM     13  H   UNL     1      -1.673   0.569  -3.824  1.00  0.00     0.164 HD
BRANCH  11  14
ATOM     14  C   UNL     1      -1.872   1.103  -0.488  1.00  0.00     0.137 C 
BRANCH  14  15
ATOM     15  C   UNL     1      -0.662   1.903  -0.128  1.00  0.00    -0.017 A 
ATOM     16  C   UNL     1       1.145   0.057  -0.050  1.00  0.00     0.065 C 
ATOM     17  C   UNL     1       0.651   1.469  -0.034  1.00  0.00     0.024 A 
ATOM     18  N   UNL     1       1.467   2.587   0.115  1.00  0.00    -0.314 N 
ATOM     19  C   UNL     1      -0.659   3.287   0.172  1.00  0.00     0.033 A 
ATOM     20  C   UNL     1       0.653   3.716   0.227  1.00  0.00     0.053 A 
BRANCH  18  21
ATOM     21  C   UNL     1       2.890   2.597   0.090  1.00  0.00     0.046 A 
ATOM     22  C   UNL     1       3.598   3.345   1.040  1.00  0.00     0.029 A 
ATOM     23  C   UNL     1       3.571   1.904  -0.920  1.00  0.00     0.029 A 
ATOM     24  C   UNL     1       4.990   3.395   0.979  1.00  0.00     0.041 A 
ATOM     25  C   UNL     1       4.963   1.973  -0.983  1.00  0.00     0.041 A 
ATOM     26  C   UNL     1       5.658   2.715  -0.034  1.00  0.00     0.123 A 
ATOM     27  F   UNL     1       6.994   2.783  -0.100  1.00  0.00    -0.207 F 
ENDBRANCH  18  21
BRANCH  20  28
ATOM     28  C   UNL     1       1.105   5.111   0.189  1.00  0.00    -0.001 A 
ATOM     29  C   UNL     1       1.873   5.576  -0.890  1.00  0.00     0.011 A 
ATOM     30  C   UNL     1       0.721   6.006   1.194  1.00  0.00     0.011 A 
ATOM     31  C   UNL     1       2.300   6.903  -0.938  1.00  0.00     0.021 A 
ATOM     32  C   UNL     1       1.144   7.337   1.154  1.00  0.00     0.021 A 
ATOM     33  C   UNL     1       1.949   7.771   0.099  1.00  0.00     0.067 A 
BRANCH  33  34
ATOM     34  S   UNL     1       2.542   9.443   0.046  1.00  0.00     0.175 S 
ATOM     35  C   UNL     1       4.294   9.264   0.271  1.00  0.00     0.163 C 
ATOM     36  O   UNL     1       2.297   9.954  -1.272  1.00  0.00    -0.224 OA
ATOM     37  O   UNL     1       2.027  10.131   1.232  1.00  0.00    -0.224 OA
ENDBRANCH  33  34
ENDBRANCH  20  28
ENDBRANCH  14  15
ENDBRANCH  11  14
ENDBRANCH   9  10
BRANCH   9  38
ATOM     38  C   UNL     1      -0.028   2.775  -3.870  1.00  0.00     0.065 C 
BRANCH  38  39
ATOM     39  C   UNL     1       0.180   2.054  -5.202  1.00  0.00     0.159 C 
BRANCH  39  40
ATOM     40  O   UNL     1      -0.738   2.501  -6.185  1.00  0.00    -0.396 OA
ATOM     41  H   UNL     1      -1.643   2.316  -5.890  1.00  0.00     0.210 HD
ENDBRANCH  39  40
ENDBRANCH  38  39
ENDBRANCH   9  38
ENDBRANCH   7   9
ENDBRANCH   6   7
ENDBRANCH   5   6
ENDBRANCH   4   5
ENDBRANCH   3   4
ENDBRANCH   2   3
ENDBRANCH   1   2
BRANCH   1  42
ATOM     42  O   UNL     1      -5.434   0.290  -4.764  1.00  0.00    -0.377 OA
BRANCH  42  43
ATOM     43  C   UNL     1      -5.660  -1.093  -5.035  1.00  0.00     0.188 C 
BRANCH  43  44
ATOM     44  C   UNL     1      -7.070  -1.497  -4.606  1.00  0.00     0.188 C 
BRANCH  44  45
ATOM     45  O   UNL     1      -7.242  -1.678  -3.204  1.00  0.00    -0.376 OA
BRANCH  45  46
ATOM     46  C   UNL     1      -6.415  -2.640  -2.539  1.00  0.00     0.202 C 
BRANCH  46  47
ATOM     47  C   UNL     1      -6.484  -4.107  -3.006  1.00  0.00     0.261 C 
BRANCH  47  48
ATOM     48  O   UNL     1      -5.350  -4.602  -3.783  1.00  0.00    -0.460 OA
BRANCH  48  49
ATOM     49  C   UNL     1      -5.689  -5.304  -4.906  1.00  0.00     0.338 C 
ATOM     50  O   UNL     1      -6.716  -5.115  -5.541  1.00  0.00    -0.246 OA
BRANCH  49  51
ATOM     51  C   UNL     1      -4.684  -6.345  -5.333  1.00  0.00     0.060 A 
ATOM     52  C   UNL     1      -3.973  -6.155  -6.518  1.00  0.00     0.016 A 
ATOM     53  C   UNL     1      -4.674  -7.638  -4.781  1.00  0.00     0.016 A 
ATOM     54  C   UNL     1      -3.296  -7.239  -7.142  1.00  0.00     0.010 A 
ATOM     55  C   UNL     1      -4.026  -8.742  -5.439  1.00  0.00     0.010 A 
ATOM     56  C   UNL     1      -3.351  -8.582  -6.663  1.00  0.00    -0.014 A 
BRANCH  56  57
ATOM     57  C   UNL     1      -3.241  -9.701  -7.727  1.00  0.00     0.031 A 
ATOM     58  C   UNL     1      -4.244  -9.368  -8.786  1.00  0.00     0.074 A 
ATOM     59  C   UNL     1      -2.524 -10.855  -7.958  1.00  0.00     0.049 A 
ATOM     60  N   UNL     1      -5.502  -9.117  -8.547  1.00  0.00    -0.248 NA
ATOM     61  C   UNL     1      -3.792  -9.025 -10.138  1.00  0.00     0.031 C 
ATOM     62  C   UNL     1      -1.466 -11.448  -7.135  1.00  0.00     0.029 A 
ATOM     63  N   UNL     1      -2.571 -11.772  -9.034  1.00  0.00    -0.354 N 
ATOM     64  C   UNL     1      -6.060  -8.924  -9.788  1.00  0.00     0.074 A 
ATOM     65  C   UNL     1      -4.948  -8.643 -10.677  1.00  0.00     0.031 C 
ATOM     66  C   UNL     1      -0.909 -12.524  -7.761  1.00  0.00     0.029 A 
ATOM     67  C   UNL     1      -1.583 -12.793  -9.028  1.00  0.00     0.049 A 
ATOM     68  H   UNL     1      -3.249 -11.707  -9.745  1.00  0.00     0.167 HD
ATOM     69  C   UNL     1      -7.227  -9.551 -10.103  1.00  0.00     0.037 A 
ATOM     70  C   UNL     1      -1.337 -13.798  -9.942  1.00  0.00     0.037 A 
ATOM     71  C   UNL     1      -7.092 -10.478 -11.192  1.00  0.00     0.049 A 
ATOM     72  C   UNL     1      -2.497 -13.906 -10.849  1.00  0.00     0.074 A 
ATOM     73  C   UNL     1      -6.603 -10.425 -12.481  1.00  0.00     0.029 A 
ATOM     74  N   UNL     1      -7.143 -11.811 -10.847  1.00  0.00    -0.354 N 
ATOM     75  N   UNL     1      -3.605 -14.483 -10.508  1.00  0.00    -0.248 NA
ATOM     76  C   UNL     1      -2.432 -13.450 -12.236  1.00  0.00     0.031 C 
ATOM     77  C   UNL     1      -6.012 -11.694 -12.730  1.00  0.00     0.029 A 
ATOM     78  C   UNL     1      -6.273 -12.523 -11.646  1.00  0.00     0.049 A 
ATOM     79  H   UNL     1      -7.711 -12.196 -10.141  1.00  0.00     0.167 HD
ATOM     80  C   UNL     1      -4.497 -14.107 -11.465  1.00  0.00     0.074 A 
ATOM     81  C   UNL     1      -3.697 -13.679 -12.594  1.00  0.00     0.031 C 
ATOM     82  C   UNL     1      -5.743 -13.744 -11.081  1.00  0.00     0.037 A 
BRANCH  69  83
ATOM     83  C   UNL     1      -8.216  -9.726  -8.995  1.00  0.00     0.058 A 
ATOM     84  C   UNL     1      -9.389  -8.964  -9.003  1.00  0.00     0.135 A 
ATOM     85  C   UNL     1      -8.007 -10.592  -7.905  1.00  0.00     0.135 A 
ATOM     86  F   UNL     1      -9.658  -8.151 -10.039  1.00  0.00    -0.206 F 
ATOM     87  C   UNL     1     -10.297  -9.020  -7.951  1.00  0.00     0.059 A 
ATOM     88  C   UNL     1      -8.887 -10.647  -6.829  1.00  0.00     0.059 A 
ATOM     89  F   UNL     1      -6.941 -11.411  -7.892  1.00  0.00    -0.206 F 
ATOM     90  C   UNL     1     -10.027  -9.847  -6.857  1.00  0.00     0.060 A 
BRANCH  90  91
ATOM     91  S   UNL     1     -11.151  -9.797  -5.444  1.00  0.00     0.124 S 
ATOM     92  O   UNL     1     -11.413  -8.366  -5.303  1.00  0.00    -0.237 OA
ATOM     93  O   UNL     1     -12.275 -10.591  -5.928  1.00  0.00    -0.237 OA
ATOM     94  O   UNL     1     -10.368 -10.383  -4.361  1.00  0.00    -0.744 OA
ENDBRANCH  90  91
ENDBRANCH  69  83
BRANCH  70  95
ATOM     95  C   UNL     1      -0.280 -14.854 -10.261  1.00  0.00     0.058 A 
ATOM     96  C   UNL     1      -0.625 -16.013 -11.025  1.00  0.00     0.135 A 
ATOM     97  C   UNL     1       1.097 -14.624 -10.151  1.00  0.00     0.135 A 
ATOM     98  F   UNL     1      -1.902 -16.392 -11.178  1.00  0.00    -0.206 F 
ATOM     99  C   UNL     1       0.297 -16.782 -11.742  1.00  0.00     0.059 A 
ATOM    100  C   UNL     1       2.051 -15.409 -10.839  1.00  0.00     0.059 A 
ATOM    101  F   UNL     1       1.549 -13.576  -9.448  1.00  0.00    -0.206 F 
ATOM    102  C   UNL     1       1.637 -16.448 -11.677  1.00  0.00     0.060 A 
BRANCH 102 103
ATOM    103  S   UNL     1       2.781 -17.300 -12.799  1.00  0.00     0.124 S 
ATOM    104  O   UNL     1       2.704 -18.682 -12.340  1.00  0.00    -0.237 OA
ATOM    105  O   UNL     1       2.183 -17.032 -14.104  1.00  0.00    -0.237 OA
ATOM    106  O   UNL     1       4.054 -16.628 -12.556  1.00  0.00    -0.744 OA
ENDBRANCH 102 103
ENDBRANCH  70  95
BRANCH  82 107
ATOM    107  C   UNL     1      -6.381 -14.495  -9.917  1.00  0.00     0.058 A 
ATOM    108  C   UNL     1      -5.769 -14.865  -8.696  1.00  0.00     0.135 A 
ATOM    109  C   UNL     1      -7.713 -14.917 -10.082  1.00  0.00     0.135 A 
ATOM    110  F   UNL     1      -4.574 -14.383  -8.322  1.00  0.00    -0.206 F 
ATOM    111  C   UNL     1      -6.386 -15.721  -7.781  1.00  0.00     0.059 A 
ATOM    112  C   UNL     1      -8.373 -15.714  -9.148  1.00  0.00     0.059 A 
ATOM    113  F   UNL     1      -8.400 -14.551 -11.177  1.00  0.00    -0.206 F 
ATOM    114  C   UNL     1      -7.682 -16.160  -8.026  1.00  0.00     0.060 A 
BRANCH 114 115
ATOM    115  S   UNL     1      -8.462 -17.299  -6.863  1.00  0.00     0.124 S 
ATOM    116  O   UNL     1      -7.839 -18.569  -7.227  1.00  0.00    -0.237 OA
ATOM    117  O   UNL     1      -8.073 -16.758  -5.566  1.00  0.00    -0.237 OA
ATOM    118  O   UNL     1      -9.881 -17.191  -7.188  1.00  0.00    -0.744 OA
ENDBRANCH 114 115
ENDBRANCH  82 107
ENDBRANCH  56  57
ENDBRANCH  49  51
ENDBRANCH  48  49
ENDBRANCH  47  48
ENDBRANCH  46  47
ENDBRANCH  45  46
ENDBRANCH  44  45
ENDBRANCH  43  44
ENDBRANCH  42  43
ENDBRANCH   1  42
TORSDOF 32
