REMARK SMILES C#CCN(CC(=O)OCCOCCOCCOCCOC(=O)c1ccc(-c2c3nc(c(-c4c(F)cc(S(=O)(=O)[O-])cc4F)c4ccc([nH]4)c(-c4c(F)cc(S(=O)(=O)[O-])cc4F)c4nc(c(-c5c(F)cc(S(=O)(=O)[O-])cc5F)c5ccc2[nH]5)C=C4)C=C3)cc1)C(=O)N1CC[N@@H+]2CCC[C@H]2C1
REMARK SMILES IDX 14 1 13 2 12 3 11 4 10 5 9 6 8 7 6 8 7 9 5 10 4 11 3 12 2 13
REMARK SMILES IDX 1 14 89 15 90 16 91 17 92 18 99 19 93 20 98 21 94 22 97 23
REMARK SMILES IDX 95 24 96 26 15 27 16 28 17 29 18 30 19 31 20 32 21 33 22 34
REMARK SMILES IDX 23 35 24 36 88 37 25 38 87 39 26 40 27 41 28 42 81 43 29 44
REMARK SMILES IDX 86 45 80 46 82 47 30 48 85 49 79 50 78 51 31 53 65 54 44 55
REMARK SMILES IDX 64 56 45 57 48 58 63 59 83 60 46 61 47 62 62 64 84 65 49 66
REMARK SMILES IDX 32 67 33 68 42 69 34 70 35 71 41 72 43 73 36 74 37 75 38 76
REMARK SMILES IDX 39 77 40 78 66 79 67 80 76 81 68 82 69 83 75 84 77 85 70 86
REMARK SMILES IDX 71 87 72 88 73 89 74 90 50 91 51 92 60 93 52 94 53 95 59 96
REMARK SMILES IDX 61 97 54 98 55 99 56 100 57 101 58 102
REMARK H PARENT 94 25 82 52 48 63
REMARK Flexibility Score: inf
ROOT
ATOM      1  O   UNL     1      -5.567  -1.199  -2.916  1.00  0.00    -0.377 OA
ENDROOT
BRANCH   1   2
ATOM      2  C   UNL     1      -4.926  -2.157  -2.127  1.00  0.00     0.188 C 
BRANCH   2   3
ATOM      3  C   UNL     1      -5.890  -3.218  -1.579  1.00  0.00     0.188 C 
BRANCH   3   4
ATOM      4  O   UNL     1      -7.255  -2.879  -1.443  1.00  0.00    -0.376 OA
BRANCH   4   5
ATOM      5  C   UNL     1      -7.550  -1.616  -0.863  1.00  0.00     0.202 C 
BRANCH   5   6
ATOM      6  C   UNL     1      -6.813  -1.166   0.428  1.00  0.00     0.261 C 
BRANCH   6   7
ATOM      7  O   UNL     1      -5.352  -1.125   0.399  1.00  0.00    -0.462 OA
BRANCH   7   8
ATOM      8  C   UNL     1      -4.667  -1.792   1.368  1.00  0.00     0.325 C 
ATOM      9  O   UNL     1      -5.224  -2.342   2.317  1.00  0.00    -0.250 OA
BRANCH   8  10
ATOM     10  C   UNL     1      -3.096  -1.794   1.271  1.00  0.00     0.245 C 
BRANCH  10  11
ATOM     11  N   UNL     1      -2.251  -1.504   0.084  1.00  0.00    -0.302 N 
BRANCH  11  12
ATOM     12  C   UNL     1      -1.763  -0.064  -0.048  1.00  0.00     0.211 C 
BRANCH  12  13
ATOM     13  C   UNL     1      -0.243  -0.064  -0.048  1.00  0.00    -0.085 C 
ATOM     14  C   UNL     1       1.061  -0.064  -0.048  1.00  0.00     0.006 C 
ENDBRANCH  12  13
ENDBRANCH  11  12
BRANCH  11  15
ATOM     15  C   UNL     1      -1.691  -2.442  -0.814  1.00  0.00     0.321 C 
ATOM     16  O   UNL     1      -0.984  -2.069  -1.758  1.00  0.00    -0.248 OA
BRANCH  15  17
ATOM     17  N   UNL     1      -1.871  -3.829  -0.641  1.00  0.00    -0.313 N 
ATOM     18  C   UNL     1      -3.203  -4.402  -0.526  1.00  0.00     0.183 C 
ATOM     19  C   UNL     1      -0.957  -4.710  -1.440  1.00  0.00     0.186 C 
ATOM     20  C   UNL     1      -3.322  -5.904  -0.238  1.00  0.00     0.284 C 
ATOM     21  C   UNL     1      -1.153  -6.227  -1.172  1.00  0.00     0.204 C 
ATOM     22  N   UNL     1      -2.568  -6.608  -1.260  1.00  0.00    -0.330 N 
ATOM     23  C   UNL     1      -0.554  -7.204  -2.181  1.00  0.00     0.073 C 
ATOM     24  C   UNL     1      -2.623  -8.056  -1.202  1.00  0.00     0.262 C 
ATOM     25  H   UNL     1      -3.012  -6.332  -2.136  1.00  0.00     0.348 HD
ATOM     26  C   UNL     1      -1.457  -8.449  -2.103  1.00  0.00     0.068 C 
ENDBRANCH  15  17
ENDBRANCH  11  15
ENDBRANCH  10  11
ENDBRANCH   8  10
ENDBRANCH   7   8
ENDBRANCH   6   7
ENDBRANCH   5   6
ENDBRANCH   4   5
ENDBRANCH   3   4
ENDBRANCH   2   3
ENDBRANCH   1   2
BRANCH   1  27
ATOM     27  C   UNL     1      -5.585  -1.468  -4.300  1.00  0.00     0.188 C 
BRANCH  27  28
ATOM     28  C   UNL     1      -5.587  -2.922  -4.817  1.00  0.00     0.188 C 
BRANCH  28  29
ATOM     29  O   UNL     1      -4.508  -3.815  -4.543  1.00  0.00    -0.376 OA
BRANCH  29  30
ATOM     30  C   UNL     1      -3.137  -3.481  -4.752  1.00  0.00     0.202 C 
BRANCH  30  31
ATOM     31  C   UNL     1      -2.664  -2.962  -6.105  1.00  0.00     0.261 C 
BRANCH  31  32
ATOM     32  O   UNL     1      -3.204  -1.669  -6.384  1.00  0.00    -0.460 OA
BRANCH  32  33
ATOM     33  C   UNL     1      -4.060  -1.609  -7.428  1.00  0.00     0.338 C 
ATOM     34  O   UNL     1      -4.349  -2.509  -8.203  1.00  0.00    -0.246 OA
BRANCH  33  35
ATOM     35  C   UNL     1      -4.801  -0.342  -7.331  1.00  0.00     0.060 A 
ATOM     36  C   UNL     1      -6.201  -0.410  -7.322  1.00  0.00     0.016 A 
ATOM     37  C   UNL     1      -4.138   0.877  -7.165  1.00  0.00     0.016 A 
ATOM     38  C   UNL     1      -6.948   0.748  -7.153  1.00  0.00     0.010 A 
ATOM     39  C   UNL     1      -4.889   2.044  -7.040  1.00  0.00     0.010 A 
ATOM     40  C   UNL     1      -6.293   1.981  -7.061  1.00  0.00    -0.014 A 
BRANCH  40  41
ATOM     41  C   UNL     1      -7.079   3.215  -7.246  1.00  0.00     0.031 A 
ATOM     42  C   UNL     1      -7.213   3.737  -8.648  1.00  0.00     0.074 A 
ATOM     43  C   UNL     1      -7.671   3.826  -6.208  1.00  0.00     0.049 A 
ATOM     44  N   UNL     1      -7.815   4.812  -9.078  1.00  0.00    -0.248 NA
ATOM     45  C   UNL     1      -6.579   2.934  -9.710  1.00  0.00     0.031 C 
ATOM     46  C   UNL     1      -7.635   3.366  -4.820  1.00  0.00     0.029 A 
ATOM     47  N   UNL     1      -8.414   4.977  -6.164  1.00  0.00    -0.354 N 
ATOM     48  C   UNL     1      -7.634   4.814 -10.455  1.00  0.00     0.074 A 
ATOM     49  C   UNL     1      -6.841   3.653 -10.789  1.00  0.00     0.031 C 
ATOM     50  C   UNL     1      -8.312   4.242  -4.055  1.00  0.00     0.029 A 
ATOM     51  C   UNL     1      -8.799   5.334  -4.895  1.00  0.00     0.049 A 
ATOM     52  H   UNL     1      -8.649   5.497  -6.966  1.00  0.00     0.167 HD
ATOM     53  C   UNL     1      -8.096   5.705 -11.360  1.00  0.00     0.037 A 
ATOM     54  C   UNL     1      -9.449   6.436  -4.470  1.00  0.00     0.037 A 
ATOM     55  C   UNL     1      -8.867   6.865 -11.004  1.00  0.00     0.049 A 
ATOM     56  C   UNL     1      -9.881   7.461  -5.490  1.00  0.00     0.074 A 
ATOM     57  C   UNL     1      -9.390   7.838 -11.835  1.00  0.00     0.029 A 
ATOM     58  N   UNL     1      -9.212   7.215  -9.706  1.00  0.00    -0.354 N 
ATOM     59  N   UNL     1      -9.729   7.444  -6.794  1.00  0.00    -0.248 NA
ATOM     60  C   UNL     1     -10.574   8.652  -4.983  1.00  0.00     0.031 C 
ATOM     61  C   UNL     1     -10.002   8.807 -11.034  1.00  0.00     0.029 A 
ATOM     62  C   UNL     1      -9.917   8.405  -9.710  1.00  0.00     0.049 A 
ATOM     63  H   UNL     1      -8.989   6.693  -8.902  1.00  0.00     0.167 HD
ATOM     64  C   UNL     1     -10.332   8.606  -7.265  1.00  0.00     0.074 A 
ATOM     65  C   UNL     1     -10.864   9.294  -6.106  1.00  0.00     0.031 C 
ATOM     66  C   UNL     1     -10.440   9.065  -8.538  1.00  0.00     0.037 A 
BRANCH  53  67
ATOM     67  C   UNL     1      -7.747   5.477 -12.803  1.00  0.00     0.058 A 
ATOM     68  C   UNL     1      -8.309   4.425 -13.544  1.00  0.00     0.135 A 
ATOM     69  C   UNL     1      -6.856   6.339 -13.462  1.00  0.00     0.135 A 
ATOM     70  F   UNL     1      -9.144   3.553 -12.956  1.00  0.00    -0.206 F 
ATOM     71  C   UNL     1      -7.988   4.226 -14.882  1.00  0.00     0.059 A 
ATOM     72  C   UNL     1      -6.543   6.176 -14.808  1.00  0.00     0.059 A 
ATOM     73  F   UNL     1      -6.279   7.352 -12.797  1.00  0.00    -0.206 F 
ATOM     74  C   UNL     1      -7.108   5.111 -15.507  1.00  0.00     0.060 A 
BRANCH  74  75
ATOM     75  S   UNL     1      -6.724   4.855 -17.252  1.00  0.00     0.124 S 
ATOM     76  O   UNL     1      -5.910   3.645 -17.198  1.00  0.00    -0.237 OA
ATOM     77  O   UNL     1      -8.050   4.700 -17.841  1.00  0.00    -0.237 OA
ATOM     78  O   UNL     1      -6.013   6.073 -17.627  1.00  0.00    -0.744 OA
ENDBRANCH  74  75
ENDBRANCH  53  67
BRANCH  54  79
ATOM     79  C   UNL     1      -9.711   6.639  -3.019  1.00  0.00     0.058 A 
ATOM     80  C   UNL     1     -11.016   6.627  -2.506  1.00  0.00     0.135 A 
ATOM     81  C   UNL     1      -8.659   6.861  -2.116  1.00  0.00     0.135 A 
ATOM     82  F   UNL     1     -12.058   6.431  -3.328  1.00  0.00    -0.206 F 
ATOM     83  C   UNL     1     -11.272   6.845  -1.155  1.00  0.00     0.059 A 
ATOM     84  C   UNL     1      -8.886   7.052  -0.756  1.00  0.00     0.059 A 
ATOM     85  F   UNL     1      -7.389   6.874  -2.551  1.00  0.00    -0.206 F 
ATOM     86  C   UNL     1     -10.199   7.054  -0.287  1.00  0.00     0.060 A 
BRANCH  86  87
ATOM     87  S   UNL     1     -10.539   7.293   1.470  1.00  0.00     0.124 S 
ATOM     88  O   UNL     1     -11.136   8.623   1.477  1.00  0.00    -0.237 OA
ATOM     89  O   UNL     1     -11.443   6.184   1.759  1.00  0.00    -0.237 OA
ATOM     90  O   UNL     1      -9.219   7.190   2.085  1.00  0.00    -0.744 OA
ENDBRANCH  86  87
ENDBRANCH  54  79
BRANCH  66  91
ATOM     91  C   UNL     1     -11.188  10.353  -8.749  1.00  0.00     0.058 A 
ATOM     92  C   UNL     1     -10.655  11.591  -8.358  1.00  0.00     0.135 A 
ATOM     93  C   UNL     1     -12.428  10.352  -9.409  1.00  0.00     0.135 A 
ATOM     94  F   UNL     1      -9.474  11.648  -7.721  1.00  0.00    -0.206 F 
ATOM     95  C   UNL     1     -11.337  12.780  -8.590  1.00  0.00     0.059 A 
ATOM     96  C   UNL     1     -13.112  11.532  -9.681  1.00  0.00     0.059 A 
ATOM     97  F   UNL     1     -12.976   9.196  -9.817  1.00  0.00    -0.206 F 
ATOM     98  C   UNL     1     -12.564  12.740  -9.255  1.00  0.00     0.060 A 
BRANCH  98  99
ATOM     99  S   UNL     1     -13.422  14.295  -9.578  1.00  0.00     0.124 S 
ATOM    100  O   UNL     1     -13.882  14.659  -8.242  1.00  0.00    -0.237 OA
ATOM    101  O   UNL     1     -12.360  15.128 -10.132  1.00  0.00    -0.237 OA
ATOM    102  O   UNL     1     -14.471  13.916 -10.520  1.00  0.00    -0.744 OA
ENDBRANCH  98  99
ENDBRANCH  66  91
ENDBRANCH  40  41
ENDBRANCH  33  35
ENDBRANCH  32  33
ENDBRANCH  31  32
ENDBRANCH  30  31
ENDBRANCH  29  30
ENDBRANCH  28  29
ENDBRANCH  27  28
ENDBRANCH   1  27
TORSDOF 28
