REMARK SMILES CSc1ccc(/C=C2\C(C)=C(CC(=O)OCCOCCOCCOCCOC(=O)c3ccc(-c4c5nc(c(-c6c(F)cc(S(=O)(=O)[O-])cc6F)c6ccc([nH]6)c(-c6c(F)cc(S(=O)(=O)[O-])cc6F)c6nc(c(-c7c(F)cc(S(=O)(=O)[O-])cc7F)c7ccc4[nH]7)C=C6)C=C5)cc3)c3cc(F)ccc32)cc1
REMARK SMILES IDX 21 1 20 2 19 3 18 4 17 5 16 6 15 7 13 8 14 9 12 10 11 11
REMARK SMILES IDX 7 12 8 13 9 14 102 15 10 16 96 17 101 18 97 19 100 20 98 21
REMARK SMILES IDX 99 22 6 23 3 24 4 25 104 26 5 27 103 28 2 29 1 30 22 31
REMARK SMILES IDX 23 32 24 33 25 34 26 35 27 36 28 37 29 38 30 39 31 40 95 41
REMARK SMILES IDX 32 42 94 43 33 44 34 45 35 46 88 47 36 48 93 49 87 50 89 51
REMARK SMILES IDX 37 52 92 53 86 54 85 55 38 57 72 58 51 59 71 60 52 61 55 62
REMARK SMILES IDX 70 63 90 64 53 65 54 66 69 68 91 69 56 70 39 71 40 72 49 73
REMARK SMILES IDX 41 74 42 75 48 76 50 77 43 78 44 79 45 80 46 81 47 82 73 83
REMARK SMILES IDX 74 84 83 85 75 86 76 87 82 88 84 89 77 90 78 91 79 92 80 93
REMARK SMILES IDX 81 94 57 95 58 96 67 97 59 98 60 99 66 100 68 101 61 102
REMARK SMILES IDX 62 103 63 104 64 105 65 106
REMARK H PARENT 89 56 55 67
REMARK Flexibility Score: inf
ROOT
ATOM      1  O   UNL     1       0.647  -4.309   8.957  1.00  0.00    -0.377 OA
ENDROOT
BRANCH   1   2
ATOM      2  C   UNL     1       1.457  -5.231   9.665  1.00  0.00     0.188 C 
BRANCH   2   3
ATOM      3  C   UNL     1       1.764  -4.792  11.095  1.00  0.00     0.188 C 
BRANCH   3   4
ATOM      4  O   UNL     1       0.653  -4.698  11.974  1.00  0.00    -0.376 OA
BRANCH   4   5
ATOM      5  C   UNL     1      -0.315  -3.678  11.722  1.00  0.00     0.202 C 
BRANCH   5   6
ATOM      6  C   UNL     1       0.186  -2.238  11.522  1.00  0.00     0.261 C 
BRANCH   6   7
ATOM      7  O   UNL     1       0.670  -1.985  10.181  1.00  0.00    -0.463 OA
BRANCH   7   8
ATOM      8  C   UNL     1       1.958  -1.582  10.069  1.00  0.00     0.310 C 
ATOM      9  O   UNL     1       2.698  -1.369  11.030  1.00  0.00    -0.252 OA
BRANCH   8  10
ATOM     10  C   UNL     1       2.459  -1.346   8.651  1.00  0.00     0.159 C 
BRANCH  10  11
ATOM     11  C   UNL     1       1.837  -2.041   7.434  1.00  0.00    -0.025 C 
ATOM     12  C   UNL     1       2.828   0.412   5.227  1.00  0.00     0.017 C 
ATOM     13  C   UNL     1       2.527  -0.803   5.709  1.00  0.00    -0.014 C 
ATOM     14  C   UNL     1       1.312  -1.295   6.413  1.00  0.00    -0.039 C 
ATOM     15  C   UNL     1       3.426  -1.977   5.672  1.00  0.00    -0.010 A 
ATOM     16  C   UNL     1       0.334  -1.996   5.454  1.00  0.00     0.045 C 
ATOM     17  C   UNL     1       2.875  -2.815   6.657  1.00  0.00    -0.011 A 
ATOM     18  C   UNL     1       4.081  -2.496   4.555  1.00  0.00     0.012 A 
ATOM     19  C   UNL     1       2.921  -4.189   6.496  1.00  0.00     0.048 A 
ATOM     20  C   UNL     1       4.123  -3.887   4.405  1.00  0.00     0.040 A 
ATOM     21  C   UNL     1       3.527  -4.714   5.361  1.00  0.00     0.123 A 
ATOM     22  F   UNL     1       3.421  -6.029   5.121  1.00  0.00    -0.207 F 
BRANCH  12  23
ATOM     23  C   UNL     1       1.899   1.390   4.604  1.00  0.00    -0.025 A 
ATOM     24  C   UNL     1       0.857   2.137   2.131  1.00  0.00     0.007 A 
ATOM     25  C   UNL     1       0.115   1.319   2.976  1.00  0.00     0.015 A 
ATOM     26  C   UNL     1       1.975   2.799   2.638  1.00  0.00     0.015 A 
ATOM     27  C   UNL     1       0.607   1.009   4.239  1.00  0.00     0.009 A 
ATOM     28  C   UNL     1       2.498   2.428   3.881  1.00  0.00     0.009 A 
BRANCH  24  29
ATOM     29  S   UNL     1       0.479   2.199   0.393  1.00  0.00    -0.130 SA
ATOM     30  C   UNL     1       0.960   0.492  -0.040  1.00  0.00     0.091 C 
ENDBRANCH  24  29
ENDBRANCH  12  23
ENDBRANCH  10  11
ENDBRANCH   8  10
ENDBRANCH   7   8
ENDBRANCH   6   7
ENDBRANCH   5   6
ENDBRANCH   4   5
ENDBRANCH   3   4
ENDBRANCH   2   3
ENDBRANCH   1   2
BRANCH   1  31
ATOM     31  C   UNL     1      -0.632  -4.680   8.447  1.00  0.00     0.188 C 
BRANCH  31  32
ATOM     32  C   UNL     1      -1.178  -6.072   8.777  1.00  0.00     0.188 C 
BRANCH  32  33
ATOM     33  O   UNL     1      -0.510  -7.205   8.211  1.00  0.00    -0.376 OA
BRANCH  33  34
ATOM     34  C   UNL     1       0.181  -7.041   6.977  1.00  0.00     0.202 C 
BRANCH  34  35
ATOM     35  C   UNL     1      -0.662  -7.152   5.709  1.00  0.00     0.261 C 
BRANCH  35  36
ATOM     36  O   UNL     1      -1.694  -6.158   5.659  1.00  0.00    -0.460 OA
BRANCH  36  37
ATOM     37  C   UNL     1      -2.917  -6.620   6.018  1.00  0.00     0.338 C 
ATOM     38  O   UNL     1      -3.215  -7.756   6.330  1.00  0.00    -0.246 OA
BRANCH  37  39
ATOM     39  C   UNL     1      -3.855  -5.490   6.132  1.00  0.00     0.060 A 
ATOM     40  C   UNL     1      -4.639  -5.425   7.290  1.00  0.00     0.016 A 
ATOM     41  C   UNL     1      -4.032  -4.576   5.091  1.00  0.00     0.016 A 
ATOM     42  C   UNL     1      -5.646  -4.476   7.390  1.00  0.00     0.010 A 
ATOM     43  C   UNL     1      -5.057  -3.633   5.185  1.00  0.00     0.010 A 
ATOM     44  C   UNL     1      -5.893  -3.615   6.314  1.00  0.00    -0.014 A 
BRANCH  44  45
ATOM     45  C   UNL     1      -7.159  -2.853   6.304  1.00  0.00     0.031 A 
ATOM     46  C   UNL     1      -8.319  -3.415   5.530  1.00  0.00     0.074 A 
ATOM     47  C   UNL     1      -7.277  -1.723   7.022  1.00  0.00     0.049 A 
ATOM     48  N   UNL     1      -9.518  -2.924   5.365  1.00  0.00    -0.248 NA
ATOM     49  C   UNL     1      -8.101  -4.705   4.851  1.00  0.00     0.031 C 
ATOM     50  C   UNL     1      -6.218  -1.128   7.839  1.00  0.00     0.029 A 
ATOM     51  N   UNL     1      -8.338  -0.871   7.176  1.00  0.00    -0.354 N 
ATOM     52  C   UNL     1     -10.187  -3.830   4.550  1.00  0.00     0.074 A 
ATOM     53  C   UNL     1      -9.262  -4.895   4.241  1.00  0.00     0.031 C 
ATOM     54  C   UNL     1      -6.679   0.007   8.392  1.00  0.00     0.029 A 
ATOM     55  C   UNL     1      -8.050   0.234   7.941  1.00  0.00     0.049 A 
ATOM     56  H   UNL     1      -9.223  -1.034   6.776  1.00  0.00     0.167 HD
ATOM     57  C   UNL     1     -11.462  -3.769   4.103  1.00  0.00     0.037 A 
ATOM     58  C   UNL     1      -8.803   1.317   8.213  1.00  0.00     0.037 A 
ATOM     59  C   UNL     1     -12.372  -2.709   4.443  1.00  0.00     0.049 A 
ATOM     60  C   UNL     1     -10.208   1.374   7.669  1.00  0.00     0.074 A 
ATOM     61  C   UNL     1     -13.701  -2.570   4.084  1.00  0.00     0.029 A 
ATOM     62  N   UNL     1     -12.045  -1.602   5.213  1.00  0.00    -0.354 N 
ATOM     63  N   UNL     1     -10.844   0.491   6.934  1.00  0.00    -0.248 NA
ATOM     64  C   UNL     1     -11.002   2.567   7.993  1.00  0.00     0.031 C 
ATOM     65  C   UNL     1     -14.157  -1.346   4.580  1.00  0.00     0.029 A 
ATOM     66  C   UNL     1     -13.135  -0.756   5.309  1.00  0.00     0.049 A 
ATOM     67  H   UNL     1     -11.167  -1.442   5.628  1.00  0.00     0.167 HD
ATOM     68  C   UNL     1     -12.120   1.008   6.735  1.00  0.00     0.074 A 
ATOM     69  C   UNL     1     -12.170   2.272   7.441  1.00  0.00     0.031 C 
ATOM     70  C   UNL     1     -13.159   0.489   6.034  1.00  0.00     0.037 A 
BRANCH  57  71
ATOM     71  C   UNL     1     -11.947  -4.846   3.173  1.00  0.00     0.058 A 
ATOM     72  C   UNL     1     -12.225  -6.148   3.615  1.00  0.00     0.135 A 
ATOM     73  C   UNL     1     -12.218  -4.539   1.829  1.00  0.00     0.135 A 
ATOM     74  F   UNL     1     -11.960  -6.505   4.882  1.00  0.00    -0.206 F 
ATOM     75  C   UNL     1     -12.761  -7.107   2.759  1.00  0.00     0.059 A 
ATOM     76  C   UNL     1     -12.778  -5.472   0.963  1.00  0.00     0.059 A 
ATOM     77  F   UNL     1     -11.957  -3.312   1.351  1.00  0.00    -0.206 F 
ATOM     78  C   UNL     1     -13.046  -6.755   1.437  1.00  0.00     0.060 A 
BRANCH  78  79
ATOM     79  S   UNL     1     -13.802  -7.989   0.359  1.00  0.00     0.124 S 
ATOM     80  O   UNL     1     -12.699  -8.924   0.164  1.00  0.00    -0.237 OA
ATOM     81  O   UNL     1     -14.910  -8.476   1.175  1.00  0.00    -0.237 OA
ATOM     82  O   UNL     1     -14.187  -7.221  -0.822  1.00  0.00    -0.744 OA
ENDBRANCH  78  79
ENDBRANCH  57  71
BRANCH  58  83
ATOM     83  C   UNL     1      -8.237   2.451   8.995  1.00  0.00     0.058 A 
ATOM     84  C   UNL     1      -8.746   2.804  10.253  1.00  0.00     0.135 A 
ATOM     85  C   UNL     1      -7.190   3.231   8.475  1.00  0.00     0.135 A 
ATOM     86  F   UNL     1      -9.748   2.094  10.794  1.00  0.00    -0.206 F 
ATOM     87  C   UNL     1      -8.267   3.909  10.950  1.00  0.00     0.059 A 
ATOM     88  C   UNL     1      -6.671   4.319   9.168  1.00  0.00     0.059 A 
ATOM     89  F   UNL     1      -6.653   2.929   7.283  1.00  0.00    -0.206 F 
ATOM     90  C   UNL     1      -7.231   4.664  10.396  1.00  0.00     0.060 A 
BRANCH  90  91
ATOM     91  S   UNL     1      -6.616   6.096  11.307  1.00  0.00     0.124 S 
ATOM     92  O   UNL     1      -7.714   7.041  11.142  1.00  0.00    -0.237 OA
ATOM     93  O   UNL     1      -6.437   5.551  12.649  1.00  0.00    -0.237 OA
ATOM     94  O   UNL     1      -5.381   6.434  10.606  1.00  0.00    -0.744 OA
ENDBRANCH  90  91
ENDBRANCH  58  83
BRANCH  70  95
ATOM     95  C   UNL     1     -14.450   1.260   6.035  1.00  0.00     0.058 A 
ATOM     96  C   UNL     1     -14.594   2.466   5.332  1.00  0.00     0.135 A 
ATOM     97  C   UNL     1     -15.576   0.750   6.702  1.00  0.00     0.135 A 
ATOM     98  F   UNL     1     -13.547   2.999   4.682  1.00  0.00    -0.206 F 
ATOM     99  C   UNL     1     -15.802   3.154   5.314  1.00  0.00     0.059 A 
ATOM    100  C   UNL     1     -16.803   1.403   6.668  1.00  0.00     0.059 A 
ATOM    101  F   UNL     1     -15.496  -0.408   7.377  1.00  0.00    -0.206 F 
ATOM    102  C   UNL     1     -16.902   2.612   5.982  1.00  0.00     0.060 A 
BRANCH 102 103
ATOM    103  S   UNL     1     -18.472   3.499   5.922  1.00  0.00     0.124 S 
ATOM    104  O   UNL     1     -18.201   4.635   6.798  1.00  0.00    -0.237 OA
ATOM    105  O   UNL     1     -18.600   3.810   4.502  1.00  0.00    -0.237 OA
ATOM    106  O   UNL     1     -19.432   2.527   6.434  1.00  0.00    -0.744 OA
ENDBRANCH 102 103
ENDBRANCH  70  95
ENDBRANCH  44  45
ENDBRANCH  37  39
ENDBRANCH  36  37
ENDBRANCH  35  36
ENDBRANCH  34  35
ENDBRANCH  33  34
ENDBRANCH  32  33
ENDBRANCH  31  32
ENDBRANCH   1  31
TORSDOF 26
