REMARK SMILES NC(=O)c1c(-c2ccc(Cl)cc2)csc1NC(=O)[C@H]1[C@@H](C(=O)OCCOCCOCCOCCOC(=O)c2ccc(-c3c4nc(c(-c5c(F)cc(S(=O)(=O)[O-])cc5F)c5ccc([nH]5)c(-c5c(F)cc(S(=O)(=O)[O-])cc5F)c5nc(c(-c6c(F)cc(S(=O)(=O)[O-])cc6F)c6ccc3[nH]6)C=C5)C=C4)cc2)[C@@H]2CC[C@H]1O2
REMARK SMILES IDX 29 1 28 2 27 3 26 4 25 5 24 6 23 7 21 8 22 9 20 10 19 11
REMARK SMILES IDX 107 12 104 13 106 14 108 15 105 16 17 17 16 18 18 20 15 21
REMARK SMILES IDX 4 22 5 23 13 24 14 25 2 26 1 27 3 30 6 31 7 32 12 33 8 34
REMARK SMILES IDX 11 35 9 36 10 37 30 38 31 39 32 40 33 41 34 42 35 43 36 44
REMARK SMILES IDX 37 45 38 46 39 47 103 48 40 49 102 50 41 51 42 52 43 53
REMARK SMILES IDX 96 54 44 55 101 56 95 57 97 58 45 59 100 60 94 61 93 62
REMARK SMILES IDX 46 64 80 65 59 66 79 67 60 68 63 69 78 70 98 71 61 72 62 73
REMARK SMILES IDX 77 75 99 76 64 77 47 78 48 79 57 80 49 81 50 82 56 83 58 84
REMARK SMILES IDX 51 85 52 86 53 87 54 88 55 89 81 90 82 91 91 92 83 93 84 94
REMARK SMILES IDX 90 95 92 96 85 97 86 98 87 99 88 100 89 101 65 102 66 103
REMARK SMILES IDX 75 104 67 105 68 106 74 107 76 108 69 109 70 110 71 111
REMARK SMILES IDX 72 112 73 113
REMARK H PARENT 16 19 1 28 1 29 97 63 63 74
REMARK Flexibility Score: inf
ROOT
ATOM      1  O   UNL     1       3.401   8.823  -2.494  1.00  0.00    -0.377 OA
ENDROOT
BRANCH   1   2
ATOM      2  C   UNL     1       2.354   9.341  -1.688  1.00  0.00     0.188 C 
BRANCH   2   3
ATOM      3  C   UNL     1       2.653   9.319  -0.167  1.00  0.00     0.188 C 
BRANCH   3   4
ATOM      4  O   UNL     1       3.846   8.743   0.345  1.00  0.00    -0.376 OA
BRANCH   4   5
ATOM      5  C   UNL     1       4.418   7.617  -0.299  1.00  0.00     0.202 C 
BRANCH   5   6
ATOM      6  C   UNL     1       3.555   6.418  -0.739  1.00  0.00     0.261 C 
BRANCH   6   7
ATOM      7  O   UNL     1       2.155   6.653  -0.961  1.00  0.00    -0.463 OA
BRANCH   7   8
ATOM      8  C   UNL     1       1.328   6.371   0.067  1.00  0.00     0.312 C 
ATOM      9  O   UNL     1       1.704   6.074   1.198  1.00  0.00    -0.252 OA
BRANCH   8  10
ATOM     10  C   UNL     1      -0.145   6.522  -0.261  1.00  0.00     0.143 C 
ATOM     11  C   UNL     1      -0.747   5.790  -1.479  1.00  0.00     0.124 C 
ATOM     12  C   UNL     1      -1.786   6.793  -1.903  1.00  0.00     0.132 C 
ATOM     13  C   UNL     1      -0.652   7.961  -0.474  1.00  0.00     0.133 C 
ATOM     14  C   UNL     1      -2.834   7.173  -0.851  1.00  0.00     0.035 C 
ATOM     15  O   UNL     1      -0.973   7.988  -1.881  1.00  0.00    -0.373 OA
ATOM     16  C   UNL     1      -2.068   8.141   0.047  1.00  0.00     0.036 C 
BRANCH  11  17
ATOM     17  C   UNL     1       0.267   5.249  -2.505  1.00  0.00     0.231 C 
ATOM     18  N   UNL     1       0.624   5.638  -3.757  1.00  0.00    -0.317 N 
ATOM     19  H   UNL     1       1.380   5.089  -4.067  1.00  0.00     0.170 HD
ATOM     20  O   UNL     1       0.917   4.266  -2.085  1.00  0.00    -0.274 OA
BRANCH  18  21
ATOM     21  C   UNL     1       0.280   6.555  -4.753  1.00  0.00     0.108 A 
ATOM     22  C   UNL     1       0.932   6.736  -5.987  1.00  0.00     0.082 A 
ATOM     23  C   UNL     1       0.323   7.827  -6.743  1.00  0.00     0.007 A 
ATOM     24  C   UNL     1      -0.738   8.384  -6.070  1.00  0.00     0.076 A 
ATOM     25  S   UNL     1      -1.092   7.522  -4.685  1.00  0.00    -0.125 S 
BRANCH  22  26
ATOM     26  C   UNL     1       2.042   5.871  -6.393  1.00  0.00     0.252 C 
ATOM     27  N   UNL     1       2.761   6.242  -7.486  1.00  0.00    -0.365 N 
ATOM     28  H   UNL     1       3.515   5.687  -7.791  1.00  0.00     0.159 HD
ATOM     29  H   UNL     1       2.527   7.064  -7.973  1.00  0.00     0.159 HD
ATOM     30  O   UNL     1       2.335   4.847  -5.782  1.00  0.00    -0.269 OA
ENDBRANCH  22  26
BRANCH  23  31
ATOM     31  C   UNL     1       0.520   8.302  -8.102  1.00  0.00    -0.017 A 
ATOM     32  C   UNL     1       0.845   9.644  -8.344  1.00  0.00     0.010 A 
ATOM     33  C   UNL     1       0.203   7.457  -9.171  1.00  0.00     0.010 A 
ATOM     34  C   UNL     1       0.833  10.140  -9.649  1.00  0.00     0.021 A 
ATOM     35  C   UNL     1       0.195   7.954 -10.474  1.00  0.00     0.021 A 
ATOM     36  C   UNL     1       0.499   9.295 -10.706  1.00  0.00     0.041 A 
ATOM     37  Cl  UNL     1       0.419   9.923 -12.305  1.00  0.00    -0.084 Cl
ENDBRANCH  23  31
ENDBRANCH  18  21
ENDBRANCH  11  17
ENDBRANCH   8  10
ENDBRANCH   7   8
ENDBRANCH   6   7
ENDBRANCH   5   6
ENDBRANCH   4   5
ENDBRANCH   3   4
ENDBRANCH   2   3
ENDBRANCH   1   2
BRANCH   1  38
ATOM     38  C   UNL     1       4.200   9.809  -3.128  1.00  0.00     0.188 C 
BRANCH  38  39
ATOM     39  C   UNL     1       4.848  10.835  -2.181  1.00  0.00     0.188 C 
BRANCH  39  40
ATOM     40  O   UNL     1       3.892  11.510  -1.372  1.00  0.00    -0.376 OA
BRANCH  40  41
ATOM     41  C   UNL     1       3.518  12.838  -1.690  1.00  0.00     0.202 C 
BRANCH  41  42
ATOM     42  C   UNL     1       2.666  13.062  -2.950  1.00  0.00     0.261 C 
BRANCH  42  43
ATOM     43  O   UNL     1       3.144  12.473  -4.167  1.00  0.00    -0.460 OA
BRANCH  43  44
ATOM     44  C   UNL     1       4.334  12.896  -4.642  1.00  0.00     0.338 C 
ATOM     45  O   UNL     1       5.037  13.775  -4.169  1.00  0.00    -0.246 OA
BRANCH  44  46
ATOM     46  C   UNL     1       4.748  11.960  -5.710  1.00  0.00     0.060 A 
ATOM     47  C   UNL     1       5.969  11.284  -5.580  1.00  0.00     0.016 A 
ATOM     48  C   UNL     1       3.923  11.718  -6.812  1.00  0.00     0.016 A 
ATOM     49  C   UNL     1       6.380  10.382  -6.561  1.00  0.00     0.010 A 
ATOM     50  C   UNL     1       4.353  10.840  -7.811  1.00  0.00     0.010 A 
ATOM     51  C   UNL     1       5.598  10.193  -7.705  1.00  0.00    -0.014 A 
BRANCH  51  52
ATOM     52  C   UNL     1       6.181   9.517  -8.889  1.00  0.00     0.031 A 
ATOM     53  C   UNL     1       6.732  10.382  -9.990  1.00  0.00     0.074 A 
ATOM     54  C   UNL     1       6.263   8.177  -8.975  1.00  0.00     0.049 A 
ATOM     55  N   UNL     1       7.240  10.037 -11.142  1.00  0.00    -0.248 NA
ATOM     56  C   UNL     1       6.712  11.836  -9.750  1.00  0.00     0.031 C 
ATOM     57  C   UNL     1       5.855   7.235  -7.936  1.00  0.00     0.029 A 
ATOM     58  N   UNL     1       6.715   7.377  -9.994  1.00  0.00    -0.354 N 
ATOM     59  C   UNL     1       7.602  11.227 -11.764  1.00  0.00     0.074 A 
ATOM     60  C   UNL     1       7.215  12.304 -10.881  1.00  0.00     0.031 C 
ATOM     61  C   UNL     1       6.051   5.981  -8.384  1.00  0.00     0.029 A 
ATOM     62  C   UNL     1       6.558   6.033  -9.753  1.00  0.00     0.049 A 
ATOM     63  H   UNL     1       7.115   7.732 -10.821  1.00  0.00     0.167 HD
ATOM     64  C   UNL     1       8.218  11.404 -12.956  1.00  0.00     0.037 A 
ATOM     65  C   UNL     1       6.773   4.971 -10.555  1.00  0.00     0.037 A 
ATOM     66  C   UNL     1       8.600  10.326 -13.828  1.00  0.00     0.049 A 
ATOM     67  C   UNL     1       7.351   5.196 -11.931  1.00  0.00     0.074 A 
ATOM     68  C   UNL     1       9.239  10.397 -15.053  1.00  0.00     0.029 A 
ATOM     69  N   UNL     1       8.369   8.982 -13.574  1.00  0.00    -0.354 N 
ATOM     70  N   UNL     1       7.702   6.325 -12.502  1.00  0.00    -0.248 NA
ATOM     71  C   UNL     1       7.580   4.007 -12.763  1.00  0.00     0.031 C 
ATOM     72  C   UNL     1       9.336   9.102 -15.569  1.00  0.00     0.029 A 
ATOM     73  C   UNL     1       8.822   8.216 -14.634  1.00  0.00     0.049 A 
ATOM     74  H   UNL     1       7.946   8.625 -12.759  1.00  0.00     0.167 HD
ATOM     75  C   UNL     1       8.235   5.976 -13.741  1.00  0.00     0.074 A 
ATOM     76  C   UNL     1       8.160   4.533 -13.833  1.00  0.00     0.031 C 
ATOM     77  C   UNL     1       8.750   6.777 -14.708  1.00  0.00     0.037 A 
BRANCH  64  78
ATOM     78  C   UNL     1       8.484  12.817 -13.398  1.00  0.00     0.058 A 
ATOM     79  C   UNL     1       9.442  13.627 -12.767  1.00  0.00     0.135 A 
ATOM     80  C   UNL     1       7.786  13.359 -14.489  1.00  0.00     0.135 A 
ATOM     81  F   UNL     1      10.122  13.168 -11.704  1.00  0.00    -0.206 F 
ATOM     82  C   UNL     1       9.680  14.932 -13.186  1.00  0.00     0.059 A 
ATOM     83  C   UNL     1       8.030  14.651 -14.945  1.00  0.00     0.059 A 
ATOM     84  F   UNL     1       6.853  12.632 -15.124  1.00  0.00    -0.206 F 
ATOM     85  C   UNL     1       8.970  15.434 -14.278  1.00  0.00     0.060 A 
BRANCH  85  86
ATOM     86  S   UNL     1       9.297  17.126 -14.813  1.00  0.00     0.124 S 
ATOM     87  O   UNL     1       8.711  17.895 -13.719  1.00  0.00    -0.237 OA
ATOM     88  O   UNL     1      10.754  17.149 -14.895  1.00  0.00    -0.237 OA
ATOM     89  O   UNL     1       8.597  17.221 -16.090  1.00  0.00    -0.744 OA
ENDBRANCH  85  86
ENDBRANCH  64  78
BRANCH  65  90
ATOM     90  C   UNL     1       6.427   3.600 -10.087  1.00  0.00     0.058 A 
ATOM     91  C   UNL     1       7.420   2.638  -9.853  1.00  0.00     0.135 A 
ATOM     92  C   UNL     1       5.090   3.221  -9.878  1.00  0.00     0.135 A 
ATOM     93  F   UNL     1       8.711   2.949 -10.043  1.00  0.00    -0.206 F 
ATOM     94  C   UNL     1       7.102   1.344  -9.454  1.00  0.00     0.059 A 
ATOM     95  C   UNL     1       4.748   1.941  -9.454  1.00  0.00     0.059 A 
ATOM     96  F   UNL     1       4.102   4.112 -10.064  1.00  0.00    -0.206 F 
ATOM     97  C   UNL     1       5.762   1.005  -9.257  1.00  0.00     0.060 A 
BRANCH  97  98
ATOM     98  S   UNL     1       5.370  -0.674  -8.719  1.00  0.00     0.124 S 
ATOM     99  O   UNL     1       5.730  -1.452  -9.898  1.00  0.00    -0.237 OA
ATOM    100  O   UNL     1       6.242  -0.831  -7.559  1.00  0.00    -0.237 OA
ATOM    101  O   UNL     1       3.942  -0.607  -8.421  1.00  0.00    -0.744 OA
ENDBRANCH  97  98
ENDBRANCH  65  90
BRANCH  77 102
ATOM    102  C   UNL     1       9.320   6.115 -15.935  1.00  0.00     0.058 A 
ATOM    103  C   UNL     1       8.504   5.495 -16.893  1.00  0.00     0.135 A 
ATOM    104  C   UNL     1      10.703   6.159 -16.183  1.00  0.00     0.135 A 
ATOM    105  F   UNL     1       7.177   5.420 -16.705  1.00  0.00    -0.206 F 
ATOM    106  C   UNL     1       9.040   4.920 -18.041  1.00  0.00     0.059 A 
ATOM    107  C   UNL     1      11.256   5.620 -17.341  1.00  0.00     0.059 A 
ATOM    108  F   UNL     1      11.530   6.751 -15.307  1.00  0.00    -0.206 F 
ATOM    109  C   UNL     1      10.417   4.991 -18.258  1.00  0.00     0.060 A 
BRANCH 109 110
ATOM    110  S   UNL     1      11.093   4.272 -19.770  1.00  0.00     0.124 S 
ATOM    111  O   UNL     1      10.954   2.845 -19.504  1.00  0.00    -0.237 OA
ATOM    112  O   UNL     1      10.208   4.816 -20.795  1.00  0.00    -0.237 OA
ATOM    113  O   UNL     1      12.464   4.774 -19.803  1.00  0.00    -0.744 OA
ENDBRANCH 109 110
ENDBRANCH  77 102
ENDBRANCH  51  52
ENDBRANCH  44  46
ENDBRANCH  43  44
ENDBRANCH  42  43
ENDBRANCH  41  42
ENDBRANCH  40  41
ENDBRANCH  39  40
ENDBRANCH  38  39
ENDBRANCH   1  38
TORSDOF 27
