REMARK SMILES C[C@]1(C(=O)OCCOCCOCCOCCOC(=O)c2ccc(-c3c4nc(c(-c5c(F)cc(S(=O)(=O)[O-])cc5F)c5ccc([nH]5)c(-c5c(F)cc(S(=O)(=O)[O-])cc5F)c5nc(c(-c6c(F)cc(S(=O)(=O)[O-])cc6F)c6ccc3[nH]6)C=C5)C=C4)cc2)[NH2+]C2(C(=O)c3ccccc3C2=O)[C@@H]2C(=O)N(c3ccccc3)C(=O)[C@H]21
REMARK SMILES IDX 12 1 11 2 10 3 9 4 8 5 7 6 6 7 5 8 3 9 4 10 2 11 1 12 86 13
REMARK SMILES IDX 110 14 87 15 98 18 108 19 88 20 96 21 99 22 101 23 109 24
REMARK SMILES IDX 89 25 90 26 95 27 97 28 100 29 91 30 94 31 92 32 93 33
REMARK SMILES IDX 102 34 103 35 107 36 104 37 106 38 105 39 13 40 14 41 15 42
REMARK SMILES IDX 16 43 17 44 18 45 19 46 20 47 21 48 85 49 22 50 84 51 23 52
REMARK SMILES IDX 24 53 25 54 78 55 26 56 83 57 77 58 79 59 27 60 82 61 76 62
REMARK SMILES IDX 75 63 28 65 62 66 41 67 61 68 42 69 45 70 60 71 80 72 43 73
REMARK SMILES IDX 44 74 59 76 81 77 46 78 29 79 30 80 39 81 31 82 32 83 38 84
REMARK SMILES IDX 40 85 33 86 34 87 35 88 36 89 37 90 63 91 64 92 73 93 65 94
REMARK SMILES IDX 66 95 72 96 74 97 67 98 68 99 69 100 70 101 71 102 47 103
REMARK SMILES IDX 48 104 57 105 49 106 50 107 56 108 58 109 51 110 52 111
REMARK SMILES IDX 53 112 54 113 55 114
REMARK H PARENT 86 16 86 17 79 64 45 75
REMARK Flexibility Score: inf
ROOT
ATOM      1  C   UNL     1      -0.123  -1.860   5.200  1.00  0.00     0.188 C 
ENDROOT
BRANCH   1   2
ATOM      2  O   UNL     1      -0.034  -1.109   4.001  1.00  0.00    -0.377 OA
BRANCH   2   3
ATOM      3  C   UNL     1       0.243  -1.775   2.793  1.00  0.00     0.188 C 
BRANCH   3   4
ATOM      4  C   UNL     1       1.732  -1.982   2.493  1.00  0.00     0.188 C 
BRANCH   4   5
ATOM      5  O   UNL     1       2.668  -1.988   3.551  1.00  0.00    -0.376 OA
BRANCH   5   6
ATOM      6  C   UNL     1       2.929  -0.861   4.374  1.00  0.00     0.202 C 
BRANCH   6   7
ATOM      7  C   UNL     1       2.517   0.600   4.115  1.00  0.00     0.261 C 
BRANCH   7   8
ATOM      8  O   UNL     1       1.462   0.851   3.192  1.00  0.00    -0.459 OA
BRANCH   8   9
ATOM      9  C   UNL     1       1.829   1.083   1.914  1.00  0.00     0.368 C 
ATOM     10  O   UNL     1       2.992   1.055   1.527  1.00  0.00    -0.245 OA
BRANCH   9  11
ATOM     11  C   UNL     1       0.625   1.421   0.990  1.00  0.00     0.205 C 
ATOM     12  C   UNL     1       0.860   0.713  -0.345  1.00  0.00     0.093 C 
ATOM     13  N   UNL     1      -0.754   1.036   1.520  1.00  0.00    -0.313 N 
ATOM     14  C   UNL     1       0.470   2.908   0.899  1.00  0.00     0.172 C 
ATOM     15  C   UNL     1      -1.421   2.277   2.098  1.00  0.00     0.237 C 
ATOM     16  H   UNL     1      -0.656   0.329   2.248  1.00  0.00     0.348 HD
ATOM     17  H   UNL     1      -1.323   0.657   0.763  1.00  0.00     0.348 HD
ATOM     18  C   UNL     1      -0.259   3.199   2.203  1.00  0.00     0.177 C 
ATOM     19  C   UNL     1       1.590   3.881   0.965  1.00  0.00     0.244 C 
ATOM     20  C   UNL     1      -2.587   2.691   1.198  1.00  0.00     0.232 C 
ATOM     21  C   UNL     1      -2.115   1.956   3.426  1.00  0.00     0.232 C 
ATOM     22  C   UNL     1      -0.168   4.676   2.227  1.00  0.00     0.245 C 
ATOM     23  N   UNL     1       1.111   4.933   1.738  1.00  0.00    -0.250 N 
ATOM     24  O   UNL     1       2.642   3.750   0.363  1.00  0.00    -0.273 OA
ATOM     25  O   UNL     1      -2.536   2.995   0.018  1.00  0.00    -0.286 OA
ATOM     26  C   UNL     1      -3.835   2.511   1.938  1.00  0.00     0.036 A 
ATOM     27  C   UNL     1      -3.565   2.068   3.226  1.00  0.00     0.036 A 
ATOM     28  O   UNL     1      -1.611   1.680   4.499  1.00  0.00    -0.286 OA
ATOM     29  O   UNL     1      -1.025   5.423   2.668  1.00  0.00    -0.273 OA
ATOM     30  C   UNL     1      -5.130   2.689   1.482  1.00  0.00     0.013 A 
ATOM     31  C   UNL     1      -4.585   1.792   4.120  1.00  0.00     0.013 A 
ATOM     32  C   UNL     1      -6.173   2.417   2.372  1.00  0.00     0.001 A 
ATOM     33  C   UNL     1      -5.902   1.973   3.680  1.00  0.00     0.001 A 
BRANCH  23  34
ATOM     34  C   UNL     1       1.921   6.027   2.096  1.00  0.00     0.052 A 
ATOM     35  C   UNL     1       2.870   6.530   1.196  1.00  0.00     0.027 A 
ATOM     36  C   UNL     1       1.905   6.507   3.410  1.00  0.00     0.027 A 
ATOM     37  C   UNL     1       3.800   7.485   1.604  1.00  0.00     0.002 A 
ATOM     38  C   UNL     1       2.865   7.432   3.828  1.00  0.00     0.002 A 
ATOM     39  C   UNL     1       3.808   7.921   2.925  1.00  0.00     0.000 A 
ENDBRANCH  23  34
ENDBRANCH   9  11
ENDBRANCH   8   9
ENDBRANCH   7   8
ENDBRANCH   6   7
ENDBRANCH   5   6
ENDBRANCH   4   5
ENDBRANCH   3   4
ENDBRANCH   2   3
ENDBRANCH   1   2
BRANCH   1  40
ATOM     40  C   UNL     1       0.483  -3.277   5.283  1.00  0.00     0.188 C 
BRANCH  40  41
ATOM     41  O   UNL     1       0.347  -4.068   4.111  1.00  0.00    -0.376 OA
BRANCH  41  42
ATOM     42  C   UNL     1      -0.731  -4.985   4.013  1.00  0.00     0.202 C 
BRANCH  42  43
ATOM     43  C   UNL     1      -2.166  -4.432   4.034  1.00  0.00     0.261 C 
BRANCH  43  44
ATOM     44  O   UNL     1      -2.539  -3.663   5.184  1.00  0.00    -0.460 OA
BRANCH  44  45
ATOM     45  C   UNL     1      -2.426  -4.246   6.398  1.00  0.00     0.338 C 
ATOM     46  O   UNL     1      -2.106  -5.397   6.630  1.00  0.00    -0.246 OA
BRANCH  45  47
ATOM     47  C   UNL     1      -2.555  -3.178   7.416  1.00  0.00     0.060 A 
ATOM     48  C   UNL     1      -3.646  -2.307   7.398  1.00  0.00     0.016 A 
ATOM     49  C   UNL     1      -1.548  -3.031   8.380  1.00  0.00     0.016 A 
ATOM     50  C   UNL     1      -3.755  -1.322   8.383  1.00  0.00     0.010 A 
ATOM     51  C   UNL     1      -1.655  -2.041   9.360  1.00  0.00     0.010 A 
ATOM     52  C   UNL     1      -2.780  -1.207   9.393  1.00  0.00    -0.014 A 
BRANCH  52  53
ATOM     53  C   UNL     1      -3.073  -0.383  10.594  1.00  0.00     0.031 A 
ATOM     54  C   UNL     1      -2.417   0.938  10.852  1.00  0.00     0.074 A 
ATOM     55  C   UNL     1      -3.974  -0.875  11.468  1.00  0.00     0.049 A 
ATOM     56  N   UNL     1      -2.692   1.813  11.786  1.00  0.00    -0.248 NA
ATOM     57  C   UNL     1      -1.309   1.324   9.969  1.00  0.00     0.031 C 
ATOM     58  C   UNL     1      -4.626  -2.181  11.345  1.00  0.00     0.029 A 
ATOM     59  N   UNL     1      -4.517  -0.338  12.607  1.00  0.00    -0.354 N 
ATOM     60  C   UNL     1      -1.817   2.873  11.586  1.00  0.00     0.074 A 
ATOM     61  C   UNL     1      -0.957   2.498  10.481  1.00  0.00     0.031 C 
ATOM     62  C   UNL     1      -5.523  -2.319  12.331  1.00  0.00     0.029 A 
ATOM     63  C   UNL     1      -5.490  -1.128  13.173  1.00  0.00     0.049 A 
ATOM     64  H   UNL     1      -4.237   0.527  12.983  1.00  0.00     0.167 HD
ATOM     65  C   UNL     1      -1.761   4.055  12.249  1.00  0.00     0.037 A 
ATOM     66  C   UNL     1      -6.286  -0.912  14.238  1.00  0.00     0.037 A 
ATOM     67  C   UNL     1      -2.612   4.399  13.363  1.00  0.00     0.049 A 
ATOM     68  C   UNL     1      -6.180   0.391  14.979  1.00  0.00     0.074 A 
ATOM     69  C   UNL     1      -2.655   5.585  14.076  1.00  0.00     0.029 A 
ATOM     70  N   UNL     1      -3.558   3.559  13.935  1.00  0.00    -0.354 N 
ATOM     71  N   UNL     1      -5.414   1.423  14.717  1.00  0.00    -0.248 NA
ATOM     72  C   UNL     1      -7.044   0.565  16.154  1.00  0.00     0.031 C 
ATOM     73  C   UNL     1      -3.583   5.443  15.111  1.00  0.00     0.029 A 
ATOM     74  C   UNL     1      -4.167   4.191  15.008  1.00  0.00     0.049 A 
ATOM     75  H   UNL     1      -3.765   2.648  13.625  1.00  0.00     0.167 HD
ATOM     76  C   UNL     1      -5.723   2.378  15.678  1.00  0.00     0.074 A 
ATOM     77  C   UNL     1      -6.750   1.805  16.523  1.00  0.00     0.031 C 
ATOM     78  C   UNL     1      -5.200   3.618  15.839  1.00  0.00     0.037 A 
BRANCH  65  79
ATOM     79  C   UNL     1      -0.769   5.085  11.777  1.00  0.00     0.058 A 
ATOM     80  C   UNL     1      -0.940   5.747  10.550  1.00  0.00     0.135 A 
ATOM     81  C   UNL     1       0.308   5.483  12.587  1.00  0.00     0.135 A 
ATOM     82  F   UNL     1      -1.952   5.410   9.735  1.00  0.00    -0.206 F 
ATOM     83  C   UNL     1      -0.064   6.743  10.130  1.00  0.00     0.059 A 
ATOM     84  C   UNL     1       1.181   6.499  12.199  1.00  0.00     0.059 A 
ATOM     85  F   UNL     1       0.513   4.896  13.776  1.00  0.00    -0.206 F 
ATOM     86  C   UNL     1       0.993   7.114  10.962  1.00  0.00     0.060 A 
BRANCH  86  87
ATOM     87  S   UNL     1       2.116   8.408  10.393  1.00  0.00     0.124 S 
ATOM     88  O   UNL     1       2.765   7.754   9.260  1.00  0.00    -0.237 OA
ATOM     89  O   UNL     1       1.196   9.489  10.056  1.00  0.00    -0.237 OA
ATOM     90  O   UNL     1       2.972   8.652  11.549  1.00  0.00    -0.744 OA
ENDBRANCH  86  87
ENDBRANCH  65  79
BRANCH  66  91
ATOM     91  C   UNL     1      -7.294  -1.937  14.617  1.00  0.00     0.058 A 
ATOM     92  C   UNL     1      -8.663  -1.701  14.427  1.00  0.00     0.135 A 
ATOM     93  C   UNL     1      -6.910  -3.189  15.123  1.00  0.00     0.135 A 
ATOM     94  F   UNL     1      -9.080  -0.520  13.945  1.00  0.00    -0.206 F 
ATOM     95  C   UNL     1      -9.617  -2.664  14.734  1.00  0.00     0.059 A 
ATOM     96  C   UNL     1      -7.843  -4.179  15.411  1.00  0.00     0.059 A 
ATOM     97  F   UNL     1      -5.610  -3.472  15.302  1.00  0.00    -0.206 F 
ATOM     98  C   UNL     1      -9.196  -3.904  15.219  1.00  0.00     0.060 A 
BRANCH  98  99
ATOM     99  S   UNL     1     -10.444  -5.163  15.561  1.00  0.00     0.124 S 
ATOM    100  O   UNL     1     -11.138  -4.586  16.706  1.00  0.00    -0.237 OA
ATOM    101  O   UNL     1     -11.194  -5.194  14.309  1.00  0.00    -0.237 OA
ATOM    102  O   UNL     1      -9.651  -6.357  15.839  1.00  0.00    -0.744 OA
ENDBRANCH  98  99
ENDBRANCH  66  91
BRANCH  78 103
ATOM    103  C   UNL     1      -5.729   4.471  16.960  1.00  0.00     0.058 A 
ATOM    104  C   UNL     1      -5.378   4.228  18.296  1.00  0.00     0.135 A 
ATOM    105  C   UNL     1      -6.484   5.623  16.678  1.00  0.00     0.135 A 
ATOM    106  F   UNL     1      -4.671   3.135  18.621  1.00  0.00    -0.206 F 
ATOM    107  C   UNL     1      -5.742   5.105  19.313  1.00  0.00     0.059 A 
ATOM    108  C   UNL     1      -6.836   6.527  17.676  1.00  0.00     0.059 A 
ATOM    109  F   UNL     1      -6.845   5.903  15.416  1.00  0.00    -0.206 F 
ATOM    110  C   UNL     1      -6.454   6.263  18.990  1.00  0.00     0.060 A 
BRANCH 110 111
ATOM    111  S   UNL     1      -6.822   7.442  20.307  1.00  0.00     0.124 S 
ATOM    112  O   UNL     1      -7.779   6.695  21.116  1.00  0.00    -0.237 OA
ATOM    113  O   UNL     1      -5.509   7.649  20.910  1.00  0.00    -0.237 OA
ATOM    114  O   UNL     1      -7.368   8.592  19.594  1.00  0.00    -0.744 OA
ENDBRANCH 110 111
ENDBRANCH  78 103
ENDBRANCH  52  53
ENDBRANCH  45  47
ENDBRANCH  44  45
ENDBRANCH  43  44
ENDBRANCH  42  43
ENDBRANCH  41  42
ENDBRANCH  40  41
ENDBRANCH   1  40
TORSDOF 24
