REMARK SMILES CNC(=O)NC(=O)CCSc1csc(C(=O)OCCOCCOCCOCCOC(=O)c2ccc(-c3c4nc(c(-c5c(F)cc(S(=O)(=O)[O-])cc5F)c5ccc([nH]5)c(-c5c(F)cc(S(=O)(=O)[O-])cc5F)c5nc(c(-c6c(F)cc(S(=O)(=O)[O-])cc6F)c6ccc3[nH]6)C=C5)C=C4)cc2)c1
REMARK SMILES IDX 22 1 21 2 20 3 19 4 18 5 17 6 15 7 16 8 14 9 11 10 12 11
REMARK SMILES IDX 98 12 13 13 10 14 9 15 8 16 6 17 1 18 2 19 3 20 4 22 5 23
REMARK SMILES IDX 7 25 23 26 24 27 25 28 26 29 27 30 28 31 29 32 30 33 31 34
REMARK SMILES IDX 32 35 33 36 97 37 34 38 96 39 35 40 36 41 37 42 90 43 38 44
REMARK SMILES IDX 95 45 89 46 91 47 39 48 94 49 88 50 87 51 40 53 74 54 53 55
REMARK SMILES IDX 73 56 54 57 57 58 72 59 92 60 55 61 56 62 71 64 93 65 58 66
REMARK SMILES IDX 41 67 42 68 51 69 43 70 44 71 50 72 52 73 45 74 46 75 47 76
REMARK SMILES IDX 48 77 49 78 75 79 76 80 85 81 77 82 78 83 84 84 86 85 79 86
REMARK SMILES IDX 80 87 81 88 82 89 83 90 59 91 60 92 69 93 61 94 62 95 68 96
REMARK SMILES IDX 70 97 63 98 64 99 65 100 66 101 67 102
REMARK H PARENT 2 21 5 24 91 52 57 63
REMARK Flexibility Score: inf
ROOT
ATOM      1  C   UNL     1      -0.427  -1.105   7.360  1.00  0.00     0.188 C 
ENDROOT
BRANCH   1   2
ATOM      2  C   UNL     1      -1.675  -0.349   7.846  1.00  0.00     0.188 C 
BRANCH   2   3
ATOM      3  O   UNL     1      -2.722  -1.221   8.274  1.00  0.00    -0.376 OA
BRANCH   3   4
ATOM      4  C   UNL     1      -3.768  -1.484   7.341  1.00  0.00     0.202 C 
BRANCH   4   5
ATOM      5  C   UNL     1      -3.410  -2.255   6.057  1.00  0.00     0.261 C 
BRANCH   5   6
ATOM      6  O   UNL     1      -2.451  -1.613   5.203  1.00  0.00    -0.459 OA
BRANCH   6   7
ATOM      7  C   UNL     1      -2.756  -0.384   4.713  1.00  0.00     0.348 C 
ATOM      8  O   UNL     1      -3.854   0.152   4.815  1.00  0.00    -0.245 OA
BRANCH   7   9
ATOM      9  C   UNL     1      -1.533   0.237   4.248  1.00  0.00     0.113 A 
ATOM     10  C   UNL     1       0.592   0.602   3.375  1.00  0.00     0.019 A 
ATOM     11  C   UNL     1       0.275   1.858   3.834  1.00  0.00     0.080 A 
ATOM     12  C   UNL     1      -0.401  -0.353   3.711  1.00  0.00     0.042 A 
ATOM     13  S   UNL     1      -1.318   1.925   4.452  1.00  0.00    -0.136 S 
BRANCH  10  14
ATOM     14  S   UNL     1       2.026   0.177   2.458  1.00  0.00    -0.125 SA
BRANCH  14  15
ATOM     15  C   UNL     1       2.114   1.556   1.272  1.00  0.00     0.085 C 
BRANCH  15  16
ATOM     16  C   UNL     1       1.109   1.546   0.127  1.00  0.00     0.112 C 
BRANCH  16  17
ATOM     17  C   UNL     1      -0.342   1.686   0.500  1.00  0.00     0.228 C 
ATOM     18  C   UNL     1       0.571  -1.519  -0.856  1.00  0.00     0.144 C 
ATOM     19  N   UNL     1      -0.332  -1.550   0.261  1.00  0.00    -0.341 N 
ATOM     20  C   UNL     1      -1.272  -0.685   0.664  1.00  0.00     0.321 C 
ATOM     21  H   UNL     1      -0.244  -2.347   0.832  1.00  0.00     0.165 HD
ATOM     22  O   UNL     1      -2.203  -1.120   1.346  1.00  0.00    -0.248 OA
ATOM     23  N   UNL     1      -1.249   0.651   0.387  1.00  0.00    -0.278 N 
ATOM     24  H   UNL     1      -2.104   0.957   0.006  1.00  0.00     0.174 HD
ATOM     25  O   UNL     1      -0.755   2.781   0.901  1.00  0.00    -0.275 OA
ENDBRANCH  16  17
ENDBRANCH  15  16
ENDBRANCH  14  15
ENDBRANCH  10  14
ENDBRANCH   7   9
ENDBRANCH   6   7
ENDBRANCH   5   6
ENDBRANCH   4   5
ENDBRANCH   3   4
ENDBRANCH   2   3
ENDBRANCH   1   2
BRANCH   1  26
ATOM     26  O   UNL     1      -0.636  -2.507   7.323  1.00  0.00    -0.377 OA
BRANCH  26  27
ATOM     27  C   UNL     1      -0.341  -3.230   8.513  1.00  0.00     0.188 C 
BRANCH  27  28
ATOM     28  C   UNL     1      -0.568  -2.572   9.891  1.00  0.00     0.188 C 
BRANCH  28  29
ATOM     29  O   UNL     1       0.135  -1.339  10.066  1.00  0.00    -0.376 OA
BRANCH  29  30
ATOM     30  C   UNL     1       1.314  -1.385  10.862  1.00  0.00     0.202 C 
BRANCH  30  31
ATOM     31  C   UNL     1       2.543  -1.940  10.129  1.00  0.00     0.261 C 
BRANCH  31  32
ATOM     32  O   UNL     1       2.470  -3.334   9.791  1.00  0.00    -0.460 OA
BRANCH  32  33
ATOM     33  C   UNL     1       2.266  -4.206  10.802  1.00  0.00     0.338 C 
ATOM     34  O   UNL     1       2.239  -3.956  11.993  1.00  0.00    -0.246 OA
BRANCH  33  35
ATOM     35  C   UNL     1       1.884  -5.504  10.213  1.00  0.00     0.060 A 
ATOM     36  C   UNL     1       0.702  -6.116  10.649  1.00  0.00     0.016 A 
ATOM     37  C   UNL     1       2.690  -6.115   9.249  1.00  0.00     0.016 A 
ATOM     38  C   UNL     1       0.351  -7.374  10.159  1.00  0.00     0.010 A 
ATOM     39  C   UNL     1       2.348  -7.381   8.774  1.00  0.00     0.010 A 
ATOM     40  C   UNL     1       1.199  -8.031   9.258  1.00  0.00    -0.014 A 
BRANCH  40  41
ATOM     41  C   UNL     1       1.015  -9.476   8.990  1.00  0.00     0.031 A 
ATOM     42  C   UNL     1       1.782 -10.454   9.836  1.00  0.00     0.074 A 
ATOM     43  C   UNL     1       0.196  -9.910   8.016  1.00  0.00     0.049 A 
ATOM     44  N   UNL     1       1.838 -11.757   9.756  1.00  0.00    -0.248 NA
ATOM     45  C   UNL     1       2.602  -9.880  10.918  1.00  0.00     0.031 C 
ATOM     46  C   UNL     1      -0.620  -9.059   7.152  1.00  0.00     0.029 A 
ATOM     47  N   UNL     1      -0.070 -11.185   7.585  1.00  0.00    -0.354 N 
ATOM     48  C   UNL     1       2.697 -12.159  10.772  1.00  0.00     0.074 A 
ATOM     49  C   UNL     1       3.161 -10.962  11.438  1.00  0.00     0.031 C 
ATOM     50  C   UNL     1      -1.285  -9.837   6.280  1.00  0.00     0.029 A 
ATOM     51  C   UNL     1      -0.921 -11.236   6.508  1.00  0.00     0.049 A 
ATOM     52  H   UNL     1       0.312 -11.988   8.008  1.00  0.00     0.167 HD
ATOM     53  C   UNL     1       3.063 -13.414  11.123  1.00  0.00     0.037 A 
ATOM     54  C   UNL     1      -1.338 -12.290   5.780  1.00  0.00     0.037 A 
ATOM     55  C   UNL     1       2.611 -14.601  10.450  1.00  0.00     0.049 A 
ATOM     56  C   UNL     1      -0.868 -13.675   6.148  1.00  0.00     0.074 A 
ATOM     57  C   UNL     1       2.917 -15.920  10.732  1.00  0.00     0.029 A 
ATOM     58  N   UNL     1       1.761 -14.611   9.354  1.00  0.00    -0.354 N 
ATOM     59  N   UNL     1      -0.074 -14.045   7.125  1.00  0.00    -0.248 NA
ATOM     60  C   UNL     1      -1.351 -14.786   5.314  1.00  0.00     0.031 C 
ATOM     61  C   UNL     1       2.283 -16.727   9.780  1.00  0.00     0.029 A 
ATOM     62  C   UNL     1       1.548 -15.912   8.933  1.00  0.00     0.049 A 
ATOM     63  H   UNL     1       1.369 -13.810   8.936  1.00  0.00     0.167 HD
ATOM     64  C   UNL     1       0.017 -15.431   7.040  1.00  0.00     0.074 A 
ATOM     65  C   UNL     1      -0.808 -15.834   5.919  1.00  0.00     0.031 C 
ATOM     66  C   UNL     1       0.715 -16.293   7.820  1.00  0.00     0.037 A 
BRANCH  53  67
ATOM     67  C   UNL     1       4.021 -13.554  12.271  1.00  0.00     0.058 A 
ATOM     68  C   UNL     1       3.617 -13.330  13.597  1.00  0.00     0.135 A 
ATOM     69  C   UNL     1       5.357 -13.918  12.043  1.00  0.00     0.135 A 
ATOM     70  F   UNL     1       2.355 -12.957  13.865  1.00  0.00    -0.206 F 
ATOM     71  C   UNL     1       4.512 -13.435  14.655  1.00  0.00     0.059 A 
ATOM     72  C   UNL     1       6.264 -14.051  13.090  1.00  0.00     0.059 A 
ATOM     73  F   UNL     1       5.795 -14.135  10.793  1.00  0.00    -0.206 F 
ATOM     74  C   UNL     1       5.836 -13.791  14.391  1.00  0.00     0.060 A 
BRANCH  74  75
ATOM     75  S   UNL     1       6.991 -13.914  15.773  1.00  0.00     0.124 S 
ATOM     76  O   UNL     1       7.237 -12.507  16.071  1.00  0.00    -0.237 OA
ATOM     77  O   UNL     1       6.214 -14.646  16.768  1.00  0.00    -0.237 OA
ATOM     78  O   UNL     1       8.121 -14.643  15.206  1.00  0.00    -0.744 OA
ENDBRANCH  74  75
ENDBRANCH  53  67
BRANCH  54  79
ATOM     79  C   UNL     1      -2.244 -12.081   4.620  1.00  0.00     0.058 A 
ATOM     80  C   UNL     1      -3.586 -12.486   4.668  1.00  0.00     0.135 A 
ATOM     81  C   UNL     1      -1.786 -11.473   3.441  1.00  0.00     0.135 A 
ATOM     82  F   UNL     1      -4.067 -13.084   5.768  1.00  0.00    -0.206 F 
ATOM     83  C   UNL     1      -4.440 -12.306   3.584  1.00  0.00     0.059 A 
ATOM     84  C   UNL     1      -2.626 -11.263   2.352  1.00  0.00     0.059 A 
ATOM     85  F   UNL     1      -0.511 -11.061   3.349  1.00  0.00    -0.206 F 
ATOM     86  C   UNL     1      -3.950 -11.692   2.430  1.00  0.00     0.060 A 
BRANCH  86  87
ATOM     87  S   UNL     1      -5.077 -11.418   1.045  1.00  0.00     0.124 S 
ATOM     88  O   UNL     1      -5.192 -12.762   0.490  1.00  0.00    -0.237 OA
ATOM     89  O   UNL     1      -6.266 -10.899   1.714  1.00  0.00    -0.237 OA
ATOM     90  O   UNL     1      -4.361 -10.452   0.218  1.00  0.00    -0.744 OA
ENDBRANCH  86  87
ENDBRANCH  54  79
BRANCH  66  91
ATOM     91  C   UNL     1       0.595 -17.760   7.516  1.00  0.00     0.058 A 
ATOM     92  C   UNL     1       1.247 -18.341   6.418  1.00  0.00     0.135 A 
ATOM     93  C   UNL     1      -0.129 -18.605   8.373  1.00  0.00     0.135 A 
ATOM     94  F   UNL     1       1.948 -17.576   5.566  1.00  0.00    -0.206 F 
ATOM     95  C   UNL     1       1.171 -19.708   6.170  1.00  0.00     0.059 A 
ATOM     96  C   UNL     1      -0.199 -19.977   8.157  1.00  0.00     0.059 A 
ATOM     97  F   UNL     1      -0.761 -18.099   9.444  1.00  0.00    -0.206 F 
ATOM     98  C   UNL     1       0.447 -20.518   7.047  1.00  0.00     0.060 A 
BRANCH  98  99
ATOM     99  S   UNL     1       0.389 -22.297   6.739  1.00  0.00     0.124 S 
ATOM    100  O   UNL     1      -0.568 -22.374   5.640  1.00  0.00    -0.237 OA
ATOM    101  O   UNL     1       1.774 -22.602   6.396  1.00  0.00    -0.237 OA
ATOM    102  O   UNL     1      -0.070 -22.846   8.012  1.00  0.00    -0.744 OA
ENDBRANCH  98  99
ENDBRANCH  66  91
ENDBRANCH  40  41
ENDBRANCH  33  35
ENDBRANCH  32  33
ENDBRANCH  31  32
ENDBRANCH  30  31
ENDBRANCH  29  30
ENDBRANCH  28  29
ENDBRANCH  27  28
ENDBRANCH  26  27
ENDBRANCH   1  26
TORSDOF 27
