REMARK SMILES CCOC(=O)[C@@H](C)Oc1ccc(Br)cc1/C=C/C(=O)OCCOCCOCCOCCOC(=O)c1ccc(-c2c3nc(c(-c4c(F)cc(S(=O)(=O)[O-])cc4F)c4ccc([nH]4)c(-c4c(F)cc(S(=O)(=O)[O-])cc4F)c4nc(c(-c5c(F)cc(S(=O)(=O)[O-])cc5F)c5ccc2[nH]5)C=C4)C=C3)cc1
REMARK SMILES IDX 24 1 23 2 22 3 21 4 20 5 18 6 19 7 17 8 16 9 15 10 9 11
REMARK SMILES IDX 10 12 11 13 14 14 12 15 13 16 8 17 6 18 7 19 4 20 5 21 3 22
REMARK SMILES IDX 2 23 1 24 25 25 26 26 27 27 28 28 29 29 30 30 31 31 32 32
REMARK SMILES IDX 33 33 34 34 35 35 36 36 100 37 37 38 99 39 38 40 39 41 40 42
REMARK SMILES IDX 93 43 41 44 98 45 92 46 94 47 42 48 97 49 91 50 90 51 43 53
REMARK SMILES IDX 77 54 56 55 76 56 57 57 60 58 75 59 95 60 58 61 59 62 74 64
REMARK SMILES IDX 96 65 61 66 44 67 45 68 54 69 46 70 47 71 53 72 55 73 48 74
REMARK SMILES IDX 49 75 50 76 51 77 52 78 78 79 79 80 88 81 80 82 81 83 87 84
REMARK SMILES IDX 89 85 82 86 83 87 84 88 85 89 86 90 62 91 63 92 72 93 64 94
REMARK SMILES IDX 65 95 71 96 73 97 66 98 67 99 68 100 69 101 70 102
REMARK H PARENT 94 52 60 63
REMARK Flexibility Score: inf
ROOT
ATOM      1  C   UNL     1       1.147  -9.293   6.426  1.00  0.00     0.188 C 
ENDROOT
BRANCH   1   2
ATOM      2  O   UNL     1       2.238 -10.005   6.977  1.00  0.00    -0.376 OA
BRANCH   2   3
ATOM      3  C   UNL     1       3.145 -10.687   6.131  1.00  0.00     0.202 C 
BRANCH   3   4
ATOM      4  C   UNL     1       3.804  -9.984   4.933  1.00  0.00     0.261 C 
BRANCH   4   5
ATOM      5  O   UNL     1       2.992  -9.053   4.216  1.00  0.00    -0.460 OA
BRANCH   5   6
ATOM      6  C   UNL     1       2.106  -9.567   3.342  1.00  0.00     0.330 C 
ATOM      7  O   UNL     1       1.918 -10.752   3.112  1.00  0.00    -0.247 OA
BRANCH   6   8
ATOM      8  C   UNL     1       1.232  -8.508   2.793  1.00  0.00     0.094 C 
ATOM      9  C   UNL     1       1.455  -7.183   2.874  1.00  0.00     0.019 C 
BRANCH   9  10
ATOM     10  C   UNL     1       0.507  -6.213   2.296  1.00  0.00     0.018 A 
ATOM     11  C   UNL     1       0.953  -5.109   1.552  1.00  0.00     0.127 A 
ATOM     12  C   UNL     1       0.034  -4.406   0.771  1.00  0.00     0.048 A 
ATOM     13  C   UNL     1      -1.336  -4.643   0.880  1.00  0.00     0.019 A 
ATOM     14  C   UNL     1      -0.879  -6.413   2.448  1.00  0.00     0.027 A 
ATOM     15  C   UNL     1      -1.789  -5.620   1.754  1.00  0.00     0.018 A 
ATOM     16  Br  UNL     1      -3.644  -5.926   1.940  1.00  0.00    -0.051 Br
BRANCH  11  17
ATOM     17  O   UNL     1       2.292  -4.814   1.525  1.00  0.00    -0.478 OA
BRANCH  17  18
ATOM     18  C   UNL     1       2.678  -3.469   1.873  1.00  0.00     0.279 C 
ATOM     19  C   UNL     1       2.216  -3.038   3.269  1.00  0.00     0.066 C 
BRANCH  18  20
ATOM     20  C   UNL     1       2.438  -2.408   0.783  1.00  0.00     0.347 C 
ATOM     21  O   UNL     1       3.094  -2.330  -0.249  1.00  0.00    -0.248 OA
BRANCH  20  22
ATOM     22  O   UNL     1       1.317  -1.666   1.032  1.00  0.00    -0.463 OA
BRANCH  22  23
ATOM     23  C   UNL     1       0.748  -0.999  -0.107  1.00  0.00     0.229 C 
ATOM     24  C   UNL     1       1.092   0.472  -0.094  1.00  0.00     0.049 C 
ENDBRANCH  22  23
ENDBRANCH  20  22
ENDBRANCH  18  20
ENDBRANCH  17  18
ENDBRANCH  11  17
ENDBRANCH   9  10
ENDBRANCH   6   8
ENDBRANCH   5   6
ENDBRANCH   4   5
ENDBRANCH   3   4
ENDBRANCH   2   3
ENDBRANCH   1   2
BRANCH   1  25
ATOM     25  C   UNL     1       1.331  -7.763   6.443  1.00  0.00     0.188 C 
BRANCH  25  26
ATOM     26  O   UNL     1       2.648  -7.254   6.573  1.00  0.00    -0.377 OA
BRANCH  26  27
ATOM     27  C   UNL     1       3.440  -7.606   7.708  1.00  0.00     0.188 C 
BRANCH  27  28
ATOM     28  C   UNL     1       2.839  -8.250   8.983  1.00  0.00     0.188 C 
BRANCH  28  29
ATOM     29  O   UNL     1       1.427  -8.172   9.087  1.00  0.00    -0.376 OA
BRANCH  29  30
ATOM     30  C   UNL     1       0.889  -7.277  10.044  1.00  0.00     0.202 C 
BRANCH  30  31
ATOM     31  C   UNL     1       1.146  -5.784   9.804  1.00  0.00     0.261 C 
BRANCH  31  32
ATOM     32  O   UNL     1       2.520  -5.396   9.658  1.00  0.00    -0.460 OA
BRANCH  32  33
ATOM     33  C   UNL     1       3.323  -5.546  10.733  1.00  0.00     0.338 C 
ATOM     34  O   UNL     1       3.006  -5.978  11.831  1.00  0.00    -0.246 OA
BRANCH  33  35
ATOM     35  C   UNL     1       4.707  -5.271  10.300  1.00  0.00     0.060 A 
ATOM     36  C   UNL     1       5.672  -6.282  10.398  1.00  0.00     0.016 A 
ATOM     37  C   UNL     1       5.044  -4.018   9.783  1.00  0.00     0.016 A 
ATOM     38  C   UNL     1       6.988  -6.030  10.008  1.00  0.00     0.010 A 
ATOM     39  C   UNL     1       6.366  -3.761   9.411  1.00  0.00     0.010 A 
ATOM     40  C   UNL     1       7.351  -4.755   9.554  1.00  0.00    -0.014 A 
BRANCH  40  41
ATOM     41  C   UNL     1       8.783  -4.396   9.412  1.00  0.00     0.031 A 
ATOM     42  C   UNL     1       9.440  -3.632  10.531  1.00  0.00     0.074 A 
ATOM     43  C   UNL     1       9.490  -4.740   8.321  1.00  0.00     0.049 A 
ATOM     44  N   UNL     1      10.655  -3.158  10.614  1.00  0.00    -0.248 NA
ATOM     45  C   UNL     1       8.605  -3.363  11.714  1.00  0.00     0.031 C 
ATOM     46  C   UNL     1       8.979  -5.514   7.191  1.00  0.00     0.029 A 
ATOM     47  N   UNL     1      10.793  -4.470   7.983  1.00  0.00    -0.354 N 
ATOM     48  C   UNL     1      10.727  -2.522  11.848  1.00  0.00     0.074 A 
ATOM     49  C   UNL     1       9.425  -2.646  12.466  1.00  0.00     0.031 C 
ATOM     50  C   UNL     1       9.959  -5.652   6.280  1.00  0.00     0.029 A 
ATOM     51  C   UNL     1      11.152  -4.945   6.744  1.00  0.00     0.049 A 
ATOM     52  H   UNL     1      11.412  -3.982   8.572  1.00  0.00     0.167 HD
ATOM     53  C   UNL     1      11.785  -1.895  12.416  1.00  0.00     0.037 A 
ATOM     54  C   UNL     1      12.305  -4.805   6.057  1.00  0.00     0.037 A 
ATOM     55  C   UNL     1      13.077  -1.775  11.793  1.00  0.00     0.049 A 
ATOM     56  C   UNL     1      13.447  -4.039   6.678  1.00  0.00     0.074 A 
ATOM     57  C   UNL     1      14.223  -1.186  12.297  1.00  0.00     0.029 A 
ATOM     58  N   UNL     1      13.391  -2.238  10.523  1.00  0.00    -0.354 N 
ATOM     59  N   UNL     1      13.515  -3.469   7.859  1.00  0.00    -0.248 NA
ATOM     60  C   UNL     1      14.669  -3.898   5.874  1.00  0.00     0.031 C 
ATOM     61  C   UNL     1      15.209  -1.233  11.307  1.00  0.00     0.029 A 
ATOM     62  C   UNL     1      14.702  -1.915  10.212  1.00  0.00     0.049 A 
ATOM     63  H   UNL     1      12.773  -2.724   9.930  1.00  0.00     0.167 HD
ATOM     64  C   UNL     1      14.797  -2.933   7.951  1.00  0.00     0.074 A 
ATOM     65  C   UNL     1      15.471  -3.254   6.710  1.00  0.00     0.031 C 
ATOM     66  C   UNL     1      15.365  -2.245   8.973  1.00  0.00     0.037 A 
BRANCH  53  67
ATOM     67  C   UNL     1      11.573  -1.252  13.761  1.00  0.00     0.058 A 
ATOM     68  C   UNL     1      11.364  -2.007  14.926  1.00  0.00     0.135 A 
ATOM     69  C   UNL     1      11.595   0.147  13.886  1.00  0.00     0.135 A 
ATOM     70  F   UNL     1      11.314  -3.348  14.864  1.00  0.00    -0.206 F 
ATOM     71  C   UNL     1      11.150  -1.399  16.159  1.00  0.00     0.059 A 
ATOM     72  C   UNL     1      11.417   0.776  15.114  1.00  0.00     0.059 A 
ATOM     73  F   UNL     1      11.788   0.920  12.805  1.00  0.00    -0.206 F 
ATOM     74  C   UNL     1      11.177  -0.005  16.242  1.00  0.00     0.060 A 
BRANCH  74  75
ATOM     75  S   UNL     1      10.889   0.769  17.847  1.00  0.00     0.124 S 
ATOM     76  O   UNL     1       9.465   0.515  18.041  1.00  0.00    -0.237 OA
ATOM     77  O   UNL     1      11.790   0.022  18.719  1.00  0.00    -0.237 OA
ATOM     78  O   UNL     1      11.252   2.165  17.622  1.00  0.00    -0.744 OA
ENDBRANCH  74  75
ENDBRANCH  53  67
BRANCH  54  79
ATOM     79  C   UNL     1      12.442  -5.407   4.702  1.00  0.00     0.058 A 
ATOM     80  C   UNL     1      13.310  -6.485   4.476  1.00  0.00     0.135 A 
ATOM     81  C   UNL     1      11.705  -4.922   3.610  1.00  0.00     0.135 A 
ATOM     82  F   UNL     1      14.049  -6.974   5.483  1.00  0.00    -0.206 F 
ATOM     83  C   UNL     1      13.450  -7.057   3.215  1.00  0.00     0.059 A 
ATOM     84  C   UNL     1      11.807  -5.496   2.346  1.00  0.00     0.059 A 
ATOM     85  F   UNL     1      10.857  -3.895   3.773  1.00  0.00    -0.206 F 
ATOM     86  C   UNL     1      12.687  -6.560   2.157  1.00  0.00     0.060 A 
BRANCH  86  87
ATOM     87  S   UNL     1      12.830  -7.356   0.542  1.00  0.00     0.124 S 
ATOM     88  O   UNL     1      14.169  -6.951   0.131  1.00  0.00    -0.237 OA
ATOM     89  O   UNL     1      12.665  -8.766   0.884  1.00  0.00    -0.237 OA
ATOM     90  O   UNL     1      11.731  -6.770  -0.220  1.00  0.00    -0.744 OA
ENDBRANCH  86  87
ENDBRANCH  54  79
BRANCH  66  91
ATOM     91  C   UNL     1      16.804  -1.823   8.820  1.00  0.00     0.058 A 
ATOM     92  C   UNL     1      17.192  -0.808   7.931  1.00  0.00     0.135 A 
ATOM     93  C   UNL     1      17.801  -2.406   9.621  1.00  0.00     0.135 A 
ATOM     94  F   UNL     1      16.283  -0.220   7.138  1.00  0.00    -0.206 F 
ATOM     95  C   UNL     1      18.520  -0.404   7.824  1.00  0.00     0.059 A 
ATOM     96  C   UNL     1      19.128  -1.994   9.555  1.00  0.00     0.059 A 
ATOM     97  F   UNL     1      17.485  -3.373  10.498  1.00  0.00    -0.206 F 
ATOM     98  C   UNL     1      19.480  -1.000   8.643  1.00  0.00     0.060 A 
BRANCH  98  99
ATOM     99  S   UNL     1      21.192  -0.441   8.519  1.00  0.00     0.124 S 
ATOM    100  O   UNL     1      21.589  -0.993   7.228  1.00  0.00    -0.237 OA
ATOM    101  O   UNL     1      21.050   1.011   8.571  1.00  0.00    -0.237 OA
ATOM    102  O   UNL     1      21.834  -1.044   9.683  1.00  0.00    -0.744 OA
ENDBRANCH  98  99
ENDBRANCH  66  91
ENDBRANCH  40  41
ENDBRANCH  33  35
ENDBRANCH  32  33
ENDBRANCH  31  32
ENDBRANCH  30  31
ENDBRANCH  29  30
ENDBRANCH  28  29
ENDBRANCH  27  28
ENDBRANCH  26  27
ENDBRANCH  25  26
ENDBRANCH   1  25
TORSDOF 29
