REMARK SMILES CCCCN(c1ccccc1C(=O)OCCOCCOCCOCCOC(=O)c1ccc(-c2c3nc(c(-c4c(F)cc(S(=O)(=O)[O-])cc4F)c4ccc([nH]4)c(-c4c(F)cc(S(=O)(=O)[O-])cc4F)c4nc(c(-c5c(F)cc(S(=O)(=O)[O-])cc5F)c5ccc2[nH]5)C=C4)C=C3)cc1)S(=O)(=O)c1ccc2c(c1)oc(=O)n2C
REMARK SMILES IDX 19 1 18 2 17 3 16 4 15 5 14 6 12 7 13 8 11 9 6 10 7 11 8 12
REMARK SMILES IDX 10 13 9 14 5 15 4 16 3 17 2 18 1 19 95 20 96 21 97 22 98 23
REMARK SMILES IDX 99 24 103 25 100 26 102 27 101 28 104 29 107 30 105 31
REMARK SMILES IDX 108 32 106 33 20 34 21 35 22 36 23 37 24 38 25 39 26 40
REMARK SMILES IDX 27 41 28 42 29 43 30 44 94 45 31 46 93 47 32 48 33 49 34 50
REMARK SMILES IDX 87 51 35 52 92 53 86 54 88 55 36 56 91 57 85 58 84 59 37 61
REMARK SMILES IDX 71 62 50 63 70 64 51 65 54 66 69 67 89 68 52 69 53 70 68 72
REMARK SMILES IDX 90 73 55 74 38 75 39 76 48 77 40 78 41 79 47 80 49 81 42 82
REMARK SMILES IDX 43 83 44 84 45 85 46 86 72 87 73 88 82 89 74 90 75 91 81 92
REMARK SMILES IDX 83 93 76 94 77 95 78 96 79 97 80 98 56 99 57 100 66 101
REMARK SMILES IDX 58 102 59 103 65 104 67 105 60 106 61 107 62 108 63 109
REMARK SMILES IDX 64 110
REMARK H PARENT 88 60 54 71
REMARK Flexibility Score: inf
ROOT
ATOM      1  C   UNL     1      -1.280   2.574  -4.872  1.00  0.00     0.188 C 
ENDROOT
BRANCH   1   2
ATOM      2  C   UNL     1      -0.462   3.626  -5.656  1.00  0.00     0.188 C 
BRANCH   2   3
ATOM      3  O   UNL     1       0.814   3.243  -6.125  1.00  0.00    -0.376 OA
BRANCH   3   4
ATOM      4  C   UNL     1       1.972   3.265  -5.309  1.00  0.00     0.202 C 
BRANCH   4   5
ATOM      5  C   UNL     1       1.980   3.456  -3.788  1.00  0.00     0.261 C 
BRANCH   5   6
ATOM      6  O   UNL     1       0.710   3.633  -3.169  1.00  0.00    -0.460 OA
BRANCH   6   7
ATOM      7  C   UNL     1       0.377   4.886  -2.827  1.00  0.00     0.340 C 
ATOM      8  O   UNL     1       1.026   5.891  -3.079  1.00  0.00    -0.246 OA
BRANCH   7   9
ATOM      9  C   UNL     1      -0.972   4.957  -2.210  1.00  0.00     0.084 A 
ATOM     10  C   UNL     1      -1.481   4.159  -1.155  1.00  0.00     0.066 A 
ATOM     11  C   UNL     1      -2.553   4.707  -0.438  1.00  0.00     0.028 A 
ATOM     12  C   UNL     1      -3.286   5.801  -0.929  1.00  0.00     0.002 A 
ATOM     13  C   UNL     1      -1.733   6.032  -2.720  1.00  0.00     0.018 A 
ATOM     14  C   UNL     1      -2.921   6.413  -2.117  1.00  0.00     0.001 A 
BRANCH  10  15
ATOM     15  N   UNL     1      -1.024   2.803  -0.856  1.00  0.00    -0.265 N 
BRANCH  15  16
ATOM     16  C   UNL     1       0.460   2.588  -0.621  1.00  0.00     0.136 C 
BRANCH  16  17
ATOM     17  C   UNL     1       0.944   2.255   0.798  1.00  0.00     0.022 C 
BRANCH  17  18
ATOM     18  C   UNL     1       0.941   0.798   1.285  1.00  0.00    -0.002 C 
ATOM     19  C   UNL     1       1.530  -0.229   0.325  1.00  0.00     0.004 C 
ENDBRANCH  17  18
ENDBRANCH  16  17
ENDBRANCH  15  16
BRANCH  15  20
ATOM     20  S   UNL     1      -2.010   1.599  -0.149  1.00  0.00     0.264 S 
ATOM     21  O   UNL     1      -1.365   0.339  -0.466  1.00  0.00    -0.201 OA
ATOM     22  O   UNL     1      -2.232   1.985   1.233  1.00  0.00    -0.201 OA
BRANCH  20  23
ATOM     23  C   UNL     1      -3.668   1.345  -0.797  1.00  0.00     0.091 A 
ATOM     24  C   UNL     1      -4.553   2.353  -1.213  1.00  0.00     0.025 A 
ATOM     25  C   UNL     1      -4.170   0.043  -0.569  1.00  0.00     0.071 A 
ATOM     26  C   UNL     1      -5.941   2.116  -1.284  1.00  0.00     0.032 A 
ATOM     27  C   UNL     1      -5.529  -0.168  -0.662  1.00  0.00     0.157 A 
ATOM     28  C   UNL     1      -6.396   0.853  -0.974  1.00  0.00     0.090 A 
ATOM     29  O   UNL     1      -6.172  -1.361  -0.374  1.00  0.00    -0.408 OA
ATOM     30  N   UNL     1      -7.657   0.319  -0.848  1.00  0.00    -0.277 N 
ATOM     31  C   UNL     1      -7.520  -1.010  -0.499  1.00  0.00     0.419 A 
ATOM     32  C   UNL     1      -8.909   0.993  -1.016  1.00  0.00     0.157 C 
ATOM     33  O   UNL     1      -8.441  -1.800  -0.315  1.00  0.00    -0.223 OA
ENDBRANCH  20  23
ENDBRANCH  15  20
ENDBRANCH  10  15
ENDBRANCH   7   9
ENDBRANCH   6   7
ENDBRANCH   5   6
ENDBRANCH   4   5
ENDBRANCH   3   4
ENDBRANCH   2   3
ENDBRANCH   1   2
BRANCH   1  34
ATOM     34  O   UNL     1      -0.568   1.513  -4.267  1.00  0.00    -0.377 OA
BRANCH  34  35
ATOM     35  C   UNL     1       0.057   0.516  -5.069  1.00  0.00     0.188 C 
BRANCH  35  36
ATOM     36  C   UNL     1       0.026   0.558  -6.613  1.00  0.00     0.188 C 
BRANCH  36  37
ATOM     37  O   UNL     1      -1.065   1.272  -7.171  1.00  0.00    -0.376 OA
BRANCH  37  38
ATOM     38  C   UNL     1      -2.128   0.533  -7.746  1.00  0.00     0.202 C 
BRANCH  38  39
ATOM     39  C   UNL     1      -2.945  -0.348  -6.791  1.00  0.00     0.261 C 
BRANCH  39  40
ATOM     40  O   UNL     1      -2.201  -1.339  -6.068  1.00  0.00    -0.460 OA
BRANCH  40  41
ATOM     41  C   UNL     1      -1.602  -2.302  -6.804  1.00  0.00     0.338 C 
ATOM     42  O   UNL     1      -1.645  -2.430  -8.014  1.00  0.00    -0.246 OA
BRANCH  41  43
ATOM     43  C   UNL     1      -0.715  -3.074  -5.910  1.00  0.00     0.060 A 
ATOM     44  C   UNL     1       0.656  -3.105  -6.189  1.00  0.00     0.016 A 
ATOM     45  C   UNL     1      -1.234  -3.769  -4.816  1.00  0.00     0.016 A 
ATOM     46  C   UNL     1       1.509  -3.870  -5.395  1.00  0.00     0.010 A 
ATOM     47  C   UNL     1      -0.379  -4.550  -4.031  1.00  0.00     0.010 A 
ATOM     48  C   UNL     1       0.990  -4.632  -4.339  1.00  0.00    -0.014 A 
BRANCH  48  49
ATOM     49  C   UNL     1       1.863  -5.631  -3.676  1.00  0.00     0.031 A 
ATOM     50  C   UNL     1       1.762  -7.074  -4.098  1.00  0.00     0.074 A 
ATOM     51  C   UNL     1       2.765  -5.254  -2.751  1.00  0.00     0.049 A 
ATOM     52  N   UNL     1       2.439  -8.110  -3.677  1.00  0.00    -0.248 NA
ATOM     53  C   UNL     1       0.764  -7.392  -5.134  1.00  0.00     0.031 C 
ATOM     54  C   UNL     1       2.965  -3.886  -2.274  1.00  0.00     0.029 A 
ATOM     55  N   UNL     1       3.681  -5.994  -2.044  1.00  0.00    -0.354 N 
ATOM     56  C   UNL     1       1.943  -9.200  -4.382  1.00  0.00     0.074 A 
ATOM     57  C   UNL     1       0.896  -8.706  -5.248  1.00  0.00     0.031 C 
ATOM     58  C   UNL     1       3.934  -3.887  -1.341  1.00  0.00     0.029 A 
ATOM     59  C   UNL     1       4.404  -5.256  -1.136  1.00  0.00     0.049 A 
ATOM     60  H   UNL     1       3.809  -6.961  -2.175  1.00  0.00     0.167 HD
ATOM     61  C   UNL     1       2.331 -10.495  -4.316  1.00  0.00     0.037 A 
ATOM     62  C   UNL     1       5.321  -5.647  -0.227  1.00  0.00     0.037 A 
ATOM     63  C   UNL     1       3.387 -10.978  -3.464  1.00  0.00     0.049 A 
ATOM     64  C   UNL     1       5.711  -7.104  -0.156  1.00  0.00     0.074 A 
ATOM     65  C   UNL     1       3.892 -12.263  -3.370  1.00  0.00     0.029 A 
ATOM     66  N   UNL     1       4.088 -10.205  -2.551  1.00  0.00    -0.354 N 
ATOM     67  N   UNL     1       5.282  -8.112  -0.879  1.00  0.00    -0.248 NA
ATOM     68  C   UNL     1       6.719  -7.475   0.848  1.00  0.00     0.031 C 
ATOM     69  C   UNL     1       4.851 -12.282  -2.353  1.00  0.00     0.029 A 
ATOM     70  C   UNL     1       4.993 -10.995  -1.861  1.00  0.00     0.049 A 
ATOM     71  H   UNL     1       3.961  -9.239  -2.413  1.00  0.00     0.167 HD
ATOM     72  C   UNL     1       5.982  -9.229  -0.430  1.00  0.00     0.074 A 
ATOM     73  C   UNL     1       6.883  -8.767   0.604  1.00  0.00     0.031 C 
ATOM     74  C   UNL     1       5.886 -10.521  -0.833  1.00  0.00     0.037 A 
BRANCH  61  75
ATOM     75  C   UNL     1       1.602 -11.502  -5.162  1.00  0.00     0.058 A 
ATOM     76  C   UNL     1       1.782 -11.578  -6.551  1.00  0.00     0.135 A 
ATOM     77  C   UNL     1       0.782 -12.467  -4.554  1.00  0.00     0.135 A 
ATOM     78  F   UNL     1       2.537 -10.668  -7.187  1.00  0.00    -0.206 F 
ATOM     79  C   UNL     1       1.179 -12.579  -7.308  1.00  0.00     0.059 A 
ATOM     80  C   UNL     1       0.190 -13.491  -5.286  1.00  0.00     0.059 A 
ATOM     81  F   UNL     1       0.569 -12.434  -3.229  1.00  0.00    -0.206 F 
ATOM     82  C   UNL     1       0.394 -13.538  -6.663  1.00  0.00     0.060 A 
BRANCH  82  83
ATOM     83  S   UNL     1      -0.326 -14.867  -7.650  1.00  0.00     0.124 S 
ATOM     84  O   UNL     1      -1.340 -14.148  -8.415  1.00  0.00    -0.237 OA
ATOM     85  O   UNL     1       0.823 -15.345  -8.413  1.00  0.00    -0.237 OA
ATOM     86  O   UNL     1      -0.840 -15.797  -6.649  1.00  0.00    -0.744 OA
ENDBRANCH  82  83
ENDBRANCH  61  75
BRANCH  62  87
ATOM     87  C   UNL     1       5.910  -4.660   0.720  1.00  0.00     0.058 A 
ATOM     88  C   UNL     1       7.276  -4.339   0.694  1.00  0.00     0.135 A 
ATOM     89  C   UNL     1       5.118  -4.049   1.707  1.00  0.00     0.135 A 
ATOM     90  F   UNL     1       8.079  -4.902  -0.222  1.00  0.00    -0.206 F 
ATOM     91  C   UNL     1       7.842  -3.479   1.630  1.00  0.00     0.059 A 
ATOM     92  C   UNL     1       5.654  -3.160   2.632  1.00  0.00     0.059 A 
ATOM     93  F   UNL     1       3.804  -4.311   1.772  1.00  0.00    -0.206 F 
ATOM     94  C   UNL     1       7.022  -2.896   2.598  1.00  0.00     0.060 A 
BRANCH  94  95
ATOM     95  S   UNL     1       7.763  -1.770   3.800  1.00  0.00     0.124 S 
ATOM     96  O   UNL     1       8.499  -2.694   4.654  1.00  0.00    -0.237 OA
ATOM     97  O   UNL     1       8.572  -0.903   2.949  1.00  0.00    -0.237 OA
ATOM     98  O   UNL     1       6.605  -1.127   4.415  1.00  0.00    -0.744 OA
ENDBRANCH  94  95
ENDBRANCH  62  87
BRANCH  74  99
ATOM     99  C   UNL     1       6.800 -11.522  -0.176  1.00  0.00     0.058 A 
ATOM    100  C   UNL     1       6.640 -11.903   1.166  1.00  0.00     0.135 A 
ATOM    101  C   UNL     1       7.835 -12.130  -0.907  1.00  0.00     0.135 A 
ATOM    102  F   UNL     1       5.668 -11.354   1.913  1.00  0.00    -0.206 F 
ATOM    103  C   UNL     1       7.499 -12.814   1.772  1.00  0.00     0.059 A 
ATOM    104  C   UNL     1       8.683 -13.070  -0.332  1.00  0.00     0.059 A 
ATOM    105  F   UNL     1       8.025 -11.817  -2.199  1.00  0.00    -0.206 F 
ATOM    106  C   UNL     1       8.520 -13.391   1.015  1.00  0.00     0.060 A 
BRANCH 106 107
ATOM    107  S   UNL     1       9.629 -14.571   1.813  1.00  0.00     0.124 S 
ATOM    108  O   UNL     1      10.437 -13.693   2.653  1.00  0.00    -0.237 OA
ATOM    109  O   UNL     1       8.700 -15.446   2.520  1.00  0.00    -0.237 OA
ATOM    110  O   UNL     1      10.333 -15.188   0.692  1.00  0.00    -0.744 OA
ENDBRANCH 106 107
ENDBRANCH  74  99
ENDBRANCH  48  49
ENDBRANCH  41  43
ENDBRANCH  40  41
ENDBRANCH  39  40
ENDBRANCH  38  39
ENDBRANCH  37  38
ENDBRANCH  36  37
ENDBRANCH  35  36
ENDBRANCH  34  35
ENDBRANCH   1  34
TORSDOF 29
