REMARK SMILES CC(C)c1cccc2c1N[C@H](c1ccc(C(=O)OCCOCCOCCOCCOC(=O)c3ccc(-c4c5nc(c(-c6c(F)cc(S(=O)(=O)[O-])cc6F)c6ccc([nH]6)c(-c6c(F)cc(S(=O)(=O)[O-])cc6F)c6nc(c(-c7c(F)cc(S(=O)(=O)[O-])cc7F)c7ccc4[nH]7)C=C6)C=C5)cc3)cc1)[C@H]1CC=C[C@H]21
REMARK SMILES IDX 25 1 24 2 23 3 22 4 21 5 20 6 19 7 18 8 16 9 17 10 15 11
REMARK SMILES IDX 12 12 13 13 100 14 14 15 99 16 11 17 4 18 5 19 9 20 6 21
REMARK SMILES IDX 8 22 10 23 7 24 105 25 101 27 104 28 102 29 103 30 2 31 1 32
REMARK SMILES IDX 3 33 26 34 27 35 28 36 29 37 30 38 31 39 32 40 33 41 34 42
REMARK SMILES IDX 98 43 35 44 97 45 36 46 37 47 38 48 91 49 39 50 96 51 90 52
REMARK SMILES IDX 92 53 40 54 95 55 89 56 88 57 41 59 75 60 54 61 74 62 55 63
REMARK SMILES IDX 58 64 73 65 93 66 56 67 57 68 72 70 94 71 59 72 42 73 43 74
REMARK SMILES IDX 52 75 44 76 45 77 51 78 53 79 46 80 47 81 48 82 49 83 50 84
REMARK SMILES IDX 76 85 77 86 86 87 78 88 79 89 85 90 87 91 80 92 81 93 82 94
REMARK SMILES IDX 83 95 84 96 60 97 61 98 70 99 62 100 63 101 69 102 71 103
REMARK SMILES IDX 64 104 65 105 66 106 67 107 68 108
REMARK H PARENT 10 26 92 58 58 69
REMARK Flexibility Score: inf
ROOT
ATOM      1  C   UNL     1       0.963   7.654   7.233  1.00  0.00     0.188 C 
ENDROOT
BRANCH   1   2
ATOM      2  O   UNL     1       0.561   7.264   5.923  1.00  0.00    -0.377 OA
BRANCH   2   3
ATOM      3  C   UNL     1       1.534   7.185   4.896  1.00  0.00     0.188 C 
BRANCH   3   4
ATOM      4  C   UNL     1       2.479   8.380   4.675  1.00  0.00     0.188 C 
BRANCH   4   5
ATOM      5  O   UNL     1       2.423   9.371   5.696  1.00  0.00    -0.376 OA
BRANCH   5   6
ATOM      6  C   UNL     1       2.107  10.691   5.273  1.00  0.00     0.202 C 
BRANCH   6   7
ATOM      7  C   UNL     1       0.613  10.941   5.050  1.00  0.00     0.261 C 
BRANCH   7   8
ATOM      8  O   UNL     1      -0.022   9.979   4.201  1.00  0.00    -0.460 OA
BRANCH   8   9
ATOM      9  C   UNL     1       0.266   9.982   2.881  1.00  0.00     0.338 C 
ATOM     10  O   UNL     1       1.006  10.754   2.298  1.00  0.00    -0.246 OA
BRANCH   9  11
ATOM     11  C   UNL     1      -0.322   8.746   2.292  1.00  0.00     0.060 A 
ATOM     12  C   UNL     1      -1.347   6.321   1.249  1.00  0.00    -0.025 A 
ATOM     13  C   UNL     1      -0.258   6.965   0.636  1.00  0.00     0.007 A 
ATOM     14  C   UNL     1      -1.849   6.876   2.438  1.00  0.00     0.007 A 
ATOM     15  C   UNL     1       0.254   8.168   1.154  1.00  0.00     0.016 A 
ATOM     16  C   UNL     1      -1.376   8.089   2.930  1.00  0.00     0.016 A 
BRANCH  12  17
ATOM     17  C   UNL     1      -2.008   5.114   0.583  1.00  0.00     0.114 C 
ATOM     18  C   UNL     1      -0.995   1.425   0.802  1.00  0.00    -0.022 A 
ATOM     19  C   UNL     1      -1.680   0.191   0.942  1.00  0.00     0.006 A 
ATOM     20  C   UNL     1      -1.787   2.603   0.738  1.00  0.00     0.042 A 
ATOM     21  C   UNL     1      -3.067   0.085   0.873  1.00  0.00     0.001 A 
ATOM     22  C   UNL     1      -3.203   2.468   0.581  1.00  0.00    -0.017 A 
ATOM     23  N   UNL     1      -1.221   3.888   0.799  1.00  0.00    -0.377 N 
ATOM     24  C   UNL     1      -3.824   1.217   0.645  1.00  0.00     0.006 A 
ATOM     25  C   UNL     1      -4.001   3.697   0.249  1.00  0.00     0.049 C 
ATOM     26  H   UNL     1      -0.260   3.972   0.995  1.00  0.00     0.161 HD
ATOM     27  C   UNL     1      -3.439   4.865   1.047  1.00  0.00     0.031 C 
ATOM     28  C   UNL     1      -5.454   3.832   0.607  1.00  0.00    -0.023 C 
ATOM     29  C   UNL     1      -4.495   5.956   0.864  1.00  0.00     0.034 C 
ATOM     30  C   UNL     1      -5.735   5.111   0.907  1.00  0.00    -0.030 C 
BRANCH  18  31
ATOM     31  C   UNL     1       0.547   1.376   0.751  1.00  0.00     0.015 C 
ATOM     32  C   UNL     1       1.091   0.065   0.125  1.00  0.00     0.012 C 
ATOM     33  C   UNL     1       1.240   2.514  -0.019  1.00  0.00     0.012 C 
ENDBRANCH  18  31
ENDBRANCH  12  17
ENDBRANCH   9  11
ENDBRANCH   8   9
ENDBRANCH   7   8
ENDBRANCH   6   7
ENDBRANCH   5   6
ENDBRANCH   4   5
ENDBRANCH   3   4
ENDBRANCH   2   3
ENDBRANCH   1   2
BRANCH   1  34
ATOM     34  C   UNL     1       2.403   7.404   7.740  1.00  0.00     0.188 C 
BRANCH  34  35
ATOM     35  O   UNL     1       3.183   6.525   6.939  1.00  0.00    -0.376 OA
BRANCH  35  36
ATOM     36  C   UNL     1       3.484   5.258   7.505  1.00  0.00     0.202 C 
BRANCH  36  37
ATOM     37  C   UNL     1       2.303   4.284   7.554  1.00  0.00     0.261 C 
BRANCH  37  38
ATOM     38  O   UNL     1       1.184   4.716   8.340  1.00  0.00    -0.460 OA
BRANCH  38  39
ATOM     39  C   UNL     1       1.380   4.926   9.662  1.00  0.00     0.338 C 
ATOM     40  O   UNL     1       2.412   4.777  10.290  1.00  0.00    -0.246 OA
BRANCH  39  41
ATOM     41  C   UNL     1       0.149   5.566  10.169  1.00  0.00     0.060 A 
ATOM     42  C   UNL     1      -1.087   4.949   9.963  1.00  0.00     0.016 A 
ATOM     43  C   UNL     1       0.226   6.822  10.783  1.00  0.00     0.016 A 
ATOM     44  C   UNL     1      -2.253   5.588  10.382  1.00  0.00     0.010 A 
ATOM     45  C   UNL     1      -0.945   7.468  11.188  1.00  0.00     0.010 A 
ATOM     46  C   UNL     1      -2.190   6.846  11.006  1.00  0.00    -0.014 A 
BRANCH  46  47
ATOM     47  C   UNL     1      -3.408   7.404  11.636  1.00  0.00     0.031 A 
ATOM     48  C   UNL     1      -4.265   8.429  10.958  1.00  0.00     0.074 A 
ATOM     49  C   UNL     1      -3.739   6.937  12.854  1.00  0.00     0.049 A 
ATOM     50  N   UNL     1      -5.404   8.935  11.359  1.00  0.00    -0.248 NA
ATOM     51  C   UNL     1      -3.788   8.958   9.673  1.00  0.00     0.031 C 
ATOM     52  C   UNL     1      -2.964   5.945  13.606  1.00  0.00     0.029 A 
ATOM     53  N   UNL     1      -4.804   7.217  13.668  1.00  0.00    -0.354 N 
ATOM     54  C   UNL     1      -5.799   9.823  10.367  1.00  0.00     0.074 A 
ATOM     55  C   UNL     1      -4.752   9.819   9.364  1.00  0.00     0.031 C 
ATOM     56  C   UNL     1      -3.591   5.686  14.762  1.00  0.00     0.029 A 
ATOM     57  C   UNL     1      -4.797   6.504  14.842  1.00  0.00     0.049 A 
ATOM     58  H   UNL     1      -5.507   7.866  13.434  1.00  0.00     0.167 HD
ATOM     59  C   UNL     1      -6.938  10.556  10.300  1.00  0.00     0.037 A 
ATOM     60  C   UNL     1      -5.669   6.500  15.867  1.00  0.00     0.037 A 
ATOM     61  C   UNL     1      -7.960  10.566  11.320  1.00  0.00     0.049 A 
ATOM     62  C   UNL     1      -6.900   7.354  15.784  1.00  0.00     0.074 A 
ATOM     63  C   UNL     1      -9.158  11.262  11.331  1.00  0.00     0.029 A 
ATOM     64  N   UNL     1      -7.905   9.859  12.514  1.00  0.00    -0.354 N 
ATOM     65  N   UNL     1      -7.286   8.149  14.816  1.00  0.00    -0.248 NA
ATOM     66  C   UNL     1      -7.821   7.301  16.927  1.00  0.00     0.031 C 
ATOM     67  C   UNL     1      -9.803  11.014  12.547  1.00  0.00     0.029 A 
ATOM     68  C   UNL     1      -9.035  10.120  13.275  1.00  0.00     0.049 A 
ATOM     69  H   UNL     1      -7.171   9.260  12.781  1.00  0.00     0.167 HD
ATOM     70  C   UNL     1      -8.509   8.671  15.219  1.00  0.00     0.074 A 
ATOM     71  C   UNL     1      -8.802   8.094  16.515  1.00  0.00     0.031 C 
ATOM     72  C   UNL     1      -9.317   9.545  14.569  1.00  0.00     0.037 A 
BRANCH  59  73
ATOM     73  C   UNL     1      -7.157  11.410   9.080  1.00  0.00     0.058 A 
ATOM     74  C   UNL     1      -7.479  10.840   7.838  1.00  0.00     0.135 A 
ATOM     75  C   UNL     1      -7.138  12.812   9.168  1.00  0.00     0.135 A 
ATOM     76  F   UNL     1      -7.505   9.505   7.693  1.00  0.00    -0.206 F 
ATOM     77  C   UNL     1      -7.759  11.627   6.725  1.00  0.00     0.059 A 
ATOM     78  C   UNL     1      -7.438  13.620   8.074  1.00  0.00     0.059 A 
ATOM     79  F   UNL     1      -6.842  13.412  10.332  1.00  0.00    -0.206 F 
ATOM     80  C   UNL     1      -7.740  13.017   6.853  1.00  0.00     0.060 A 
BRANCH  80  81
ATOM     81  S   UNL     1      -8.124  14.019   5.401  1.00  0.00     0.124 S 
ATOM     82  O   UNL     1      -6.952  13.780   4.564  1.00  0.00    -0.237 OA
ATOM     83  O   UNL     1      -9.370  13.422   4.932  1.00  0.00    -0.237 OA
ATOM     84  O   UNL     1      -8.243  15.371   5.940  1.00  0.00    -0.744 OA
ENDBRANCH  80  81
ENDBRANCH  59  73
BRANCH  60  85
ATOM     85  C   UNL     1      -5.415   5.618  17.033  1.00  0.00     0.058 A 
ATOM     86  C   UNL     1      -6.188   4.468  17.247  1.00  0.00     0.135 A 
ATOM     87  C   UNL     1      -4.361   5.877  17.923  1.00  0.00     0.135 A 
ATOM     88  F   UNL     1      -7.206   4.182  16.421  1.00  0.00    -0.206 F 
ATOM     89  C   UNL     1      -5.930   3.608  18.307  1.00  0.00     0.059 A 
ATOM     90  C   UNL     1      -4.068   5.018  18.977  1.00  0.00     0.059 A 
ATOM     91  F   UNL     1      -3.580   6.954  17.746  1.00  0.00    -0.206 F 
ATOM     92  C   UNL     1      -4.863   3.888  19.163  1.00  0.00     0.060 A 
BRANCH  92  93
ATOM     93  S   UNL     1      -4.502   2.728  20.499  1.00  0.00     0.124 S 
ATOM     94  O   UNL     1      -5.626   2.958  21.399  1.00  0.00    -0.237 OA
ATOM     95  O   UNL     1      -4.496   1.448  19.797  1.00  0.00    -0.237 OA
ATOM     96  O   UNL     1      -3.200   3.173  20.987  1.00  0.00    -0.744 OA
ENDBRANCH  92  93
ENDBRANCH  60  85
BRANCH  72  97
ATOM     97  C   UNL     1     -10.612   9.916  15.239  1.00  0.00     0.058 A 
ATOM     98  C   UNL     1     -10.648  10.752  16.366  1.00  0.00     0.135 A 
ATOM     99  C   UNL     1     -11.837   9.463  14.722  1.00  0.00     0.135 A 
ATOM    100  F   UNL     1      -9.506  11.206  16.906  1.00  0.00    -0.206 F 
ATOM    101  C   UNL     1     -11.849  11.104  16.972  1.00  0.00     0.059 A 
ATOM    102  C   UNL     1     -13.052   9.825  15.295  1.00  0.00     0.059 A 
ATOM    103  F   UNL     1     -11.861   8.668  13.640  1.00  0.00    -0.206 F 
ATOM    104  C   UNL     1     -13.047  10.637  16.428  1.00  0.00     0.060 A 
BRANCH 104 105
ATOM    105  S   UNL     1     -14.600  11.125  17.210  1.00  0.00     0.124 S 
ATOM    106  O   UNL     1     -14.568  10.342  18.441  1.00  0.00    -0.237 OA
ATOM    107  O   UNL     1     -14.428  12.566  17.371  1.00  0.00    -0.237 OA
ATOM    108  O   UNL     1     -15.612  10.725  16.238  1.00  0.00    -0.744 OA
ENDBRANCH 104 105
ENDBRANCH  72  97
ENDBRANCH  46  47
ENDBRANCH  39  41
ENDBRANCH  38  39
ENDBRANCH  37  38
ENDBRANCH  36  37
ENDBRANCH  35  36
ENDBRANCH  34  35
ENDBRANCH   1  34
TORSDOF 25
