REMARK SMILES O=C(CCC(=O)OCCOCCOCCOCCOC(=O)c1ccc(-c2c3nc(c(-c4c(F)cc(S(=O)(=O)[O-])cc4F)c4ccc([nH]4)c(-c4c(F)cc(S(=O)(=O)[O-])cc4F)c4nc(c(-c5c(F)cc(S(=O)(=O)[O-])cc5F)c5ccc2[nH]5)C=C4)C=C3)cc1)Nc1ccc2nc(-c3ccccc3)oc2c1
REMARK SMILES IDX 12 1 11 2 10 3 9 4 8 5 7 6 5 7 6 8 4 9 3 10 2 11 1 12 88 13
REMARK SMILES IDX 89 15 90 16 103 17 91 18 102 19 92 20 101 21 93 22 94 23
REMARK SMILES IDX 95 24 96 25 100 26 97 27 99 28 98 29 13 30 14 31 15 32 16 33
REMARK SMILES IDX 17 34 18 35 19 36 20 37 21 38 22 39 23 40 87 41 24 42 86 43
REMARK SMILES IDX 25 44 26 45 27 46 80 47 28 48 85 49 79 50 81 51 29 52 84 53
REMARK SMILES IDX 78 54 77 55 30 57 64 58 43 59 63 60 44 61 47 62 62 63 82 64
REMARK SMILES IDX 45 65 46 66 61 68 83 69 48 70 31 71 32 72 41 73 33 74 34 75
REMARK SMILES IDX 40 76 42 77 35 78 36 79 37 80 38 81 39 82 65 83 66 84 75 85
REMARK SMILES IDX 67 86 68 87 74 88 76 89 69 90 70 91 71 92 72 93 73 94 49 95
REMARK SMILES IDX 50 96 59 97 51 98 52 99 58 100 60 101 53 102 54 103 55 104
REMARK SMILES IDX 56 105 57 106
REMARK H PARENT 88 14 81 56 47 67
REMARK Flexibility Score: inf
ROOT
ATOM      1  C   UNL     1       5.629   0.105  -1.062  1.00  0.00     0.188 C 
ENDROOT
BRANCH   1   2
ATOM      2  C   UNL     1       6.767   0.399  -0.079  1.00  0.00     0.188 C 
BRANCH   2   3
ATOM      3  O   UNL     1       7.325  -0.737   0.534  1.00  0.00    -0.376 OA
BRANCH   3   4
ATOM      4  C   UNL     1       6.860  -1.172   1.798  1.00  0.00     0.202 C 
BRANCH   4   5
ATOM      5  C   UNL     1       5.574  -0.674   2.494  1.00  0.00     0.261 C 
BRANCH   5   6
ATOM      6  O   UNL     1       4.536  -0.068   1.693  1.00  0.00    -0.463 OA
BRANCH   6   7
ATOM      7  C   UNL     1       4.224   1.212   2.017  1.00  0.00     0.306 C 
ATOM      8  O   UNL     1       4.818   1.854   2.880  1.00  0.00    -0.252 OA
BRANCH   7   9
ATOM      9  C   UNL     1       3.086   1.858   1.245  1.00  0.00     0.132 C 
BRANCH   9  10
ATOM     10  C   UNL     1       2.386   1.277   0.022  1.00  0.00     0.112 C 
BRANCH  10  11
ATOM     11  C   UNL     1       1.500   0.068   0.219  1.00  0.00     0.224 C 
ATOM     12  O   UNL     1       0.290   0.139   0.030  1.00  0.00    -0.275 OA
ATOM     13  N   UNL     1       2.194  -1.051   0.598  1.00  0.00    -0.326 N 
ATOM     14  H   UNL     1       3.171  -0.962   0.681  1.00  0.00     0.169 HD
BRANCH  13  15
ATOM     15  C   UNL     1       1.649  -2.311   0.879  1.00  0.00     0.045 A 
ATOM     16  C   UNL     1       2.345  -3.050   1.847  1.00  0.00     0.028 A 
ATOM     17  C   UNL     1       0.480  -2.802   0.267  1.00  0.00     0.075 A 
ATOM     18  C   UNL     1       1.852  -4.260   2.315  1.00  0.00     0.034 A 
ATOM     19  C   UNL     1       0.043  -4.041   0.724  1.00  0.00     0.157 A 
ATOM     20  C   UNL     1       0.679  -4.737   1.736  1.00  0.00     0.110 A 
ATOM     21  O   UNL     1      -1.051  -4.785   0.329  1.00  0.00    -0.436 OA
ATOM     22  N   UNL     1      -0.008  -5.855   2.027  1.00  0.00    -0.209 NA
ATOM     23  C   UNL     1      -1.011  -5.867   1.178  1.00  0.00     0.227 A 
BRANCH  23  24
ATOM     24  C   UNL     1      -2.075  -6.862   1.161  1.00  0.00     0.037 A 
ATOM     25  C   UNL     1      -2.061  -7.924   0.250  1.00  0.00     0.014 A 
ATOM     26  C   UNL     1      -2.916  -6.944   2.285  1.00  0.00     0.014 A 
ATOM     27  C   UNL     1      -2.829  -9.070   0.495  1.00  0.00     0.001 A 
ATOM     28  C   UNL     1      -3.664  -8.095   2.540  1.00  0.00     0.001 A 
ATOM     29  C   UNL     1      -3.610  -9.163   1.649  1.00  0.00     0.000 A 
ENDBRANCH  23  24
ENDBRANCH  13  15
ENDBRANCH  10  11
ENDBRANCH   9  10
ENDBRANCH   7   9
ENDBRANCH   6   7
ENDBRANCH   5   6
ENDBRANCH   4   5
ENDBRANCH   3   4
ENDBRANCH   2   3
ENDBRANCH   1   2
BRANCH   1  30
ATOM     30  O   UNL     1       4.781  -0.998  -0.784  1.00  0.00    -0.377 OA
BRANCH  30  31
ATOM     31  C   UNL     1       5.285  -2.334  -0.868  1.00  0.00     0.188 C 
BRANCH  31  32
ATOM     32  C   UNL     1       6.636  -2.658  -1.543  1.00  0.00     0.188 C 
BRANCH  32  33
ATOM     33  O   UNL     1       7.085  -1.689  -2.474  1.00  0.00    -0.376 OA
BRANCH  33  34
ATOM     34  C   UNL     1       6.838  -1.936  -3.850  1.00  0.00     0.202 C 
BRANCH  34  35
ATOM     35  C   UNL     1       5.369  -2.062  -4.286  1.00  0.00     0.261 C 
BRANCH  35  36
ATOM     36  O   UNL     1       4.624  -3.142  -3.697  1.00  0.00    -0.460 OA
BRANCH  36  37
ATOM     37  C   UNL     1       5.075  -4.395  -3.904  1.00  0.00     0.338 C 
ATOM     38  O   UNL     1       6.051  -4.721  -4.571  1.00  0.00    -0.246 OA
BRANCH  37  39
ATOM     39  C   UNL     1       4.312  -5.322  -3.047  1.00  0.00     0.060 A 
ATOM     40  C   UNL     1       5.002  -6.091  -2.101  1.00  0.00     0.016 A 
ATOM     41  C   UNL     1       2.934  -5.477  -3.212  1.00  0.00     0.016 A 
ATOM     42  C   UNL     1       4.326  -7.064  -1.363  1.00  0.00     0.010 A 
ATOM     43  C   UNL     1       2.260  -6.460  -2.476  1.00  0.00     0.010 A 
ATOM     44  C   UNL     1       2.961  -7.294  -1.582  1.00  0.00    -0.014 A 
BRANCH  44  45
ATOM     45  C   UNL     1       2.331  -8.549  -1.079  1.00  0.00     0.031 A 
ATOM     46  C   UNL     1       2.130  -9.670  -2.069  1.00  0.00     0.074 A 
ATOM     47  C   UNL     1       2.034  -8.741   0.222  1.00  0.00     0.049 A 
ATOM     48  N   UNL     1       1.518 -10.813  -1.916  1.00  0.00    -0.248 NA
ATOM     49  C   UNL     1       2.732  -9.487  -3.404  1.00  0.00     0.031 C 
ATOM     50  C   UNL     1       2.352  -7.807   1.296  1.00  0.00     0.029 A 
ATOM     51  N   UNL     1       1.392  -9.774   0.868  1.00  0.00    -0.354 N 
ATOM     52  C   UNL     1       1.701 -11.501  -3.112  1.00  0.00     0.074 A 
ATOM     53  C   UNL     1       2.412 -10.621  -4.009  1.00  0.00     0.031 C 
ATOM     54  C   UNL     1       1.860  -8.280   2.456  1.00  0.00     0.029 A 
ATOM     55  C   UNL     1       1.139  -9.522   2.205  1.00  0.00     0.049 A 
ATOM     56  H   UNL     1       1.137 -10.613   0.421  1.00  0.00     0.167 HD
ATOM     57  C   UNL     1       1.343 -12.770  -3.415  1.00  0.00     0.037 A 
ATOM     58  C   UNL     1       0.364 -10.186   3.095  1.00  0.00     0.037 A 
ATOM     59  C   UNL     1       0.636 -13.632  -2.507  1.00  0.00     0.049 A 
ATOM     60  C   UNL     1      -0.306 -11.457   2.608  1.00  0.00     0.074 A 
ATOM     61  C   UNL     1       0.201 -14.928  -2.712  1.00  0.00     0.029 A 
ATOM     62  N   UNL     1       0.263 -13.281  -1.218  1.00  0.00    -0.354 N 
ATOM     63  N   UNL     1      -0.144 -12.093   1.468  1.00  0.00    -0.248 NA
ATOM     64  C   UNL     1      -1.255 -12.112   3.518  1.00  0.00     0.031 C 
ATOM     65  C   UNL     1      -0.483 -15.342  -1.566  1.00  0.00     0.029 A 
ATOM     66  C   UNL     1      -0.422 -14.326  -0.625  1.00  0.00     0.049 A 
ATOM     67  H   UNL     1       0.456 -12.416  -0.788  1.00  0.00     0.167 HD
ATOM     68  C   UNL     1      -0.871 -13.275   1.582  1.00  0.00     0.074 A 
ATOM     69  C   UNL     1      -1.512 -13.244   2.878  1.00  0.00     0.031 C 
ATOM     70  C   UNL     1      -0.973 -14.307   0.707  1.00  0.00     0.037 A 
BRANCH  57  71
ATOM     71  C   UNL     1       1.713 -13.304  -4.771  1.00  0.00     0.058 A 
ATOM     72  C   UNL     1       3.042 -13.622  -5.096  1.00  0.00     0.135 A 
ATOM     73  C   UNL     1       0.725 -13.558  -5.735  1.00  0.00     0.135 A 
ATOM     74  F   UNL     1       4.030 -13.378  -4.221  1.00  0.00    -0.206 F 
ATOM     75  C   UNL     1       3.378 -14.168  -6.331  1.00  0.00     0.059 A 
ATOM     76  C   UNL     1       1.036 -14.127  -6.967  1.00  0.00     0.059 A 
ATOM     77  F   UNL     1      -0.559 -13.265  -5.479  1.00  0.00    -0.206 F 
ATOM     78  C   UNL     1       2.367 -14.424  -7.258  1.00  0.00     0.060 A 
BRANCH  78  79
ATOM     79  S   UNL     1       2.817 -15.168  -8.840  1.00  0.00     0.124 S 
ATOM     80  O   UNL     1       3.527 -14.069  -9.488  1.00  0.00    -0.237 OA
ATOM     81  O   UNL     1       3.642 -16.299  -8.428  1.00  0.00    -0.237 OA
ATOM     82  O   UNL     1       1.529 -15.516  -9.432  1.00  0.00    -0.744 OA
ENDBRANCH  78  79
ENDBRANCH  57  71
BRANCH  58  83
ATOM     83  C   UNL     1       0.070  -9.655   4.477  1.00  0.00     0.058 A 
ATOM     84  C   UNL     1       0.224 -10.403   5.653  1.00  0.00     0.135 A 
ATOM     85  C   UNL     1      -0.521  -8.396   4.641  1.00  0.00     0.135 A 
ATOM     86  F   UNL     1       0.789 -11.619   5.603  1.00  0.00    -0.206 F 
ATOM     87  C   UNL     1      -0.262  -9.955   6.891  1.00  0.00     0.059 A 
ATOM     88  C   UNL     1      -0.982  -7.902   5.855  1.00  0.00     0.059 A 
ATOM     89  F   UNL     1      -0.678  -7.606   3.587  1.00  0.00    -0.206 F 
ATOM     90  C   UNL     1      -0.876  -8.704   6.978  1.00  0.00     0.060 A 
BRANCH  90  91
ATOM     91  S   UNL     1      -1.595  -8.155   8.539  1.00  0.00     0.124 S 
ATOM     92  O   UNL     1      -2.455  -9.280   8.889  1.00  0.00    -0.237 OA
ATOM     93  O   UNL     1      -0.407  -7.973   9.366  1.00  0.00    -0.237 OA
ATOM     94  O   UNL     1      -2.297  -6.926   8.177  1.00  0.00    -0.744 OA
ENDBRANCH  90  91
ENDBRANCH  58  83
BRANCH  70  95
ATOM     95  C   UNL     1      -1.653 -15.561   1.187  1.00  0.00     0.058 A 
ATOM     96  C   UNL     1      -3.040 -15.652   1.365  1.00  0.00     0.135 A 
ATOM     97  C   UNL     1      -0.884 -16.716   1.420  1.00  0.00     0.135 A 
ATOM     98  F   UNL     1      -3.819 -14.578   1.162  1.00  0.00    -0.206 F 
ATOM     99  C   UNL     1      -3.640 -16.835   1.785  1.00  0.00     0.059 A 
ATOM    100  C   UNL     1      -1.466 -17.918   1.805  1.00  0.00     0.059 A 
ATOM    101  F   UNL     1       0.448 -16.688   1.249  1.00  0.00    -0.206 F 
ATOM    102  C   UNL     1      -2.844 -17.964   1.999  1.00  0.00     0.060 A 
BRANCH 102 103
ATOM    103  S   UNL     1      -3.638 -19.502   2.511  1.00  0.00     0.124 S 
ATOM    104  O   UNL     1      -3.976 -19.210   3.900  1.00  0.00    -0.237 OA
ATOM    105  O   UNL     1      -4.766 -19.592   1.589  1.00  0.00    -0.237 OA
ATOM    106  O   UNL     1      -2.595 -20.505   2.316  1.00  0.00    -0.744 OA
ENDBRANCH 102 103
ENDBRANCH  70  95
ENDBRANCH  44  45
ENDBRANCH  37  39
ENDBRANCH  36  37
ENDBRANCH  35  36
ENDBRANCH  34  35
ENDBRANCH  33  34
ENDBRANCH  32  33
ENDBRANCH  31  32
ENDBRANCH  30  31
ENDBRANCH   1  30
TORSDOF 27
