REMARK SMILES C[C@H]1CC[C@H](CNC(=O)NCc2ccc(C(=O)OCCOCCOCCOCCOC(=O)c3ccc(-c4c5nc(c(-c6c(F)cc(S(=O)(=O)[O-])cc6F)c6ccc([nH]6)c(-c6c(F)cc(S(=O)(=O)[O-])cc6F)c6nc(c(-c7c(F)cc(S(=O)(=O)[O-])cc7F)c7ccc4[nH]7)C=C6)C=C5)cc3)o2)CC1
REMARK SMILES IDX 23 1 22 2 21 3 20 4 19 5 18 6 16 7 17 8 15 9 12 10 13 11
REMARK SMILES IDX 99 12 14 13 11 14 10 15 7 16 8 17 9 19 6 21 5 22 1 23 2 24
REMARK SMILES IDX 101 25 3 26 100 27 4 28 24 29 25 30 26 31 27 32 28 33 29 34
REMARK SMILES IDX 30 35 31 36 32 37 33 38 34 39 98 40 35 41 97 42 36 43 37 44
REMARK SMILES IDX 38 45 91 46 39 47 96 48 90 49 92 50 40 51 95 52 89 53 88 54
REMARK SMILES IDX 41 56 75 57 54 58 74 59 55 60 58 61 73 62 93 63 56 64 57 65
REMARK SMILES IDX 72 67 94 68 59 69 42 70 43 71 52 72 44 73 45 74 51 75 53 76
REMARK SMILES IDX 46 77 47 78 48 79 49 80 50 81 76 82 77 83 86 84 78 85 79 86
REMARK SMILES IDX 85 87 87 88 80 89 81 90 82 91 83 92 84 93 60 94 61 95 70 96
REMARK SMILES IDX 62 97 63 98 69 99 71 100 64 101 65 102 66 103 67 104 68 105
REMARK H PARENT 7 18 10 20 92 55 58 66
REMARK Flexibility Score: inf
ROOT
ATOM      1  C   UNL     1      -7.632  -2.593   3.577  1.00  0.00     0.188 C 
ENDROOT
BRANCH   1   2
ATOM      2  C   UNL     1      -8.725  -1.548   3.302  1.00  0.00     0.188 C 
BRANCH   2   3
ATOM      3  O   UNL     1      -9.968  -1.883   3.914  1.00  0.00    -0.376 OA
BRANCH   3   4
ATOM      4  C   UNL     1     -10.986  -2.401   3.066  1.00  0.00     0.202 C 
BRANCH   4   5
ATOM      5  C   UNL     1     -10.763  -3.786   2.433  1.00  0.00     0.261 C 
BRANCH   5   6
ATOM      6  O   UNL     1      -9.575  -3.942   1.641  1.00  0.00    -0.457 OA
BRANCH   6   7
ATOM      7  C   UNL     1      -9.435  -3.209   0.507  1.00  0.00     0.374 C 
ATOM      8  O   UNL     1     -10.295  -2.467   0.046  1.00  0.00    -0.242 OA
BRANCH   7   9
ATOM      9  C   UNL     1      -8.071  -3.353   0.042  1.00  0.00     0.211 A 
ATOM     10  C   UNL     1      -6.175  -2.626  -0.842  1.00  0.00     0.124 A 
ATOM     11  C   UNL     1      -5.895  -3.849  -0.270  1.00  0.00     0.048 A 
ATOM     12  O   UNL     1      -7.508  -2.345  -0.699  1.00  0.00    -0.452 OA
ATOM     13  C   UNL     1      -7.107  -4.316   0.293  1.00  0.00     0.058 A 
BRANCH  10  14
ATOM     14  C   UNL     1      -5.335  -1.625  -1.556  1.00  0.00     0.193 C 
BRANCH  14  15
ATOM     15  N   UNL     1      -5.863  -0.298  -1.333  1.00  0.00    -0.331 N 
ATOM     16  N   UNL     1      -4.143   1.003  -0.376  1.00  0.00    -0.338 N 
ATOM     17  C   UNL     1      -5.321   0.873  -0.997  1.00  0.00     0.315 C 
ATOM     18  H   UNL     1      -3.751   1.901  -0.466  1.00  0.00     0.165 HD
ATOM     19  O   UNL     1      -5.939   1.905  -1.267  1.00  0.00    -0.249 OA
ATOM     20  H   UNL     1      -6.838  -0.247  -1.457  1.00  0.00     0.165 HD
BRANCH  16  21
ATOM     21  C   UNL     1      -3.323   0.092   0.402  1.00  0.00     0.121 C 
BRANCH  21  22
ATOM     22  C   UNL     1      -1.885   0.039  -0.143  1.00  0.00     0.008 C 
ATOM     23  C   UNL     1       2.507  -0.059  -0.178  1.00  0.00     0.007 C 
ATOM     24  C   UNL     1       1.062  -0.006   0.314  1.00  0.00    -0.014 C 
ATOM     25  C   UNL     1       0.293  -1.262  -0.108  1.00  0.00     0.003 C 
ATOM     26  C   UNL     1       0.358   1.252  -0.205  1.00  0.00     0.003 C 
ATOM     27  C   UNL     1      -1.160  -1.215   0.364  1.00  0.00     0.006 C 
ATOM     28  C   UNL     1      -1.101   1.308   0.244  1.00  0.00     0.006 C 
ENDBRANCH  21  22
ENDBRANCH  16  21
ENDBRANCH  14  15
ENDBRANCH  10  14
ENDBRANCH   7   9
ENDBRANCH   6   7
ENDBRANCH   5   6
ENDBRANCH   4   5
ENDBRANCH   3   4
ENDBRANCH   2   3
ENDBRANCH   1   2
BRANCH   1  29
ATOM     29  O   UNL     1      -8.157  -3.783   4.146  1.00  0.00    -0.377 OA
BRANCH  29  30
ATOM     30  C   UNL     1      -8.245  -3.835   5.570  1.00  0.00     0.188 C 
BRANCH  30  31
ATOM     31  C   UNL     1      -8.507  -2.553   6.391  1.00  0.00     0.188 C 
BRANCH  31  32
ATOM     32  O   UNL     1      -7.580  -1.497   6.127  1.00  0.00    -0.376 OA
BRANCH  32  33
ATOM     33  C   UNL     1      -6.609  -1.243   7.137  1.00  0.00     0.202 C 
BRANCH  33  34
ATOM     34  C   UNL     1      -5.428  -2.222   7.109  1.00  0.00     0.261 C 
BRANCH  34  35
ATOM     35  O   UNL     1      -5.768  -3.576   7.445  1.00  0.00    -0.460 OA
BRANCH  35  36
ATOM     36  C   UNL     1      -6.291  -3.775   8.675  1.00  0.00     0.338 C 
ATOM     37  O   UNL     1      -6.425  -2.945   9.556  1.00  0.00    -0.246 OA
BRANCH  36  38
ATOM     38  C   UNL     1      -6.849  -5.139   8.729  1.00  0.00     0.060 A 
ATOM     39  C   UNL     1      -8.169  -5.300   9.166  1.00  0.00     0.016 A 
ATOM     40  C   UNL     1      -6.066  -6.248   8.396  1.00  0.00     0.016 A 
ATOM     41  C   UNL     1      -8.688  -6.581   9.342  1.00  0.00     0.010 A 
ATOM     42  C   UNL     1      -6.583  -7.531   8.584  1.00  0.00     0.010 A 
ATOM     43  C   UNL     1      -7.877  -7.700   9.105  1.00  0.00    -0.014 A 
BRANCH  43  44
ATOM     44  C   UNL     1      -8.299  -9.021   9.627  1.00  0.00     0.031 A 
ATOM     45  C   UNL     1      -7.810  -9.433  10.990  1.00  0.00     0.074 A 
ATOM     46  C   UNL     1      -9.119  -9.822   8.927  1.00  0.00     0.049 A 
ATOM     47  N   UNL     1      -8.060 -10.522  11.668  1.00  0.00    -0.248 NA
ATOM     48  C   UNL     1      -6.915  -8.487  11.678  1.00  0.00     0.031 C 
ATOM     49  C   UNL     1      -9.669  -9.525   7.605  1.00  0.00     0.029 A 
ATOM     50  N   UNL     1      -9.630 -11.057   9.237  1.00  0.00    -0.354 N 
ATOM     51  C   UNL     1      -7.359 -10.391  12.861  1.00  0.00     0.074 A 
ATOM     52  C   UNL     1      -6.643  -9.136  12.799  1.00  0.00     0.031 C 
ATOM     53  C   UNL     1     -10.437 -10.558   7.213  1.00  0.00     0.029 A 
ATOM     54  C   UNL     1     -10.422 -11.590   8.249  1.00  0.00     0.049 A 
ATOM     55  H   UNL     1      -9.446 -11.518  10.087  1.00  0.00     0.167 HD
ATOM     56  C   UNL     1      -7.323 -11.234  13.921  1.00  0.00     0.037 A 
ATOM     57  C   UNL     1     -11.057 -12.777   8.192  1.00  0.00     0.037 A 
ATOM     58  C   UNL     1      -8.027 -12.486  13.977  1.00  0.00     0.049 A 
ATOM     59  C   UNL     1     -10.977 -13.716   9.368  1.00  0.00     0.074 A 
ATOM     60  C   UNL     1      -8.062 -13.411  15.006  1.00  0.00     0.029 A 
ATOM     61  N   UNL     1      -8.815 -12.995  12.955  1.00  0.00    -0.354 N 
ATOM     62  N   UNL     1     -10.338 -13.565  10.504  1.00  0.00    -0.248 NA
ATOM     63  C   UNL     1     -11.717 -14.981   9.259  1.00  0.00     0.031 C 
ATOM     64  C   UNL     1      -8.843 -14.496  14.591  1.00  0.00     0.029 A 
ATOM     65  C   UNL     1      -9.330 -14.226  13.322  1.00  0.00     0.049 A 
ATOM     66  H   UNL     1      -8.983 -12.545  12.095  1.00  0.00     0.167 HD
ATOM     67  C   UNL     1     -10.624 -14.701  11.257  1.00  0.00     0.074 A 
ATOM     68  C   UNL     1     -11.499 -15.525  10.448  1.00  0.00     0.031 C 
ATOM     69  C   UNL     1     -10.205 -15.030  12.505  1.00  0.00     0.037 A 
BRANCH  56  70
ATOM     70  C   UNL     1      -6.472 -10.827  15.090  1.00  0.00     0.058 A 
ATOM     71  C   UNL     1      -6.849  -9.778  15.945  1.00  0.00     0.135 A 
ATOM     72  C   UNL     1      -5.261 -11.485  15.353  1.00  0.00     0.135 A 
ATOM     73  F   UNL     1      -7.987  -9.101  15.724  1.00  0.00    -0.206 F 
ATOM     74  C   UNL     1      -6.037  -9.374  17.000  1.00  0.00     0.059 A 
ATOM     75  C   UNL     1      -4.445 -11.114  16.417  1.00  0.00     0.059 A 
ATOM     76  F   UNL     1      -4.851 -12.489  14.562  1.00  0.00    -0.206 F 
ATOM     77  C   UNL     1      -4.833 -10.044  17.224  1.00  0.00     0.060 A 
BRANCH  77  78
ATOM     78  S   UNL     1      -3.779  -9.498  18.584  1.00  0.00     0.124 S 
ATOM     79  O   UNL     1      -3.202  -8.277  18.030  1.00  0.00    -0.237 OA
ATOM     80  O   UNL     1      -4.736  -9.311  19.669  1.00  0.00    -0.237 OA
ATOM     81  O   UNL     1      -2.848 -10.609  18.758  1.00  0.00    -0.744 OA
ENDBRANCH  77  78
ENDBRANCH  56  70
BRANCH  57  82
ATOM     82  C   UNL     1     -11.838 -13.140   6.981  1.00  0.00     0.058 A 
ATOM     83  C   UNL     1     -13.240 -13.178   7.005  1.00  0.00     0.135 A 
ATOM     84  C   UNL     1     -11.196 -13.453   5.772  1.00  0.00     0.135 A 
ATOM     85  F   UNL     1     -13.898 -12.898   8.141  1.00  0.00    -0.206 F 
ATOM     86  C   UNL     1     -13.979 -13.522   5.879  1.00  0.00     0.059 A 
ATOM     87  C   UNL     1     -11.914 -13.778   4.626  1.00  0.00     0.059 A 
ATOM     88  F   UNL     1      -9.857 -13.422   5.695  1.00  0.00    -0.206 F 
ATOM     89  C   UNL     1     -13.306 -13.818   4.692  1.00  0.00     0.060 A 
BRANCH  89  90
ATOM     90  S   UNL     1     -14.276 -14.205   3.218  1.00  0.00     0.124 S 
ATOM     91  O   UNL     1     -14.723 -15.562   3.508  1.00  0.00    -0.237 OA
ATOM     92  O   UNL     1     -15.306 -13.172   3.247  1.00  0.00    -0.237 OA
ATOM     93  O   UNL     1     -13.303 -14.078   2.136  1.00  0.00    -0.744 OA
ENDBRANCH  89  90
ENDBRANCH  57  82
BRANCH  69  94
ATOM     94  C   UNL     1     -10.722 -16.316  13.089  1.00  0.00     0.058 A 
ATOM     95  C   UNL     1     -10.264 -17.566  12.647  1.00  0.00     0.135 A 
ATOM     96  C   UNL     1     -11.665 -16.292  14.130  1.00  0.00     0.135 A 
ATOM     97  F   UNL     1      -9.364 -17.644  11.655  1.00  0.00    -0.206 F 
ATOM     98  C   UNL     1     -10.749 -18.751  13.193  1.00  0.00     0.059 A 
ATOM     99  C   UNL     1     -12.145 -17.463  14.707  1.00  0.00     0.059 A 
ATOM    100  F   UNL     1     -12.124 -15.121  14.600  1.00  0.00    -0.206 F 
ATOM    101  C   UNL     1     -11.694 -18.689  14.219  1.00  0.00     0.060 A 
BRANCH 101 102
ATOM    102  S   UNL     1     -12.313 -20.230  14.927  1.00  0.00     0.124 S 
ATOM    103  O   UNL     1     -13.261 -20.661  13.904  1.00  0.00    -0.237 OA
ATOM    104  O   UNL     1     -11.100 -21.034  15.045  1.00  0.00    -0.237 OA
ATOM    105  O   UNL     1     -12.903 -19.808  16.193  1.00  0.00    -0.744 OA
ENDBRANCH 101 102
ENDBRANCH  69  94
ENDBRANCH  43  44
ENDBRANCH  36  38
ENDBRANCH  35  36
ENDBRANCH  34  35
ENDBRANCH  33  34
ENDBRANCH  32  33
ENDBRANCH  31  32
ENDBRANCH  30  31
ENDBRANCH  29  30
ENDBRANCH   1  29
TORSDOF 27
