REMARK SMILES NS(=O)(=O)c1ccc(-n2nc(C(F)(F)F)cc2-c2ccc(C(=O)OCCOCCOCCOCCOC(=O)c3ccc(-c4c5nc(c(-c6c(F)cc(S(=O)(=O)[O-])cc6F)c6ccc([nH]6)c(-c6c(F)cc(S(=O)(=O)[O-])cc6F)c6nc(c(-c7c(F)cc(S(=O)(=O)[O-])cc7F)c7ccc4[nH]7)C=C6)C=C5)cc3)cc2)cc1
REMARK SMILES IDX 29 1 28 2 27 3 26 4 25 5 24 6 22 7 23 8 21 9 18 10 19 11
REMARK SMILES IDX 106 12 20 13 105 14 17 15 9 16 10 17 11 18 16 19 8 20 5 21
REMARK SMILES IDX 6 22 108 23 7 24 107 25 2 26 3 27 4 28 1 29 12 32 13 33
REMARK SMILES IDX 14 34 15 35 30 36 31 37 32 38 33 39 34 40 35 41 36 42 37 43
REMARK SMILES IDX 38 44 39 45 40 46 104 47 41 48 103 49 42 50 43 51 44 52
REMARK SMILES IDX 97 53 45 54 102 55 96 56 98 57 46 58 101 59 95 60 94 61
REMARK SMILES IDX 47 63 81 64 60 65 80 66 61 67 64 68 79 69 99 70 62 71 63 72
REMARK SMILES IDX 78 74 100 75 65 76 48 77 49 78 58 79 50 80 51 81 57 82 59 83
REMARK SMILES IDX 52 84 53 85 54 86 55 87 56 88 82 89 83 90 92 91 84 92 85 93
REMARK SMILES IDX 91 94 93 95 86 96 87 97 88 98 89 99 90 100 66 101 67 102
REMARK SMILES IDX 76 103 68 104 69 105 75 106 77 107 70 108 71 109 72 110
REMARK SMILES IDX 73 111 74 112
REMARK H PARENT 1 30 1 31 98 62 64 73
REMARK Flexibility Score: inf
ROOT
ATOM      1  C   UNL     1       5.529   2.003  -6.657  1.00  0.00     0.188 C 
ENDROOT
BRANCH   1   2
ATOM      2  C   UNL     1       4.451   2.297  -7.723  1.00  0.00     0.188 C 
BRANCH   2   3
ATOM      3  O   UNL     1       4.738   2.383  -9.115  1.00  0.00    -0.376 OA
BRANCH   3   4
ATOM      4  C   UNL     1       6.026   2.720  -9.598  1.00  0.00     0.202 C 
BRANCH   4   5
ATOM      5  C   UNL     1       6.713   4.024  -9.164  1.00  0.00     0.261 C 
BRANCH   5   6
ATOM      6  O   UNL     1       6.321   4.546  -7.894  1.00  0.00    -0.460 OA
BRANCH   6   7
ATOM      7  C   UNL     1       5.261   5.383  -7.918  1.00  0.00     0.338 C 
ATOM      8  O   UNL     1       4.659   5.788  -8.897  1.00  0.00    -0.246 OA
BRANCH   7   9
ATOM      9  C   UNL     1       4.827   5.632  -6.525  1.00  0.00     0.060 A 
ATOM     10  C   UNL     1       3.902   6.196  -3.947  1.00  0.00     0.000 A 
ATOM     11  C   UNL     1       2.994   5.909  -4.977  1.00  0.00     0.011 A 
ATOM     12  C   UNL     1       5.278   6.131  -4.202  1.00  0.00     0.011 A 
ATOM     13  C   UNL     1       3.454   5.644  -6.264  1.00  0.00     0.016 A 
ATOM     14  C   UNL     1       5.743   5.836  -5.487  1.00  0.00     0.016 A 
BRANCH  10  15
ATOM     15  C   UNL     1       3.398   6.758  -2.696  1.00  0.00     0.075 A 
ATOM     16  N   UNL     1       2.385   6.240  -1.899  1.00  0.00    -0.233 N 
ATOM     17  N   UNL     1       1.792   7.215  -1.157  1.00  0.00    -0.163 NA
ATOM     18  C   UNL     1       2.582   8.296  -1.303  1.00  0.00     0.167 A 
ATOM     19  C   UNL     1       3.612   8.042  -2.237  1.00  0.00     0.064 A 
BRANCH  16  20
ATOM     20  C   UNL     1       1.938   4.894  -1.806  1.00  0.00     0.065 A 
ATOM     21  C   UNL     1       1.043   2.257  -1.644  1.00  0.00     0.082 A 
ATOM     22  C   UNL     1       2.394   2.516  -1.896  1.00  0.00     0.024 A 
ATOM     23  C   UNL     1       0.138   3.306  -1.455  1.00  0.00     0.024 A 
ATOM     24  C   UNL     1       2.840   3.836  -1.988  1.00  0.00     0.030 A 
ATOM     25  C   UNL     1       0.593   4.628  -1.508  1.00  0.00     0.030 A 
BRANCH  21  26
ATOM     26  S   UNL     1       0.483   0.577  -1.638  1.00  0.00     0.238 S 
ATOM     27  O   UNL     1       1.163  -0.133  -2.694  1.00  0.00    -0.207 OA
ATOM     28  O   UNL     1      -0.956   0.559  -1.493  1.00  0.00    -0.207 OA
BRANCH  26  29
ATOM     29  N   UNL     1       1.101   0.000  -0.192  1.00  0.00    -0.225 NA
ATOM     30  H   UNL     1       0.838  -0.978  -0.076  1.00  0.00     0.137 HD
ATOM     31  H   UNL     1       0.724   0.547   0.582  1.00  0.00     0.137 HD
ENDBRANCH  26  29
ENDBRANCH  21  26
ENDBRANCH  16  20
BRANCH  18  32
ATOM     32  C   UNL     1       2.331   9.610  -0.616  1.00  0.00     0.435 C 
ATOM     33  F   UNL     1       1.023   9.979  -0.630  1.00  0.00    -0.164 F 
ATOM     34  F   UNL     1       2.732   9.599   0.682  1.00  0.00    -0.164 F 
ATOM     35  F   UNL     1       3.017  10.625  -1.217  1.00  0.00    -0.164 F 
ENDBRANCH  18  32
ENDBRANCH  10  15
ENDBRANCH   7   9
ENDBRANCH   6   7
ENDBRANCH   5   6
ENDBRANCH   4   5
ENDBRANCH   3   4
ENDBRANCH   2   3
ENDBRANCH   1   2
BRANCH   1  36
ATOM     36  O   UNL     1       6.824   1.733  -7.173  1.00  0.00    -0.377 OA
BRANCH  36  37
ATOM     37  C   UNL     1       7.166   0.349  -7.217  1.00  0.00     0.188 C 
BRANCH  37  38
ATOM     38  C   UNL     1       6.222  -0.555  -8.036  1.00  0.00     0.188 C 
BRANCH  38  39
ATOM     39  O   UNL     1       4.856  -0.464  -7.630  1.00  0.00    -0.376 OA
BRANCH  39  40
ATOM     40  C   UNL     1       4.265  -1.603  -7.020  1.00  0.00     0.202 C 
BRANCH  40  41
ATOM     41  C   UNL     1       4.497  -1.649  -5.512  1.00  0.00     0.261 C 
BRANCH  41  42
ATOM     42  O   UNL     1       5.871  -1.607  -5.146  1.00  0.00    -0.460 OA
BRANCH  42  43
ATOM     43  C   UNL     1       6.637  -2.610  -5.620  1.00  0.00     0.338 C 
ATOM     44  O   UNL     1       6.313  -3.478  -6.410  1.00  0.00    -0.246 OA
BRANCH  43  45
ATOM     45  C   UNL     1       7.941  -2.556  -4.957  1.00  0.00     0.060 A 
ATOM     46  C   UNL     1       8.867  -3.526  -5.343  1.00  0.00     0.016 A 
ATOM     47  C   UNL     1       8.111  -1.769  -3.806  1.00  0.00     0.016 A 
ATOM     48  C   UNL     1       9.832  -3.890  -4.437  1.00  0.00     0.010 A 
ATOM     49  C   UNL     1       9.070  -2.141  -2.897  1.00  0.00     0.010 A 
ATOM     50  C   UNL     1       9.841  -3.262  -3.188  1.00  0.00    -0.014 A 
BRANCH  50  51
ATOM     51  C   UNL     1      10.636  -3.879  -2.153  1.00  0.00     0.031 A 
ATOM     52  C   UNL     1      12.067  -3.550  -2.211  1.00  0.00     0.074 A 
ATOM     53  C   UNL     1      10.066  -4.631  -1.194  1.00  0.00     0.049 A 
ATOM     54  N   UNL     1      13.053  -4.337  -2.477  1.00  0.00    -0.248 NA
ATOM     55  C   UNL     1      12.431  -2.130  -2.091  1.00  0.00     0.031 C 
ATOM     56  C   UNL     1       8.632  -4.732  -0.892  1.00  0.00     0.029 A 
ATOM     57  N   UNL     1      10.649  -5.366  -0.209  1.00  0.00    -0.354 N 
ATOM     58  C   UNL     1      14.187  -3.554  -2.314  1.00  0.00     0.074 A 
ATOM     59  C   UNL     1      13.748  -2.184  -2.283  1.00  0.00     0.031 C 
ATOM     60  C   UNL     1       8.479  -5.298   0.324  1.00  0.00     0.029 A 
ATOM     61  C   UNL     1       9.783  -5.710   0.817  1.00  0.00     0.049 A 
ATOM     62  H   UNL     1      11.598  -5.629  -0.224  1.00  0.00     0.167 HD
ATOM     63  C   UNL     1      15.361  -4.101  -1.909  1.00  0.00     0.037 A 
ATOM     64  C   UNL     1      10.128  -6.211   2.026  1.00  0.00     0.037 A 
ATOM     65  C   UNL     1      15.370  -5.531  -2.065  1.00  0.00     0.049 A 
ATOM     66  C   UNL     1      11.476  -6.822   1.902  1.00  0.00     0.074 A 
ATOM     67  C   UNL     1      15.378  -6.405  -3.130  1.00  0.00     0.029 A 
ATOM     68  N   UNL     1      15.020  -6.250  -0.950  1.00  0.00    -0.354 N 
ATOM     69  N   UNL     1      11.744  -7.867   1.164  1.00  0.00    -0.248 NA
ATOM     70  C   UNL     1      12.643  -6.074   2.357  1.00  0.00     0.031 C 
ATOM     71  C   UNL     1      14.780  -7.608  -2.657  1.00  0.00     0.029 A 
ATOM     72  C   UNL     1      14.426  -7.430  -1.319  1.00  0.00     0.049 A 
ATOM     73  H   UNL     1      15.173  -5.960  -0.021  1.00  0.00     0.167 HD
ATOM     74  C   UNL     1      13.045  -7.672   0.736  1.00  0.00     0.074 A 
ATOM     75  C   UNL     1      13.593  -6.660   1.625  1.00  0.00     0.031 C 
ATOM     76  C   UNL     1      13.460  -8.118  -0.484  1.00  0.00     0.037 A 
BRANCH  63  77
ATOM     77  C   UNL     1      16.315  -3.402  -0.974  1.00  0.00     0.058 A 
ATOM     78  C   UNL     1      17.611  -3.922  -0.800  1.00  0.00     0.135 A 
ATOM     79  C   UNL     1      15.908  -2.432  -0.030  1.00  0.00     0.135 A 
ATOM     80  F   UNL     1      18.084  -4.865  -1.631  1.00  0.00    -0.206 F 
ATOM     81  C   UNL     1      18.422  -3.548   0.272  1.00  0.00     0.059 A 
ATOM     82  C   UNL     1      16.721  -2.000   1.007  1.00  0.00     0.059 A 
ATOM     83  F   UNL     1      14.664  -1.937  -0.002  1.00  0.00    -0.206 F 
ATOM     84  C   UNL     1      17.958  -2.599   1.179  1.00  0.00     0.060 A 
BRANCH  84  85
ATOM     85  S   UNL     1      18.939  -2.202   2.635  1.00  0.00     0.124 S 
ATOM     86  O   UNL     1      18.729  -3.391   3.453  1.00  0.00    -0.237 OA
ATOM     87  O   UNL     1      20.274  -2.038   2.069  1.00  0.00    -0.237 OA
ATOM     88  O   UNL     1      18.320  -0.975   3.128  1.00  0.00    -0.744 OA
ENDBRANCH  84  85
ENDBRANCH  63  77
BRANCH  64  89
ATOM     89  C   UNL     1       9.484  -5.914   3.330  1.00  0.00     0.058 A 
ATOM     90  C   UNL     1       9.734  -6.706   4.462  1.00  0.00     0.135 A 
ATOM     91  C   UNL     1       8.807  -4.697   3.557  1.00  0.00     0.135 A 
ATOM     92  F   UNL     1      10.396  -7.866   4.340  1.00  0.00    -0.206 F 
ATOM     93  C   UNL     1       9.371  -6.298   5.749  1.00  0.00     0.059 A 
ATOM     94  C   UNL     1       8.418  -4.278   4.826  1.00  0.00     0.059 A 
ATOM     95  F   UNL     1       8.581  -3.828   2.559  1.00  0.00    -0.206 F 
ATOM     96  C   UNL     1       8.727  -5.072   5.922  1.00  0.00     0.060 A 
BRANCH  96  97
ATOM     97  S   UNL     1       8.402  -4.465   7.592  1.00  0.00     0.124 S 
ATOM     98  O   UNL     1       7.366  -5.384   8.049  1.00  0.00    -0.237 OA
ATOM     99  O   UNL     1       9.708  -4.606   8.227  1.00  0.00    -0.237 OA
ATOM    100  O   UNL     1       7.964  -3.089   7.372  1.00  0.00    -0.744 OA
ENDBRANCH  96  97
ENDBRANCH  64  89
BRANCH  76 101
ATOM    101  C   UNL     1      12.723  -9.275  -1.094  1.00  0.00     0.058 A 
ATOM    102  C   UNL     1      11.409  -9.217  -1.582  1.00  0.00     0.135 A 
ATOM    103  C   UNL     1      13.441 -10.464  -1.308  1.00  0.00     0.135 A 
ATOM    104  F   UNL     1      10.690  -8.088  -1.489  1.00  0.00    -0.206 F 
ATOM    105  C   UNL     1      10.825 -10.305  -2.234  1.00  0.00     0.059 A 
ATOM    106  C   UNL     1      12.889 -11.548  -1.982  1.00  0.00     0.059 A 
ATOM    107  F   UNL     1      14.720 -10.558  -0.908  1.00  0.00    -0.206 F 
ATOM    108  C   UNL     1      11.575 -11.464  -2.435  1.00  0.00     0.060 A 
BRANCH 108 109
ATOM    109  S   UNL     1      10.858 -12.829  -3.376  1.00  0.00     0.124 S 
ATOM    110  O   UNL     1       9.944 -13.423  -2.407  1.00  0.00    -0.237 OA
ATOM    111  O   UNL     1      10.232 -12.145  -4.504  1.00  0.00    -0.237 OA
ATOM    112  O   UNL     1      12.017 -13.648  -3.725  1.00  0.00    -0.744 OA
ENDBRANCH 108 109
ENDBRANCH  76 101
ENDBRANCH  50  51
ENDBRANCH  43  45
ENDBRANCH  42  43
ENDBRANCH  41  42
ENDBRANCH  40  41
ENDBRANCH  39  40
ENDBRANCH  38  39
ENDBRANCH  37  38
ENDBRANCH  36  37
ENDBRANCH   1  36
TORSDOF 28
