REMARK SMILES CCC[C@H]([NH2+]Cc1c(O)ccc2c(-c3ccccc3)cc(=O)oc12)C(=O)OCCOCCOCCOCCOC(=O)c1ccc(-c2c3nc(c(-c4c(F)cc(S(=O)(=O)[O-])cc4F)c4ccc([nH]4)c(-c4c(F)cc(S(=O)(=O)[O-])cc4F)c4nc(c(-c5c(F)cc(S(=O)(=O)[O-])cc5F)c5ccc2[nH]5)C=C4)C=C3)cc1
REMARK SMILES IDX 32 1 31 2 30 3 29 4 28 5 27 6 25 7 26 8 4 9 3 10 2 11 1 12
REMARK SMILES IDX 5 13 6 16 7 17 8 18 24 19 10 20 12 21 23 22 11 23 13 24
REMARK SMILES IDX 21 25 20 26 22 27 9 28 14 30 15 31 19 32 16 33 18 34 17 35
REMARK SMILES IDX 33 36 34 37 35 38 36 39 37 40 38 41 39 42 40 43 41 44 42 45
REMARK SMILES IDX 43 46 107 47 44 48 106 49 45 50 46 51 47 52 100 53 48 54
REMARK SMILES IDX 105 55 99 56 101 57 49 58 104 59 98 60 97 61 50 63 84 64
REMARK SMILES IDX 63 65 83 66 64 67 67 68 82 69 102 70 65 71 66 72 81 74
REMARK SMILES IDX 103 75 68 76 51 77 52 78 61 79 53 80 54 81 60 82 62 83 55 84
REMARK SMILES IDX 56 85 57 86 58 87 59 88 85 89 86 90 95 91 87 92 88 93 94 94
REMARK SMILES IDX 96 95 89 96 90 97 91 98 92 99 93 100 69 101 70 102 79 103
REMARK SMILES IDX 71 104 72 105 78 106 80 107 73 108 74 109 75 110 76 111
REMARK SMILES IDX 77 112
REMARK H PARENT 5 14 5 15 9 29 101 62 67 73
REMARK Flexibility Score: inf
ROOT
ATOM      1  C   UNL     1       3.189  -3.050  -3.038  1.00  0.00     0.188 C 
ENDROOT
BRANCH   1   2
ATOM      2  C   UNL     1       3.097  -4.432  -2.386  1.00  0.00     0.188 C 
BRANCH   2   3
ATOM      3  O   UNL     1       2.934  -5.597  -3.168  1.00  0.00    -0.376 OA
BRANCH   3   4
ATOM      4  C   UNL     1       1.944  -5.710  -4.178  1.00  0.00     0.202 C 
BRANCH   4   5
ATOM      5  C   UNL     1       0.535  -5.079  -4.145  1.00  0.00     0.261 C 
BRANCH   5   6
ATOM      6  O   UNL     1       0.373  -3.746  -3.631  1.00  0.00    -0.459 OA
BRANCH   6   7
ATOM      7  C   UNL     1       0.025  -3.678  -2.331  1.00  0.00     0.364 C 
ATOM      8  O   UNL     1      -0.102  -4.686  -1.632  1.00  0.00    -0.245 OA
BRANCH   7   9
ATOM      9  C   UNL     1      -0.239  -2.280  -1.742  1.00  0.00     0.293 C 
BRANCH   9  10
ATOM     10  C   UNL     1      -1.737  -2.119  -1.453  1.00  0.00     0.077 C 
BRANCH  10  11
ATOM     11  C   UNL     1      -2.247  -3.030  -0.315  1.00  0.00     0.003 C 
ATOM     12  C   UNL     1      -1.531  -2.818   1.017  1.00  0.00     0.004 C 
ENDBRANCH  10  11
ENDBRANCH   9  10
BRANCH   9  13
ATOM     13  N   UNL     1       0.396  -1.048  -2.270  1.00  0.00    -0.331 N 
ATOM     14  H   UNL     1       1.393  -1.134  -2.072  1.00  0.00     0.347 HD
ATOM     15  H   UNL     1      -0.140  -0.315  -1.805  1.00  0.00     0.347 HD
BRANCH  13  16
ATOM     16  C   UNL     1       0.290  -0.662  -3.670  1.00  0.00     0.306 C 
BRANCH  16  17
ATOM     17  C   UNL     1       1.256   0.464  -4.101  1.00  0.00     0.091 A 
ATOM     18  C   UNL     1       0.962   1.176  -5.277  1.00  0.00     0.128 A 
ATOM     19  C   UNL     1       2.501   0.774  -3.494  1.00  0.00     0.151 A 
ATOM     20  C   UNL     1       1.845   2.117  -5.819  1.00  0.00     0.047 A 
ATOM     21  C   UNL     1       3.414   1.714  -4.019  1.00  0.00     0.026 A 
ATOM     22  O   UNL     1       2.850   0.101  -2.297  1.00  0.00    -0.422 OA
ATOM     23  C   UNL     1       3.070   2.373  -5.201  1.00  0.00     0.016 A 
ATOM     24  C   UNL     1       4.705   1.973  -3.341  1.00  0.00    -0.000 A 
ATOM     25  C   UNL     1       4.039   0.320  -1.628  1.00  0.00     0.336 A 
ATOM     26  C   UNL     1       4.954   1.310  -2.201  1.00  0.00     0.103 A 
ATOM     27  O   UNL     1       4.344  -0.306  -0.619  1.00  0.00    -0.246 OA
BRANCH  18  28
ATOM     28  O   UNL     1      -0.222   0.931  -5.918  1.00  0.00    -0.507 OA
ATOM     29  H   UNL     1      -0.824   0.304  -5.568  1.00  0.00     0.293 HD
ENDBRANCH  18  28
BRANCH  24  30
ATOM     30  C   UNL     1       5.770   2.915  -3.774  1.00  0.00    -0.017 A 
ATOM     31  C   UNL     1       7.004   2.445  -4.249  1.00  0.00     0.009 A 
ATOM     32  C   UNL     1       5.572   4.298  -3.683  1.00  0.00     0.009 A 
ATOM     33  C   UNL     1       8.017   3.332  -4.624  1.00  0.00     0.001 A 
ATOM     34  C   UNL     1       6.584   5.186  -4.064  1.00  0.00     0.001 A 
ATOM     35  C   UNL     1       7.805   4.704  -4.532  1.00  0.00     0.000 A 
ENDBRANCH  24  30
ENDBRANCH  16  17
ENDBRANCH  13  16
ENDBRANCH   9  13
ENDBRANCH   7   9
ENDBRANCH   6   7
ENDBRANCH   5   6
ENDBRANCH   4   5
ENDBRANCH   3   4
ENDBRANCH   2   3
ENDBRANCH   1   2
BRANCH   1  36
ATOM     36  O   UNL     1       2.703  -2.952  -4.356  1.00  0.00    -0.377 OA
BRANCH  36  37
ATOM     37  C   UNL     1       3.585  -3.180  -5.442  1.00  0.00     0.188 C 
BRANCH  37  38
ATOM     38  C   UNL     1       4.869  -4.004  -5.224  1.00  0.00     0.188 C 
BRANCH  38  39
ATOM     39  O   UNL     1       5.563  -3.717  -4.020  1.00  0.00    -0.376 OA
BRANCH  39  40
ATOM     40  C   UNL     1       6.642  -2.801  -4.072  1.00  0.00     0.202 C 
BRANCH  40  41
ATOM     41  C   UNL     1       6.322  -1.351  -4.455  1.00  0.00     0.261 C 
BRANCH  41  42
ATOM     42  O   UNL     1       5.721  -1.126  -5.736  1.00  0.00    -0.460 OA
BRANCH  42  43
ATOM     43  C   UNL     1       6.415  -1.517  -6.827  1.00  0.00     0.338 C 
ATOM     44  O   UNL     1       7.537  -1.972  -6.850  1.00  0.00    -0.246 OA
BRANCH  43  45
ATOM     45  C   UNL     1       5.488  -1.482  -7.982  1.00  0.00     0.060 A 
ATOM     46  C   UNL     1       5.211  -2.680  -8.653  1.00  0.00     0.016 A 
ATOM     47  C   UNL     1       4.901  -0.285  -8.400  1.00  0.00     0.016 A 
ATOM     48  C   UNL     1       4.382  -2.678  -9.774  1.00  0.00     0.010 A 
ATOM     49  C   UNL     1       4.090  -0.281  -9.540  1.00  0.00     0.010 A 
ATOM     50  C   UNL     1       3.859  -1.471 -10.254  1.00  0.00    -0.014 A 
BRANCH  50  51
ATOM     51  C   UNL     1       3.262  -1.428 -11.611  1.00  0.00     0.031 A 
ATOM     52  C   UNL     1       4.132  -0.974 -12.754  1.00  0.00     0.074 A 
ATOM     53  C   UNL     1       1.995  -1.820 -11.836  1.00  0.00     0.049 A 
ATOM     54  N   UNL     1       3.832  -0.817 -14.016  1.00  0.00    -0.248 NA
ATOM     55  C   UNL     1       5.531  -0.651 -12.424  1.00  0.00     0.031 C 
ATOM     56  C   UNL     1       1.074  -2.326 -10.819  1.00  0.00     0.029 A 
ATOM     57  N   UNL     1       1.263  -1.846 -12.997  1.00  0.00    -0.354 N 
ATOM     58  C   UNL     1       4.998  -0.371 -14.628  1.00  0.00     0.074 A 
ATOM     59  C   UNL     1       6.002  -0.251 -13.595  1.00  0.00     0.031 C 
ATOM     60  C   UNL     1      -0.107  -2.601 -11.401  1.00  0.00     0.029 A 
ATOM     61  C   UNL     1      -0.037  -2.258 -12.821  1.00  0.00     0.049 A 
ATOM     62  H   UNL     1       1.634  -1.595 -13.873  1.00  0.00     0.167 HD
ATOM     63  C   UNL     1       5.215  -0.094 -15.936  1.00  0.00     0.037 A 
ATOM     64  C   UNL     1      -1.057  -2.324 -13.701  1.00  0.00     0.037 A 
ATOM     65  C   UNL     1       4.209  -0.216 -16.958  1.00  0.00     0.049 A 
ATOM     66  C   UNL     1      -0.814  -1.938 -15.139  1.00  0.00     0.074 A 
ATOM     67  C   UNL     1       4.328   0.025 -18.314  1.00  0.00     0.029 A 
ATOM     68  N   UNL     1       2.896  -0.605 -16.735  1.00  0.00    -0.354 N 
ATOM     69  N   UNL     1       0.298  -1.536 -15.710  1.00  0.00    -0.248 NA
ATOM     70  C   UNL     1      -1.961  -2.017 -16.055  1.00  0.00     0.031 C 
ATOM     71  C   UNL     1       3.072  -0.155 -18.902  1.00  0.00     0.029 A 
ATOM     72  C   UNL     1       2.186  -0.579 -17.923  1.00  0.00     0.049 A 
ATOM     73  H   UNL     1       2.523  -0.862 -15.860  1.00  0.00     0.167 HD
ATOM     74  C   UNL     1      -0.008  -1.346 -17.055  1.00  0.00     0.074 A 
ATOM     75  C   UNL     1      -1.407  -1.687 -17.214  1.00  0.00     0.031 C 
ATOM     76  C   UNL     1       0.794  -0.930 -18.067  1.00  0.00     0.037 A 
BRANCH  63  77
ATOM     77  C   UNL     1       6.579   0.404 -16.330  1.00  0.00     0.058 A 
ATOM     78  C   UNL     1       7.710  -0.429 -16.313  1.00  0.00     0.135 A 
ATOM     79  C   UNL     1       6.750   1.728 -16.765  1.00  0.00     0.135 A 
ATOM     80  F   UNL     1       7.609  -1.698 -15.885  1.00  0.00    -0.206 F 
ATOM     81  C   UNL     1       8.964   0.040 -16.690  1.00  0.00     0.059 A 
ATOM     82  C   UNL     1       7.989   2.209 -17.177  1.00  0.00     0.059 A 
ATOM     83  F   UNL     1       5.706   2.570 -16.795  1.00  0.00    -0.206 F 
ATOM     84  C   UNL     1       9.093   1.360 -17.124  1.00  0.00     0.060 A 
BRANCH  84  85
ATOM     85  S   UNL     1      10.726   1.949 -17.621  1.00  0.00     0.124 S 
ATOM     86  O   UNL     1      11.418   2.005 -16.337  1.00  0.00    -0.237 OA
ATOM     87  O   UNL     1      11.168   0.900 -18.535  1.00  0.00    -0.237 OA
ATOM     88  O   UNL     1      10.448   3.241 -18.240  1.00  0.00    -0.744 OA
ENDBRANCH  84  85
ENDBRANCH  63  77
BRANCH  64  89
ATOM     89  C   UNL     1      -2.410  -2.751 -13.246  1.00  0.00     0.058 A 
ATOM     90  C   UNL     1      -2.983  -3.953 -13.688  1.00  0.00     0.135 A 
ATOM     91  C   UNL     1      -3.162  -1.957 -12.365  1.00  0.00     0.135 A 
ATOM     92  F   UNL     1      -2.313  -4.741 -14.542  1.00  0.00    -0.206 F 
ATOM     93  C   UNL     1      -4.257  -4.346 -13.287  1.00  0.00     0.059 A 
ATOM     94  C   UNL     1      -4.424  -2.343 -11.925  1.00  0.00     0.059 A 
ATOM     95  F   UNL     1      -2.659  -0.800 -11.906  1.00  0.00    -0.206 F 
ATOM     96  C   UNL     1      -4.968  -3.535 -12.400  1.00  0.00     0.060 A 
BRANCH  96  97
ATOM     97  S   UNL     1      -6.600  -4.077 -11.850  1.00  0.00     0.124 S 
ATOM     98  O   UNL     1      -7.392  -3.904 -13.063  1.00  0.00    -0.237 OA
ATOM     99  O   UNL     1      -6.342  -5.455 -11.445  1.00  0.00    -0.237 OA
ATOM    100  O   UNL     1      -6.909  -3.157 -10.759  1.00  0.00    -0.744 OA
ENDBRANCH  96  97
ENDBRANCH  64  89
BRANCH  76 101
ATOM    101  C   UNL     1       0.199  -0.858 -19.448  1.00  0.00     0.058 A 
ATOM    102  C   UNL     1      -0.737   0.125 -19.804  1.00  0.00     0.135 A 
ATOM    103  C   UNL     1       0.625  -1.749 -20.449  1.00  0.00     0.135 A 
ATOM    104  F   UNL     1      -1.181   0.999 -18.887  1.00  0.00    -0.206 F 
ATOM    105  C   UNL     1      -1.248   0.208 -21.096  1.00  0.00     0.059 A 
ATOM    106  C   UNL     1       0.153  -1.663 -21.755  1.00  0.00     0.059 A 
ATOM    107  F   UNL     1       1.529  -2.701 -20.167  1.00  0.00    -0.206 F 
ATOM    108  C   UNL     1      -0.793  -0.688 -22.066  1.00  0.00     0.060 A 
BRANCH 108 109
ATOM    109  S   UNL     1      -1.436  -0.542 -23.746  1.00  0.00     0.124 S 
ATOM    110  O   UNL     1      -2.804  -1.022 -23.581  1.00  0.00    -0.237 OA
ATOM    111  O   UNL     1      -1.293   0.886 -24.011  1.00  0.00    -0.237 OA
ATOM    112  O   UNL     1      -0.557  -1.410 -24.524  1.00  0.00    -0.744 OA
ENDBRANCH 108 109
ENDBRANCH  76 101
ENDBRANCH  50  51
ENDBRANCH  43  45
ENDBRANCH  42  43
ENDBRANCH  41  42
ENDBRANCH  40  41
ENDBRANCH  39  40
ENDBRANCH  38  39
ENDBRANCH  37  38
ENDBRANCH  36  37
ENDBRANCH   1  36
TORSDOF 30
