REMARK SMILES COc1cc(/C=N/NC(=O)c2cc(Cl)ccc2O)ccc1OCC(=O)OCCOCCOCCOCCOC(=O)c1ccc(-c2c3nc(c(-c4c(F)cc(S(=O)(=O)[O-])cc4F)c4ccc([nH]4)c(-c4c(F)cc(S(=O)(=O)[O-])cc4F)c4nc(c(-c5c(F)cc(S(=O)(=O)[O-])cc5F)c5ccc2[nH]5)C=C4)C=C3)cc1
REMARK SMILES IDX 30 1 29 2 28 3 27 4 26 5 24 6 25 7 23 8 22 9 21 10 3 11 4 12
REMARK SMILES IDX 5 13 20 14 19 15 2 16 1 17 6 18 7 19 8 20 9 21 10 23 11 24
REMARK SMILES IDX 12 25 17 26 13 27 16 28 14 29 15 30 18 31 31 33 32 34 33 35
REMARK SMILES IDX 34 36 35 37 36 38 37 39 38 40 39 41 40 42 41 43 42 44 106 45
REMARK SMILES IDX 43 46 105 47 44 48 45 49 46 50 99 51 47 52 104 53 98 54
REMARK SMILES IDX 100 55 48 56 103 57 97 58 96 59 49 61 83 62 62 63 82 64
REMARK SMILES IDX 63 65 66 66 81 67 101 68 64 69 65 70 80 72 102 73 67 74
REMARK SMILES IDX 50 75 51 76 60 77 52 78 53 79 59 80 61 81 54 82 55 83 56 84
REMARK SMILES IDX 57 85 58 86 84 87 85 88 94 89 86 90 87 91 93 92 95 93 88 94
REMARK SMILES IDX 89 95 90 96 91 97 92 98 68 99 69 100 78 101 70 102 71 103
REMARK SMILES IDX 77 104 79 105 72 106 73 107 74 108 75 109 76 110
REMARK H PARENT 8 22 18 32 100 60 66 71
REMARK Flexibility Score: inf
ROOT
ATOM      1  C   UNL     1      -0.119  -1.343   1.372  1.00  0.00     0.188 C 
ENDROOT
BRANCH   1   2
ATOM      2  O   UNL     1      -0.671  -2.459   0.697  1.00  0.00    -0.376 OA
BRANCH   2   3
ATOM      3  C   UNL     1      -0.033  -2.894  -0.493  1.00  0.00     0.202 C 
BRANCH   3   4
ATOM      4  C   UNL     1       1.482  -3.151  -0.442  1.00  0.00     0.261 C 
BRANCH   4   5
ATOM      5  O   UNL     1       2.301  -2.047   0.015  1.00  0.00    -0.461 OA
BRANCH   5   6
ATOM      6  C   UNL     1       2.405  -0.949  -0.775  1.00  0.00     0.344 C 
ATOM      7  O   UNL     1       1.869  -0.847  -1.873  1.00  0.00    -0.248 OA
BRANCH   6   8
ATOM      8  C   UNL     1       3.323   0.136  -0.162  1.00  0.00     0.352 C 
BRANCH   8   9
ATOM      9  O   UNL     1       3.426   0.417   1.217  1.00  0.00    -0.478 OA
BRANCH   9  10
ATOM     10  C   UNL     1       2.528   1.119   1.964  1.00  0.00     0.162 A 
ATOM     11  C   UNL     1       1.440   1.921   1.594  1.00  0.00     0.161 A 
ATOM     12  C   UNL     1       0.522   2.380   2.581  1.00  0.00     0.060 A 
ATOM     13  C   UNL     1       0.734   2.078   3.935  1.00  0.00    -0.002 A 
ATOM     14  C   UNL     1       2.784   0.952   3.335  1.00  0.00     0.051 A 
ATOM     15  C   UNL     1       1.905   1.422   4.312  1.00  0.00     0.014 A 
BRANCH  11  16
ATOM     16  O   UNL     1       1.394   2.497   0.351  1.00  0.00    -0.493 OA
ATOM     17  C   UNL     1       0.492   1.903  -0.575  1.00  0.00     0.278 C 
ENDBRANCH  11  16
BRANCH  13  18
ATOM     18  C   UNL     1      -0.240   2.318   5.033  1.00  0.00     0.141 C 
ATOM     19  N   UNL     1      -1.241   3.140   4.989  1.00  0.00    -0.180 NA
BRANCH  19  20
ATOM     20  N   UNL     1      -2.098   3.221   6.071  1.00  0.00    -0.243 N 
ATOM     21  C   UNL     1      -1.943   3.032   7.439  1.00  0.00     0.275 C 
ATOM     22  H   UNL     1      -3.018   3.466   5.817  1.00  0.00     0.194 HD
ATOM     23  O   UNL     1      -2.938   3.009   8.164  1.00  0.00    -0.267 OA
BRANCH  21  24
ATOM     24  C   UNL     1      -0.615   2.895   8.075  1.00  0.00     0.084 A 
ATOM     25  C   UNL     1      -0.489   1.964   9.120  1.00  0.00     0.038 A 
ATOM     26  C   UNL     1       0.498   3.649   7.689  1.00  0.00     0.128 A 
ATOM     27  C   UNL     1       0.761   1.729   9.691  1.00  0.00     0.042 A 
ATOM     28  C   UNL     1       1.748   3.396   8.252  1.00  0.00     0.048 A 
ATOM     29  Cl  UNL     1       0.927   0.565  10.946  1.00  0.00    -0.084 Cl
ATOM     30  C   UNL     1       1.884   2.421   9.241  1.00  0.00     0.024 A 
BRANCH  26  31
ATOM     31  O   UNL     1       0.451   4.636   6.744  1.00  0.00    -0.507 OA
ATOM     32  H   UNL     1      -0.362   4.850   6.330  1.00  0.00     0.293 HD
ENDBRANCH  26  31
ENDBRANCH  21  24
ENDBRANCH  19  20
ENDBRANCH  13  18
ENDBRANCH   9  10
ENDBRANCH   8   9
ENDBRANCH   6   8
ENDBRANCH   5   6
ENDBRANCH   4   5
ENDBRANCH   3   4
ENDBRANCH   2   3
ENDBRANCH   1   2
BRANCH   1  33
ATOM     33  C   UNL     1       0.774  -1.707   2.575  1.00  0.00     0.188 C 
BRANCH  33  34
ATOM     34  O   UNL     1       0.411  -2.681   3.544  1.00  0.00    -0.377 OA
BRANCH  34  35
ATOM     35  C   UNL     1      -0.584  -3.616   3.187  1.00  0.00     0.188 C 
BRANCH  35  36
ATOM     36  C   UNL     1      -2.014  -3.078   3.372  1.00  0.00     0.188 C 
BRANCH  36  37
ATOM     37  O   UNL     1      -2.119  -1.658   3.287  1.00  0.00    -0.376 OA
BRANCH  37  38
ATOM     38  C   UNL     1      -2.446  -0.969   4.489  1.00  0.00     0.202 C 
BRANCH  38  39
ATOM     39  C   UNL     1      -1.304  -0.817   5.500  1.00  0.00     0.261 C 
BRANCH  39  40
ATOM     40  O   UNL     1      -0.742  -2.019   6.019  1.00  0.00    -0.460 OA
BRANCH  40  41
ATOM     41  C   UNL     1      -1.567  -2.846   6.691  1.00  0.00     0.338 C 
ATOM     42  O   UNL     1      -2.721  -2.647   7.000  1.00  0.00    -0.246 OA
BRANCH  41  43
ATOM     43  C   UNL     1      -0.860  -4.137   6.752  1.00  0.00     0.060 A 
ATOM     44  C   UNL     1      -1.505  -5.259   6.225  1.00  0.00     0.016 A 
ATOM     45  C   UNL     1       0.454  -4.214   7.229  1.00  0.00     0.016 A 
ATOM     46  C   UNL     1      -0.832  -6.472   6.173  1.00  0.00     0.010 A 
ATOM     47  C   UNL     1       1.117  -5.438   7.208  1.00  0.00     0.010 A 
ATOM     48  C   UNL     1       0.462  -6.571   6.704  1.00  0.00    -0.014 A 
BRANCH  48  49
ATOM     49  C   UNL     1       0.999  -7.921   6.949  1.00  0.00     0.031 A 
ATOM     50  C   UNL     1       0.680  -8.552   8.273  1.00  0.00     0.074 A 
ATOM     51  C   UNL     1       1.660  -8.587   5.988  1.00  0.00     0.049 A 
ATOM     52  N   UNL     1       0.917  -9.764   8.691  1.00  0.00    -0.248 NA
ATOM     53  C   UNL     1      -0.016  -7.699   9.254  1.00  0.00     0.031 C 
ATOM     54  C   UNL     1       1.990  -8.058   4.665  1.00  0.00     0.029 A 
ATOM     55  N   UNL     1       2.159  -9.862   5.977  1.00  0.00    -0.354 N 
ATOM     56  C   UNL     1       0.383  -9.826   9.972  1.00  0.00     0.074 A 
ATOM     57  C   UNL     1      -0.152  -8.520  10.282  1.00  0.00     0.031 C 
ATOM     58  C   UNL     1       2.636  -9.008   3.966  1.00  0.00     0.029 A 
ATOM     59  C   UNL     1       2.776 -10.202   4.797  1.00  0.00     0.049 A 
ATOM     60  H   UNL     1       2.084 -10.477   6.742  1.00  0.00     0.167 HD
ATOM     61  C   UNL     1       0.332 -10.886  10.809  1.00  0.00     0.037 A 
ATOM     62  C   UNL     1       3.381 -11.352   4.442  1.00  0.00     0.037 A 
ATOM     63  C   UNL     1       0.896 -12.169  10.489  1.00  0.00     0.049 A 
ATOM     64  C   UNL     1       3.371 -12.501   5.419  1.00  0.00     0.074 A 
ATOM     65  C   UNL     1       0.914 -13.318  11.257  1.00  0.00     0.029 A 
ATOM     66  N   UNL     1       1.558 -12.464   9.305  1.00  0.00    -0.354 N 
ATOM     67  N   UNL     1       2.830 -12.563   6.614  1.00  0.00    -0.248 NA
ATOM     68  C   UNL     1       4.043 -13.737   4.998  1.00  0.00     0.031 C 
ATOM     69  C   UNL     1       1.635 -14.293  10.558  1.00  0.00     0.029 A 
ATOM     70  C   UNL     1       2.015 -13.769   9.331  1.00  0.00     0.049 A 
ATOM     71  H   UNL     1       1.685 -11.836   8.557  1.00  0.00     0.167 HD
ATOM     72  C   UNL     1       3.076 -13.851   7.079  1.00  0.00     0.074 A 
ATOM     73  C   UNL     1       3.799 -14.537   6.026  1.00  0.00     0.031 C 
ATOM     74  C   UNL     1       2.738 -14.419   8.265  1.00  0.00     0.037 A 
BRANCH  61  75
ATOM     75  C   UNL     1      -0.320 -10.681  12.146  1.00  0.00     0.058 A 
ATOM     76  C   UNL     1      -1.708 -10.502  12.274  1.00  0.00     0.135 A 
ATOM     77  C   UNL     1       0.453 -10.662  13.317  1.00  0.00     0.135 A 
ATOM     78  F   UNL     1      -2.491 -10.481  11.184  1.00  0.00    -0.206 F 
ATOM     79  C   UNL     1      -2.303 -10.292  13.514  1.00  0.00     0.059 A 
ATOM     80  C   UNL     1      -0.124 -10.480  14.571  1.00  0.00     0.059 A 
ATOM     81  F   UNL     1       1.785 -10.812  13.251  1.00  0.00    -0.206 F 
ATOM     82  C   UNL     1      -1.501 -10.284  14.657  1.00  0.00     0.060 A 
BRANCH  82  83
ATOM     83  S   UNL     1      -2.289 -10.021  16.261  1.00  0.00     0.124 S 
ATOM     84  O   UNL     1      -2.636  -8.606  16.187  1.00  0.00    -0.237 OA
ATOM     85  O   UNL     1      -3.411 -10.953  16.212  1.00  0.00    -0.237 OA
ATOM     86  O   UNL     1      -1.238 -10.361  17.215  1.00  0.00    -0.744 OA
ENDBRANCH  82  83
ENDBRANCH  61  75
BRANCH  62  87
ATOM     87  C   UNL     1       4.038 -11.471   3.112  1.00  0.00     0.058 A 
ATOM     88  C   UNL     1       3.531 -12.319   2.116  1.00  0.00     0.135 A 
ATOM     89  C   UNL     1       5.190 -10.727   2.808  1.00  0.00     0.135 A 
ATOM     90  F   UNL     1       2.438 -13.058   2.357  1.00  0.00    -0.206 F 
ATOM     91  C   UNL     1       4.147 -12.434   0.872  1.00  0.00     0.059 A 
ATOM     92  C   UNL     1       5.808 -10.806   1.564  1.00  0.00     0.059 A 
ATOM     93  F   UNL     1       5.712  -9.894   3.721  1.00  0.00    -0.206 F 
ATOM     94  C   UNL     1       5.283 -11.669   0.604  1.00  0.00     0.060 A 
BRANCH  94  95
ATOM     95  S   UNL     1       6.041 -11.781  -1.032  1.00  0.00     0.124 S 
ATOM     96  O   UNL     1       6.657 -13.101  -0.982  1.00  0.00    -0.237 OA
ATOM     97  O   UNL     1       4.885 -11.647  -1.913  1.00  0.00    -0.237 OA
ATOM     98  O   UNL     1       6.967 -10.652  -1.051  1.00  0.00    -0.744 OA
ENDBRANCH  94  95
ENDBRANCH  62  87
BRANCH  74  99
ATOM     99  C   UNL     1       3.129 -15.856   8.473  1.00  0.00     0.058 A 
ATOM    100  C   UNL     1       4.464 -16.233   8.681  1.00  0.00     0.135 A 
ATOM    101  C   UNL     1       2.147 -16.860   8.511  1.00  0.00     0.135 A 
ATOM    102  F   UNL     1       5.440 -15.312   8.652  1.00  0.00    -0.206 F 
ATOM    103  C   UNL     1       4.818 -17.562   8.884  1.00  0.00     0.059 A 
ATOM    104  C   UNL     1       2.475 -18.190   8.744  1.00  0.00     0.059 A 
ATOM    105  F   UNL     1       0.853 -16.549   8.334  1.00  0.00    -0.206 F 
ATOM    106  C   UNL     1       3.815 -18.534   8.913  1.00  0.00     0.060 A 
BRANCH 106 107
ATOM    107  S   UNL     1       4.286 -20.253   9.191  1.00  0.00     0.124 S 
ATOM    108  O   UNL     1       4.878 -20.607   7.905  1.00  0.00    -0.237 OA
ATOM    109  O   UNL     1       5.218 -20.145  10.310  1.00  0.00    -0.237 OA
ATOM    110  O   UNL     1       3.018 -20.907   9.501  1.00  0.00    -0.744 OA
ENDBRANCH 106 107
ENDBRANCH  74  99
ENDBRANCH  48  49
ENDBRANCH  41  43
ENDBRANCH  40  41
ENDBRANCH  39  40
ENDBRANCH  38  39
ENDBRANCH  37  38
ENDBRANCH  36  37
ENDBRANCH  35  36
ENDBRANCH  34  35
ENDBRANCH  33  34
ENDBRANCH   1  33
TORSDOF 30
