REMARK SMILES O=C(CSc1ccc(NC(=O)c2cccc3ccccc23)cc1)OCCOCCOCCOCCOC(=O)c1ccc(-c2c3nc(c(-c4c(F)cc(S(=O)(=O)[O-])cc4F)c4ccc([nH]4)c(-c4c(F)cc(S(=O)(=O)[O-])cc4F)c4nc(c(-c5c(F)cc(S(=O)(=O)[O-])cc5F)c5ccc2[nH]5)C=C4)C=C3)cc1
REMARK SMILES IDX 29 1 28 2 27 3 26 4 25 5 24 6 2 7 1 8 3 9 4 10 5 11 6 12
REMARK SMILES IDX 23 13 7 14 22 15 8 16 9 17 10 18 11 20 12 21 13 22 21 23
REMARK SMILES IDX 14 24 16 25 20 26 15 27 17 28 19 29 18 30 30 31 31 32 32 33
REMARK SMILES IDX 33 34 34 35 35 36 36 37 37 38 38 39 39 40 40 41 104 42 41 43
REMARK SMILES IDX 103 44 42 45 43 46 44 47 97 48 45 49 102 50 96 51 98 52
REMARK SMILES IDX 46 53 101 54 95 55 94 56 47 58 81 59 60 60 80 61 61 62 64 63
REMARK SMILES IDX 79 64 99 65 62 66 63 67 78 69 100 70 65 71 48 72 49 73 58 74
REMARK SMILES IDX 50 75 51 76 57 77 59 78 52 79 53 80 54 81 55 82 56 83 82 84
REMARK SMILES IDX 83 85 92 86 84 87 85 88 91 89 93 90 86 91 87 92 88 93 89 94
REMARK SMILES IDX 90 95 66 96 67 97 76 98 68 99 69 100 75 101 77 102 70 103
REMARK SMILES IDX 71 104 72 105 73 106 74 107
REMARK H PARENT 9 19 98 57 64 68
REMARK Flexibility Score: inf
ROOT
ATOM      1  C   UNL     1       2.112   2.669   1.140  1.00  0.00     0.188 C 
ENDROOT
BRANCH   1   2
ATOM      2  C   UNL     1       2.635   1.265   0.859  1.00  0.00     0.188 C 
BRANCH   2   3
ATOM      3  O   UNL     1       3.942   0.949   1.334  1.00  0.00    -0.376 OA
BRANCH   3   4
ATOM      4  C   UNL     1       4.899   0.276   0.511  1.00  0.00     0.202 C 
BRANCH   4   5
ATOM      5  C   UNL     1       4.493  -0.272  -0.854  1.00  0.00     0.261 C 
BRANCH   5   6
ATOM      6  O   UNL     1       3.376  -1.177  -0.948  1.00  0.00    -0.463 OA
BRANCH   6   7
ATOM      7  C   UNL     1       2.520  -1.415   0.065  1.00  0.00     0.316 C 
ATOM      8  O   UNL     1       1.320  -1.163  -0.060  1.00  0.00    -0.251 OA
BRANCH   7   9
ATOM      9  C   UNL     1       3.061  -2.043   1.337  1.00  0.00     0.197 C 
BRANCH   9  10
ATOM     10  S   UNL     1       4.035  -3.542   1.036  1.00  0.00    -0.114 SA
BRANCH  10  11
ATOM     11  C   UNL     1       2.861  -4.539   0.138  1.00  0.00     0.008 A 
ATOM     12  C   UNL     1       1.506  -4.224   0.021  1.00  0.00     0.017 A 
ATOM     13  C   UNL     1       3.341  -5.662  -0.532  1.00  0.00     0.017 A 
ATOM     14  C   UNL     1       0.697  -4.864  -0.903  1.00  0.00     0.027 A 
ATOM     15  C   UNL     1       2.511  -6.351  -1.418  1.00  0.00     0.027 A 
ATOM     16  C   UNL     1       1.226  -5.870  -1.688  1.00  0.00     0.041 A 
BRANCH  16  17
ATOM     17  N   UNL     1       0.557  -6.397  -2.788  1.00  0.00    -0.322 N 
ATOM     18  C   UNL     1      -0.468  -5.905  -3.559  1.00  0.00     0.256 C 
ATOM     19  H   UNL     1       0.876  -7.287  -3.065  1.00  0.00     0.170 HD
ATOM     20  O   UNL     1      -0.952  -6.663  -4.406  1.00  0.00    -0.269 OA
BRANCH  18  21
ATOM     21  C   UNL     1      -1.057  -4.542  -3.448  1.00  0.00     0.048 A 
ATOM     22  C   UNL     1      -2.450  -4.559  -3.248  1.00  0.00     0.014 A 
ATOM     23  C   UNL     1      -0.375  -3.305  -3.687  1.00  0.00    -0.006 A 
ATOM     24  C   UNL     1      -3.199  -3.396  -3.355  1.00  0.00     0.001 A 
ATOM     25  C   UNL     1      -1.178  -2.142  -3.856  1.00  0.00    -0.018 A 
ATOM     26  C   UNL     1       1.030  -3.113  -3.759  1.00  0.00     0.009 A 
ATOM     27  C   UNL     1      -2.570  -2.208  -3.706  1.00  0.00     0.009 A 
ATOM     28  C   UNL     1      -0.597  -0.901  -4.163  1.00  0.00     0.009 A 
ATOM     29  C   UNL     1       1.597  -1.845  -3.951  1.00  0.00     0.001 A 
ATOM     30  C   UNL     1       0.784  -0.745  -4.186  1.00  0.00     0.001 A 
ENDBRANCH  18  21
ENDBRANCH  16  17
ENDBRANCH  10  11
ENDBRANCH   9  10
ENDBRANCH   7   9
ENDBRANCH   6   7
ENDBRANCH   5   6
ENDBRANCH   4   5
ENDBRANCH   3   4
ENDBRANCH   2   3
ENDBRANCH   1   2
BRANCH   1  31
ATOM     31  O   UNL     1       2.812   3.752   0.543  1.00  0.00    -0.377 OA
BRANCH  31  32
ATOM     32  C   UNL     1       4.213   3.592   0.386  1.00  0.00     0.188 C 
BRANCH  32  33
ATOM     33  C   UNL     1       5.085   3.568   1.664  1.00  0.00     0.188 C 
BRANCH  33  34
ATOM     34  O   UNL     1       4.461   3.069   2.827  1.00  0.00    -0.376 OA
BRANCH  34  35
ATOM     35  C   UNL     1       3.768   3.925   3.719  1.00  0.00     0.202 C 
BRANCH  35  36
ATOM     36  C   UNL     1       3.139   5.290   3.362  1.00  0.00     0.261 C 
BRANCH  36  37
ATOM     37  O   UNL     1       3.484   5.910   2.125  1.00  0.00    -0.460 OA
BRANCH  37  38
ATOM     38  C   UNL     1       4.618   6.638   2.080  1.00  0.00     0.338 C 
ATOM     39  O   UNL     1       5.404   6.829   2.997  1.00  0.00    -0.246 OA
BRANCH  38  40
ATOM     40  C   UNL     1       4.878   6.944   0.656  1.00  0.00     0.060 A 
ATOM     41  C   UNL     1       6.071   6.490   0.067  1.00  0.00     0.016 A 
ATOM     42  C   UNL     1       3.914   7.599  -0.112  1.00  0.00     0.016 A 
ATOM     43  C   UNL     1       6.303   6.690  -1.293  1.00  0.00     0.010 A 
ATOM     44  C   UNL     1       4.172   7.850  -1.459  1.00  0.00     0.010 A 
ATOM     45  C   UNL     1       5.378   7.421  -2.045  1.00  0.00    -0.014 A 
BRANCH  45  46
ATOM     46  C   UNL     1       5.781   8.004  -3.343  1.00  0.00     0.031 A 
ATOM     47  C   UNL     1       6.347   9.394  -3.314  1.00  0.00     0.074 A 
ATOM     48  C   UNL     1       5.603   7.355  -4.505  1.00  0.00     0.049 A 
ATOM     49  N   UNL     1       6.609  10.207  -4.300  1.00  0.00    -0.248 NA
ATOM     50  C   UNL     1       6.639   9.945  -1.980  1.00  0.00     0.031 C 
ATOM     51  C   UNL     1       5.108   5.989  -4.646  1.00  0.00     0.029 A 
ATOM     52  N   UNL     1       5.788   7.787  -5.795  1.00  0.00    -0.354 N 
ATOM     53  C   UNL     1       7.063  11.378  -3.705  1.00  0.00     0.074 A 
ATOM     54  C   UNL     1       7.029  11.174  -2.275  1.00  0.00     0.031 C 
ATOM     55  C   UNL     1       4.981   5.708  -5.955  1.00  0.00     0.029 A 
ATOM     56  C   UNL     1       5.342   6.892  -6.737  1.00  0.00     0.049 A 
ATOM     57  H   UNL     1       6.199   8.652  -6.022  1.00  0.00     0.167 HD
ATOM     58  C   UNL     1       7.461  12.525  -4.301  1.00  0.00     0.037 A 
ATOM     59  C   UNL     1       5.192   7.037  -8.070  1.00  0.00     0.037 A 
ATOM     60  C   UNL     1       7.469  12.715  -5.725  1.00  0.00     0.049 A 
ATOM     61  C   UNL     1       5.584   8.340  -8.719  1.00  0.00     0.074 A 
ATOM     62  C   UNL     1       7.879  13.824  -6.441  1.00  0.00     0.029 A 
ATOM     63  N   UNL     1       7.024  11.780  -6.649  1.00  0.00    -0.354 N 
ATOM     64  N   UNL     1       6.041   9.435  -8.157  1.00  0.00    -0.248 NA
ATOM     65  C   UNL     1       5.442   8.431 -10.179  1.00  0.00     0.031 C 
ATOM     66  C   UNL     1       7.618  13.585  -7.793  1.00  0.00     0.029 A 
ATOM     67  C   UNL     1       7.118  12.298  -7.928  1.00  0.00     0.049 A 
ATOM     68  H   UNL     1       6.690  10.880  -6.427  1.00  0.00     0.167 HD
ATOM     69  C   UNL     1       6.270  10.334  -9.195  1.00  0.00     0.074 A 
ATOM     70  C   UNL     1       5.899   9.654 -10.419  1.00  0.00     0.031 C 
ATOM     71  C   UNL     1       6.754  11.601  -9.139  1.00  0.00     0.037 A 
BRANCH  58  72
ATOM     72  C   UNL     1       7.850  13.668  -3.404  1.00  0.00     0.058 A 
ATOM     73  C   UNL     1       8.995  13.627  -2.591  1.00  0.00     0.135 A 
ATOM     74  C   UNL     1       7.043  14.815  -3.338  1.00  0.00     0.135 A 
ATOM     75  F   UNL     1       9.790  12.545  -2.596  1.00  0.00    -0.206 F 
ATOM     76  C   UNL     1       9.298  14.659  -1.710  1.00  0.00     0.059 A 
ATOM     77  C   UNL     1       7.347  15.876  -2.491  1.00  0.00     0.059 A 
ATOM     78  F   UNL     1       5.934  14.907  -4.088  1.00  0.00    -0.206 F 
ATOM     79  C   UNL     1       8.464  15.777  -1.663  1.00  0.00     0.060 A 
BRANCH  79  80
ATOM     80  S   UNL     1       8.852  17.094  -0.492  1.00  0.00     0.124 S 
ATOM     81  O   UNL     1       8.504  16.465   0.779  1.00  0.00    -0.237 OA
ATOM     82  O   UNL     1      10.277  17.307  -0.723  1.00  0.00    -0.237 OA
ATOM     83  O   UNL     1       7.981  18.189  -0.908  1.00  0.00    -0.744 OA
ENDBRANCH  79  80
ENDBRANCH  58  72
BRANCH  59  84
ATOM     84  C   UNL     1       4.613   5.920  -8.863  1.00  0.00     0.058 A 
ATOM     85  C   UNL     1       5.402   5.162  -9.739  1.00  0.00     0.135 A 
ATOM     86  C   UNL     1       3.265   5.551  -8.713  1.00  0.00     0.135 A 
ATOM     87  F   UNL     1       6.691   5.484  -9.929  1.00  0.00    -0.206 F 
ATOM     88  C   UNL     1       4.883   4.071 -10.429  1.00  0.00     0.059 A 
ATOM     89  C   UNL     1       2.729   4.450  -9.373  1.00  0.00     0.059 A 
ATOM     90  F   UNL     1       2.468   6.240  -7.882  1.00  0.00    -0.206 F 
ATOM     91  C   UNL     1       3.548   3.714 -10.227  1.00  0.00     0.060 A 
BRANCH  91  92
ATOM     92  S   UNL     1       2.917   2.232 -11.045  1.00  0.00     0.124 S 
ATOM     93  O   UNL     1       2.874   2.659 -12.438  1.00  0.00    -0.237 OA
ATOM     94  O   UNL     1       3.939   1.245 -10.709  1.00  0.00    -0.237 OA
ATOM     95  O   UNL     1       1.621   2.023 -10.407  1.00  0.00    -0.744 OA
ENDBRANCH  91  92
ENDBRANCH  59  84
BRANCH  71  96
ATOM     96  C   UNL     1       6.968  12.335 -10.436  1.00  0.00     0.058 A 
ATOM     97  C   UNL     1       5.901  12.847 -11.189  1.00  0.00     0.135 A 
ATOM     98  C   UNL     1       8.274  12.626 -10.867  1.00  0.00     0.135 A 
ATOM     99  F   UNL     1       4.634  12.592 -10.826  1.00  0.00    -0.206 F 
ATOM    100  C   UNL     1       6.121  13.620 -12.325  1.00  0.00     0.059 A 
ATOM    101  C   UNL     1       8.517  13.422 -11.981  1.00  0.00     0.059 A 
ATOM    102  F   UNL     1       9.331  12.169 -10.177  1.00  0.00    -0.206 F 
ATOM    103  C   UNL     1       7.433  13.912 -12.706  1.00  0.00     0.060 A 
BRANCH 103 104
ATOM    104  S   UNL     1       7.702  14.979 -14.138  1.00  0.00     0.124 S 
ATOM    105  O   UNL     1       7.305  14.104 -15.236  1.00  0.00    -0.237 OA
ATOM    106  O   UNL     1       6.807  16.099 -13.864  1.00  0.00    -0.237 OA
ATOM    107  O   UNL     1       9.126  15.291 -14.068  1.00  0.00    -0.744 OA
ENDBRANCH 103 104
ENDBRANCH  71  96
ENDBRANCH  45  46
ENDBRANCH  38  40
ENDBRANCH  37  38
ENDBRANCH  36  37
ENDBRANCH  35  36
ENDBRANCH  34  35
ENDBRANCH  33  34
ENDBRANCH  32  33
ENDBRANCH  31  32
ENDBRANCH   1  31
TORSDOF 27
