REMARK SMILES C[C@@]1(C(=O)OCCOCCOCCOCCOC(=O)c2ccc(-c3c4nc(c(-c5c(F)cc(S(=O)(=O)[O-])cc5F)c5ccc([nH]5)c(-c5c(F)cc(S(=O)(=O)[O-])cc5F)c5nc(c(-c6c(F)cc(S(=O)(=O)[O-])cc6F)c6ccc3[nH]6)C=C5)C=C4)cc2)CCCN(C(=O)[C@@H]2CCCCC[C@@H]2[NH3+])C1
REMARK SMILES IDX 10 1 9 2 8 3 7 4 6 5 5 6 3 7 4 8 2 9 1 10 86 11 100 12 87 13
REMARK SMILES IDX 89 14 88 15 90 16 91 17 92 18 93 19 94 20 95 21 98 23 97 24
REMARK SMILES IDX 96 25 99 27 11 31 12 32 13 33 14 34 15 35 16 36 17 37 18 38
REMARK SMILES IDX 19 39 20 40 21 41 85 42 22 43 84 44 23 45 24 46 25 47 78 48
REMARK SMILES IDX 26 49 83 50 77 51 79 52 27 53 82 54 76 55 75 56 28 58 62 59
REMARK SMILES IDX 41 60 61 61 42 62 45 63 60 64 80 65 43 66 44 67 59 69 81 70
REMARK SMILES IDX 46 71 29 72 30 73 39 74 31 75 32 76 38 77 40 78 33 79 34 80
REMARK SMILES IDX 35 81 36 82 37 83 63 84 64 85 73 86 65 87 66 88 72 89 74 90
REMARK SMILES IDX 67 91 68 92 69 93 70 94 71 95 47 96 48 97 57 98 49 99 50 100
REMARK SMILES IDX 56 101 58 102 51 103 52 104 53 105 54 106 55 107
REMARK H PARENT 99 28 99 29 99 30 79 57 45 68
REMARK Flexibility Score: 90.00
ROOT
ATOM      1  C   UNL     1      -1.008  -0.028   3.095  1.00  0.00     0.188 C 
ENDROOT
BRANCH   1   2
ATOM      2  C   UNL     1       0.305  -0.736   3.456  1.00  0.00     0.188 C 
BRANCH   2   3
ATOM      3  O   UNL     1       1.010  -0.405   4.639  1.00  0.00    -0.376 OA
BRANCH   3   4
ATOM      4  C   UNL     1       1.019   0.919   5.146  1.00  0.00     0.202 C 
BRANCH   4   5
ATOM      5  C   UNL     1       1.262   2.160   4.256  1.00  0.00     0.261 C 
BRANCH   5   6
ATOM      6  O   UNL     1       0.778   2.150   2.892  1.00  0.00    -0.463 OA
BRANCH   6   7
ATOM      7  C   UNL     1       1.705   1.817   1.969  1.00  0.00     0.313 C 
ATOM      8  O   UNL     1       2.860   1.516   2.266  1.00  0.00    -0.252 OA
BRANCH   7   9
ATOM      9  C   UNL     1       1.246   1.895   0.495  1.00  0.00     0.083 C 
ATOM     10  C   UNL     1       2.106   0.811  -0.202  1.00  0.00     0.025 C 
ATOM     11  C   UNL     1       1.668   3.297   0.008  1.00  0.00     0.022 C 
ATOM     12  C   UNL     1      -0.267   1.722   0.123  1.00  0.00     0.138 C 
ATOM     13  C   UNL     1       1.401   3.473  -1.484  1.00  0.00     0.023 C 
ATOM     14  N   UNL     1      -0.510   1.880  -1.327  1.00  0.00    -0.341 N 
ATOM     15  C   UNL     1      -0.057   3.184  -1.839  1.00  0.00     0.119 C 
BRANCH  14  16
ATOM     16  C   UNL     1      -1.137   1.011  -2.222  1.00  0.00     0.231 C 
ATOM     17  O   UNL     1      -1.178   1.324  -3.425  1.00  0.00    -0.274 OA
BRANCH  16  18
ATOM     18  C   UNL     1      -1.844  -0.344  -1.865  1.00  0.00     0.136 C 
BRANCH  18  19
ATOM     19  C   UNL     1      -3.156  -0.199  -1.075  1.00  0.00     0.020 C 
BRANCH  19  20
ATOM     20  C   UNL     1      -4.171  -1.311  -1.415  1.00  0.00     0.001 C 
BRANCH  20  21
ATOM     21  C   UNL     1      -4.063  -2.590  -0.590  1.00  0.00     0.000 CG0
ATOM     22  G   UNL     1      -2.672  -3.177  -0.399  1.00  0.00     0.000 G0
ENDBRANCH  20  21
ENDBRANCH  19  20
ENDBRANCH  18  19
BRANCH  18  23
ATOM     23  C   UNL     1      -0.958  -1.564  -1.525  1.00  0.00     0.193 C 
BRANCH  23  24
ATOM     24  C   UNL     1      -1.687  -2.928  -1.550  1.00  0.00     0.066 C 
BRANCH  24  25
ATOM     25  C   UNL     1      -2.672  -3.177  -0.399  1.00  0.00     0.006 CG0
ATOM     26  G   UNL     1      -4.063  -2.590  -0.590  1.00  0.00     0.000 G0
ENDBRANCH  24  25
ENDBRANCH  23  24
BRANCH  23  27
ATOM     27  N   UNL     1      -0.283  -1.517  -0.236  1.00  0.00    -0.354 N 
ATOM     28  H   UNL     1      -0.973  -1.588   0.511  1.00  0.00     0.344 HD
ATOM     29  H   UNL     1       0.222  -0.635  -0.149  1.00  0.00     0.344 HD
ATOM     30  H   UNL     1       0.374  -2.294  -0.168  1.00  0.00     0.344 HD
ENDBRANCH  23  27
ENDBRANCH  18  23
ENDBRANCH  16  18
ENDBRANCH  14  16
ENDBRANCH   7   9
ENDBRANCH   6   7
ENDBRANCH   5   6
ENDBRANCH   4   5
ENDBRANCH   3   4
ENDBRANCH   2   3
ENDBRANCH   1   2
BRANCH   1  31
ATOM     31  O   UNL     1      -1.410   1.024   3.941  1.00  0.00    -0.377 OA
BRANCH  31  32
ATOM     32  C   UNL     1      -2.349   0.720   4.955  1.00  0.00     0.188 C 
BRANCH  32  33
ATOM     33  C   UNL     1      -2.279  -0.680   5.585  1.00  0.00     0.188 C 
BRANCH  33  34
ATOM     34  O   UNL     1      -2.263  -1.741   4.636  1.00  0.00    -0.376 OA
BRANCH  34  35
ATOM     35  C   UNL     1      -3.487  -2.381   4.306  1.00  0.00     0.202 C 
BRANCH  35  36
ATOM     36  C   UNL     1      -4.540  -1.557   3.543  1.00  0.00     0.261 C 
BRANCH  36  37
ATOM     37  O   UNL     1      -5.037  -0.380   4.200  1.00  0.00    -0.460 OA
BRANCH  37  38
ATOM     38  C   UNL     1      -5.581  -0.530   5.425  1.00  0.00     0.338 C 
ATOM     39  O   UNL     1      -5.784  -1.584   6.008  1.00  0.00    -0.246 OA
BRANCH  38  40
ATOM     40  C   UNL     1      -5.690   0.804   6.051  1.00  0.00     0.060 A 
ATOM     41  C   UNL     1      -5.038   1.020   7.271  1.00  0.00     0.016 A 
ATOM     42  C   UNL     1      -6.423   1.832   5.451  1.00  0.00     0.016 A 
ATOM     43  C   UNL     1      -5.158   2.247   7.919  1.00  0.00     0.010 A 
ATOM     44  C   UNL     1      -6.560   3.057   6.114  1.00  0.00     0.010 A 
ATOM     45  C   UNL     1      -5.962   3.255   7.371  1.00  0.00    -0.014 A 
BRANCH  45  46
ATOM     46  C   UNL     1      -6.310   4.421   8.219  1.00  0.00     0.031 A 
ATOM     47  C   UNL     1      -7.633   4.421   8.939  1.00  0.00     0.074 A 
ATOM     48  C   UNL     1      -5.428   5.417   8.421  1.00  0.00     0.049 A 
ATOM     49  N   UNL     1      -8.114   5.287   9.792  1.00  0.00    -0.248 NA
ATOM     50  C   UNL     1      -8.531   3.288   8.662  1.00  0.00     0.031 C 
ATOM     51  C   UNL     1      -4.105   5.511   7.806  1.00  0.00     0.029 A 
ATOM     52  N   UNL     1      -5.511   6.535   9.212  1.00  0.00    -0.354 N 
ATOM     53  C   UNL     1      -9.367   4.804  10.156  1.00  0.00     0.074 A 
ATOM     54  C   UNL     1      -9.588   3.591   9.400  1.00  0.00     0.031 C 
ATOM     55  C   UNL     1      -3.497   6.626   8.247  1.00  0.00     0.029 A 
ATOM     56  C   UNL     1      -4.396   7.336   9.155  1.00  0.00     0.049 A 
ATOM     57  H   UNL     1      -6.296   6.745   9.768  1.00  0.00     0.167 HD
ATOM     58  C   UNL     1     -10.247   5.318  11.048  1.00  0.00     0.037 A 
ATOM     59  C   UNL     1      -4.135   8.512   9.761  1.00  0.00     0.037 A 
ATOM     60  C   UNL     1     -10.023   6.532  11.792  1.00  0.00     0.049 A 
ATOM     61  C   UNL     1      -5.153   9.092  10.710  1.00  0.00     0.074 A 
ATOM     62  C   UNL     1     -10.846   7.132  12.729  1.00  0.00     0.029 A 
ATOM     63  N   UNL     1      -8.899   7.338  11.677  1.00  0.00    -0.354 N 
ATOM     64  N   UNL     1      -6.322   8.611  11.065  1.00  0.00    -0.248 NA
ATOM     65  C   UNL     1      -4.809  10.367  11.352  1.00  0.00     0.031 C 
ATOM     66  C   UNL     1     -10.249   8.331  13.133  1.00  0.00     0.029 A 
ATOM     67  C   UNL     1      -9.019   8.443  12.504  1.00  0.00     0.049 A 
ATOM     68  H   UNL     1      -8.128   7.152  11.092  1.00  0.00     0.167 HD
ATOM     69  C   UNL     1      -6.838   9.510  11.995  1.00  0.00     0.074 A 
ATOM     70  C   UNL     1      -5.843  10.550  12.160  1.00  0.00     0.031 C 
ATOM     71  C   UNL     1      -8.025   9.477  12.654  1.00  0.00     0.037 A 
BRANCH  58  72
ATOM     72  C   UNL     1     -11.549   4.587  11.245  1.00  0.00     0.058 A 
ATOM     73  C   UNL     1     -11.612   3.334  11.877  1.00  0.00     0.135 A 
ATOM     74  C   UNL     1     -12.757   5.165  10.822  1.00  0.00     0.135 A 
ATOM     75  F   UNL     1     -10.488   2.723  12.283  1.00  0.00    -0.206 F 
ATOM     76  C   UNL     1     -12.822   2.671  12.059  1.00  0.00     0.059 A 
ATOM     77  C   UNL     1     -13.981   4.535  11.022  1.00  0.00     0.059 A 
ATOM     78  F   UNL     1     -12.757   6.359  10.207  1.00  0.00    -0.206 F 
ATOM     79  C   UNL     1     -14.002   3.281  11.630  1.00  0.00     0.060 A 
BRANCH  79  80
ATOM     80  S   UNL     1     -15.564   2.412  11.883  1.00  0.00     0.124 S 
ATOM     81  O   UNL     1     -15.449   1.319  10.922  1.00  0.00    -0.237 OA
ATOM     82  O   UNL     1     -15.482   2.030  13.289  1.00  0.00    -0.237 OA
ATOM     83  O   UNL     1     -16.571   3.420  11.568  1.00  0.00    -0.744 OA
ENDBRANCH  79  80
ENDBRANCH  58  72
BRANCH  59  84
ATOM     84  C   UNL     1      -2.854   9.221   9.490  1.00  0.00     0.058 A 
ATOM     85  C   UNL     1      -1.877   9.375  10.485  1.00  0.00     0.135 A 
ATOM     86  C   UNL     1      -2.586   9.766   8.224  1.00  0.00     0.135 A 
ATOM     87  F   UNL     1      -2.088   8.884  11.715  1.00  0.00    -0.206 F 
ATOM     88  C   UNL     1      -0.687  10.055  10.240  1.00  0.00     0.059 A 
ATOM     89  C   UNL     1      -1.392  10.422   7.946  1.00  0.00     0.059 A 
ATOM     90  F   UNL     1      -3.483   9.639   7.234  1.00  0.00    -0.206 F 
ATOM     91  C   UNL     1      -0.452  10.570   8.964  1.00  0.00     0.060 A 
BRANCH  91  92
ATOM     92  S   UNL     1       1.119  11.401   8.640  1.00  0.00     0.124 S 
ATOM     93  O   UNL     1       0.956  12.642   9.388  1.00  0.00    -0.237 OA
ATOM     94  O   UNL     1       2.083  10.448   9.182  1.00  0.00    -0.237 OA
ATOM     95  O   UNL     1       1.133  11.536   7.187  1.00  0.00    -0.744 OA
ENDBRANCH  91  92
ENDBRANCH  59  84
BRANCH  71  96
ATOM     96  C   UNL     1      -8.291  10.580  13.647  1.00  0.00     0.058 A 
ATOM     97  C   UNL     1      -8.493  11.911  13.247  1.00  0.00     0.135 A 
ATOM     98  C   UNL     1      -8.344  10.299  15.023  1.00  0.00     0.135 A 
ATOM     99  F   UNL     1      -8.456  12.239  11.946  1.00  0.00    -0.206 F 
ATOM    100  C   UNL     1      -8.677  12.931  14.177  1.00  0.00     0.059 A 
ATOM    101  C   UNL     1      -8.565  11.296  15.967  1.00  0.00     0.059 A 
ATOM    102  F   UNL     1      -8.179   9.041  15.464  1.00  0.00    -0.206 F 
ATOM    103  C   UNL     1      -8.703  12.614  15.536  1.00  0.00     0.060 A 
BRANCH 103 104
ATOM    104  S   UNL     1      -8.914  13.948  16.733  1.00  0.00     0.124 S 
ATOM    105  O   UNL     1      -7.608  14.598  16.679  1.00  0.00    -0.237 OA
ATOM    106  O   UNL     1     -10.024  14.706  16.165  1.00  0.00    -0.237 OA
ATOM    107  O   UNL     1      -9.213  13.245  17.977  1.00  0.00    -0.744 OA
ENDBRANCH 103 104
ENDBRANCH  71  96
ENDBRANCH  45  46
ENDBRANCH  38  40
ENDBRANCH  37  38
ENDBRANCH  36  37
ENDBRANCH  35  36
ENDBRANCH  34  35
ENDBRANCH  33  34
ENDBRANCH  32  33
ENDBRANCH  31  32
ENDBRANCH   1  31
TORSDOF 26
