REMARK SMILES Cc1ccc(-c2cc(Cl)cc3c2O[C@H](C(F)(F)F)C(C(=O)OCCOCCOCCOCCOC(=O)c2ccc(-c4c5nc(c(-c6c(F)cc(S(=O)(=O)[O-])cc6F)c6ccc([nH]6)c(-c6c(F)cc(S(=O)(=O)[O-])cc6F)c6nc(c(-c7c(F)cc(S(=O)(=O)[O-])cc7F)c7ccc4[nH]7)C=C6)C=C5)cc2)=C3)cc1F
REMARK SMILES IDX 29 1 28 2 27 3 26 4 25 5 24 6 23 7 22 8 20 9 21 10 19 11
REMARK SMILES IDX 6 12 7 13 12 14 8 15 11 16 13 17 9 18 10 19 103 20 14 21
REMARK SMILES IDX 5 22 1 23 2 24 3 25 105 26 4 27 104 28 106 29 15 30 16 31
REMARK SMILES IDX 17 32 18 33 30 34 31 35 32 36 33 37 34 38 35 39 36 40 37 41
REMARK SMILES IDX 38 42 102 43 39 44 101 45 40 46 41 47 42 48 95 49 43 50
REMARK SMILES IDX 100 51 94 52 96 53 44 54 99 55 93 56 92 57 45 59 79 60 58 61
REMARK SMILES IDX 78 62 59 63 62 64 77 65 97 66 60 67 61 68 76 70 98 71 63 72
REMARK SMILES IDX 46 73 47 74 56 75 48 76 49 77 55 78 57 79 50 80 51 81 52 82
REMARK SMILES IDX 53 83 54 84 80 85 81 86 90 87 82 88 83 89 89 90 91 91 84 92
REMARK SMILES IDX 85 93 86 94 87 95 88 96 64 97 65 98 74 99 66 100 67 101
REMARK SMILES IDX 73 102 75 103 68 104 69 105 70 106 71 107 72 108
REMARK H PARENT 96 58 62 69
REMARK Flexibility Score: inf
ROOT
ATOM      1  C   UNL     1      -3.810  -3.017   7.751  1.00  0.00     0.188 C 
ENDROOT
BRANCH   1   2
ATOM      2  O   UNL     1      -3.499  -2.493   5.833  1.00  0.00    -0.377 OA
BRANCH   2   3
ATOM      3  C   UNL     1      -4.400  -2.878   4.358  1.00  0.00     0.188 C 
BRANCH   3   4
ATOM      4  C   UNL     1      -5.607  -4.177   4.057  1.00  0.00     0.188 C 
BRANCH   4   5
ATOM      5  O   UNL     1      -6.151  -5.359   4.736  1.00  0.00    -0.376 OA
BRANCH   5   6
ATOM      6  C   UNL     1      -5.571  -6.568   5.296  1.00  0.00     0.202 C 
BRANCH   6   7
ATOM      7  C   UNL     1      -4.488  -7.468   4.597  1.00  0.00     0.261 C 
BRANCH   7   8
ATOM      8  O   UNL     1      -3.486  -6.750   3.855  1.00  0.00    -0.460 OA
BRANCH   8   9
ATOM      9  C   UNL     1      -3.568  -6.861   2.523  1.00  0.00     0.338 C 
ATOM     10  O   UNL     1      -4.016  -7.819   1.912  1.00  0.00    -0.246 OA
BRANCH   9  11
ATOM     11  C   UNL     1      -3.324  -5.545   1.902  1.00  0.00     0.087 C 
ATOM     12  C   UNL     1      -3.069  -1.845  -0.074  1.00  0.00     0.026 A 
ATOM     13  C   UNL     1      -4.055  -1.572  -1.047  1.00  0.00     0.033 A 
ATOM     14  C   UNL     1      -3.200  -3.032   0.679  1.00  0.00     0.135 A 
ATOM     15  C   UNL     1      -5.141  -2.422  -1.239  1.00  0.00     0.042 A 
ATOM     16  C   UNL     1      -4.257  -3.911   0.420  1.00  0.00     0.019 A 
ATOM     17  O   UNL     1      -2.292  -3.282   1.675  1.00  0.00    -0.475 OA
ATOM     18  Cl  UNL     1      -6.315  -2.070  -2.446  1.00  0.00    -0.084 Cl
ATOM     19  C   UNL     1      -5.253  -3.587  -0.499  1.00  0.00     0.032 A 
ATOM     20  C   UNL     1      -4.308  -5.204   1.063  1.00  0.00     0.027 C 
ATOM     21  C   UNL     1      -2.196  -4.618   2.266  1.00  0.00     0.316 C 
BRANCH  12  22
ATOM     22  C   UNL     1      -1.909  -0.932   0.036  1.00  0.00    -0.012 A 
ATOM     23  C   UNL     1       1.513   1.732   0.022  1.00  0.00     0.047 C 
ATOM     24  C   UNL     1       0.319   0.829   0.033  1.00  0.00    -0.015 A 
ATOM     25  C   UNL     1      -0.982   1.336   0.081  1.00  0.00     0.007 A 
ATOM     26  C   UNL     1       0.492  -0.554   0.004  1.00  0.00     0.126 A 
ATOM     27  C   UNL     1      -2.079   0.464   0.087  1.00  0.00     0.009 A 
ATOM     28  C   UNL     1      -0.596  -1.424   0.002  1.00  0.00     0.048 A 
ATOM     29  F   UNL     1       1.729  -1.068  -0.052  1.00  0.00    -0.207 F 
ENDBRANCH  12  22
BRANCH  21  30
ATOM     30  C   UNL     1      -0.819  -5.158   1.902  1.00  0.00     0.430 C 
ATOM     31  F   UNL     1       0.146  -4.241   2.156  1.00  0.00    -0.167 F 
ATOM     32  F   UNL     1      -0.513  -6.266   2.609  1.00  0.00    -0.167 F 
ATOM     33  F   UNL     1      -0.739  -5.465   0.587  1.00  0.00    -0.167 F 
ENDBRANCH  21  30
ENDBRANCH   9  11
ENDBRANCH   8   9
ENDBRANCH   7   8
ENDBRANCH   6   7
ENDBRANCH   5   6
ENDBRANCH   4   5
ENDBRANCH   3   4
ENDBRANCH   2   3
ENDBRANCH   1   2
BRANCH   1  34
ATOM     34  C   UNL     1      -5.011  -4.286   8.329  1.00  0.00     0.188 C 
BRANCH  34  35
ATOM     35  O   UNL     1      -6.321  -4.481   7.776  1.00  0.00    -0.376 OA
BRANCH  35  36
ATOM     36  C   UNL     1      -7.481  -3.991   8.441  1.00  0.00     0.202 C 
BRANCH  36  37
ATOM     37  C   UNL     1      -7.461  -2.572   9.011  1.00  0.00     0.261 C 
BRANCH  37  38
ATOM     38  O   UNL     1      -6.292  -2.336   9.804  1.00  0.00    -0.460 OA
BRANCH  38  39
ATOM     39  C   UNL     1      -6.332  -2.524  11.140  1.00  0.00     0.338 C 
ATOM     40  O   UNL     1      -7.310  -2.700  11.843  1.00  0.00    -0.246 OA
BRANCH  39  41
ATOM     41  C   UNL     1      -4.953  -2.969  11.475  1.00  0.00     0.060 A 
ATOM     42  C   UNL     1      -3.826  -2.264  11.017  1.00  0.00     0.016 A 
ATOM     43  C   UNL     1      -4.872  -4.334  11.786  1.00  0.00     0.016 A 
ATOM     44  C   UNL     1      -2.665  -2.975  10.697  1.00  0.00     0.010 A 
ATOM     45  C   UNL     1      -3.745  -5.041  11.404  1.00  0.00     0.010 A 
ATOM     46  C   UNL     1      -2.685  -4.375  10.778  1.00  0.00    -0.014 A 
BRANCH  46  47
ATOM     47  C   UNL     1      -1.577  -5.226  10.355  1.00  0.00     0.031 A 
ATOM     48  C   UNL     1      -0.433  -5.251  11.268  1.00  0.00     0.074 A 
ATOM     49  C   UNL     1      -1.667  -6.054   9.286  1.00  0.00     0.049 A 
ATOM     50  N   UNL     1       0.748  -5.648  10.969  1.00  0.00    -0.248 NA
ATOM     51  C   UNL     1      -0.556  -4.781  12.648  1.00  0.00     0.031 C 
ATOM     52  C   UNL     1      -0.807  -7.152   8.852  1.00  0.00     0.029 A 
ATOM     53  N   UNL     1      -2.489  -5.890   8.170  1.00  0.00    -0.354 N 
ATOM     54  C   UNL     1       1.355  -5.924  12.174  1.00  0.00     0.074 A 
ATOM     55  C   UNL     1       0.608  -5.183  13.157  1.00  0.00     0.031 C 
ATOM     56  C   UNL     1      -0.863  -7.240   7.503  1.00  0.00     0.029 A 
ATOM     57  C   UNL     1      -1.639  -6.086   7.065  1.00  0.00     0.049 A 
ATOM     58  H   UNL     1      -3.451  -5.683   8.158  1.00  0.00     0.167 HD
ATOM     59  C   UNL     1       2.236  -6.962  12.223  1.00  0.00     0.037 A 
ATOM     60  C   UNL     1      -1.174  -5.011   6.359  1.00  0.00     0.037 A 
ATOM     61  C   UNL     1       2.479  -7.493  10.881  1.00  0.00     0.049 A 
ATOM     62  C   UNL     1       0.353  -4.993   6.328  1.00  0.00     0.074 A 
ATOM     63  C   UNL     1       2.072  -8.620  10.185  1.00  0.00     0.029 A 
ATOM     64  N   UNL     1       2.986  -6.631   9.931  1.00  0.00    -0.354 N 
ATOM     65  N   UNL     1       1.079  -5.547   7.268  1.00  0.00    -0.248 NA
ATOM     66  C   UNL     1       1.194  -4.471   5.249  1.00  0.00     0.031 C 
ATOM     67  C   UNL     1       2.351  -8.419   8.802  1.00  0.00     0.029 A 
ATOM     68  C   UNL     1       2.876  -7.149   8.663  1.00  0.00     0.049 A 
ATOM     69  H   UNL     1       3.378  -5.751  10.136  1.00  0.00     0.167 HD
ATOM     70  C   UNL     1       2.388  -5.615   6.873  1.00  0.00     0.074 A 
ATOM     71  C   UNL     1       2.427  -4.846   5.646  1.00  0.00     0.031 C 
ATOM     72  C   UNL     1       3.329  -6.335   7.556  1.00  0.00     0.037 A 
BRANCH  59  73
ATOM     73  C   UNL     1       2.637  -7.674  13.490  1.00  0.00     0.058 A 
ATOM     74  C   UNL     1       2.991  -9.039  13.450  1.00  0.00     0.135 A 
ATOM     75  C   UNL     1       2.694  -7.088  14.772  1.00  0.00     0.135 A 
ATOM     76  F   UNL     1       3.038  -9.731  12.306  1.00  0.00    -0.206 F 
ATOM     77  C   UNL     1       3.326  -9.774  14.580  1.00  0.00     0.059 A 
ATOM     78  C   UNL     1       2.986  -7.816  15.930  1.00  0.00     0.059 A 
ATOM     79  F   UNL     1       2.533  -5.771  14.951  1.00  0.00    -0.206 F 
ATOM     80  C   UNL     1       3.316  -9.158  15.819  1.00  0.00     0.060 A 
BRANCH  80  81
ATOM     81  S   UNL     1       3.815 -10.129  17.245  1.00  0.00     0.124 S 
ATOM     82  O   UNL     1       2.891 -11.257  17.185  1.00  0.00    -0.237 OA
ATOM     83  O   UNL     1       5.207 -10.430  16.927  1.00  0.00    -0.237 OA
ATOM     84  O   UNL     1       3.611  -9.216  18.366  1.00  0.00    -0.744 OA
ENDBRANCH  80  81
ENDBRANCH  59  73
BRANCH  60  85
ATOM     85  C   UNL     1      -2.145  -3.851   6.363  1.00  0.00     0.058 A 
ATOM     86  C   UNL     1      -3.891  -4.218   6.157  1.00  0.00     0.135 A 
ATOM     87  C   UNL     1      -1.741  -2.232   6.791  1.00  0.00     0.135 A 
ATOM     88  F   UNL     1      -3.932  -5.211   5.295  1.00  0.00    -0.206 F 
ATOM     89  C   UNL     1      -5.231  -2.904   6.360  1.00  0.00     0.059 A 
ATOM     90  C   UNL     1      -2.926  -0.970   6.998  1.00  0.00     0.059 A 
ATOM     91  F   UNL     1      -0.455  -1.938   7.041  1.00  0.00    -0.206 F 
ATOM     92  C   UNL     1      -4.660  -1.243   6.772  1.00  0.00     0.060 A 
BRANCH  92  93
ATOM     93  S   UNL     1      -5.681   0.199   7.024  1.00  0.00     0.124 S 
ATOM     94  O   UNL     1      -6.688   0.056   5.979  1.00  0.00    -0.237 OA
ATOM     95  O   UNL     1      -6.151   0.043   8.395  1.00  0.00    -0.237 OA
ATOM     96  O   UNL     1      -4.741   1.303   6.850  1.00  0.00    -0.744 OA
ENDBRANCH  92  93
ENDBRANCH  60  85
BRANCH  72  97
ATOM     97  C   UNL     1       4.798  -6.307   7.274  1.00  0.00     0.058 A 
ATOM     98  C   UNL     1       5.346  -6.466   5.999  1.00  0.00     0.135 A 
ATOM     99  C   UNL     1       5.716  -6.163   8.343  1.00  0.00     0.135 A 
ATOM    100  F   UNL     1       4.559  -6.727   4.943  1.00  0.00    -0.206 F 
ATOM    101  C   UNL     1       6.719  -6.353   5.778  1.00  0.00     0.059 A 
ATOM    102  C   UNL     1       7.085  -6.105   8.155  1.00  0.00     0.059 A 
ATOM    103  F   UNL     1       5.311  -6.016   9.612  1.00  0.00    -0.206 F 
ATOM    104  C   UNL     1       7.574  -6.138   6.861  1.00  0.00     0.060 A 
BRANCH 104 105
ATOM    105  S   UNL     1       9.322  -5.829   6.578  1.00  0.00     0.124 S 
ATOM    106  O   UNL     1       9.654  -6.809   5.550  1.00  0.00    -0.237 OA
ATOM    107  O   UNL     1       9.296  -4.436   6.143  1.00  0.00    -0.237 OA
ATOM    108  O   UNL     1       9.928  -6.067   7.884  1.00  0.00    -0.744 OA
ENDBRANCH 104 105
ENDBRANCH  72  97
ENDBRANCH  46  47
ENDBRANCH  39  41
ENDBRANCH  38  39
ENDBRANCH  37  38
ENDBRANCH  36  37
ENDBRANCH  35  36
ENDBRANCH  34  35
ENDBRANCH   1  34
TORSDOF 25
