REMARK SMILES Cc1ccc(C(=O)N2C[C@@H](C(=O)OCCOCCOCCOCCOC(=O)c3ccc(-c4c5nc(c(-c6c(F)cc(S(=O)(=O)[O-])cc6F)c6ccc([nH]6)c(-c6c(F)cc(S(=O)(=O)[O-])cc6F)c6nc(c(-c7c(F)cc(S(=O)(=O)[O-])cc7F)c7ccc4[nH]7)C=C6)C=C5)cc3)C[C@H](C(=O)N3CCOCC3)C2)cc1F
REMARK SMILES IDX 20 1 19 2 18 3 17 4 16 5 15 6 14 7 13 8 11 9 12 10 10 11
REMARK SMILES IDX 8 12 9 13 104 14 95 15 94 16 6 17 7 18 5 19 1 20 2 21 3 22
REMARK SMILES IDX 106 23 4 24 105 25 107 26 96 27 97 28 98 29 99 30 103 31
REMARK SMILES IDX 100 32 102 33 101 34 21 35 22 36 23 37 24 38 25 39 26 40
REMARK SMILES IDX 27 41 28 42 29 43 93 44 30 45 92 46 31 47 32 48 33 49 86 50
REMARK SMILES IDX 34 51 91 52 85 53 87 54 35 55 90 56 84 57 83 58 36 60 70 61
REMARK SMILES IDX 49 62 69 63 50 64 53 65 68 66 88 67 51 68 52 69 67 71 89 72
REMARK SMILES IDX 54 73 37 74 38 75 47 76 39 77 40 78 46 79 48 80 41 81 42 82
REMARK SMILES IDX 43 83 44 84 45 85 71 86 72 87 81 88 73 89 74 90 80 91 82 92
REMARK SMILES IDX 75 93 76 94 77 95 78 96 79 97 55 98 56 99 65 100 57 101
REMARK SMILES IDX 58 102 64 103 66 104 59 105 60 106 61 107 62 108 63 109
REMARK H PARENT 87 59 53 70
REMARK Flexibility Score: inf
ROOT
ATOM      1  C   UNL     1     -10.808  -1.877   1.692  1.00  0.00     0.188 C 
ENDROOT
BRANCH   1   2
ATOM      2  O   UNL     1      -9.461  -1.998   1.228  1.00  0.00    -0.377 OA
BRANCH   2   3
ATOM      3  C   UNL     1      -8.873  -3.292   1.272  1.00  0.00     0.188 C 
BRANCH   3   4
ATOM      4  C   UNL     1      -8.850  -4.037   2.600  1.00  0.00     0.188 C 
BRANCH   4   5
ATOM      5  O   UNL     1      -9.698  -3.474   3.570  1.00  0.00    -0.376 OA
BRANCH   5   6
ATOM      6  C   UNL     1      -9.164  -2.570   4.516  1.00  0.00     0.202 C 
BRANCH   6   7
ATOM      7  C   UNL     1      -8.273  -1.341   4.190  1.00  0.00     0.261 C 
BRANCH   7   8
ATOM      8  O   UNL     1      -7.701  -1.141   2.887  1.00  0.00    -0.463 OA
BRANCH   8   9
ATOM      9  C   UNL     1      -6.526  -1.757   2.667  1.00  0.00     0.310 C 
ATOM     10  O   UNL     1      -5.988  -2.496   3.489  1.00  0.00    -0.252 OA
BRANCH   9  11
ATOM     11  C   UNL     1      -5.856  -1.460   1.336  1.00  0.00     0.119 C 
ATOM     12  N   UNL     1      -3.790  -0.549   0.512  1.00  0.00    -0.337 N 
ATOM     13  C   UNL     1      -4.741  -0.483   1.604  1.00  0.00     0.135 C 
ATOM     14  C   UNL     1      -4.280  -0.257  -0.839  1.00  0.00     0.133 C 
ATOM     15  C   UNL     1      -5.619  -0.959  -1.168  1.00  0.00     0.099 C 
ATOM     16  C   UNL     1      -6.578  -1.027   0.047  1.00  0.00     0.032 C 
BRANCH  12  17
ATOM     17  C   UNL     1      -2.545  -1.087   0.775  1.00  0.00     0.254 C 
ATOM     18  O   UNL     1      -2.364  -2.028   1.543  1.00  0.00    -0.269 OA
BRANCH  17  19
ATOM     19  C   UNL     1      -1.374  -0.341   0.268  1.00  0.00     0.042 A 
ATOM     20  C   UNL     1       2.208   1.933  -0.340  1.00  0.00     0.047 C 
ATOM     21  C   UNL     1       0.943   1.145  -0.199  1.00  0.00    -0.015 A 
ATOM     22  C   UNL     1      -0.290   1.794  -0.097  1.00  0.00     0.007 A 
ATOM     23  C   UNL     1       0.991  -0.251  -0.098  1.00  0.00     0.126 A 
ATOM     24  C   UNL     1      -1.444   1.054   0.142  1.00  0.00     0.014 A 
ATOM     25  C   UNL     1      -0.153  -1.000   0.139  1.00  0.00     0.053 A 
ATOM     26  F   UNL     1       2.171  -0.881  -0.181  1.00  0.00    -0.207 F 
ENDBRANCH  17  19
ENDBRANCH  12  17
BRANCH  15  27
ATOM     27  C   UNL     1      -5.324  -2.223  -2.016  1.00  0.00     0.227 C 
ATOM     28  O   UNL     1      -5.301  -2.118  -3.248  1.00  0.00    -0.275 OA
ATOM     29  N   UNL     1      -4.799  -3.347  -1.412  1.00  0.00    -0.338 N 
ATOM     30  C   UNL     1      -5.584  -4.265  -0.593  1.00  0.00     0.148 C 
ATOM     31  C   UNL     1      -3.681  -4.037  -2.053  1.00  0.00     0.148 C 
ATOM     32  C   UNL     1      -4.687  -4.936   0.456  1.00  0.00     0.181 C 
ATOM     33  C   UNL     1      -2.821  -4.722  -0.983  1.00  0.00     0.181 C 
ATOM     34  O   UNL     1      -3.603  -5.633  -0.189  1.00  0.00    -0.378 OA
ENDBRANCH  15  27
ENDBRANCH   9  11
ENDBRANCH   8   9
ENDBRANCH   7   8
ENDBRANCH   6   7
ENDBRANCH   5   6
ENDBRANCH   4   5
ENDBRANCH   3   4
ENDBRANCH   2   3
ENDBRANCH   1   2
BRANCH   1  35
ATOM     35  C   UNL     1     -11.742  -3.040   1.341  1.00  0.00     0.188 C 
BRANCH  35  36
ATOM     36  O   UNL     1     -11.270  -3.793   0.223  1.00  0.00    -0.376 OA
BRANCH  36  37
ATOM     37  C   UNL     1     -11.826  -3.435  -1.027  1.00  0.00     0.202 C 
BRANCH  37  38
ATOM     38  C   UNL     1     -11.203  -2.270  -1.806  1.00  0.00     0.261 C 
BRANCH  38  39
ATOM     39  O   UNL     1     -11.062  -0.962  -1.236  1.00  0.00    -0.460 OA
BRANCH  39  40
ATOM     40  C   UNL     1     -12.155  -0.446  -0.644  1.00  0.00     0.338 C 
ATOM     41  O   UNL     1     -13.081  -1.041  -0.136  1.00  0.00    -0.246 OA
BRANCH  40  42
ATOM     42  C   UNL     1     -12.212   1.017  -0.753  1.00  0.00     0.060 A 
ATOM     43  C   UNL     1     -13.243   1.576   0.024  1.00  0.00     0.016 A 
ATOM     44  C   UNL     1     -11.902   1.486  -2.027  1.00  0.00     0.016 A 
ATOM     45  C   UNL     1     -14.221   2.297  -0.626  1.00  0.00     0.010 A 
ATOM     46  C   UNL     1     -12.879   2.199  -2.672  1.00  0.00     0.010 A 
ATOM     47  C   UNL     1     -14.069   2.502  -1.995  1.00  0.00    -0.014 A 
BRANCH  47  48
ATOM     48  C   UNL     1     -15.099   3.120  -2.793  1.00  0.00     0.031 A 
ATOM     49  C   UNL     1     -15.315   4.564  -2.613  1.00  0.00     0.074 A 
ATOM     50  C   UNL     1     -15.795   2.407  -3.702  1.00  0.00     0.049 A 
ATOM     51  N   UNL     1     -16.447   5.150  -2.787  1.00  0.00    -0.248 NA
ATOM     52  C   UNL     1     -14.262   5.446  -2.109  1.00  0.00     0.031 C 
ATOM     53  C   UNL     1     -16.493   2.975  -4.845  1.00  0.00     0.029 A 
ATOM     54  N   UNL     1     -16.129   1.046  -3.723  1.00  0.00    -0.354 N 
ATOM     55  C   UNL     1     -16.206   6.501  -2.706  1.00  0.00     0.074 A 
ATOM     56  C   UNL     1     -14.873   6.633  -2.164  1.00  0.00     0.031 C 
ATOM     57  C   UNL     1     -17.337   2.057  -5.334  1.00  0.00     0.029 A 
ATOM     58  C   UNL     1     -17.349   0.933  -4.409  1.00  0.00     0.049 A 
ATOM     59  H   UNL     1     -15.607   0.309  -3.331  1.00  0.00     0.167 HD
ATOM     60  C   UNL     1     -17.071   7.379  -3.280  1.00  0.00     0.037 A 
ATOM     61  C   UNL     1     -18.488   0.329  -3.966  1.00  0.00     0.037 A 
ATOM     62  C   UNL     1     -18.138   6.680  -3.981  1.00  0.00     0.049 A 
ATOM     63  C   UNL     1     -19.685   1.236  -3.961  1.00  0.00     0.074 A 
ATOM     64  C   UNL     1     -18.204   6.220  -5.286  1.00  0.00     0.029 A 
ATOM     65  N   UNL     1     -19.160   6.054  -3.284  1.00  0.00    -0.354 N 
ATOM     66  N   UNL     1     -19.600   2.530  -4.028  1.00  0.00    -0.248 NA
ATOM     67  C   UNL     1     -21.052   0.765  -3.766  1.00  0.00     0.031 C 
ATOM     68  C   UNL     1     -19.268   5.300  -5.375  1.00  0.00     0.029 A 
ATOM     69  C   UNL     1     -19.855   5.203  -4.126  1.00  0.00     0.049 A 
ATOM     70  H   UNL     1     -19.362   6.194  -2.331  1.00  0.00     0.167 HD
ATOM     71  C   UNL     1     -20.832   3.072  -3.790  1.00  0.00     0.074 A 
ATOM     72  C   UNL     1     -21.718   1.929  -3.686  1.00  0.00     0.031 C 
ATOM     73  C   UNL     1     -20.985   4.420  -3.651  1.00  0.00     0.037 A 
BRANCH  60  74
ATOM     74  C   UNL     1     -16.698   8.816  -3.529  1.00  0.00     0.058 A 
ATOM     75  C   UNL     1     -17.013   9.437  -4.755  1.00  0.00     0.135 A 
ATOM     76  C   UNL     1     -15.988   9.614  -2.611  1.00  0.00     0.135 A 
ATOM     77  F   UNL     1     -17.734   8.815  -5.696  1.00  0.00    -0.206 F 
ATOM     78  C   UNL     1     -16.578  10.716  -5.086  1.00  0.00     0.059 A 
ATOM     79  C   UNL     1     -15.503  10.885  -2.936  1.00  0.00     0.059 A 
ATOM     80  F   UNL     1     -15.744   9.177  -1.365  1.00  0.00    -0.206 F 
ATOM     81  C   UNL     1     -15.800  11.425  -4.183  1.00  0.00     0.060 A 
BRANCH  81  82
ATOM     82  S   UNL     1     -15.187  13.044  -4.679  1.00  0.00     0.124 S 
ATOM     83  O   UNL     1     -14.552  12.753  -5.962  1.00  0.00    -0.237 OA
ATOM     84  O   UNL     1     -16.417  13.825  -4.743  1.00  0.00    -0.237 OA
ATOM     85  O   UNL     1     -14.268  13.403  -3.603  1.00  0.00    -0.744 OA
ENDBRANCH  81  82
ENDBRANCH  60  74
BRANCH  61  86
ATOM     86  C   UNL     1     -18.356  -0.742  -2.966  1.00  0.00     0.058 A 
ATOM     87  C   UNL     1     -18.009  -2.025  -3.400  1.00  0.00     0.135 A 
ATOM     88  C   UNL     1     -18.268  -0.433  -1.600  1.00  0.00     0.135 A 
ATOM     89  F   UNL     1     -18.089  -2.353  -4.699  1.00  0.00    -0.206 F 
ATOM     90  C   UNL     1     -17.441  -2.930  -2.528  1.00  0.00     0.059 A 
ATOM     91  C   UNL     1     -17.674  -1.311  -0.710  1.00  0.00     0.059 A 
ATOM     92  F   UNL     1     -18.599   0.789  -1.160  1.00  0.00    -0.206 F 
ATOM     93  C   UNL     1     -17.195  -2.518  -1.215  1.00  0.00     0.060 A 
BRANCH  93  94
ATOM     94  S   UNL     1     -15.736  -3.252  -0.468  1.00  0.00     0.124 S 
ATOM     95  O   UNL     1     -16.050  -4.677  -0.457  1.00  0.00    -0.237 OA
ATOM     96  O   UNL     1     -14.787  -2.828  -1.492  1.00  0.00    -0.237 OA
ATOM     97  O   UNL     1     -15.650  -2.615   0.840  1.00  0.00    -0.744 OA
ENDBRANCH  93  94
ENDBRANCH  61  86
BRANCH  73  98
ATOM     98  C   UNL     1     -22.227   5.117  -3.167  1.00  0.00     0.058 A 
ATOM     99  C   UNL     1     -23.171   4.538  -2.303  1.00  0.00     0.135 A 
ATOM    100  C   UNL     1     -22.446   6.477  -3.491  1.00  0.00     0.135 A 
ATOM    101  F   UNL     1     -23.006   3.303  -1.810  1.00  0.00    -0.206 F 
ATOM    102  C   UNL     1     -24.306   5.223  -1.873  1.00  0.00     0.059 A 
ATOM    103  C   UNL     1     -23.537   7.199  -3.021  1.00  0.00     0.059 A 
ATOM    104  F   UNL     1     -21.597   7.158  -4.275  1.00  0.00    -0.206 F 
ATOM    105  C   UNL     1     -24.485   6.552  -2.244  1.00  0.00     0.060 A 
BRANCH 105 106
ATOM    106  S   UNL     1     -25.935   7.451  -1.675  1.00  0.00     0.124 S 
ATOM    107  O   UNL     1     -26.891   7.160  -2.739  1.00  0.00    -0.237 OA
ATOM    108  O   UNL     1     -26.218   6.827  -0.386  1.00  0.00    -0.237 OA
ATOM    109  O   UNL     1     -25.465   8.831  -1.605  1.00  0.00    -0.744 OA
ENDBRANCH 105 106
ENDBRANCH  73  98
ENDBRANCH  47  48
ENDBRANCH  40  42
ENDBRANCH  39  40
ENDBRANCH  38  39
ENDBRANCH  37  38
ENDBRANCH  36  37
ENDBRANCH  35  36
ENDBRANCH   1  35
TORSDOF 26
