REMARK SMILES O=C(OCCOCCOCCOCCOC(=O)c1cccc2c1ccn2Cc1ccncc1)c1ccc(-c2c3nc(c(-c4c(F)cc(S(=O)(=O)[O-])cc4F)c4ccc([nH]4)c(-c4c(F)cc(S(=O)(=O)[O-])cc4F)c4nc(c(-c5c(F)cc(S(=O)(=O)[O-])cc5F)c5ccc2[nH]5)C=C4)C=C3)cc1
REMARK SMILES IDX 8 1 7 2 6 3 5 4 4 5 3 6 2 7 1 8 34 9 35 10 99 11 36 12 98 13
REMARK SMILES IDX 37 14 38 15 39 16 92 17 40 18 97 19 91 20 93 21 41 22 96 23
REMARK SMILES IDX 90 24 89 25 42 27 76 28 55 29 75 30 56 31 59 32 74 33 94 34
REMARK SMILES IDX 57 35 58 36 73 38 95 39 60 40 43 41 44 42 53 43 45 44 46 45
REMARK SMILES IDX 52 46 54 47 47 48 48 49 49 50 50 51 51 52 77 53 78 54 87 55
REMARK SMILES IDX 79 56 80 57 86 58 88 59 81 60 82 61 83 62 84 63 85 64 61 65
REMARK SMILES IDX 62 66 71 67 63 68 64 69 70 70 72 71 65 72 66 73 67 74 68 75
REMARK SMILES IDX 69 76 9 77 10 78 11 79 12 80 13 81 14 82 15 83 16 84 17 85
REMARK SMILES IDX 18 86 19 87 23 88 20 89 22 90 24 91 21 92 26 93 25 94 27 95
REMARK SMILES IDX 28 96 29 97 33 98 30 99 32 100 31 101
REMARK H PARENT 93 26 59 37
REMARK Flexibility Score: inf
ROOT
ATOM      1  C   UNL     1       0.815   1.391  -1.196  1.00  0.00     0.188 C 
ENDROOT
BRANCH   1   2
ATOM      2  C   UNL     1       1.580   0.083  -1.004  1.00  0.00     0.188 C 
BRANCH   2   3
ATOM      3  O   UNL     1       2.932   0.343  -0.680  1.00  0.00    -0.376 OA
BRANCH   3   4
ATOM      4  C   UNL     1       3.918  -0.340  -1.425  1.00  0.00     0.202 C 
BRANCH   4   5
ATOM      5  C   UNL     1       4.056  -1.807  -1.034  1.00  0.00     0.261 C 
BRANCH   5   6
ATOM      6  O   UNL     1       3.996  -2.221   0.360  1.00  0.00    -0.460 OA
BRANCH   6   7
ATOM      7  C   UNL     1       3.555  -1.454   1.389  1.00  0.00     0.338 C 
ATOM      8  O   UNL     1       2.648  -1.816   2.127  1.00  0.00    -0.246 OA
BRANCH   7   9
ATOM      9  C   UNL     1       4.334  -0.216   1.642  1.00  0.00     0.060 A 
ATOM     10  C   UNL     1       3.703   0.853   2.288  1.00  0.00     0.016 A 
ATOM     11  C   UNL     1       5.640  -0.076   1.158  1.00  0.00     0.016 A 
ATOM     12  C   UNL     1       4.351   2.083   2.370  1.00  0.00     0.010 A 
ATOM     13  C   UNL     1       6.256   1.172   1.175  1.00  0.00     0.010 A 
ATOM     14  C   UNL     1       5.614   2.257   1.782  1.00  0.00    -0.014 A 
BRANCH  14  15
ATOM     15  C   UNL     1       6.417   3.425   2.181  1.00  0.00     0.031 A 
ATOM     16  C   UNL     1       6.877   3.265   3.561  1.00  0.00     0.074 A 
ATOM     17  C   UNL     1       6.832   4.478   1.448  1.00  0.00     0.049 A 
ATOM     18  N   UNL     1       6.394   3.890   4.580  1.00  0.00    -0.248 NA
ATOM     19  C   UNL     1       7.791   2.160   3.888  1.00  0.00     0.031 C 
ATOM     20  C   UNL     1       6.495   4.675   0.068  1.00  0.00     0.029 A 
ATOM     21  N   UNL     1       7.636   5.563   1.696  1.00  0.00    -0.354 N 
ATOM     22  C   UNL     1       7.222   3.511   5.613  1.00  0.00     0.074 A 
ATOM     23  C   UNL     1       7.857   2.278   5.215  1.00  0.00     0.031 C 
ATOM     24  C   UNL     1       7.255   5.621  -0.506  1.00  0.00     0.029 A 
ATOM     25  C   UNL     1       8.037   6.239   0.534  1.00  0.00     0.049 A 
ATOM     26  H   UNL     1       7.905   5.840   2.601  1.00  0.00     0.167 HD
ATOM     27  C   UNL     1       7.671   4.464   6.466  1.00  0.00     0.037 A 
ATOM     28  C   UNL     1       8.819   7.331   0.347  1.00  0.00     0.037 A 
ATOM     29  C   UNL     1       6.857   5.652   6.444  1.00  0.00     0.049 A 
ATOM     30  C   UNL     1       8.768   8.098   1.607  1.00  0.00     0.074 A 
ATOM     31  C   UNL     1       5.524   5.920   6.679  1.00  0.00     0.029 A 
ATOM     32  N   UNL     1       7.366   6.712   5.736  1.00  0.00    -0.354 N 
ATOM     33  N   UNL     1       7.704   8.729   2.030  1.00  0.00    -0.248 NA
ATOM     34  C   UNL     1       9.772   7.822   2.624  1.00  0.00     0.031 C 
ATOM     35  C   UNL     1       5.203   7.059   5.890  1.00  0.00     0.029 A 
ATOM     36  C   UNL     1       6.353   7.486   5.226  1.00  0.00     0.049 A 
ATOM     37  H   UNL     1       8.325   6.893   5.611  1.00  0.00     0.167 HD
ATOM     38  C   UNL     1       7.697   8.507   3.396  1.00  0.00     0.074 A 
ATOM     39  C   UNL     1       9.058   8.094   3.719  1.00  0.00     0.031 C 
ATOM     40  C   UNL     1       6.525   8.365   4.081  1.00  0.00     0.037 A 
BRANCH  27  41
ATOM     41  C   UNL     1       9.104   4.470   6.895  1.00  0.00     0.058 A 
ATOM     42  C   UNL     1       9.471   5.074   8.100  1.00  0.00     0.135 A 
ATOM     43  C   UNL     1      10.160   4.088   6.031  1.00  0.00     0.135 A 
ATOM     44  F   UNL     1       8.532   5.549   8.933  1.00  0.00    -0.206 F 
ATOM     45  C   UNL     1      10.809   5.253   8.447  1.00  0.00     0.059 A 
ATOM     46  C   UNL     1      11.493   4.187   6.385  1.00  0.00     0.059 A 
ATOM     47  F   UNL     1       9.934   3.688   4.772  1.00  0.00    -0.206 F 
ATOM     48  C   UNL     1      11.809   4.791   7.588  1.00  0.00     0.060 A 
BRANCH  48  49
ATOM     49  S   UNL     1      13.535   5.028   8.031  1.00  0.00     0.124 S 
ATOM     50  O   UNL     1      13.686   6.465   7.840  1.00  0.00    -0.237 OA
ATOM     51  O   UNL     1      13.559   4.557   9.412  1.00  0.00    -0.237 OA
ATOM     52  O   UNL     1      14.244   4.182   7.076  1.00  0.00    -0.744 OA
ENDBRANCH  48  49
ENDBRANCH  27  41
BRANCH  28  53
ATOM     53  C   UNL     1       9.707   7.640  -0.817  1.00  0.00     0.058 A 
ATOM     54  C   UNL     1      10.350   8.884  -0.951  1.00  0.00     0.135 A 
ATOM     55  C   UNL     1      10.158   6.626  -1.695  1.00  0.00     0.135 A 
ATOM     56  F   UNL     1      10.000   9.915  -0.167  1.00  0.00    -0.206 F 
ATOM     57  C   UNL     1      11.417   9.088  -1.840  1.00  0.00     0.059 A 
ATOM     58  C   UNL     1      11.215   6.809  -2.590  1.00  0.00     0.059 A 
ATOM     59  F   UNL     1       9.646   5.387  -1.650  1.00  0.00    -0.206 F 
ATOM     60  C   UNL     1      11.864   8.034  -2.636  1.00  0.00     0.060 A 
BRANCH  60  61
ATOM     61  S   UNL     1      13.371   8.239  -3.617  1.00  0.00     0.124 S 
ATOM     62  O   UNL     1      12.948   9.198  -4.632  1.00  0.00    -0.237 OA
ATOM     63  O   UNL     1      14.319   8.735  -2.626  1.00  0.00    -0.237 OA
ATOM     64  O   UNL     1      13.647   6.897  -4.121  1.00  0.00    -0.744 OA
ENDBRANCH  60  61
ENDBRANCH  28  53
BRANCH  40  65
ATOM     65  C   UNL     1       5.283   9.017   3.528  1.00  0.00     0.058 A 
ATOM     66  C   UNL     1       4.633   8.640   2.343  1.00  0.00     0.135 A 
ATOM     67  C   UNL     1       4.641   9.976   4.331  1.00  0.00     0.135 A 
ATOM     68  F   UNL     1       5.126   7.656   1.580  1.00  0.00    -0.206 F 
ATOM     69  C   UNL     1       3.416   9.214   1.960  1.00  0.00     0.059 A 
ATOM     70  C   UNL     1       3.406  10.525   3.995  1.00  0.00     0.059 A 
ATOM     71  F   UNL     1       5.185  10.342   5.504  1.00  0.00    -0.206 F 
ATOM     72  C   UNL     1       2.800  10.143   2.802  1.00  0.00     0.060 A 
BRANCH  72  73
ATOM     73  S   UNL     1       1.162  10.779   2.375  1.00  0.00     0.124 S 
ATOM     74  O   UNL     1       1.425  11.532   1.153  1.00  0.00    -0.237 OA
ATOM     75  O   UNL     1       0.386   9.553   2.208  1.00  0.00    -0.237 OA
ATOM     76  O   UNL     1       0.793  11.587   3.535  1.00  0.00    -0.744 OA
ENDBRANCH  72  73
ENDBRANCH  40  65
ENDBRANCH  14  15
ENDBRANCH   7   9
ENDBRANCH   6   7
ENDBRANCH   5   6
ENDBRANCH   4   5
ENDBRANCH   3   4
ENDBRANCH   2   3
ENDBRANCH   1   2
BRANCH   1  77
ATOM     77  O   UNL     1       1.285   2.188  -2.274  1.00  0.00    -0.377 OA
BRANCH  77  78
ATOM     78  C   UNL     1       2.594   2.731  -2.165  1.00  0.00     0.188 C 
BRANCH  78  79
ATOM     79  C   UNL     1       3.166   3.137  -0.795  1.00  0.00     0.188 C 
BRANCH  79  80
ATOM     80  O   UNL     1       2.241   3.552   0.194  1.00  0.00    -0.376 OA
BRANCH  80  81
ATOM     81  C   UNL     1       2.494   4.883   0.659  1.00  0.00     0.202 C 
BRANCH  81  82
ATOM     82  C   UNL     1       2.001   5.907  -0.370  1.00  0.00     0.261 C 
BRANCH  82  83
ATOM     83  O   UNL     1       2.604   5.743  -1.686  1.00  0.00    -0.460 OA
BRANCH  83  84
ATOM     84  C   UNL     1       3.856   6.220  -1.853  1.00  0.00     0.338 C 
ATOM     85  O   UNL     1       4.470   6.912  -1.046  1.00  0.00    -0.246 OA
BRANCH  84  86
ATOM     86  C   UNL     1       4.400   5.882  -3.189  1.00  0.00     0.069 A 
ATOM     87  C   UNL     1       4.036   6.761  -4.215  1.00  0.00     0.016 A 
ATOM     88  C   UNL     1       5.362   4.853  -3.453  1.00  0.00     0.014 A 
ATOM     89  C   UNL     1       4.644   6.677  -5.461  1.00  0.00     0.003 A 
ATOM     90  C   UNL     1       6.037   4.861  -4.691  1.00  0.00     0.049 A 
ATOM     91  C   UNL     1       5.854   3.687  -2.801  1.00  0.00     0.029 A 
ATOM     92  C   UNL     1       5.674   5.762  -5.705  1.00  0.00     0.027 A 
ATOM     93  N   UNL     1       7.032   3.887  -4.648  1.00  0.00    -0.343 N 
ATOM     94  C   UNL     1       6.876   3.136  -3.522  1.00  0.00     0.087 A 
BRANCH  93  95
ATOM     95  C   UNL     1       7.962   3.521  -5.714  1.00  0.00     0.157 C 
BRANCH  95  96
ATOM     96  C   UNL     1       9.427   3.645  -5.364  1.00  0.00    -0.025 A 
ATOM     97  C   UNL     1      10.065   2.750  -4.492  1.00  0.00     0.025 A 
ATOM     98  C   UNL     1      10.219   4.624  -5.976  1.00  0.00     0.025 A 
ATOM     99  C   UNL     1      11.434   2.847  -4.301  1.00  0.00     0.111 A 
ATOM    100  C   UNL     1      11.586   4.633  -5.734  1.00  0.00     0.111 A 
ATOM    101  N   UNL     1      12.209   3.737  -4.939  1.00  0.00    -0.265 NA
ENDBRANCH  95  96
ENDBRANCH  93  95
ENDBRANCH  84  86
ENDBRANCH  83  84
ENDBRANCH  82  83
ENDBRANCH  81  82
ENDBRANCH  80  81
ENDBRANCH  79  80
ENDBRANCH  78  79
ENDBRANCH  77  78
ENDBRANCH   1  77
TORSDOF 25
