REMARK SMILES C[C@@H](C(=O)OCCOCCOCCOCCOC(=O)c1ccc(-c2c3nc(c(-c4c(F)cc(S(=O)(=O)[O-])cc4F)c4ccc([nH]4)c(-c4c(F)cc(S(=O)(=O)[O-])cc4F)c4nc(c(-c5c(F)cc(S(=O)(=O)[O-])cc5F)c5ccc2[nH]5)C=C4)C=C3)cc1)c1ccc(C[C@H]2CCC[C@@H]2O)cc1F
REMARK SMILES IDX 10 1 9 2 8 3 7 4 6 5 5 6 3 7 4 8 2 9 1 10 86 11 87 12 98 13
REMARK SMILES IDX 88 14 97 15 99 16 89 17 90 18 91 19 92 20 95 21 93 22 94 23
REMARK SMILES IDX 96 24 11 26 12 27 13 28 14 29 15 30 16 31 17 32 18 33 19 34
REMARK SMILES IDX 20 35 21 36 85 37 22 38 84 39 23 40 24 41 25 42 78 43 26 44
REMARK SMILES IDX 83 45 77 46 79 47 27 48 82 49 76 50 75 51 28 53 62 54 41 55
REMARK SMILES IDX 61 56 42 57 45 58 60 59 80 60 43 61 44 62 59 64 81 65 46 66
REMARK SMILES IDX 29 67 30 68 39 69 31 70 32 71 38 72 40 73 33 74 34 75 35 76
REMARK SMILES IDX 36 77 37 78 63 79 64 80 73 81 65 82 66 83 72 84 74 85 67 86
REMARK SMILES IDX 68 87 69 88 70 89 71 90 47 91 48 92 57 93 49 94 50 95 56 96
REMARK SMILES IDX 58 97 51 98 52 99 53 100 54 101 55 102
REMARK H PARENT 96 25 79 52 45 63
REMARK Flexibility Score: inf
ROOT
ATOM      1  C   UNL     1       1.314  -2.599  -1.423  1.00  0.00     0.188 C 
ENDROOT
BRANCH   1   2
ATOM      2  C   UNL     1       0.411  -2.715  -2.668  1.00  0.00     0.188 C 
BRANCH   2   3
ATOM      3  O   UNL     1       0.976  -2.998  -3.941  1.00  0.00    -0.376 OA
BRANCH   3   4
ATOM      4  C   UNL     1       2.229  -2.434  -4.299  1.00  0.00     0.202 C 
BRANCH   4   5
ATOM      5  C   UNL     1       2.521  -0.932  -4.098  1.00  0.00     0.261 C 
BRANCH   5   6
ATOM      6  O   UNL     1       2.071  -0.326  -2.870  1.00  0.00    -0.463 OA
BRANCH   6   7
ATOM      7  C   UNL     1       0.987   0.483  -2.956  1.00  0.00     0.313 C 
ATOM      8  O   UNL     1       0.415   0.743  -4.013  1.00  0.00    -0.252 OA
BRANCH   7   9
ATOM      9  C   UNL     1       0.513   1.071  -1.611  1.00  0.00     0.129 C 
ATOM     10  C   UNL     1       1.293   0.764  -0.326  1.00  0.00     0.025 C 
BRANCH   9  11
ATOM     11  C   UNL     1      -0.997   0.893  -1.474  1.00  0.00     0.002 A 
ATOM     12  C   UNL     1      -1.838   1.903  -1.961  1.00  0.00     0.008 A 
ATOM     13  C   UNL     1      -1.605  -0.274  -0.995  1.00  0.00     0.127 A 
ATOM     14  C   UNL     1      -3.226   1.755  -1.935  1.00  0.00     0.004 A 
ATOM     15  C   UNL     1      -2.985  -0.442  -0.995  1.00  0.00     0.043 A 
ATOM     16  F   UNL     1      -0.882  -1.280  -0.493  1.00  0.00    -0.207 F 
ATOM     17  C   UNL     1      -3.813   0.595  -1.417  1.00  0.00    -0.045 A 
BRANCH  17  18
ATOM     18  C   UNL     1      -5.304   0.507  -1.211  1.00  0.00     0.041 C 
BRANCH  18  19
ATOM     19  C   UNL     1      -5.772   1.049   0.152  1.00  0.00     0.022 C 
ATOM     20  C   UNL     1      -5.258   0.302   1.398  1.00  0.00     0.007 C 
ATOM     21  C   UNL     1      -5.411   2.514   0.416  1.00  0.00     0.117 C 
ATOM     22  C   UNL     1      -4.978   1.377   2.453  1.00  0.00     0.003 C 
ATOM     23  C   UNL     1      -5.612   2.650   1.916  1.00  0.00     0.032 C 
BRANCH  21  24
ATOM     24  O   UNL     1      -6.252   3.385  -0.316  1.00  0.00    -0.393 OA
ATOM     25  H   UNL     1      -7.178   3.208  -0.088  1.00  0.00     0.210 HD
ENDBRANCH  21  24
ENDBRANCH  18  19
ENDBRANCH  17  18
ENDBRANCH   9  11
ENDBRANCH   7   9
ENDBRANCH   6   7
ENDBRANCH   5   6
ENDBRANCH   4   5
ENDBRANCH   3   4
ENDBRANCH   2   3
ENDBRANCH   1   2
BRANCH   1  26
ATOM     26  O   UNL     1       2.686  -2.821  -1.663  1.00  0.00    -0.377 OA
BRANCH  26  27
ATOM     27  C   UNL     1       3.160  -4.130  -1.409  1.00  0.00     0.188 C 
BRANCH  27  28
ATOM     28  C   UNL     1       2.234  -5.308  -1.767  1.00  0.00     0.188 C 
BRANCH  28  29
ATOM     29  O   UNL     1       0.929  -5.218  -1.204  1.00  0.00    -0.376 OA
BRANCH  29  30
ATOM     30  C   UNL     1       0.646  -5.928  -0.007  1.00  0.00     0.202 C 
BRANCH  30  31
ATOM     31  C   UNL     1       1.291  -5.417   1.292  1.00  0.00     0.261 C 
BRANCH  31  32
ATOM     32  O   UNL     1       2.724  -5.367   1.323  1.00  0.00    -0.460 OA
BRANCH  32  33
ATOM     33  C   UNL     1       3.405  -6.508   1.081  1.00  0.00     0.338 C 
ATOM     34  O   UNL     1       2.933  -7.619   0.906  1.00  0.00    -0.246 OA
BRANCH  33  35
ATOM     35  C   UNL     1       4.819  -6.143   0.849  1.00  0.00     0.060 A 
ATOM     36  C   UNL     1       5.407  -6.468  -0.381  1.00  0.00     0.016 A 
ATOM     37  C   UNL     1       5.547  -5.449   1.818  1.00  0.00     0.016 A 
ATOM     38  C   UNL     1       6.735  -6.127  -0.634  1.00  0.00     0.010 A 
ATOM     39  C   UNL     1       6.887  -5.135   1.576  1.00  0.00     0.010 A 
ATOM     40  C   UNL     1       7.496  -5.502   0.362  1.00  0.00    -0.014 A 
BRANCH  40  41
ATOM     41  C   UNL     1       8.971  -5.442   0.225  1.00  0.00     0.031 A 
ATOM     42  C   UNL     1       9.782  -6.521   0.889  1.00  0.00     0.074 A 
ATOM     43  C   UNL     1       9.577  -4.475  -0.487  1.00  0.00     0.049 A 
ATOM     44  N   UNL     1      11.079  -6.665   0.958  1.00  0.00    -0.248 NA
ATOM     45  C   UNL     1       9.022  -7.582   1.573  1.00  0.00     0.031 C 
ATOM     46  C   UNL     1       8.896  -3.406  -1.216  1.00  0.00     0.029 A 
ATOM     47  N   UNL     1      10.911  -4.234  -0.705  1.00  0.00    -0.354 N 
ATOM     48  C   UNL     1      11.291  -7.821   1.700  1.00  0.00     0.074 A 
ATOM     49  C   UNL     1       9.992  -8.326   2.082  1.00  0.00     0.031 C 
ATOM     50  C   UNL     1       9.820  -2.616  -1.792  1.00  0.00     0.029 A 
ATOM     51  C   UNL     1      11.155  -3.101  -1.443  1.00  0.00     0.049 A 
ATOM     52  H   UNL     1      11.626  -4.819  -0.364  1.00  0.00     0.167 HD
ATOM     53  C   UNL     1      12.464  -8.412   2.027  1.00  0.00     0.037 A 
ATOM     54  C   UNL     1      12.323  -2.514  -1.777  1.00  0.00     0.037 A 
ATOM     55  C   UNL     1      13.753  -7.901   1.643  1.00  0.00     0.049 A 
ATOM     56  C   UNL     1      13.619  -3.149  -1.335  1.00  0.00     0.074 A 
ATOM     57  C   UNL     1      15.002  -8.435   1.907  1.00  0.00     0.029 A 
ATOM     58  N   UNL     1      13.960  -6.732   0.925  1.00  0.00    -0.354 N 
ATOM     59  N   UNL     1      13.809  -4.256  -0.655  1.00  0.00    -0.248 NA
ATOM     60  C   UNL     1      14.862  -2.456  -1.706  1.00  0.00     0.031 C 
ATOM     61  C   UNL     1      15.966  -7.556   1.403  1.00  0.00     0.029 A 
ATOM     62  C   UNL     1      15.318  -6.511   0.764  1.00  0.00     0.049 A 
ATOM     63  H   UNL     1      13.248  -6.147   0.581  1.00  0.00     0.167 HD
ATOM     64  C   UNL     1      15.188  -4.409  -0.548  1.00  0.00     0.074 A 
ATOM     65  C   UNL     1      15.785  -3.286  -1.241  1.00  0.00     0.031 C 
ATOM     66  C   UNL     1      15.898  -5.392   0.062  1.00  0.00     0.037 A 
BRANCH  53  67
ATOM     67  C   UNL     1      12.407  -9.654   2.874  1.00  0.00     0.058 A 
ATOM     68  C   UNL     1      11.922 -10.874   2.376  1.00  0.00     0.135 A 
ATOM     69  C   UNL     1      12.873  -9.628   4.199  1.00  0.00     0.135 A 
ATOM     70  F   UNL     1      11.442 -10.951   1.124  1.00  0.00    -0.206 F 
ATOM     71  C   UNL     1      11.877 -12.017   3.168  1.00  0.00     0.059 A 
ATOM     72  C   UNL     1      12.867 -10.765   4.999  1.00  0.00     0.059 A 
ATOM     73  F   UNL     1      13.341  -8.486   4.728  1.00  0.00    -0.206 F 
ATOM     74  C   UNL     1      12.355 -11.953   4.479  1.00  0.00     0.060 A 
BRANCH  74  75
ATOM     75  S   UNL     1      12.300 -13.447   5.490  1.00  0.00     0.124 S 
ATOM     76  O   UNL     1      10.867 -13.585   5.728  1.00  0.00    -0.237 OA
ATOM     77  O   UNL     1      12.894 -14.443   4.604  1.00  0.00    -0.237 OA
ATOM     78  O   UNL     1      13.099 -13.096   6.660  1.00  0.00    -0.744 OA
ENDBRANCH  74  75
ENDBRANCH  53  67
BRANCH  54  79
ATOM     79  C   UNL     1      12.328  -1.249  -2.562  1.00  0.00     0.058 A 
ATOM     80  C   UNL     1      12.825  -1.209  -3.874  1.00  0.00     0.135 A 
ATOM     81  C   UNL     1      11.847  -0.049  -2.013  1.00  0.00     0.135 A 
ATOM     82  F   UNL     1      13.311  -2.325  -4.440  1.00  0.00    -0.206 F 
ATOM     83  C   UNL     1      12.859  -0.027  -4.607  1.00  0.00     0.059 A 
ATOM     84  C   UNL     1      11.843   1.139  -2.736  1.00  0.00     0.059 A 
ATOM     85  F   UNL     1      11.356  -0.030  -0.764  1.00  0.00    -0.206 F 
ATOM     86  C   UNL     1      12.361   1.142  -4.030  1.00  0.00     0.060 A 
BRANCH  86  87
ATOM     87  S   UNL     1      12.364   2.660  -5.010  1.00  0.00     0.124 S 
ATOM     88  O   UNL     1      13.787   2.976  -5.059  1.00  0.00    -0.237 OA
ATOM     89  O   UNL     1      11.765   2.214  -6.264  1.00  0.00    -0.237 OA
ATOM     90  O   UNL     1      11.541   3.571  -4.220  1.00  0.00    -0.744 OA
ENDBRANCH  86  87
ENDBRANCH  54  79
BRANCH  66  91
ATOM     91  C   UNL     1      17.400  -5.330  -0.026  1.00  0.00     0.058 A 
ATOM     92  C   UNL     1      18.148  -4.372   0.676  1.00  0.00     0.135 A 
ATOM     93  C   UNL     1      18.104  -6.287  -0.776  1.00  0.00     0.135 A 
ATOM     94  F   UNL     1      17.527  -3.431   1.405  1.00  0.00    -0.206 F 
ATOM     95  C   UNL     1      19.538  -4.349   0.616  1.00  0.00     0.059 A 
ATOM     96  C   UNL     1      19.494  -6.303  -0.824  1.00  0.00     0.059 A 
ATOM     97  F   UNL     1      17.440  -7.236  -1.457  1.00  0.00    -0.206 F 
ATOM     98  C   UNL     1      20.203  -5.321  -0.134  1.00  0.00     0.060 A 
BRANCH  98  99
ATOM     99  S   UNL     1      22.008  -5.300  -0.174  1.00  0.00     0.124 S 
ATOM    100  O   UNL     1      22.270  -4.129  -1.004  1.00  0.00    -0.237 OA
ATOM    101  O   UNL     1      22.349  -5.165   1.238  1.00  0.00    -0.237 OA
ATOM    102  O   UNL     1      22.351  -6.585  -0.776  1.00  0.00    -0.744 OA
ENDBRANCH  98  99
ENDBRANCH  66  91
ENDBRANCH  40  41
ENDBRANCH  33  35
ENDBRANCH  32  33
ENDBRANCH  31  32
ENDBRANCH  30  31
ENDBRANCH  29  30
ENDBRANCH  28  29
ENDBRANCH  27  28
ENDBRANCH  26  27
ENDBRANCH   1  26
TORSDOF 27
