REMARK SMILES Cc1ccc(Nc2c(C)cccc2Cl)c(CC(=O)OCCOCCOCCOCCOC(=O)c2ccc(-c3c4nc(c(-c5c(F)cc(S(=O)(=O)[O-])cc5F)c5ccc([nH]5)c(-c5c(F)cc(S(=O)(=O)[O-])cc5F)c5nc(c(-c6c(F)cc(S(=O)(=O)[O-])cc6F)c6ccc3[nH]6)C=C5)C=C4)cc2)c1
REMARK SMILES IDX 25 1 24 2 23 3 22 4 21 5 20 6 19 7 17 8 18 9 16 10 15 11
REMARK SMILES IDX 1 12 2 13 3 14 100 15 4 16 5 17 6 18 7 20 8 21 13 22 9 23
REMARK SMILES IDX 10 24 12 25 14 26 11 27 26 28 27 29 28 30 29 31 30 32 31 33
REMARK SMILES IDX 32 34 33 35 34 36 35 37 99 38 36 39 98 40 37 41 38 42 39 43
REMARK SMILES IDX 92 44 40 45 97 46 91 47 93 48 41 49 96 50 90 51 89 52 42 54
REMARK SMILES IDX 76 55 55 56 75 57 56 58 59 59 74 60 94 61 57 62 58 63 73 65
REMARK SMILES IDX 95 66 60 67 43 68 44 69 53 70 45 71 46 72 52 73 54 74 47 75
REMARK SMILES IDX 48 76 49 77 50 78 51 79 77 80 78 81 87 82 79 83 80 84 86 85
REMARK SMILES IDX 88 86 81 87 82 88 83 89 84 90 85 91 61 92 62 93 71 94 63 95
REMARK SMILES IDX 64 96 70 97 72 98 65 99 66 100 67 101 68 102 69 103
REMARK H PARENT 6 19 93 53 59 64
REMARK Flexibility Score: inf
ROOT
ATOM      1  O   UNL     1      -2.026   0.145  -1.720  1.00  0.00    -0.377 OA
ENDROOT
BRANCH   1   2
ATOM      2  C   UNL     1      -3.424   0.185  -1.399  1.00  0.00     0.188 C 
BRANCH   2   3
ATOM      3  C   UNL     1      -3.717   1.158  -0.296  1.00  0.00     0.188 C 
BRANCH   3   4
ATOM      4  O   UNL     1      -4.734   2.119  -0.349  1.00  0.00    -0.376 OA
BRANCH   4   5
ATOM      5  C   UNL     1      -4.361   3.377  -0.846  1.00  0.00     0.202 C 
BRANCH   5   6
ATOM      6  C   UNL     1      -3.144   4.168  -0.302  1.00  0.00     0.261 C 
BRANCH   6   7
ATOM      7  O   UNL     1      -2.131   3.434   0.397  1.00  0.00    -0.463 OA
BRANCH   7   8
ATOM      8  C   UNL     1      -2.419   3.237   1.710  1.00  0.00     0.310 C 
ATOM      9  O   UNL     1      -3.312   3.817   2.319  1.00  0.00    -0.252 OA
BRANCH   8  10
ATOM     10  C   UNL     1      -1.489   2.276   2.408  1.00  0.00     0.160 C 
BRANCH  10  11
ATOM     11  C   UNL     1      -1.071   0.987   1.719  1.00  0.00    -0.013 A 
ATOM     12  C   UNL     1       2.167  -0.033  -0.105  1.00  0.00     0.044 C 
ATOM     13  C   UNL     1       0.781  -0.081   0.469  1.00  0.00    -0.051 A 
ATOM     14  C   UNL     1       0.051  -1.262   0.453  1.00  0.00     0.005 A 
ATOM     15  C   UNL     1       0.202   1.036   1.075  1.00  0.00     0.009 A 
ATOM     16  C   UNL     1      -1.234  -1.313   1.015  1.00  0.00     0.026 A 
ATOM     17  C   UNL     1      -1.835  -0.219   1.681  1.00  0.00     0.042 A 
BRANCH  17  18
ATOM     18  N   UNL     1      -3.159  -0.352   2.261  1.00  0.00    -0.354 N 
ATOM     19  H   UNL     1      -3.469   0.406   2.807  1.00  0.00     0.167 HD
BRANCH  18  20
ATOM     20  C   UNL     1      -4.082  -1.461   2.135  1.00  0.00     0.060 A 
ATOM     21  C   UNL     1      -3.659  -2.763   2.455  1.00  0.00    -0.026 A 
ATOM     22  C   UNL     1      -5.368  -1.360   1.534  1.00  0.00     0.064 A 
ATOM     23  C   UNL     1      -2.558  -2.976   3.454  1.00  0.00     0.046 C 
ATOM     24  C   UNL     1      -4.346  -3.890   1.957  1.00  0.00     0.005 A 
ATOM     25  C   UNL     1      -6.026  -2.484   1.000  1.00  0.00     0.023 A 
ATOM     26  Cl  UNL     1      -6.314   0.093   1.566  1.00  0.00    -0.082 Cl
ATOM     27  C   UNL     1      -5.489  -3.751   1.178  1.00  0.00     0.002 A 
ENDBRANCH  18  20
ENDBRANCH  17  18
ENDBRANCH  10  11
ENDBRANCH   8  10
ENDBRANCH   7   8
ENDBRANCH   6   7
ENDBRANCH   5   6
ENDBRANCH   4   5
ENDBRANCH   3   4
ENDBRANCH   2   3
ENDBRANCH   1   2
BRANCH   1  28
ATOM     28  C   UNL     1      -1.781  -0.401  -3.021  1.00  0.00     0.188 C 
BRANCH  28  29
ATOM     29  C   UNL     1      -2.044  -1.890  -3.189  1.00  0.00     0.188 C 
BRANCH  29  30
ATOM     30  O   UNL     1      -3.342  -2.163  -2.700  1.00  0.00    -0.376 OA
BRANCH  30  31
ATOM     31  C   UNL     1      -3.484  -3.321  -1.909  1.00  0.00     0.202 C 
BRANCH  31  32
ATOM     32  C   UNL     1      -4.204  -4.378  -2.734  1.00  0.00     0.261 C 
BRANCH  32  33
ATOM     33  O   UNL     1      -5.444  -3.817  -3.230  1.00  0.00    -0.460 OA
BRANCH  33  34
ATOM     34  C   UNL     1      -5.436  -3.496  -4.556  1.00  0.00     0.338 C 
ATOM     35  O   UNL     1      -5.432  -4.329  -5.454  1.00  0.00    -0.246 OA
BRANCH  34  36
ATOM     36  C   UNL     1      -5.458  -2.017  -4.764  1.00  0.00     0.060 A 
ATOM     37  C   UNL     1      -4.892  -1.435  -5.910  1.00  0.00     0.016 A 
ATOM     38  C   UNL     1      -5.921  -1.185  -3.753  1.00  0.00     0.016 A 
ATOM     39  C   UNL     1      -4.637  -0.046  -5.975  1.00  0.00     0.010 A 
ATOM     40  C   UNL     1      -5.688   0.183  -3.834  1.00  0.00     0.010 A 
ATOM     41  C   UNL     1      -4.970   0.774  -4.899  1.00  0.00    -0.014 A 
BRANCH  41  42
ATOM     42  C   UNL     1      -4.485   2.170  -4.653  1.00  0.00     0.031 A 
ATOM     43  C   UNL     1      -5.478   3.189  -4.121  1.00  0.00     0.074 A 
ATOM     44  C   UNL     1      -3.141   2.356  -4.508  1.00  0.00     0.049 A 
ATOM     45  N   UNL     1      -5.210   4.382  -3.692  1.00  0.00    -0.248 NA
ATOM     46  C   UNL     1      -6.926   2.930  -4.084  1.00  0.00     0.031 C 
ATOM     47  C   UNL     1      -2.404   2.944  -3.387  1.00  0.00     0.029 A 
ATOM     48  N   UNL     1      -2.087   1.906  -5.282  1.00  0.00    -0.354 N 
ATOM     49  C   UNL     1      -6.333   4.869  -3.012  1.00  0.00     0.074 A 
ATOM     50  C   UNL     1      -7.397   3.977  -3.396  1.00  0.00     0.031 C 
ATOM     51  C   UNL     1      -1.092   3.027  -3.621  1.00  0.00     0.029 A 
ATOM     52  C   UNL     1      -0.896   2.584  -4.959  1.00  0.00     0.049 A 
ATOM     53  H   UNL     1      -2.159   1.204  -5.969  1.00  0.00     0.167 HD
ATOM     54  C   UNL     1      -6.213   5.866  -2.072  1.00  0.00     0.037 A 
ATOM     55  C   UNL     1      -0.250   3.336  -5.885  1.00  0.00     0.037 A 
ATOM     56  C   UNL     1      -4.861   6.483  -2.065  1.00  0.00     0.049 A 
ATOM     57  C   UNL     1      -0.581   4.826  -5.758  1.00  0.00     0.074 A 
ATOM     58  C   UNL     1      -4.017   7.037  -1.113  1.00  0.00     0.029 A 
ATOM     59  N   UNL     1      -4.127   6.534  -3.246  1.00  0.00    -0.354 N 
ATOM     60  N   UNL     1      -1.271   5.381  -4.782  1.00  0.00    -0.248 NA
ATOM     61  C   UNL     1      -0.165   5.814  -6.750  1.00  0.00     0.031 C 
ATOM     62  C   UNL     1      -2.782   7.391  -1.738  1.00  0.00     0.029 A 
ATOM     63  C   UNL     1      -2.896   7.118  -3.087  1.00  0.00     0.049 A 
ATOM     64  H   UNL     1      -4.457   6.188  -4.107  1.00  0.00     0.167 HD
ATOM     65  C   UNL     1      -1.466   6.719  -5.042  1.00  0.00     0.074 A 
ATOM     66  C   UNL     1      -0.747   6.934  -6.288  1.00  0.00     0.031 C 
ATOM     67  C   UNL     1      -2.210   7.581  -4.277  1.00  0.00     0.037 A 
BRANCH  54  68
ATOM     68  C   UNL     1      -7.245   6.189  -0.949  1.00  0.00     0.058 A 
ATOM     69  C   UNL     1      -7.118   7.375  -0.182  1.00  0.00     0.135 A 
ATOM     70  C   UNL     1      -8.260   5.324  -0.468  1.00  0.00     0.135 A 
ATOM     71  F   UNL     1      -6.273   8.348  -0.552  1.00  0.00    -0.206 F 
ATOM     72  C   UNL     1      -7.843   7.636   0.993  1.00  0.00     0.059 A 
ATOM     73  C   UNL     1      -9.057   5.603   0.665  1.00  0.00     0.059 A 
ATOM     74  F   UNL     1      -8.513   4.144  -1.046  1.00  0.00    -0.206 F 
ATOM     75  C   UNL     1      -8.816   6.745   1.415  1.00  0.00     0.060 A 
BRANCH  75  76
ATOM     76  S   UNL     1      -9.789   7.133   2.893  1.00  0.00     0.124 S 
ATOM     77  O   UNL     1      -8.859   6.816   3.972  1.00  0.00    -0.237 OA
ATOM     78  O   UNL     1     -10.085   8.552   2.715  1.00  0.00    -0.237 OA
ATOM     79  O   UNL     1     -10.945   6.247   2.783  1.00  0.00    -0.744 OA
ENDBRANCH  75  76
ENDBRANCH  54  68
BRANCH  55  80
ATOM     80  C   UNL     1       0.076   2.428  -7.040  1.00  0.00     0.058 A 
ATOM     81  C   UNL     1       1.024   1.424  -6.699  1.00  0.00     0.135 A 
ATOM     82  C   UNL     1      -0.962   2.046  -7.909  1.00  0.00     0.135 A 
ATOM     83  F   UNL     1       2.051   1.727  -5.886  1.00  0.00    -0.206 F 
ATOM     84  C   UNL     1       0.781   0.072  -6.944  1.00  0.00     0.059 A 
ATOM     85  C   UNL     1      -1.220   0.689  -8.165  1.00  0.00     0.059 A 
ATOM     86  F   UNL     1      -1.894   2.943  -8.265  1.00  0.00    -0.206 F 
ATOM     87  C   UNL     1      -0.382  -0.289  -7.617  1.00  0.00     0.060 A 
BRANCH  87  88
ATOM     88  S   UNL     1      -0.918  -2.022  -7.520  1.00  0.00     0.124 S 
ATOM     89  O   UNL     1      -0.098  -2.653  -8.545  1.00  0.00    -0.237 OA
ATOM     90  O   UNL     1      -0.588  -2.368  -6.140  1.00  0.00    -0.237 OA
ATOM     91  O   UNL     1      -2.344  -1.933  -7.807  1.00  0.00    -0.744 OA
ENDBRANCH  87  88
ENDBRANCH  55  80
BRANCH  67  92
ATOM     92  C   UNL     1      -2.480   9.022  -4.641  1.00  0.00     0.058 A 
ATOM     93  C   UNL     1      -1.487   9.896  -5.092  1.00  0.00     0.135 A 
ATOM     94  C   UNL     1      -3.768   9.590  -4.449  1.00  0.00     0.135 A 
ATOM     95  F   UNL     1      -0.208   9.498  -5.169  1.00  0.00    -0.206 F 
ATOM     96  C   UNL     1      -1.781  11.205  -5.472  1.00  0.00     0.059 A 
ATOM     97  C   UNL     1      -4.067  10.909  -4.756  1.00  0.00     0.059 A 
ATOM     98  F   UNL     1      -4.801   8.873  -3.984  1.00  0.00    -0.206 F 
ATOM     99  C   UNL     1      -3.080  11.692  -5.326  1.00  0.00     0.060 A 
BRANCH  99 100
ATOM    100  S   UNL     1      -3.481  13.343  -5.913  1.00  0.00     0.124 S 
ATOM    101  O   UNL     1      -2.308  14.114  -5.513  1.00  0.00    -0.237 OA
ATOM    102  O   UNL     1      -3.623  13.108  -7.347  1.00  0.00    -0.237 OA
ATOM    103  O   UNL     1      -4.714  13.671  -5.204  1.00  0.00    -0.744 OA
ENDBRANCH  99 100
ENDBRANCH  67  92
ENDBRANCH  41  42
ENDBRANCH  34  36
ENDBRANCH  33  34
ENDBRANCH  32  33
ENDBRANCH  31  32
ENDBRANCH  30  31
ENDBRANCH  29  30
ENDBRANCH  28  29
ENDBRANCH   1  28
TORSDOF 26
