REMARK SMILES COc1cc(F)ccc1-c1ccc(=O)n(CC(=O)NCc2ccc(C(=O)OCCOCCOCCOCCOC(=O)c3ccc(-c4c5nc(c(-c6c(F)cc(S(=O)(=O)[O-])cc6F)c6ccc([nH]6)c(-c6c(F)cc(S(=O)(=O)[O-])cc6F)c6nc(c(-c7c(F)cc(S(=O)(=O)[O-])cc7F)c7ccc4[nH]7)C=C6)C=C5)cc3)cc2)n1
REMARK SMILES IDX 31 1 30 2 29 3 28 4 27 5 25 6 26 7 24 8 21 9 22 10 109 11
REMARK SMILES IDX 23 12 108 13 20 14 19 15 17 16 18 17 16 19 15 20 10 21 11 22
REMARK SMILES IDX 110 23 12 24 13 25 14 26 9 27 3 28 4 29 5 30 8 31 6 32 7 33
REMARK SMILES IDX 2 34 1 35 32 36 33 37 34 38 35 39 36 40 37 41 38 42 39 43
REMARK SMILES IDX 40 44 41 45 42 46 43 47 107 48 44 49 106 50 45 51 46 52
REMARK SMILES IDX 47 53 100 54 48 55 105 56 99 57 101 58 49 59 104 60 98 61
REMARK SMILES IDX 97 62 50 64 84 65 63 66 83 67 64 68 67 69 82 70 102 71 65 72
REMARK SMILES IDX 66 73 81 75 103 76 68 77 51 78 52 79 61 80 53 81 54 82 60 83
REMARK SMILES IDX 62 84 55 85 56 86 57 87 58 88 59 89 85 90 86 91 95 92 87 93
REMARK SMILES IDX 88 94 94 95 96 96 89 97 90 98 91 99 92 100 93 101 69 102
REMARK SMILES IDX 70 103 79 104 71 105 72 106 78 107 80 108 73 109 74 110
REMARK SMILES IDX 75 111 76 112 77 113
REMARK H PARENT 19 18 101 63 67 74
REMARK Flexibility Score: inf
ROOT
ATOM      1  C   UNL     1      -1.759   0.209   8.820  1.00  0.00     0.188 C 
ENDROOT
BRANCH   1   2
ATOM      2  O   UNL     1      -1.513   0.044  10.209  1.00  0.00    -0.376 OA
BRANCH   2   3
ATOM      3  C   UNL     1      -2.615  -0.377  11.002  1.00  0.00     0.202 C 
BRANCH   3   4
ATOM      4  C   UNL     1      -2.966  -1.865  10.872  1.00  0.00     0.261 C 
BRANCH   4   5
ATOM      5  O   UNL     1      -3.241  -2.294   9.530  1.00  0.00    -0.460 OA
BRANCH   5   6
ATOM      6  C   UNL     1      -4.371  -1.818   8.961  1.00  0.00     0.338 C 
ATOM      7  O   UNL     1      -5.191  -1.079   9.478  1.00  0.00    -0.246 OA
BRANCH   6   8
ATOM      8  C   UNL     1      -4.352  -2.159   7.518  1.00  0.00     0.060 A 
ATOM      9  C   UNL     1      -4.311  -2.689   4.753  1.00  0.00    -0.029 A 
ATOM     10  C   UNL     1      -4.816  -1.475   5.243  1.00  0.00     0.006 A 
ATOM     11  C   UNL     1      -3.777  -3.612   5.667  1.00  0.00     0.006 A 
ATOM     12  C   UNL     1      -4.848  -1.215   6.614  1.00  0.00     0.016 A 
ATOM     13  C   UNL     1      -3.800  -3.353   7.042  1.00  0.00     0.016 A 
BRANCH   9  14
ATOM     14  C   UNL     1      -4.316  -3.012   3.276  1.00  0.00     0.151 C 
BRANCH  14  15
ATOM     15  N   UNL     1      -5.489  -2.486   2.608  1.00  0.00    -0.350 N 
ATOM     16  C   UNL     1      -5.609  -1.570   1.607  1.00  0.00     0.242 C 
ATOM     17  O   UNL     1      -6.730  -1.443   1.101  1.00  0.00    -0.273 OA
ATOM     18  H   UNL     1      -6.344  -2.852   2.932  1.00  0.00     0.163 HD
BRANCH  16  19
ATOM     19  C   UNL     1      -4.396  -0.867   0.992  1.00  0.00     0.248 C 
BRANCH  19  20
ATOM     20  N   UNL     1      -3.518  -0.211   1.951  1.00  0.00    -0.220 N 
ATOM     21  C   UNL     1      -1.457  -0.158   2.929  1.00  0.00     0.095 A 
ATOM     22  C   UNL     1      -1.794   1.020   3.749  1.00  0.00     0.037 A 
ATOM     23  N   UNL     1      -2.251  -0.736   2.087  1.00  0.00    -0.169 NA
ATOM     24  C   UNL     1      -2.999   1.553   3.544  1.00  0.00     0.075 A 
ATOM     25  C   UNL     1      -3.939   0.958   2.569  1.00  0.00     0.267 A 
ATOM     26  O   UNL     1      -5.029   1.495   2.391  1.00  0.00    -0.268 OA
BRANCH  21  27
ATOM     27  C   UNL     1      -0.107  -0.704   3.126  1.00  0.00     0.044 A 
ATOM     28  C   UNL     1       0.929  -0.358   2.248  1.00  0.00     0.131 A 
ATOM     29  C   UNL     1       2.199  -0.898   2.445  1.00  0.00     0.086 A 
ATOM     30  C   UNL     1       2.403  -1.804   3.483  1.00  0.00     0.126 A 
ATOM     31  C   UNL     1       0.100  -1.623   4.162  1.00  0.00     0.017 A 
ATOM     32  F   UNL     1       3.627  -2.312   3.675  1.00  0.00    -0.207 F 
ATOM     33  C   UNL     1       1.367  -2.177   4.336  1.00  0.00     0.040 A 
BRANCH  28  34
ATOM     34  O   UNL     1       0.684   0.566   1.267  1.00  0.00    -0.496 OA
ATOM     35  C   UNL     1       1.028   0.084  -0.033  1.00  0.00     0.278 C 
ENDBRANCH  28  34
ENDBRANCH  21  27
ENDBRANCH  19  20
ENDBRANCH  16  19
ENDBRANCH  14  15
ENDBRANCH   9  14
ENDBRANCH   6   8
ENDBRANCH   5   6
ENDBRANCH   4   5
ENDBRANCH   3   4
ENDBRANCH   2   3
ENDBRANCH   1   2
BRANCH   1  36
ATOM     36  C   UNL     1      -0.996  -0.768   7.906  1.00  0.00     0.188 C 
BRANCH  36  37
ATOM     37  O   UNL     1      -0.219  -1.807   8.477  1.00  0.00    -0.377 OA
BRANCH  37  38
ATOM     38  C   UNL     1       0.632  -1.522   9.582  1.00  0.00     0.188 C 
BRANCH  38  39
ATOM     39  C   UNL     1       1.290  -0.133   9.736  1.00  0.00     0.188 C 
BRANCH  39  40
ATOM     40  O   UNL     1       1.208   0.691   8.577  1.00  0.00    -0.376 OA
BRANCH  40  41
ATOM     41  C   UNL     1       2.444   0.972   7.935  1.00  0.00     0.202 C 
BRANCH  41  42
ATOM     42  C   UNL     1       2.988  -0.198   7.109  1.00  0.00     0.261 C 
BRANCH  42  43
ATOM     43  O   UNL     1       3.245  -1.401   7.849  1.00  0.00    -0.460 OA
BRANCH  43  44
ATOM     44  C   UNL     1       4.214  -1.340   8.792  1.00  0.00     0.338 C 
ATOM     45  O   UNL     1       4.914  -0.378   9.057  1.00  0.00    -0.246 OA
BRANCH  44  46
ATOM     46  C   UNL     1       4.144  -2.580   9.597  1.00  0.00     0.060 A 
ATOM     47  C   UNL     1       4.099  -3.832   8.977  1.00  0.00     0.016 A 
ATOM     48  C   UNL     1       4.090  -2.480  10.993  1.00  0.00     0.016 A 
ATOM     49  C   UNL     1       4.043  -4.987   9.761  1.00  0.00     0.010 A 
ATOM     50  C   UNL     1       4.029  -3.637  11.776  1.00  0.00     0.010 A 
ATOM     51  C   UNL     1       4.036  -4.899  11.166  1.00  0.00    -0.014 A 
BRANCH  51  52
ATOM     52  C   UNL     1       4.270  -6.122  11.975  1.00  0.00     0.031 A 
ATOM     53  C   UNL     1       3.174  -6.833  12.709  1.00  0.00     0.074 A 
ATOM     54  C   UNL     1       5.534  -6.582  12.042  1.00  0.00     0.049 A 
ATOM     55  N   UNL     1       3.227  -7.971  13.354  1.00  0.00    -0.248 NA
ATOM     56  C   UNL     1       1.855  -6.185  12.738  1.00  0.00     0.031 C 
ATOM     57  C   UNL     1       6.692  -5.936  11.417  1.00  0.00     0.029 A 
ATOM     58  N   UNL     1       6.060  -7.693  12.649  1.00  0.00    -0.354 N 
ATOM     59  C   UNL     1       1.948  -8.195  13.847  1.00  0.00     0.074 A 
ATOM     60  C   UNL     1       1.151  -7.045  13.466  1.00  0.00     0.031 C 
ATOM     61  C   UNL     1       7.785  -6.678  11.646  1.00  0.00     0.029 A 
ATOM     62  C   UNL     1       7.410  -7.841  12.444  1.00  0.00     0.049 A 
ATOM     63  H   UNL     1       5.522  -8.323  13.181  1.00  0.00     0.167 HD
ATOM     64  C   UNL     1       1.486  -9.269  14.535  1.00  0.00     0.037 A 
ATOM     65  C   UNL     1       8.255  -8.812  12.837  1.00  0.00     0.037 A 
ATOM     66  C   UNL     1       2.299 -10.397  14.926  1.00  0.00     0.049 A 
ATOM     67  C   UNL     1       7.718  -9.987  13.601  1.00  0.00     0.074 A 
ATOM     68  C   UNL     1       1.906 -11.556  15.577  1.00  0.00     0.029 A 
ATOM     69  N   UNL     1       3.667 -10.507  14.721  1.00  0.00    -0.354 N 
ATOM     70  N   UNL     1       6.485 -10.230  13.975  1.00  0.00    -0.248 NA
ATOM     71  C   UNL     1       8.683 -11.025  13.983  1.00  0.00     0.031 C 
ATOM     72  C   UNL     1       3.042 -12.340  15.809  1.00  0.00     0.029 A 
ATOM     73  C   UNL     1       4.138 -11.697  15.257  1.00  0.00     0.049 A 
ATOM     74  H   UNL     1       4.224  -9.837  14.262  1.00  0.00     0.167 HD
ATOM     75  C   UNL     1       6.524 -11.456  14.628  1.00  0.00     0.074 A 
ATOM     76  C   UNL     1       7.897 -11.915  14.573  1.00  0.00     0.031 C 
ATOM     77  C   UNL     1       5.511 -12.137  15.221  1.00  0.00     0.037 A 
BRANCH  64  78
ATOM     78  C   UNL     1       0.025  -9.300  14.899  1.00  0.00     0.058 A 
ATOM     79  C   UNL     1      -0.387  -9.216  16.239  1.00  0.00     0.135 A 
ATOM     80  C   UNL     1      -0.964  -9.512  13.925  1.00  0.00     0.135 A 
ATOM     81  F   UNL     1       0.514  -9.015  17.213  1.00  0.00    -0.206 F 
ATOM     82  C   UNL     1      -1.725  -9.354  16.601  1.00  0.00     0.059 A 
ATOM     83  C   UNL     1      -2.310  -9.630  14.261  1.00  0.00     0.059 A 
ATOM     84  F   UNL     1      -0.628  -9.589  12.627  1.00  0.00    -0.206 F 
ATOM     85  C   UNL     1      -2.679  -9.564  15.604  1.00  0.00     0.060 A 
BRANCH  85  86
ATOM     86  S   UNL     1      -4.413  -9.716  16.085  1.00  0.00     0.124 S 
ATOM     87  O   UNL     1      -4.426 -11.007  16.764  1.00  0.00    -0.237 OA
ATOM     88  O   UNL     1      -4.597  -8.545  16.938  1.00  0.00    -0.237 OA
ATOM     89  O   UNL     1      -5.122  -9.668  14.810  1.00  0.00    -0.744 OA
ENDBRANCH  85  86
ENDBRANCH  64  78
BRANCH  65  90
ATOM     90  C   UNL     1       9.687  -8.728  12.453  1.00  0.00     0.058 A 
ATOM     91  C   UNL     1      10.536  -7.766  13.020  1.00  0.00     0.135 A 
ATOM     92  C   UNL     1      10.217  -9.572  11.467  1.00  0.00     0.135 A 
ATOM     93  F   UNL     1      10.070  -6.924  13.956  1.00  0.00    -0.206 F 
ATOM     94  C   UNL     1      11.854  -7.626  12.604  1.00  0.00     0.059 A 
ATOM     95  C   UNL     1      11.540  -9.469  11.052  1.00  0.00     0.059 A 
ATOM     96  F   UNL     1       9.442 -10.511  10.902  1.00  0.00    -0.206 F 
ATOM     97  C   UNL     1      12.346  -8.479  11.615  1.00  0.00     0.060 A 
BRANCH  97  98
ATOM     98  S   UNL     1      14.055  -8.268  11.073  1.00  0.00     0.124 S 
ATOM     99  O   UNL     1      13.977  -6.999  10.355  1.00  0.00    -0.237 OA
ATOM    100  O   UNL     1      14.775  -8.237  12.342  1.00  0.00    -0.237 OA
ATOM    101  O   UNL     1      14.294  -9.445  10.245  1.00  0.00    -0.744 OA
ENDBRANCH  97  98
ENDBRANCH  65  90
BRANCH  77 102
ATOM    102  C   UNL     1       5.855 -13.453  15.867  1.00  0.00     0.058 A 
ATOM    103  C   UNL     1       5.415 -14.663  15.309  1.00  0.00     0.135 A 
ATOM    104  C   UNL     1       6.604 -13.514  17.053  1.00  0.00     0.135 A 
ATOM    105  F   UNL     1       4.692 -14.665  14.178  1.00  0.00    -0.206 F 
ATOM    106  C   UNL     1       5.703 -15.887  15.904  1.00  0.00     0.059 A 
ATOM    107  C   UNL     1       6.929 -14.729  17.651  1.00  0.00     0.059 A 
ATOM    108  F   UNL     1       7.061 -12.387  17.622  1.00  0.00    -0.206 F 
ATOM    109  C   UNL     1       6.464 -15.910  17.074  1.00  0.00     0.060 A 
BRANCH 109 110
ATOM    110  S   UNL     1       6.876 -17.510  17.805  1.00  0.00     0.124 S 
ATOM    111  O   UNL     1       5.597 -17.916  18.375  1.00  0.00    -0.237 OA
ATOM    112  O   UNL     1       7.326 -18.273  16.645  1.00  0.00    -0.237 OA
ATOM    113  O   UNL     1       7.920 -17.181  18.771  1.00  0.00    -0.744 OA
ENDBRANCH 109 110
ENDBRANCH  77 102
ENDBRANCH  51  52
ENDBRANCH  44  46
ENDBRANCH  43  44
ENDBRANCH  42  43
ENDBRANCH  41  42
ENDBRANCH  40  41
ENDBRANCH  39  40
ENDBRANCH  38  39
ENDBRANCH  37  38
ENDBRANCH  36  37
ENDBRANCH   1  36
TORSDOF 29
