REMARK SMILES [NH3+][C@]1(C(=O)OCCOCCOCCOCCOC(=O)c2ccc(-c3c4nc(c(-c5c(F)cc(S(=O)(=O)[O-])cc5F)c5ccc([nH]5)c(-c5c(F)cc(S(=O)(=O)[O-])cc5F)c5nc(c(-c6c(F)cc(S(=O)(=O)[O-])cc6F)c6ccc3[nH]6)C=C5)C=C4)cc2)CC[C@@H]([NH+]2CCC(C(F)(F)F)CC2)C1
REMARK SMILES IDX 12 1 11 2 10 3 9 4 8 5 7 6 6 7 5 8 3 9 4 10 2 11 86 12 99 13
REMARK SMILES IDX 87 14 88 15 1 16 89 20 90 21 98 22 91 24 97 25 92 26 93 27
REMARK SMILES IDX 94 28 95 29 96 30 13 31 14 32 15 33 16 34 17 35 18 36 19 37
REMARK SMILES IDX 20 38 21 39 85 40 22 41 84 42 23 43 24 44 25 45 78 46 26 47
REMARK SMILES IDX 83 48 77 49 79 50 27 51 82 52 76 53 75 54 28 56 62 57 41 58
REMARK SMILES IDX 61 59 42 60 45 61 60 62 80 63 43 64 44 65 59 67 81 68 46 69
REMARK SMILES IDX 29 70 30 71 39 72 31 73 32 74 38 75 40 76 33 77 34 78 35 79
REMARK SMILES IDX 36 80 37 81 63 82 64 83 73 84 65 85 66 86 72 87 74 88 67 89
REMARK SMILES IDX 68 90 69 91 70 92 71 93 47 94 48 95 57 96 49 97 50 98 56 99
REMARK SMILES IDX 58 100 51 101 52 102 53 103 54 104 55 105
REMARK H PARENT 1 17 1 18 1 19 89 23 79 55 45 66
REMARK Flexibility Score: inf
ROOT
ATOM      1  C   UNL     1       2.808   2.354   2.633  1.00  0.00     0.188 C 
ENDROOT
BRANCH   1   2
ATOM      2  O   UNL     1       2.100   1.372   1.891  1.00  0.00    -0.377 OA
BRANCH   2   3
ATOM      3  C   UNL     1       2.853   0.394   1.212  1.00  0.00     0.188 C 
BRANCH   3   4
ATOM      4  C   UNL     1       3.147   0.663  -0.267  1.00  0.00     0.188 C 
BRANCH   4   5
ATOM      5  O   UNL     1       2.939   1.945  -0.828  1.00  0.00    -0.376 OA
BRANCH   5   6
ATOM      6  C   UNL     1       1.775   2.698  -0.520  1.00  0.00     0.202 C 
BRANCH   6   7
ATOM      7  C   UNL     1       0.360   2.084  -0.481  1.00  0.00     0.261 C 
BRANCH   7   8
ATOM      8  O   UNL     1       0.179   0.835   0.220  1.00  0.00    -0.459 OA
BRANCH   8   9
ATOM      9  C   UNL     1       0.020  -0.249  -0.570  1.00  0.00     0.368 C 
ATOM     10  O   UNL     1       0.073  -0.199  -1.801  1.00  0.00    -0.245 OA
BRANCH   9  11
ATOM     11  C   UNL     1      -0.333  -1.581   0.162  1.00  0.00     0.198 C 
ATOM     12  C   UNL     1       0.307  -2.686  -0.705  1.00  0.00     0.087 C 
ATOM     13  C   UNL     1       0.170  -1.943   1.589  1.00  0.00     0.145 C 
ATOM     14  C   UNL     1       0.318  -3.924   0.164  1.00  0.00     0.072 C 
ATOM     15  C   UNL     1       0.727  -3.406   1.548  1.00  0.00     0.191 C 
BRANCH  11  16
ATOM     16  N   UNL     1      -1.813  -1.700   0.143  1.00  0.00    -0.343 N 
ATOM     17  H   UNL     1      -2.091  -2.561   0.614  1.00  0.00     0.345 HD
ATOM     18  H   UNL     1      -2.141  -1.719  -0.823  1.00  0.00     0.345 HD
ATOM     19  H   UNL     1      -2.224  -0.901   0.626  1.00  0.00     0.345 HD
ENDBRANCH  11  16
BRANCH  15  20
ATOM     20  N   UNL     1       2.137  -3.711   1.884  1.00  0.00    -0.332 N 
ATOM     21  C   UNL     1       3.185  -3.345   0.934  1.00  0.00     0.263 C 
ATOM     22  C   UNL     1       2.493  -3.399   3.271  1.00  0.00     0.263 C 
ATOM     23  H   UNL     1       2.125  -4.726   1.779  1.00  0.00     0.348 HD
ATOM     24  C   UNL     1       4.528  -4.000   1.284  1.00  0.00     0.074 C 
ATOM     25  C   UNL     1       3.806  -4.088   3.670  1.00  0.00     0.074 C 
ATOM     26  C   UNL     1       4.947  -3.705   2.725  1.00  0.00     0.106 C 
BRANCH  26  27
ATOM     27  C   UNL     1       6.233  -4.434   3.076  1.00  0.00     0.392 C 
ATOM     28  F   UNL     1       7.242  -4.049   2.261  1.00  0.00    -0.171 F 
ATOM     29  F   UNL     1       6.617  -4.158   4.343  1.00  0.00    -0.171 F 
ATOM     30  F   UNL     1       6.108  -5.773   2.966  1.00  0.00    -0.171 F 
ENDBRANCH  26  27
ENDBRANCH  15  20
ENDBRANCH   9  11
ENDBRANCH   8   9
ENDBRANCH   7   8
ENDBRANCH   6   7
ENDBRANCH   5   6
ENDBRANCH   4   5
ENDBRANCH   3   4
ENDBRANCH   2   3
ENDBRANCH   1   2
BRANCH   1  31
ATOM     31  C   UNL     1       4.214   2.752   2.148  1.00  0.00     0.188 C 
BRANCH  31  32
ATOM     32  O   UNL     1       5.072   1.646   1.890  1.00  0.00    -0.376 OA
BRANCH  32  33
ATOM     33  C   UNL     1       5.964   1.223   2.911  1.00  0.00     0.202 C 
BRANCH  33  34
ATOM     34  C   UNL     1       5.361   0.653   4.207  1.00  0.00     0.261 C 
BRANCH  34  35
ATOM     35  O   UNL     1       4.505   1.522   4.963  1.00  0.00    -0.460 OA
BRANCH  35  36
ATOM     36  C   UNL     1       4.998   2.726   5.335  1.00  0.00     0.338 C 
ATOM     37  O   UNL     1       6.126   3.134   5.169  1.00  0.00    -0.246 OA
BRANCH  36  38
ATOM     38  C   UNL     1       3.861   3.554   5.798  1.00  0.00     0.060 A 
ATOM     39  C   UNL     1       3.617   4.779   5.163  1.00  0.00     0.016 A 
ATOM     40  C   UNL     1       3.051   3.132   6.856  1.00  0.00     0.016 A 
ATOM     41  C   UNL     1       2.598   5.613   5.620  1.00  0.00     0.010 A 
ATOM     42  C   UNL     1       2.044   3.978   7.327  1.00  0.00     0.010 A 
ATOM     43  C   UNL     1       1.845   5.241   6.741  1.00  0.00    -0.014 A 
BRANCH  43  44
ATOM     44  C   UNL     1       1.034   6.264   7.445  1.00  0.00     0.031 A 
ATOM     45  C   UNL     1       1.641   6.940   8.647  1.00  0.00     0.074 A 
ATOM     46  C   UNL     1      -0.193   6.610   7.020  1.00  0.00     0.049 A 
ATOM     47  N   UNL     1       1.125   7.832   9.451  1.00  0.00    -0.248 NA
ATOM     48  C   UNL     1       3.018   6.548   8.988  1.00  0.00     0.031 C 
ATOM     49  C   UNL     1      -0.865   6.068   5.841  1.00  0.00     0.029 A 
ATOM     50  N   UNL     1      -1.095   7.504   7.542  1.00  0.00    -0.354 N 
ATOM     51  C   UNL     1       2.107   8.095  10.400  1.00  0.00     0.074 A 
ATOM     52  C   UNL     1       3.234   7.245  10.091  1.00  0.00     0.031 C 
ATOM     53  C   UNL     1      -2.078   6.638   5.732  1.00  0.00     0.029 A 
ATOM     54  C   UNL     1      -2.282   7.556   6.852  1.00  0.00     0.049 A 
ATOM     55  H   UNL     1      -0.908   8.056   8.335  1.00  0.00     0.167 HD
ATOM     56  C   UNL     1       2.074   8.972  11.432  1.00  0.00     0.037 A 
ATOM     57  C   UNL     1      -3.408   8.253   7.109  1.00  0.00     0.037 A 
ATOM     58  C   UNL     1       0.945   9.811  11.734  1.00  0.00     0.049 A 
ATOM     59  C   UNL     1      -3.453   9.167   8.308  1.00  0.00     0.074 A 
ATOM     60  C   UNL     1       0.813  10.745  12.745  1.00  0.00     0.029 A 
ATOM     61  N   UNL     1      -0.255   9.806  11.035  1.00  0.00    -0.354 N 
ATOM     62  N   UNL     1      -2.514   9.423   9.189  1.00  0.00    -0.248 NA
ATOM     63  C   UNL     1      -4.710   9.890   8.545  1.00  0.00     0.031 C 
ATOM     64  C   UNL     1      -0.488  11.258  12.698  1.00  0.00     0.029 A 
ATOM     65  C   UNL     1      -1.144  10.698  11.613  1.00  0.00     0.049 A 
ATOM     66  H   UNL     1      -0.446   9.250  10.245  1.00  0.00     0.167 HD
ATOM     67  C   UNL     1      -3.053  10.365  10.061  1.00  0.00     0.074 A 
ATOM     68  C   UNL     1      -4.400  10.633   9.599  1.00  0.00     0.031 C 
ATOM     69  C   UNL     1      -2.482  10.961  11.138  1.00  0.00     0.037 A 
BRANCH  56  70
ATOM     70  C   UNL     1       3.279   9.023  12.334  1.00  0.00     0.058 A 
ATOM     71  C   UNL     1       4.521   9.513  11.896  1.00  0.00     0.135 A 
ATOM     72  C   UNL     1       3.190   8.563  13.658  1.00  0.00     0.135 A 
ATOM     73  F   UNL     1       4.671   9.949  10.635  1.00  0.00    -0.206 F 
ATOM     74  C   UNL     1       5.641   9.501  12.723  1.00  0.00     0.059 A 
ATOM     75  C   UNL     1       4.288   8.575  14.513  1.00  0.00     0.059 A 
ATOM     76  F   UNL     1       2.030   8.083  14.131  1.00  0.00    -0.206 F 
ATOM     77  C   UNL     1       5.515   9.024  14.028  1.00  0.00     0.060 A 
BRANCH  77  78
ATOM     78  S   UNL     1       6.982   8.987  15.079  1.00  0.00     0.124 S 
ATOM     79  O   UNL     1       7.743   7.897  14.476  1.00  0.00    -0.237 OA
ATOM     80  O   UNL     1       7.533  10.325  14.892  1.00  0.00    -0.237 OA
ATOM     81  O   UNL     1       6.443   8.714  16.408  1.00  0.00    -0.744 OA
ENDBRANCH  77  78
ENDBRANCH  56  70
BRANCH  57  82
ATOM     82  C   UNL     1      -4.582   8.120   6.205  1.00  0.00     0.058 A 
ATOM     83  C   UNL     1      -4.986   9.182   5.383  1.00  0.00     0.135 A 
ATOM     84  C   UNL     1      -5.313   6.923   6.129  1.00  0.00     0.135 A 
ATOM     85  F   UNL     1      -4.331  10.353   5.430  1.00  0.00    -0.206 F 
ATOM     86  C   UNL     1      -6.070   9.066   4.519  1.00  0.00     0.059 A 
ATOM     87  C   UNL     1      -6.383   6.772   5.253  1.00  0.00     0.059 A 
ATOM     88  F   UNL     1      -4.966   5.874   6.891  1.00  0.00    -0.206 F 
ATOM     89  C   UNL     1      -6.756   7.852   4.453  1.00  0.00     0.060 A 
BRANCH  89  90
ATOM     90  S   UNL     1      -8.112   7.690   3.271  1.00  0.00     0.124 S 
ATOM     91  O   UNL     1      -9.125   8.556   3.862  1.00  0.00    -0.237 OA
ATOM     92  O   UNL     1      -7.497   8.173   2.038  1.00  0.00    -0.237 OA
ATOM     93  O   UNL     1      -8.411   6.261   3.295  1.00  0.00    -0.744 OA
ENDBRANCH  89  90
ENDBRANCH  57  82
BRANCH  69  94
ATOM     94  C   UNL     1      -3.285  12.005  11.869  1.00  0.00     0.058 A 
ATOM     95  C   UNL     1      -4.401  11.677  12.654  1.00  0.00     0.135 A 
ATOM     96  C   UNL     1      -2.891  13.354  11.828  1.00  0.00     0.135 A 
ATOM     97  F   UNL     1      -4.825  10.405  12.728  1.00  0.00    -0.206 F 
ATOM     98  C   UNL     1      -5.113  12.650  13.349  1.00  0.00     0.059 A 
ATOM     99  C   UNL     1      -3.567  14.338  12.541  1.00  0.00     0.059 A 
ATOM    100  F   UNL     1      -1.822  13.725  11.104  1.00  0.00    -0.206 F 
ATOM    101  C   UNL     1      -4.686  13.978  13.289  1.00  0.00     0.060 A 
BRANCH 101 102
ATOM    102  S   UNL     1      -5.601  15.226  14.220  1.00  0.00     0.124 S 
ATOM    103  O   UNL     1      -6.833  15.327  13.445  1.00  0.00    -0.237 OA
ATOM    104  O   UNL     1      -5.728  14.602  15.534  1.00  0.00    -0.237 OA
ATOM    105  O   UNL     1      -4.729  16.396  14.170  1.00  0.00    -0.744 OA
ENDBRANCH 101 102
ENDBRANCH  69  94
ENDBRANCH  43  44
ENDBRANCH  36  38
ENDBRANCH  35  36
ENDBRANCH  34  35
ENDBRANCH  33  34
ENDBRANCH  32  33
ENDBRANCH  31  32
ENDBRANCH   1  31
TORSDOF 26
