REMARK SMILES O=C(/C=C/c1ccc(C(=O)NC2CC2)cc1)NC1(C(=O)OCCOCCOCCOCCOC(=O)c2ccc(-c3c4nc(c(-c5c(F)cc(S(=O)(=O)[O-])cc5F)c5ccc([nH]5)c(-c5c(F)cc(S(=O)(=O)[O-])cc5F)c5nc(c(-c6c(F)cc(S(=O)(=O)[O-])cc6F)c6ccc3[nH]6)C=C5)C=C4)cc2)CCCC1
REMARK SMILES IDX 26 1 25 2 24 3 23 4 22 5 21 6 19 7 20 8 18 9 102 10 105 11
REMARK SMILES IDX 103 12 104 13 17 14 1 15 2 16 3 18 4 19 5 20 6 21 16 22 7 23
REMARK SMILES IDX 15 24 8 25 9 26 10 27 11 28 12 30 13 31 14 32 27 33 28 34
REMARK SMILES IDX 29 35 30 36 31 37 32 38 33 39 34 40 35 41 36 42 37 43 101 44
REMARK SMILES IDX 38 45 100 46 39 47 40 48 41 49 94 50 42 51 99 52 93 53 95 54
REMARK SMILES IDX 43 55 98 56 92 57 91 58 44 60 78 61 57 62 77 63 58 64 61 65
REMARK SMILES IDX 76 66 96 67 59 68 60 69 75 71 97 72 62 73 45 74 46 75 55 76
REMARK SMILES IDX 47 77 48 78 54 79 56 80 49 81 50 82 51 83 52 84 53 85 79 86
REMARK SMILES IDX 80 87 89 88 81 89 82 90 88 91 90 92 83 93 84 94 85 95 86 96
REMARK SMILES IDX 87 97 63 98 64 99 73 100 65 101 66 102 72 103 74 104 67 105
REMARK SMILES IDX 68 106 69 107 70 108 71 109
REMARK H PARENT 17 17 11 29 95 59 61 70
REMARK Flexibility Score: inf
ROOT
ATOM      1  C   UNL     1       1.523  -0.567   3.667  1.00  0.00     0.188 C 
ENDROOT
BRANCH   1   2
ATOM      2  C   UNL     1       2.992  -1.015   3.665  1.00  0.00     0.188 C 
BRANCH   2   3
ATOM      3  O   UNL     1       3.861  -0.805   4.763  1.00  0.00    -0.376 OA
BRANCH   3   4
ATOM      4  C   UNL     1       3.910   0.348   5.578  1.00  0.00     0.202 C 
BRANCH   4   5
ATOM      5  C   UNL     1       3.729   1.796   5.089  1.00  0.00     0.261 C 
BRANCH   5   6
ATOM      6  O   UNL     1       2.788   2.030   4.035  1.00  0.00    -0.461 OA
BRANCH   6   7
ATOM      7  C   UNL     1       3.307   2.031   2.786  1.00  0.00     0.331 C 
ATOM      8  O   UNL     1       4.511   1.912   2.549  1.00  0.00    -0.249 OA
BRANCH   7   9
ATOM      9  C   UNL     1       2.278   2.234   1.634  1.00  0.00     0.138 C 
ATOM     10  C   UNL     1       2.343   3.728   1.283  1.00  0.00     0.040 C 
ATOM     11  C   UNL     1       0.758   2.101   1.827  1.00  0.00     0.040 C 
ATOM     12  C   UNL     1       1.353   4.389   2.255  1.00  0.00     0.003 C 
ATOM     13  C   UNL     1       0.312   3.330   2.593  1.00  0.00     0.003 C 
BRANCH   9  14
ATOM     14  N   UNL     1       2.836   1.372   0.562  1.00  0.00    -0.337 N 
ATOM     15  O   UNL     1       1.107  -0.123   0.264  1.00  0.00    -0.270 OA
ATOM     16  C   UNL     1       2.267   0.225   0.084  1.00  0.00     0.244 C 
ATOM     17  H   UNL     1       3.690   1.651   0.159  1.00  0.00     0.164 HD
BRANCH  16  18
ATOM     18  C   UNL     1       3.103  -0.621  -0.796  1.00  0.00     0.072 C 
ATOM     19  C   UNL     1       4.438  -0.774  -0.798  1.00  0.00     0.014 C 
BRANCH  19  20
ATOM     20  C   UNL     1       5.087  -1.622  -1.812  1.00  0.00    -0.025 A 
ATOM     21  C   UNL     1       6.226  -2.377  -1.526  1.00  0.00     0.009 A 
ATOM     22  C   UNL     1       4.596  -1.647  -3.121  1.00  0.00     0.009 A 
ATOM     23  C   UNL     1       6.844  -3.143  -2.534  1.00  0.00     0.014 A 
ATOM     24  C   UNL     1       5.196  -2.427  -4.111  1.00  0.00     0.014 A 
ATOM     25  C   UNL     1       6.343  -3.172  -3.849  1.00  0.00     0.039 A 
BRANCH  25  26
ATOM     26  C   UNL     1       7.084  -3.987  -4.867  1.00  0.00     0.251 C 
ATOM     27  O   UNL     1       8.048  -4.665  -4.502  1.00  0.00    -0.269 OA
ATOM     28  N   UNL     1       6.770  -4.016  -6.213  1.00  0.00    -0.349 N 
ATOM     29  H   UNL     1       7.372  -4.573  -6.758  1.00  0.00     0.164 HD
BRANCH  28  30
ATOM     30  C   UNL     1       5.731  -3.386  -6.949  1.00  0.00     0.082 C 
ATOM     31  C   UNL     1       5.844  -1.938  -7.355  1.00  0.00     0.027 C 
ATOM     32  C   UNL     1       5.909  -3.011  -8.396  1.00  0.00     0.027 C 
ENDBRANCH  28  30
ENDBRANCH  25  26
ENDBRANCH  19  20
ENDBRANCH  16  18
ENDBRANCH   9  14
ENDBRANCH   7   9
ENDBRANCH   6   7
ENDBRANCH   5   6
ENDBRANCH   4   5
ENDBRANCH   3   4
ENDBRANCH   2   3
ENDBRANCH   1   2
BRANCH   1  33
ATOM     33  O   UNL     1       0.539  -1.115   4.510  1.00  0.00    -0.377 OA
BRANCH  33  34
ATOM     34  C   UNL     1       0.861  -1.128   5.882  1.00  0.00     0.188 C 
BRANCH  34  35
ATOM     35  C   UNL     1       1.488  -2.469   6.251  1.00  0.00     0.188 C 
BRANCH  35  36
ATOM     36  O   UNL     1       1.737  -3.298   5.128  1.00  0.00    -0.376 OA
BRANCH  36  37
ATOM     37  C   UNL     1       0.671  -3.979   4.470  1.00  0.00     0.202 C 
BRANCH  37  38
ATOM     38  C   UNL     1      -0.812  -3.530   4.395  1.00  0.00     0.261 C 
BRANCH  38  39
ATOM     39  O   UNL     1      -1.401  -2.834   5.500  1.00  0.00    -0.460 OA
BRANCH  39  40
ATOM     40  C   UNL     1      -1.554  -3.494   6.661  1.00  0.00     0.338 C 
ATOM     41  O   UNL     1      -1.268  -4.660   6.883  1.00  0.00    -0.246 OA
BRANCH  40  42
ATOM     42  C   UNL     1      -1.926  -2.495   7.690  1.00  0.00     0.060 A 
ATOM     43  C   UNL     1      -1.097  -2.358   8.810  1.00  0.00     0.016 A 
ATOM     44  C   UNL     1      -3.054  -1.678   7.547  1.00  0.00     0.016 A 
ATOM     45  C   UNL     1      -1.416  -1.444   9.811  1.00  0.00     0.010 A 
ATOM     46  C   UNL     1      -3.390  -0.779   8.568  1.00  0.00     0.010 A 
ATOM     47  C   UNL     1      -2.595  -0.692   9.724  1.00  0.00    -0.014 A 
BRANCH  47  48
ATOM     48  C   UNL     1      -3.081  -0.004  10.946  1.00  0.00     0.031 A 
ATOM     49  C   UNL     1      -4.103  -0.711  11.798  1.00  0.00     0.074 A 
ATOM     50  C   UNL     1      -2.560   1.170  11.344  1.00  0.00     0.049 A 
ATOM     51  N   UNL     1      -4.625  -0.350  12.941  1.00  0.00    -0.248 NA
ATOM     52  C   UNL     1      -4.598  -2.002  11.293  1.00  0.00     0.031 C 
ATOM     53  C   UNL     1      -1.537   1.928  10.626  1.00  0.00     0.029 A 
ATOM     54  N   UNL     1      -2.816   1.925  12.462  1.00  0.00    -0.354 N 
ATOM     55  C   UNL     1      -5.505  -1.367  13.292  1.00  0.00     0.074 A 
ATOM     56  C   UNL     1      -5.478  -2.340  12.223  1.00  0.00     0.031 C 
ATOM     57  C   UNL     1      -1.252   3.043  11.322  1.00  0.00     0.029 A 
ATOM     58  C   UNL     1      -2.088   3.089  12.521  1.00  0.00     0.049 A 
ATOM     59  H   UNL     1      -3.461   1.657  13.156  1.00  0.00     0.167 HD
ATOM     60  C   UNL     1      -6.259  -1.488  14.411  1.00  0.00     0.037 A 
ATOM     61  C   UNL     1      -2.106   4.082  13.434  1.00  0.00     0.037 A 
ATOM     62  C   UNL     1      -6.286  -0.512  15.470  1.00  0.00     0.049 A 
ATOM     63  C   UNL     1      -3.001   3.956  14.642  1.00  0.00     0.074 A 
ATOM     64  C   UNL     1      -7.007  -0.545  16.650  1.00  0.00     0.029 A 
ATOM     65  N   UNL     1      -5.569   0.676  15.473  1.00  0.00    -0.354 N 
ATOM     66  N   UNL     1      -3.809   2.976  14.974  1.00  0.00    -0.248 NA
ATOM     67  C   UNL     1      -2.976   5.065  15.605  1.00  0.00     0.031 C 
ATOM     68  C   UNL     1      -6.774   0.651  17.338  1.00  0.00     0.029 A 
ATOM     69  C   UNL     1      -5.853   1.398  16.621  1.00  0.00     0.049 A 
ATOM     70  H   UNL     1      -4.950   0.963  14.763  1.00  0.00     0.167 HD
ATOM     71  C   UNL     1      -4.365   3.338  16.198  1.00  0.00     0.074 A 
ATOM     72  C   UNL     1      -3.785   4.617  16.554  1.00  0.00     0.031 C 
ATOM     73  C   UNL     1      -5.271   2.674  16.961  1.00  0.00     0.037 A 
BRANCH  60  74
ATOM     74  C   UNL     1      -7.142  -2.701  14.528  1.00  0.00     0.058 A 
ATOM     75  C   UNL     1      -6.617  -3.989  14.726  1.00  0.00     0.135 A 
ATOM     76  C   UNL     1      -8.539  -2.568  14.470  1.00  0.00     0.135 A 
ATOM     77  F   UNL     1      -5.288  -4.178  14.768  1.00  0.00    -0.206 F 
ATOM     78  C   UNL     1      -7.443  -5.103  14.837  1.00  0.00     0.059 A 
ATOM     79  C   UNL     1      -9.386  -3.664  14.609  1.00  0.00     0.059 A 
ATOM     80  F   UNL     1      -9.096  -1.362  14.276  1.00  0.00    -0.206 F 
ATOM     81  C   UNL     1      -8.828  -4.929  14.779  1.00  0.00     0.060 A 
BRANCH  81  82
ATOM     82  S   UNL     1      -9.886  -6.383  14.938  1.00  0.00     0.124 S 
ATOM     83  O   UNL     1      -9.642  -7.061  13.669  1.00  0.00    -0.237 OA
ATOM     84  O   UNL     1      -9.340  -7.038  16.122  1.00  0.00    -0.237 OA
ATOM     85  O   UNL     1     -11.222  -5.816  15.098  1.00  0.00    -0.744 OA
ENDBRANCH  81  82
ENDBRANCH  60  74
BRANCH  61  86
ATOM     86  C   UNL     1      -1.253   5.287  13.241  1.00  0.00     0.058 A 
ATOM     87  C   UNL     1      -0.178   5.569  14.097  1.00  0.00     0.135 A 
ATOM     88  C   UNL     1      -1.505   6.189  12.195  1.00  0.00     0.135 A 
ATOM     89  F   UNL     1       0.098   4.747  15.121  1.00  0.00    -0.206 F 
ATOM     90  C   UNL     1       0.607   6.707  13.934  1.00  0.00     0.059 A 
ATOM     91  C   UNL     1      -0.717   7.317  11.993  1.00  0.00     0.059 A 
ATOM     92  F   UNL     1      -2.517   5.964  11.342  1.00  0.00    -0.206 F 
ATOM     93  C   UNL     1       0.332   7.573  12.874  1.00  0.00     0.060 A 
BRANCH  93  94
ATOM     94  S   UNL     1       1.392   9.016  12.635  1.00  0.00     0.124 S 
ATOM     95  O   UNL     1       1.000   9.859  13.758  1.00  0.00    -0.237 OA
ATOM     96  O   UNL     1       2.726   8.428  12.711  1.00  0.00    -0.237 OA
ATOM     97  O   UNL     1       1.004   9.501  11.314  1.00  0.00    -0.744 OA
ENDBRANCH  93  94
ENDBRANCH  61  86
BRANCH  73  98
ATOM     98  C   UNL     1      -5.661   3.300  18.275  1.00  0.00     0.058 A 
ATOM     99  C   UNL     1      -6.419   4.481  18.341  1.00  0.00     0.135 A 
ATOM    100  C   UNL     1      -5.284   2.699  19.488  1.00  0.00     0.135 A 
ATOM    101  F   UNL     1      -6.809   5.098  17.215  1.00  0.00    -0.206 F 
ATOM    102  C   UNL     1      -6.743   5.070  19.560  1.00  0.00     0.059 A 
ATOM    103  C   UNL     1      -5.628   3.251  20.718  1.00  0.00     0.059 A 
ATOM    104  F   UNL     1      -4.574   1.559  19.486  1.00  0.00    -0.206 F 
ATOM    105  C   UNL     1      -6.338   4.450  20.743  1.00  0.00     0.060 A 
BRANCH 105 106
ATOM    106  S   UNL     1      -6.752   5.231  22.317  1.00  0.00     0.124 S 
ATOM    107  O   UNL     1      -5.838   6.368  22.329  1.00  0.00    -0.237 OA
ATOM    108  O   UNL     1      -8.165   5.555  22.142  1.00  0.00    -0.237 OA
ATOM    109  O   UNL     1      -6.471   4.189  23.299  1.00  0.00    -0.744 OA
ENDBRANCH 105 106
ENDBRANCH  73  98
ENDBRANCH  47  48
ENDBRANCH  40  42
ENDBRANCH  39  40
ENDBRANCH  38  39
ENDBRANCH  37  38
ENDBRANCH  36  37
ENDBRANCH  35  36
ENDBRANCH  34  35
ENDBRANCH  33  34
ENDBRANCH   1  33
TORSDOF 28
