REMARK SMILES CC[NH+]1CCC2(CC1)OC[C@@H](C(=O)OCCOCCOCCOCCOC(=O)c1ccc(-c3c4nc(c(-c5c(F)cc(S(=O)(=O)[O-])cc5F)c5ccc([nH]5)c(-c5c(F)cc(S(=O)(=O)[O-])cc5F)c5nc(c(-c6c(F)cc(S(=O)(=O)[O-])cc6F)c6ccc3[nH]6)C=C5)C=C4)cc1)N2C(=O)c1ccc(Cl)c([N+](=O)[O-])c1
REMARK SMILES IDX 20 1 19 2 18 3 17 4 16 5 15 6 14 7 12 8 13 9 11 10 3 11 4 12
REMARK SMILES IDX 8 13 5 15 7 16 6 17 9 18 95 19 10 20 2 21 1 22 96 23 97 24
REMARK SMILES IDX 98 25 99 26 107 27 100 28 103 29 101 30 102 31 104 32 105 33
REMARK SMILES IDX 106 34 21 35 22 36 23 37 24 38 25 39 26 40 27 41 28 42 29 43
REMARK SMILES IDX 30 44 94 45 31 46 93 47 32 48 33 49 34 50 87 51 35 52 92 53
REMARK SMILES IDX 86 54 88 55 36 56 91 57 85 58 84 59 37 61 71 62 50 63 70 64
REMARK SMILES IDX 51 65 54 66 69 67 89 68 52 69 53 70 68 72 90 73 55 74 38 75
REMARK SMILES IDX 39 76 48 77 40 78 41 79 47 80 49 81 42 82 43 83 44 84 45 85
REMARK SMILES IDX 46 86 72 87 73 88 82 89 74 90 75 91 81 92 83 93 76 94 77 95
REMARK SMILES IDX 78 96 79 97 80 98 56 99 57 100 66 101 58 102 59 103 65 104
REMARK SMILES IDX 67 105 60 106 61 107 62 108 63 109 64 110
REMARK H PARENT 3 14 88 60 54 71
REMARK Flexibility Score: inf
ROOT
ATOM      1  O   UNL     1       1.317  -4.391   7.634  1.00  0.00    -0.377 OA
ENDROOT
BRANCH   1   2
ATOM      2  C   UNL     1       0.201  -4.058   8.442  1.00  0.00     0.188 C 
BRANCH   2   3
ATOM      3  C   UNL     1      -0.660  -5.282   8.758  1.00  0.00     0.188 C 
BRANCH   3   4
ATOM      4  O   UNL     1      -0.026  -6.389   9.386  1.00  0.00    -0.376 OA
BRANCH   4   5
ATOM      5  C   UNL     1       1.106  -6.997   8.764  1.00  0.00     0.202 C 
BRANCH   5   6
ATOM      6  C   UNL     1       1.002  -7.511   7.311  1.00  0.00     0.261 C 
BRANCH   6   7
ATOM      7  O   UNL     1       1.037  -6.492   6.272  1.00  0.00    -0.462 OA
BRANCH   7   8
ATOM      8  C   UNL     1      -0.155  -6.235   5.694  1.00  0.00     0.331 C 
ATOM      9  O   UNL     1      -1.179  -6.871   5.968  1.00  0.00    -0.250 OA
BRANCH   8  10
ATOM     10  C   UNL     1      -0.241  -5.137   4.613  1.00  0.00     0.224 C 
ATOM     11  N   UNL     1       0.543  -1.456   1.079  1.00  0.00    -0.335 N 
ATOM     12  C   UNL     1      -0.493  -1.557   2.092  1.00  0.00     0.267 C 
ATOM     13  C   UNL     1       1.563  -2.496   1.023  1.00  0.00     0.267 C 
ATOM     14  H   UNL     1       1.074  -0.676   1.465  1.00  0.00     0.348 HD
ATOM     15  C   UNL     1      -0.975  -2.954   2.406  1.00  0.00     0.120 C 
ATOM     16  C   UNL     1       1.134  -3.900   1.398  1.00  0.00     0.120 C 
ATOM     17  C   UNL     1       0.148  -4.001   2.556  1.00  0.00     0.155 C 
ATOM     18  O   UNL     1      -0.543  -5.242   2.257  1.00  0.00    -0.352 OA
ATOM     19  N   UNL     1       0.670  -4.177   3.942  1.00  0.00    -0.293 N 
ATOM     20  C   UNL     1      -0.742  -5.976   3.447  1.00  0.00     0.200 C 
BRANCH  11  21
ATOM     21  C   UNL     1       0.078  -1.027  -0.235  1.00  0.00     0.258 C 
ATOM     22  C   UNL     1       0.875   0.207  -0.639  1.00  0.00     0.071 C 
ENDBRANCH  11  21
BRANCH  19  23
ATOM     23  C   UNL     1       1.098  -3.060   4.687  1.00  0.00     0.257 C 
ATOM     24  O   UNL     1       0.463  -2.652   5.658  1.00  0.00    -0.269 OA
BRANCH  23  25
ATOM     25  C   UNL     1       2.231  -2.188   4.241  1.00  0.00     0.047 A 
ATOM     26  C   UNL     1       3.492  -2.653   3.876  1.00  0.00     0.016 A 
ATOM     27  C   UNL     1       1.976  -0.806   4.157  1.00  0.00     0.101 A 
ATOM     28  C   UNL     1       4.425  -1.756   3.312  1.00  0.00     0.028 A 
ATOM     29  C   UNL     1       2.841   0.060   3.456  1.00  0.00     0.288 A 
ATOM     30  C   UNL     1       4.089  -0.412   3.044  1.00  0.00     0.118 A 
ATOM     31  Cl  UNL     1       5.285   0.513   2.209  1.00  0.00    -0.077 Cl
BRANCH  29  32
ATOM     32  N   UNL     1       2.300   1.380   3.080  1.00  0.00     0.064 N 
ATOM     33  O   UNL     1       2.888   2.064   2.235  1.00  0.00    -0.258 OA
ATOM     34  O   UNL     1       1.234   1.727   3.614  1.00  0.00    -0.258 OA
ENDBRANCH  29  32
ENDBRANCH  23  25
ENDBRANCH  19  23
ENDBRANCH   8  10
ENDBRANCH   7   8
ENDBRANCH   6   7
ENDBRANCH   5   6
ENDBRANCH   4   5
ENDBRANCH   3   4
ENDBRANCH   2   3
ENDBRANCH   1   2
BRANCH   1  35
ATOM     35  C   UNL     1       2.639  -4.062   8.043  1.00  0.00     0.188 C 
BRANCH  35  36
ATOM     36  C   UNL     1       2.821  -3.474   9.441  1.00  0.00     0.188 C 
BRANCH  36  37
ATOM     37  O   UNL     1       2.316  -2.153   9.662  1.00  0.00    -0.376 OA
BRANCH  37  38
ATOM     38  C   UNL     1       2.238  -1.268   8.547  1.00  0.00     0.202 C 
BRANCH  38  39
ATOM     39  C   UNL     1       3.545  -0.564   8.175  1.00  0.00     0.261 C 
BRANCH  39  40
ATOM     40  O   UNL     1       4.565  -1.473   7.731  1.00  0.00    -0.460 OA
BRANCH  40  41
ATOM     41  C   UNL     1       5.470  -1.817   8.677  1.00  0.00     0.338 C 
ATOM     42  O   UNL     1       5.509  -1.432   9.839  1.00  0.00    -0.246 OA
BRANCH  41  43
ATOM     43  C   UNL     1       6.358  -2.868   8.157  1.00  0.00     0.060 A 
ATOM     44  C   UNL     1       6.540  -4.027   8.922  1.00  0.00     0.016 A 
ATOM     45  C   UNL     1       7.079  -2.672   6.977  1.00  0.00     0.016 A 
ATOM     46  C   UNL     1       7.479  -4.977   8.535  1.00  0.00     0.010 A 
ATOM     47  C   UNL     1       8.032  -3.618   6.598  1.00  0.00     0.010 A 
ATOM     48  C   UNL     1       8.262  -4.752   7.398  1.00  0.00    -0.014 A 
BRANCH  48  49
ATOM     49  C   UNL     1       9.441  -5.609   7.144  1.00  0.00     0.031 A 
ATOM     50  C   UNL     1      10.800  -5.094   7.527  1.00  0.00     0.074 A 
ATOM     51  C   UNL     1       9.297  -6.825   6.591  1.00  0.00     0.049 A 
ATOM     52  N   UNL     1      11.975  -5.631   7.334  1.00  0.00    -0.248 NA
ATOM     53  C   UNL     1      10.838  -3.792   8.214  1.00  0.00     0.031 C 
ATOM     54  C   UNL     1       8.022  -7.434   6.217  1.00  0.00     0.029 A 
ATOM     55  N   UNL     1      10.237  -7.755   6.229  1.00  0.00    -0.354 N 
ATOM     56  C   UNL     1      12.894  -4.726   7.853  1.00  0.00     0.074 A 
ATOM     57  C   UNL     1      12.141  -3.595   8.348  1.00  0.00     0.031 C 
ATOM     58  C   UNL     1       8.262  -8.630   5.652  1.00  0.00     0.029 A 
ATOM     59  C   UNL     1       9.706  -8.850   5.593  1.00  0.00     0.049 A 
ATOM     60  H   UNL     1      11.199  -7.648   6.409  1.00  0.00     0.167 HD
ATOM     61  C   UNL     1      14.242  -4.833   7.909  1.00  0.00     0.037 A 
ATOM     62  C   UNL     1      10.320  -9.891   4.998  1.00  0.00     0.037 A 
ATOM     63  C   UNL     1      14.974  -5.971   7.414  1.00  0.00     0.049 A 
ATOM     64  C   UNL     1      11.823  -9.970   5.030  1.00  0.00     0.074 A 
ATOM     65  C   UNL     1      16.337  -6.202   7.458  1.00  0.00     0.029 A 
ATOM     66  N   UNL     1      14.403  -7.060   6.768  1.00  0.00    -0.354 N 
ATOM     67  N   UNL     1      12.681  -9.128   5.555  1.00  0.00    -0.248 NA
ATOM     68  C   UNL     1      12.442 -11.142   4.396  1.00  0.00     0.031 C 
ATOM     69  C   UNL     1      16.597  -7.398   6.780  1.00  0.00     0.029 A 
ATOM     70  C   UNL     1      15.390  -7.948   6.375  1.00  0.00     0.049 A 
ATOM     71  H   UNL     1      13.439  -7.182   6.613  1.00  0.00     0.167 HD
ATOM     72  C   UNL     1      13.941  -9.678   5.335  1.00  0.00     0.074 A 
ATOM     73  C   UNL     1      13.728 -10.932   4.641  1.00  0.00     0.031 C 
ATOM     74  C   UNL     1      15.160  -9.192   5.679  1.00  0.00     0.037 A 
BRANCH  61  75
ATOM     75  C   UNL     1      15.013  -3.673   8.481  1.00  0.00     0.058 A 
ATOM     76  C   UNL     1      14.960  -3.336   9.843  1.00  0.00     0.135 A 
ATOM     77  C   UNL     1      15.832  -2.893   7.647  1.00  0.00     0.135 A 
ATOM     78  F   UNL     1      14.180  -4.035  10.683  1.00  0.00    -0.206 F 
ATOM     79  C   UNL     1      15.664  -2.248  10.351  1.00  0.00     0.059 A 
ATOM     80  C   UNL     1      16.570  -1.821   8.140  1.00  0.00     0.059 A 
ATOM     81  F   UNL     1      15.918  -3.167   6.336  1.00  0.00    -0.206 F 
ATOM     82  C   UNL     1      16.465  -1.496   9.491  1.00  0.00     0.060 A 
BRANCH  82  83
ATOM     83  S   UNL     1      17.366  -0.083  10.163  1.00  0.00     0.124 S 
ATOM     84  O   UNL     1      16.281   0.862  10.411  1.00  0.00    -0.237 OA
ATOM     85  O   UNL     1      17.994  -0.652  11.351  1.00  0.00    -0.237 OA
ATOM     86  O   UNL     1      18.281   0.281   9.087  1.00  0.00    -0.744 OA
ENDBRANCH  82  83
ENDBRANCH  61  75
BRANCH  62  87
ATOM     87  C   UNL     1       9.504 -10.924   4.306  1.00  0.00     0.058 A 
ATOM     88  C   UNL     1       9.384 -12.223   4.816  1.00  0.00     0.135 A 
ATOM     89  C   UNL     1       8.794 -10.613   3.134  1.00  0.00     0.135 A 
ATOM     90  F   UNL     1      10.051 -12.572   5.927  1.00  0.00    -0.206 F 
ATOM     91  C   UNL     1       8.591 -13.181   4.191  1.00  0.00     0.059 A 
ATOM     92  C   UNL     1       7.973 -11.544   2.507  1.00  0.00     0.059 A 
ATOM     93  F   UNL     1       8.864  -9.379   2.611  1.00  0.00    -0.206 F 
ATOM     94  C   UNL     1       7.881 -12.827   3.042  1.00  0.00     0.060 A 
BRANCH  94  95
ATOM     95  S   UNL     1       6.788 -14.052   2.288  1.00  0.00     0.124 S 
ATOM     96  O   UNL     1       7.747 -14.991   1.718  1.00  0.00    -0.237 OA
ATOM     97  O   UNL     1       6.030 -14.531   3.440  1.00  0.00    -0.237 OA
ATOM     98  O   UNL     1       6.021 -13.268   1.325  1.00  0.00    -0.744 OA
ENDBRANCH  94  95
ENDBRANCH  62  87
BRANCH  74  99
ATOM     99  C   UNL     1      16.363 -10.030   5.338  1.00  0.00     0.058 A 
ATOM    100  C   UNL     1      16.807 -10.187   4.016  1.00  0.00     0.135 A 
ATOM    101  C   UNL     1      17.117 -10.636   6.357  1.00  0.00     0.135 A 
ATOM    102  F   UNL     1      16.121  -9.634   3.002  1.00  0.00    -0.206 F 
ATOM    103  C   UNL     1      17.940 -10.936   3.713  1.00  0.00     0.059 A 
ATOM    104  C   UNL     1      18.272 -11.361   6.081  1.00  0.00     0.059 A 
ATOM    105  F   UNL     1      16.745 -10.508   7.641  1.00  0.00    -0.206 F 
ATOM    106  C   UNL     1      18.668 -11.516   4.754  1.00  0.00     0.060 A 
BRANCH 106 107
ATOM    107  S   UNL     1      20.154 -12.458   4.349  1.00  0.00     0.124 S 
ATOM    108  O   UNL     1      19.585 -13.659   3.745  1.00  0.00    -0.237 OA
ATOM    109  O   UNL     1      20.853 -11.559   3.436  1.00  0.00    -0.237 OA
ATOM    110  O   UNL     1      20.797 -12.652   5.644  1.00  0.00    -0.744 OA
ENDBRANCH 106 107
ENDBRANCH  74  99
ENDBRANCH  48  49
ENDBRANCH  41  43
ENDBRANCH  40  41
ENDBRANCH  39  40
ENDBRANCH  38  39
ENDBRANCH  37  38
ENDBRANCH  36  37
ENDBRANCH  35  36
ENDBRANCH   1  35
TORSDOF 27
