REMARK SMILES [NH3+][C@@]1(C(=O)OCCOCCOCCOCCOC(=O)c2ccc(-c3c4nc(c(-c5c(F)cc(S(=O)(=O)[O-])cc5F)c5ccc([nH]5)c(-c5c(F)cc(S(=O)(=O)[O-])cc5F)c5nc(c(-c6c(F)cc(S(=O)(=O)[O-])cc6F)c6ccc3[nH]6)C=C5)C=C4)cc2)CC[C@@H](Sc2ccc(Cl)c(Cl)c2)C1
REMARK SMILES IDX 12 1 11 2 10 3 9 4 8 5 7 6 6 7 5 8 3 9 4 10 2 11 86 12 98 13
REMARK SMILES IDX 87 14 88 15 1 16 89 20 90 21 91 22 97 23 92 24 95 25 93 26
REMARK SMILES IDX 96 27 94 28 13 29 14 30 15 31 16 32 17 33 18 34 19 35 20 36
REMARK SMILES IDX 21 37 85 38 22 39 84 40 23 41 24 42 25 43 78 44 26 45 83 46
REMARK SMILES IDX 77 47 79 48 27 49 82 50 76 51 75 52 28 54 62 55 41 56 61 57
REMARK SMILES IDX 42 58 45 59 60 60 80 61 43 62 44 63 59 65 81 66 46 67 29 68
REMARK SMILES IDX 30 69 39 70 31 71 32 72 38 73 40 74 33 75 34 76 35 77 36 78
REMARK SMILES IDX 37 79 63 80 64 81 73 82 65 83 66 84 72 85 74 86 67 87 68 88
REMARK SMILES IDX 69 89 70 90 71 91 47 92 48 93 57 94 49 95 50 96 56 97 58 98
REMARK SMILES IDX 51 99 52 100 53 101 54 102 55 103
REMARK H PARENT 1 17 1 18 1 19 79 53 45 64
REMARK Flexibility Score: inf
ROOT
ATOM      1  C   UNL     1       1.625   3.063  -4.638  1.00  0.00     0.188 C 
ENDROOT
BRANCH   1   2
ATOM      2  O   UNL     1       1.094   2.556  -3.420  1.00  0.00    -0.377 OA
BRANCH   2   3
ATOM      3  C   UNL     1       1.690   1.392  -2.895  1.00  0.00     0.188 C 
BRANCH   3   4
ATOM      4  C   UNL     1       0.908   0.097  -3.160  1.00  0.00     0.188 C 
BRANCH   4   5
ATOM      5  O   UNL     1      -0.122   0.053  -4.137  1.00  0.00    -0.376 OA
BRANCH   5   6
ATOM      6  C   UNL     1      -1.104   1.081  -4.212  1.00  0.00     0.202 C 
BRANCH   6   7
ATOM      7  C   UNL     1      -1.863   1.562  -2.961  1.00  0.00     0.261 C 
BRANCH   7   8
ATOM      8  O   UNL     1      -1.043   1.981  -1.855  1.00  0.00    -0.459 OA
BRANCH   8   9
ATOM      9  C   UNL     1      -1.050   1.201  -0.748  1.00  0.00     0.368 C 
ATOM     10  O   UNL     1      -1.730   0.185  -0.623  1.00  0.00    -0.245 OA
BRANCH   9  11
ATOM     11  C   UNL     1       0.005   1.622   0.330  1.00  0.00     0.193 C 
ATOM     12  C   UNL     1      -0.709   1.931   1.652  1.00  0.00     0.082 C 
ATOM     13  C   UNL     1       0.837   2.887   0.023  1.00  0.00     0.095 C 
ATOM     14  C   UNL     1      -0.875   3.441   1.659  1.00  0.00     0.022 C 
ATOM     15  C   UNL     1       0.372   3.983   0.975  1.00  0.00     0.059 C 
BRANCH  11  16
ATOM     16  N   UNL     1       0.885   0.442   0.573  1.00  0.00    -0.343 N 
ATOM     17  H   UNL     1       0.309  -0.376   0.773  1.00  0.00     0.345 HD
ATOM     18  H   UNL     1       1.494   0.631   1.369  1.00  0.00     0.345 HD
ATOM     19  H   UNL     1       1.453   0.265  -0.255  1.00  0.00     0.345 HD
ENDBRANCH  11  16
BRANCH  15  20
ATOM     20  S   UNL     1       1.700   4.663   2.057  1.00  0.00    -0.122 SA
BRANCH  20  21
ATOM     21  C   UNL     1       2.181   3.323   3.127  1.00  0.00     0.009 A 
ATOM     22  C   UNL     1       1.903   3.436   4.493  1.00  0.00     0.017 A 
ATOM     23  C   UNL     1       2.964   2.251   2.686  1.00  0.00     0.037 A 
ATOM     24  C   UNL     1       2.370   2.479   5.398  1.00  0.00     0.023 A 
ATOM     25  C   UNL     1       3.417   1.277   3.585  1.00  0.00     0.060 A 
ATOM     26  C   UNL     1       3.123   1.394   4.946  1.00  0.00     0.059 A 
ATOM     27  Cl  UNL     1       4.364  -0.025   2.953  1.00  0.00    -0.083 Cl
ATOM     28  Cl  UNL     1       3.685   0.257   6.120  1.00  0.00    -0.083 Cl
ENDBRANCH  20  21
ENDBRANCH  15  20
ENDBRANCH   9  11
ENDBRANCH   8   9
ENDBRANCH   7   8
ENDBRANCH   6   7
ENDBRANCH   5   6
ENDBRANCH   4   5
ENDBRANCH   3   4
ENDBRANCH   2   3
ENDBRANCH   1   2
BRANCH   1  29
ATOM     29  C   UNL     1       2.171   2.050  -5.662  1.00  0.00     0.188 C 
BRANCH  29  30
ATOM     30  O   UNL     1       3.157   1.168  -5.137  1.00  0.00    -0.376 OA
BRANCH  30  31
ATOM     31  C   UNL     1       4.529   1.521  -5.262  1.00  0.00     0.202 C 
BRANCH  31  32
ATOM     32  C   UNL     1       5.034   2.786  -4.545  1.00  0.00     0.261 C 
BRANCH  32  33
ATOM     33  O   UNL     1       4.445   4.042  -4.921  1.00  0.00    -0.460 OA
BRANCH  33  34
ATOM     34  C   UNL     1       4.428   4.387  -6.229  1.00  0.00     0.338 C 
ATOM     35  O   UNL     1       4.927   3.781  -7.150  1.00  0.00    -0.246 OA
BRANCH  34  36
ATOM     36  C   UNL     1       3.503   5.538  -6.370  1.00  0.00     0.060 A 
ATOM     37  C   UNL     1       2.374   5.405  -7.189  1.00  0.00     0.016 A 
ATOM     38  C   UNL     1       3.743   6.734  -5.691  1.00  0.00     0.016 A 
ATOM     39  C   UNL     1       1.495   6.478  -7.352  1.00  0.00     0.010 A 
ATOM     40  C   UNL     1       2.875   7.816  -5.874  1.00  0.00     0.010 A 
ATOM     41  C   UNL     1       1.762   7.703  -6.727  1.00  0.00    -0.014 A 
BRANCH  41  42
ATOM     42  C   UNL     1       0.975   8.910  -7.085  1.00  0.00     0.031 A 
ATOM     43  C   UNL     1       1.561   9.884  -8.073  1.00  0.00     0.074 A 
ATOM     44  C   UNL     1      -0.238   9.138  -6.549  1.00  0.00     0.049 A 
ATOM     45  N   UNL     1       1.095  11.036  -8.479  1.00  0.00    -0.248 NA
ATOM     46  C   UNL     1       2.847   9.506  -8.681  1.00  0.00     0.031 C 
ATOM     47  C   UNL     1      -0.928   8.252  -5.613  1.00  0.00     0.029 A 
ATOM     48  N   UNL     1      -1.097  10.198  -6.705  1.00  0.00    -0.354 N 
ATOM     49  C   UNL     1       2.033  11.526  -9.381  1.00  0.00     0.074 A 
ATOM     50  C   UNL     1       3.107  10.559  -9.442  1.00  0.00     0.031 C 
ATOM     51  C   UNL     1      -2.098   8.815  -5.262  1.00  0.00     0.029 A 
ATOM     52  C   UNL     1      -2.222  10.117  -5.917  1.00  0.00     0.049 A 
ATOM     53  H   UNL     1      -0.925  10.945  -7.322  1.00  0.00     0.167 HD
ATOM     54  C   UNL     1       1.999  12.675 -10.095  1.00  0.00     0.037 A 
ATOM     55  C   UNL     1      -3.219  11.005  -5.723  1.00  0.00     0.037 A 
ATOM     56  C   UNL     1       0.928  13.635 -10.026  1.00  0.00     0.049 A 
ATOM     57  C   UNL     1      -3.197  12.314  -6.473  1.00  0.00     0.074 A 
ATOM     58  C   UNL     1       0.789  14.820 -10.728  1.00  0.00     0.029 A 
ATOM     59  N   UNL     1      -0.181  13.530  -9.198  1.00  0.00    -0.354 N 
ATOM     60  N   UNL     1      -2.320  12.752  -7.346  1.00  0.00    -0.248 NA
ATOM     61  C   UNL     1      -4.301  13.250  -6.213  1.00  0.00     0.031 C 
ATOM     62  C   UNL     1      -0.370  15.461 -10.279  1.00  0.00     0.029 A 
ATOM     63  C   UNL     1      -0.990  14.645  -9.347  1.00  0.00     0.049 A 
ATOM     64  H   UNL     1      -0.365  12.775  -8.594  1.00  0.00     0.167 HD
ATOM     65  C   UNL     1      -2.781  14.000  -7.757  1.00  0.00     0.074 A 
ATOM     66  C   UNL     1      -4.022  14.239  -7.051  1.00  0.00     0.031 C 
ATOM     67  C   UNL     1      -2.228  14.869  -8.640  1.00  0.00     0.037 A 
BRANCH  54  68
ATOM     68  C   UNL     1       3.168  12.979 -10.994  1.00  0.00     0.058 A 
ATOM     69  C   UNL     1       3.407  12.254 -12.172  1.00  0.00     0.135 A 
ATOM     70  C   UNL     1       4.034  14.044 -10.695  1.00  0.00     0.135 A 
ATOM     71  F   UNL     1       2.623  11.213 -12.498  1.00  0.00    -0.206 F 
ATOM     72  C   UNL     1       4.473  12.562 -13.012  1.00  0.00     0.059 A 
ATOM     73  C   UNL     1       5.088  14.389 -11.535  1.00  0.00     0.059 A 
ATOM     74  F   UNL     1       3.855  14.767  -9.578  1.00  0.00    -0.206 F 
ATOM     75  C   UNL     1       5.306  13.634 -12.687  1.00  0.00     0.060 A 
BRANCH  75  76
ATOM     76  S   UNL     1       6.672  14.032 -13.798  1.00  0.00     0.124 S 
ATOM     77  O   UNL     1       7.565  12.899 -13.578  1.00  0.00    -0.237 OA
ATOM     78  O   UNL     1       6.011  14.074 -15.098  1.00  0.00    -0.237 OA
ATOM     79  O   UNL     1       7.154  15.316 -13.300  1.00  0.00    -0.744 OA
ENDBRANCH  75  76
ENDBRANCH  54  68
BRANCH  55  80
ATOM     80  C   UNL     1      -4.312  10.703  -4.758  1.00  0.00     0.058 A 
ATOM     81  C   UNL     1      -5.631  10.502  -5.191  1.00  0.00     0.135 A 
ATOM     82  C   UNL     1      -4.061  10.622  -3.378  1.00  0.00     0.135 A 
ATOM     83  F   UNL     1      -5.928  10.584  -6.497  1.00  0.00    -0.206 F 
ATOM     84  C   UNL     1      -6.664  10.249  -4.293  1.00  0.00     0.059 A 
ATOM     85  C   UNL     1      -5.070  10.340  -2.464  1.00  0.00     0.059 A 
ATOM     86  F   UNL     1      -2.816  10.799  -2.910  1.00  0.00    -0.206 F 
ATOM     87  C   UNL     1      -6.372  10.165  -2.930  1.00  0.00     0.060 A 
BRANCH  87  88
ATOM     88  S   UNL     1      -7.711   9.785  -1.780  1.00  0.00     0.124 S 
ATOM     89  O   UNL     1      -8.478  11.024  -1.801  1.00  0.00    -0.237 OA
ATOM     90  O   UNL     1      -8.340   8.631  -2.416  1.00  0.00    -0.237 OA
ATOM     91  O   UNL     1      -7.009   9.497  -0.532  1.00  0.00    -0.744 OA
ENDBRANCH  87  88
ENDBRANCH  55  80
BRANCH  67  92
ATOM     92  C   UNL     1      -2.973  16.148  -8.923  1.00  0.00     0.058 A 
ATOM     93  C   UNL     1      -3.068  17.177  -7.973  1.00  0.00     0.135 A 
ATOM     94  C   UNL     1      -3.553  16.368 -10.184  1.00  0.00     0.135 A 
ATOM     95  F   UNL     1      -2.537  17.019  -6.750  1.00  0.00    -0.206 F 
ATOM     96  C   UNL     1      -3.735  18.366  -8.252  1.00  0.00     0.059 A 
ATOM     97  C   UNL     1      -4.195  17.562 -10.496  1.00  0.00     0.059 A 
ATOM     98  F   UNL     1      -3.482  15.423 -11.136  1.00  0.00    -0.206 F 
ATOM     99  C   UNL     1      -4.292  18.551  -9.519  1.00  0.00     0.060 A 
BRANCH  99 100
ATOM    100  S   UNL     1      -5.127  20.111  -9.877  1.00  0.00     0.124 S 
ATOM    101  O   UNL     1      -6.343  19.985  -9.081  1.00  0.00    -0.237 OA
ATOM    102  O   UNL     1      -4.159  21.097  -9.405  1.00  0.00    -0.237 OA
ATOM    103  O   UNL     1      -5.318  20.072 -11.324  1.00  0.00    -0.744 OA
ENDBRANCH  99 100
ENDBRANCH  67  92
ENDBRANCH  41  42
ENDBRANCH  34  36
ENDBRANCH  33  34
ENDBRANCH  32  33
ENDBRANCH  31  32
ENDBRANCH  30  31
ENDBRANCH  29  30
ENDBRANCH   1  29
TORSDOF 26
