REMARK SMILES NC(=O)C[NH+]1CCC([NH2+]Cc2cc(C(=O)OCCOCCOCCOCCOC(=O)c3ccc(-c4c5nc(c(-c6c(F)cc(S(=O)(=O)[O-])cc6F)c6ccc([nH]6)c(-c6c(F)cc(S(=O)(=O)[O-])cc6F)c6nc(c(-c7c(F)cc(S(=O)(=O)[O-])cc7F)c7ccc4[nH]7)C=C6)C=C5)cc3)cs2)CC1
REMARK SMILES IDX 21 1 20 2 19 3 18 4 17 5 16 6 14 7 15 8 13 9 11 10 12 11
REMARK SMILES IDX 98 12 97 13 10 14 9 15 8 18 5 19 6 20 100 21 7 23 99 24 4 25
REMARK SMILES IDX 2 26 1 27 3 30 22 31 23 32 24 33 25 34 26 35 27 36 28 37
REMARK SMILES IDX 29 38 30 39 31 40 32 41 96 42 33 43 95 44 34 45 35 46 36 47
REMARK SMILES IDX 89 48 37 49 94 50 88 51 90 52 38 53 93 54 87 55 86 56 39 58
REMARK SMILES IDX 73 59 52 60 72 61 53 62 56 63 71 64 91 65 54 66 55 67 70 69
REMARK SMILES IDX 92 70 57 71 40 72 41 73 50 74 42 75 43 76 49 77 51 78 44 79
REMARK SMILES IDX 45 80 46 81 47 82 48 83 74 84 75 85 84 86 76 87 77 88 83 89
REMARK SMILES IDX 85 90 78 91 79 92 80 93 81 94 82 95 58 96 59 97 68 98 60 99
REMARK SMILES IDX 61 100 67 101 69 102 62 103 63 104 64 105 65 106 66 107
REMARK H PARENT 9 16 9 17 5 22 1 28 1 29 90 57 56 68
REMARK Flexibility Score: inf
ROOT
ATOM      1  C   UNL     1       3.782   3.049   0.561  1.00  0.00     0.188 C 
ENDROOT
BRANCH   1   2
ATOM      2  C   UNL     1       3.091   3.996   1.565  1.00  0.00     0.188 C 
BRANCH   2   3
ATOM      3  O   UNL     1       2.134   3.537   2.515  1.00  0.00    -0.376 OA
BRANCH   3   4
ATOM      4  C   UNL     1       1.240   2.483   2.194  1.00  0.00     0.202 C 
BRANCH   4   5
ATOM      5  C   UNL     1       0.259   2.676   1.035  1.00  0.00     0.261 C 
BRANCH   5   6
ATOM      6  O   UNL     1       0.837   3.280  -0.127  1.00  0.00    -0.460 OA
BRANCH   6   7
ATOM      7  C   UNL     1       0.516   4.585  -0.362  1.00  0.00     0.339 C 
ATOM      8  O   UNL     1      -0.218   5.267   0.344  1.00  0.00    -0.246 OA
BRANCH   7   9
ATOM      9  C   UNL     1       1.131   5.087  -1.591  1.00  0.00     0.071 A 
ATOM     10  C   UNL     1       2.178   4.910  -3.687  1.00  0.00     0.060 A 
ATOM     11  C   UNL     1       2.090   4.408  -2.406  1.00  0.00     0.037 A 
ATOM     12  S   UNL     1       1.504   6.490  -3.721  1.00  0.00    -0.142 S 
ATOM     13  C   UNL     1       0.853   6.320  -2.144  1.00  0.00     0.081 A 
BRANCH  10  14
ATOM     14  C   UNL     1       2.737   4.285  -4.943  1.00  0.00     0.308 C 
BRANCH  14  15
ATOM     15  N   UNL     1       3.226   2.906  -4.825  1.00  0.00    -0.339 N 
ATOM     16  H   UNL     1       3.897   2.757  -5.579  1.00  0.00     0.346 HD
ATOM     17  H   UNL     1       3.603   2.850  -3.878  1.00  0.00     0.346 HD
BRANCH  15  18
ATOM     18  C   UNL     1       2.237   1.805  -4.892  1.00  0.00     0.194 C 
ATOM     19  N   UNL     1       1.427  -0.621  -3.451  1.00  0.00    -0.327 N 
ATOM     20  C   UNL     1       2.151  -0.776  -4.721  1.00  0.00     0.268 C 
ATOM     21  C   UNL     1       0.473   0.485  -3.595  1.00  0.00     0.268 C 
ATOM     22  H   UNL     1       2.099  -0.414  -2.712  1.00  0.00     0.348 HD
ATOM     23  C   UNL     1       3.012   0.470  -4.998  1.00  0.00     0.126 C 
ATOM     24  C   UNL     1       1.288   1.758  -3.694  1.00  0.00     0.126 C 
BRANCH  19  25
ATOM     25  C   UNL     1       0.734  -1.864  -3.047  1.00  0.00     0.363 C 
BRANCH  25  26
ATOM     26  C   UNL     1       0.103  -1.683  -1.655  1.00  0.00     0.272 C 
ATOM     27  N   UNL     1       0.979  -1.380  -0.649  1.00  0.00    -0.365 N 
ATOM     28  H   UNL     1       0.648  -1.250   0.269  1.00  0.00     0.159 HD
ATOM     29  H   UNL     1       1.940  -1.293  -0.843  1.00  0.00     0.159 HD
ATOM     30  O   UNL     1      -1.100  -1.759  -1.427  1.00  0.00    -0.269 OA
ENDBRANCH  25  26
ENDBRANCH  19  25
ENDBRANCH  15  18
ENDBRANCH  14  15
ENDBRANCH  10  14
ENDBRANCH   7   9
ENDBRANCH   6   7
ENDBRANCH   5   6
ENDBRANCH   4   5
ENDBRANCH   3   4
ENDBRANCH   2   3
ENDBRANCH   1   2
BRANCH   1  31
ATOM     31  O   UNL     1       3.371   1.693   0.598  1.00  0.00    -0.377 OA
BRANCH  31  32
ATOM     32  C   UNL     1       4.322   0.813   1.196  1.00  0.00     0.188 C 
BRANCH  32  33
ATOM     33  C   UNL     1       4.721   1.176   2.637  1.00  0.00     0.188 C 
BRANCH  33  34
ATOM     34  O   UNL     1       5.349   2.455   2.729  1.00  0.00    -0.376 OA
BRANCH  34  35
ATOM     35  C   UNL     1       6.763   2.470   2.891  1.00  0.00     0.202 C 
BRANCH  35  36
ATOM     36  C   UNL     1       7.559   2.188   1.608  1.00  0.00     0.261 C 
BRANCH  36  37
ATOM     37  O   UNL     1       7.395   0.869   1.064  1.00  0.00    -0.460 OA
BRANCH  37  38
ATOM     38  C   UNL     1       7.713  -0.168   1.868  1.00  0.00     0.338 C 
ATOM     39  O   UNL     1       8.191  -0.112   2.986  1.00  0.00    -0.246 OA
BRANCH  38  40
ATOM     40  C   UNL     1       7.202  -1.402   1.244  1.00  0.00     0.060 A 
ATOM     41  C   UNL     1       6.345  -2.224   1.987  1.00  0.00     0.016 A 
ATOM     42  C   UNL     1       7.593  -1.761  -0.048  1.00  0.00     0.016 A 
ATOM     43  C   UNL     1       5.918  -3.440   1.457  1.00  0.00     0.010 A 
ATOM     44  C   UNL     1       7.180  -2.988  -0.570  1.00  0.00     0.010 A 
ATOM     45  C   UNL     1       6.375  -3.848   0.197  1.00  0.00    -0.014 A 
BRANCH  45  46
ATOM     46  C   UNL     1       6.202  -5.257  -0.227  1.00  0.00     0.031 A 
ATOM     47  C   UNL     1       7.328  -6.219   0.040  1.00  0.00     0.074 A 
ATOM     48  C   UNL     1       5.076  -5.672  -0.831  1.00  0.00     0.049 A 
ATOM     49  N   UNL     1       7.442  -7.477  -0.295  1.00  0.00    -0.248 NA
ATOM     50  C   UNL     1       8.483  -5.686   0.783  1.00  0.00     0.031 C 
ATOM     51  C   UNL     1       3.904  -4.842  -1.103  1.00  0.00     0.029 A 
ATOM     52  N   UNL     1       4.743  -6.904  -1.333  1.00  0.00    -0.354 N 
ATOM     53  C   UNL     1       8.679  -7.885   0.191  1.00  0.00     0.074 A 
ATOM     54  C   UNL     1       9.290  -6.735   0.819  1.00  0.00     0.031 C 
ATOM     55  C   UNL     1       2.984  -5.587  -1.741  1.00  0.00     0.029 A 
ATOM     56  C   UNL     1       3.515  -6.934  -1.949  1.00  0.00     0.049 A 
ATOM     57  H   UNL     1       5.328  -7.693  -1.260  1.00  0.00     0.167 HD
ATOM     58  C   UNL     1       9.252  -9.109   0.124  1.00  0.00     0.037 A 
ATOM     59  C   UNL     1       2.906  -7.929  -2.624  1.00  0.00     0.037 A 
ATOM     60  C   UNL     1       8.643 -10.248  -0.509  1.00  0.00     0.049 A 
ATOM     61  C   UNL     1       3.592  -9.267  -2.747  1.00  0.00     0.074 A 
ATOM     62  C   UNL     1       9.136 -11.535  -0.626  1.00  0.00     0.029 A 
ATOM     63  N   UNL     1       7.408 -10.233  -1.141  1.00  0.00    -0.354 N 
ATOM     64  N   UNL     1       4.755  -9.645  -2.270  1.00  0.00    -0.248 NA
ATOM     65  C   UNL     1       2.883 -10.313  -3.498  1.00  0.00     0.031 C 
ATOM     66  C   UNL     1       8.219 -12.288  -1.366  1.00  0.00     0.029 A 
ATOM     67  C   UNL     1       7.131 -11.482  -1.667  1.00  0.00     0.049 A 
ATOM     68  H   UNL     1       6.816  -9.449  -1.205  1.00  0.00     0.167 HD
ATOM     69  C   UNL     1       4.903 -10.979  -2.638  1.00  0.00     0.074 A 
ATOM     70  C   UNL     1       3.709 -11.344  -3.372  1.00  0.00     0.031 C 
ATOM     71  C   UNL     1       5.931 -11.829  -2.387  1.00  0.00     0.037 A 
BRANCH  58  72
ATOM     72  C   UNL     1      10.618  -9.267   0.728  1.00  0.00     0.058 A 
ATOM     73  C   UNL     1      10.814  -9.272   2.119  1.00  0.00     0.135 A 
ATOM     74  C   UNL     1      11.745  -9.428  -0.093  1.00  0.00     0.135 A 
ATOM     75  F   UNL     1       9.773  -9.098   2.949  1.00  0.00    -0.206 F 
ATOM     76  C   UNL     1      12.083  -9.405   2.673  1.00  0.00     0.059 A 
ATOM     77  C   UNL     1      13.020  -9.588   0.440  1.00  0.00     0.059 A 
ATOM     78  F   UNL     1      11.614  -9.423  -1.429  1.00  0.00    -0.206 F 
ATOM     79  C   UNL     1      13.181  -9.560   1.824  1.00  0.00     0.060 A 
BRANCH  79  80
ATOM     80  S   UNL     1      14.822  -9.727   2.557  1.00  0.00     0.124 S 
ATOM     81  O   UNL     1      15.084  -8.359   2.994  1.00  0.00    -0.237 OA
ATOM     82  O   UNL     1      14.592 -10.699   3.621  1.00  0.00    -0.237 OA
ATOM     83  O   UNL     1      15.643 -10.199   1.447  1.00  0.00    -0.744 OA
ENDBRANCH  79  80
ENDBRANCH  58  72
BRANCH  59  84
ATOM     84  C   UNL     1       1.578  -7.696  -3.252  1.00  0.00     0.058 A 
ATOM     85  C   UNL     1       0.422  -8.315  -2.755  1.00  0.00     0.135 A 
ATOM     86  C   UNL     1       1.442  -6.852  -4.365  1.00  0.00     0.135 A 
ATOM     87  F   UNL     1       0.503  -9.139  -1.699  1.00  0.00    -0.206 F 
ATOM     88  C   UNL     1      -0.821  -8.119  -3.349  1.00  0.00     0.059 A 
ATOM     89  C   UNL     1       0.207  -6.623  -4.962  1.00  0.00     0.059 A 
ATOM     90  F   UNL     1       2.516  -6.225  -4.870  1.00  0.00    -0.206 F 
ATOM     91  C   UNL     1      -0.918  -7.270  -4.453  1.00  0.00     0.060 A 
BRANCH  91  92
ATOM     92  S   UNL     1      -2.539  -6.990  -5.198  1.00  0.00     0.124 S 
ATOM     93  O   UNL     1      -2.750  -8.240  -5.918  1.00  0.00    -0.237 OA
ATOM     94  O   UNL     1      -3.383  -6.777  -4.027  1.00  0.00    -0.237 OA
ATOM     95  O   UNL     1      -2.322  -5.809  -6.029  1.00  0.00    -0.744 OA
ENDBRANCH  91  92
ENDBRANCH  59  84
BRANCH  71  96
ATOM     96  C   UNL     1       5.798 -13.246  -2.872  1.00  0.00     0.058 A 
ATOM     97  C   UNL     1       5.933 -13.579  -4.228  1.00  0.00     0.135 A 
ATOM     98  C   UNL     1       5.600 -14.292  -1.956  1.00  0.00     0.135 A 
ATOM     99  F   UNL     1       6.120 -12.616  -5.144  1.00  0.00    -0.206 F 
ATOM    100  C   UNL     1       5.856 -14.898  -4.662  1.00  0.00     0.059 A 
ATOM    101  C   UNL     1       5.545 -15.620  -2.364  1.00  0.00     0.059 A 
ATOM    102  F   UNL     1       5.477 -14.028  -0.645  1.00  0.00    -0.206 F 
ATOM    103  C   UNL     1       5.664 -15.913  -3.722  1.00  0.00     0.060 A 
BRANCH 103 104
ATOM    104  S   UNL     1       5.606 -17.625  -4.293  1.00  0.00     0.124 S 
ATOM    105  O   UNL     1       4.278 -17.689  -4.894  1.00  0.00    -0.237 OA
ATOM    106  O   UNL     1       6.727 -17.683  -5.225  1.00  0.00    -0.237 OA
ATOM    107  O   UNL     1       5.778 -18.398  -3.066  1.00  0.00    -0.744 OA
ENDBRANCH 103 104
ENDBRANCH  71  96
ENDBRANCH  45  46
ENDBRANCH  38  40
ENDBRANCH  37  38
ENDBRANCH  36  37
ENDBRANCH  35  36
ENDBRANCH  34  35
ENDBRANCH  33  34
ENDBRANCH  32  33
ENDBRANCH  31  32
ENDBRANCH   1  31
TORSDOF 28
