REMARK SMILES O=C(OCCOCCOCCOCCOC(=O)[C@@H]1CCC[N@@H+](Cc2ccc(F)cc2Cl)C1)c1ccc(-c2c3nc(c(-c4c(F)cc(S(=O)(=O)[O-])cc4F)c4ccc([nH]4)c(-c4c(F)cc(S(=O)(=O)[O-])cc4F)c4nc(c(-c5c(F)cc(S(=O)(=O)[O-])cc5F)c5ccc2[nH]5)C=C4)C=C3)cc1
REMARK SMILES IDX 8 1 7 2 6 3 5 4 4 5 3 6 2 7 1 8 33 9 34 10 98 11 35 12 97 13
REMARK SMILES IDX 36 14 37 15 38 16 91 17 39 18 96 19 90 20 92 21 40 22 95 23
REMARK SMILES IDX 89 24 88 25 41 27 75 28 54 29 74 30 55 31 58 32 73 33 93 34
REMARK SMILES IDX 56 35 57 36 72 38 94 39 59 40 42 41 43 42 52 43 44 44 45 45
REMARK SMILES IDX 51 46 53 47 46 48 47 49 48 50 49 51 50 52 76 53 77 54 86 55
REMARK SMILES IDX 78 56 79 57 85 58 87 59 80 60 81 61 82 62 83 63 84 64 60 65
REMARK SMILES IDX 61 66 70 67 62 68 63 69 69 70 71 71 64 72 65 73 66 74 67 75
REMARK SMILES IDX 68 76 9 77 10 78 11 79 12 80 13 81 14 82 15 83 16 84 17 85
REMARK SMILES IDX 18 86 19 87 32 88 20 89 22 90 21 91 23 93 24 94 25 95 30 96
REMARK SMILES IDX 26 97 29 98 31 99 27 100 28 101
REMARK H PARENT 92 26 58 37 22 92
REMARK Flexibility Score: inf
ROOT
ATOM      1  C   UNL     1       1.475   1.839  -1.451  1.00  0.00     0.188 C 
ENDROOT
BRANCH   1   2
ATOM      2  C   UNL     1       2.035   0.466  -1.107  1.00  0.00     0.188 C 
BRANCH   2   3
ATOM      3  O   UNL     1       3.389   0.623  -0.684  1.00  0.00    -0.376 OA
BRANCH   3   4
ATOM      4  C   UNL     1       4.278  -0.461  -0.932  1.00  0.00     0.202 C 
BRANCH   4   5
ATOM      5  C   UNL     1       4.045  -1.696  -0.061  1.00  0.00     0.261 C 
BRANCH   5   6
ATOM      6  O   UNL     1       2.715  -1.804   0.475  1.00  0.00    -0.460 OA
BRANCH   6   7
ATOM      7  C   UNL     1       2.176  -1.246   1.589  1.00  0.00     0.338 C 
ATOM      8  O   UNL     1       1.016  -1.543   1.874  1.00  0.00    -0.246 OA
BRANCH   7   9
ATOM      9  C   UNL     1       2.874  -0.264   2.477  1.00  0.00     0.060 A 
ATOM     10  C   UNL     1       3.969   0.514   2.115  1.00  0.00     0.016 A 
ATOM     11  C   UNL     1       2.348  -0.076   3.767  1.00  0.00     0.016 A 
ATOM     12  C   UNL     1       4.587   1.378   2.995  1.00  0.00     0.010 A 
ATOM     13  C   UNL     1       2.962   0.793   4.676  1.00  0.00     0.010 A 
ATOM     14  C   UNL     1       4.122   1.478   4.296  1.00  0.00    -0.014 A 
BRANCH  14  15
ATOM     15  C   UNL     1       5.069   2.041   5.270  1.00  0.00     0.031 A 
ATOM     16  C   UNL     1       5.813   1.058   6.128  1.00  0.00     0.074 A 
ATOM     17  C   UNL     1       5.417   3.338   5.202  1.00  0.00     0.049 A 
ATOM     18  N   UNL     1       6.649   1.272   7.102  1.00  0.00    -0.248 NA
ATOM     19  C   UNL     1       5.590  -0.372   5.834  1.00  0.00     0.031 C 
ATOM     20  C   UNL     1       4.889   4.304   4.232  1.00  0.00     0.029 A 
ATOM     21  N   UNL     1       6.334   4.054   5.917  1.00  0.00    -0.354 N 
ATOM     22  C   UNL     1       6.990   0.012   7.583  1.00  0.00     0.074 A 
ATOM     23  C   UNL     1       6.290  -0.964   6.786  1.00  0.00     0.031 C 
ATOM     24  C   UNL     1       5.521   5.478   4.394  1.00  0.00     0.029 A 
ATOM     25  C   UNL     1       6.421   5.372   5.535  1.00  0.00     0.049 A 
ATOM     26  H   UNL     1       6.881   3.663   6.637  1.00  0.00     0.167 HD
ATOM     27  C   UNL     1       7.805  -0.284   8.619  1.00  0.00     0.037 A 
ATOM     28  C   UNL     1       7.122   6.377   6.091  1.00  0.00     0.037 A 
ATOM     29  C   UNL     1       8.506   0.731   9.353  1.00  0.00     0.049 A 
ATOM     30  C   UNL     1       7.946   6.042   7.306  1.00  0.00     0.074 A 
ATOM     31  C   UNL     1       9.301   0.604  10.473  1.00  0.00     0.029 A 
ATOM     32  N   UNL     1       8.492   2.081   9.013  1.00  0.00    -0.354 N 
ATOM     33  N   UNL     1       8.158   4.868   7.859  1.00  0.00    -0.248 NA
ATOM     34  C   UNL     1       8.600   7.160   7.992  1.00  0.00     0.031 C 
ATOM     35  C   UNL     1       9.731   1.886  10.838  1.00  0.00     0.029 A 
ATOM     36  C   UNL     1       9.252   2.803   9.911  1.00  0.00     0.049 A 
ATOM     37  H   UNL     1       8.012   2.464   8.245  1.00  0.00     0.167 HD
ATOM     38  C   UNL     1       8.984   5.101   8.949  1.00  0.00     0.074 A 
ATOM     39  C   UNL     1       9.246   6.530   8.964  1.00  0.00     0.031 C 
ATOM     40  C   UNL     1       9.483   4.227   9.860  1.00  0.00     0.037 A 
BRANCH  27  41
ATOM     41  C   UNL     1       7.863  -1.722   9.056  1.00  0.00     0.058 A 
ATOM     42  C   UNL     1       8.490  -2.723   8.296  1.00  0.00     0.135 A 
ATOM     43  C   UNL     1       7.202  -2.115  10.231  1.00  0.00     0.135 A 
ATOM     44  F   UNL     1       9.100  -2.414   7.140  1.00  0.00    -0.206 F 
ATOM     45  C   UNL     1       8.427  -4.065   8.667  1.00  0.00     0.059 A 
ATOM     46  C   UNL     1       7.149  -3.445  10.635  1.00  0.00     0.059 A 
ATOM     47  F   UNL     1       6.567  -1.204  10.986  1.00  0.00    -0.206 F 
ATOM     48  C   UNL     1       7.748  -4.416   9.835  1.00  0.00     0.060 A 
BRANCH  48  49
ATOM     49  S   UNL     1       7.644  -6.161  10.289  1.00  0.00     0.124 S 
ATOM     50  O   UNL     1       6.684  -6.661   9.309  1.00  0.00    -0.237 OA
ATOM     51  O   UNL     1       9.021  -6.612  10.113  1.00  0.00    -0.237 OA
ATOM     52  O   UNL     1       7.171  -6.126  11.669  1.00  0.00    -0.744 OA
ENDBRANCH  48  49
ENDBRANCH  27  41
BRANCH  28  53
ATOM     53  C   UNL     1       7.015   7.765   5.561  1.00  0.00     0.058 A 
ATOM     54  C   UNL     1       8.124   8.431   5.021  1.00  0.00     0.135 A 
ATOM     55  C   UNL     1       5.793   8.461   5.584  1.00  0.00     0.135 A 
ATOM     56  F   UNL     1       9.318   7.821   4.980  1.00  0.00    -0.206 F 
ATOM     57  C   UNL     1       8.032   9.735   4.537  1.00  0.00     0.059 A 
ATOM     58  C   UNL     1       5.668   9.752   5.079  1.00  0.00     0.059 A 
ATOM     59  F   UNL     1       4.693   7.876   6.085  1.00  0.00    -0.206 F 
ATOM     60  C   UNL     1       6.798  10.387   4.570  1.00  0.00     0.060 A 
BRANCH  60  61
ATOM     61  S   UNL     1       6.687  12.073   3.929  1.00  0.00     0.124 S 
ATOM     62  O   UNL     1       7.382  12.827   4.947  1.00  0.00    -0.237 OA
ATOM     63  O   UNL     1       7.364  11.953   2.635  1.00  0.00    -0.237 OA
ATOM     64  O   UNL     1       5.240  12.302   3.841  1.00  0.00    -0.744 OA
ENDBRANCH  60  61
ENDBRANCH  28  53
BRANCH  40  65
ATOM     65  C   UNL     1      10.394   4.796  10.905  1.00  0.00     0.058 A 
ATOM     66  C   UNL     1       9.903   5.562  11.971  1.00  0.00     0.135 A 
ATOM     67  C   UNL     1      11.768   4.516  10.861  1.00  0.00     0.135 A 
ATOM     68  F   UNL     1       8.596   5.859  12.048  1.00  0.00    -0.206 F 
ATOM     69  C   UNL     1      10.754   6.057  12.951  1.00  0.00     0.059 A 
ATOM     70  C   UNL     1      12.631   4.974  11.846  1.00  0.00     0.059 A 
ATOM     71  F   UNL     1      12.277   3.773   9.864  1.00  0.00    -0.206 F 
ATOM     72  C   UNL     1      12.116   5.755  12.880  1.00  0.00     0.060 A 
BRANCH  72  73
ATOM     73  S   UNL     1      13.206   6.373  14.176  1.00  0.00     0.124 S 
ATOM     74  O   UNL     1      13.318   7.782  13.816  1.00  0.00    -0.237 OA
ATOM     75  O   UNL     1      12.444   6.086  15.388  1.00  0.00    -0.237 OA
ATOM     76  O   UNL     1      14.420   5.580  14.004  1.00  0.00    -0.744 OA
ENDBRANCH  72  73
ENDBRANCH  40  65
ENDBRANCH  14  15
ENDBRANCH   7   9
ENDBRANCH   6   7
ENDBRANCH   5   6
ENDBRANCH   4   5
ENDBRANCH   3   4
ENDBRANCH   2   3
ENDBRANCH   1   2
BRANCH   1  77
ATOM     77  O   UNL     1       1.979   2.370  -2.663  1.00  0.00    -0.377 OA
BRANCH  77  78
ATOM     78  C   UNL     1       3.378   2.254  -2.834  1.00  0.00     0.188 C 
BRANCH  78  79
ATOM     79  C   UNL     1       4.353   3.110  -1.998  1.00  0.00     0.188 C 
BRANCH  79  80
ATOM     80  O   UNL     1       3.871   4.178  -1.217  1.00  0.00    -0.376 OA
BRANCH  80  81
ATOM     81  C   UNL     1       2.897   5.050  -1.754  1.00  0.00     0.202 C 
BRANCH  81  82
ATOM     82  C   UNL     1       2.906   5.508  -3.229  1.00  0.00     0.261 C 
BRANCH  82  83
ATOM     83  O   UNL     1       3.387   4.578  -4.223  1.00  0.00    -0.463 OA
BRANCH  83  84
ATOM     84  C   UNL     1       4.586   4.864  -4.789  1.00  0.00     0.314 C 
ATOM     85  O   UNL     1       5.161   5.931  -4.590  1.00  0.00    -0.252 OA
BRANCH  84  86
ATOM     86  C   UNL     1       5.075   3.828  -5.833  1.00  0.00     0.154 C 
ATOM     87  C   UNL     1       5.080   2.288  -5.686  1.00  0.00     0.027 C 
ATOM     88  C   UNL     1       6.523   4.197  -6.147  1.00  0.00     0.277 C 
ATOM     89  C   UNL     1       6.132   1.720  -4.722  1.00  0.00     0.062 C 
ATOM     90  N   UNL     1       7.419   3.818  -5.045  1.00  0.00    -0.330 N 
ATOM     91  C   UNL     1       7.506   2.366  -4.875  1.00  0.00     0.262 C 
ATOM     92  H   UNL     1       6.996   4.171  -4.186  1.00  0.00     0.348 HD
BRANCH  90  93
ATOM     93  C   UNL     1       8.740   4.479  -5.137  1.00  0.00     0.300 C 
BRANCH  93  94
ATOM     94  C   UNL     1       9.592   3.956  -6.282  1.00  0.00     0.025 A 
ATOM     95  C   UNL     1       9.218   4.287  -7.600  1.00  0.00     0.014 A 
ATOM     96  C   UNL     1      10.600   2.997  -6.093  1.00  0.00     0.052 A 
ATOM     97  C   UNL     1       9.685   3.546  -8.679  1.00  0.00     0.040 A 
ATOM     98  C   UNL     1      11.104   2.286  -7.182  1.00  0.00     0.060 A 
ATOM     99  Cl  UNL     1      11.219   2.598  -4.531  1.00  0.00    -0.084 Cl
ATOM    100  C   UNL     1      10.608   2.536  -8.454  1.00  0.00     0.124 A 
ATOM    101  F   UNL     1      11.018   1.783  -9.482  1.00  0.00    -0.207 F 
ENDBRANCH  93  94
ENDBRANCH  90  93
ENDBRANCH  84  86
ENDBRANCH  83  84
ENDBRANCH  82  83
ENDBRANCH  81  82
ENDBRANCH  80  81
ENDBRANCH  79  80
ENDBRANCH  78  79
ENDBRANCH  77  78
ENDBRANCH   1  77
TORSDOF 25
