REMARK SMILES O=C(OCCOCCOCCOCCOC(=O)[C@@H]1[C@@H](C(=O)Nc2ccc(F)c(F)c2)[C@H]2CC[C@@H]1O2)c1ccc(-c2c3nc(c(-c4c(F)cc(S(=O)(=O)[O-])cc4F)c4ccc([nH]4)c(-c4c(F)cc(S(=O)(=O)[O-])cc4F)c4nc(c(-c5c(F)cc(S(=O)(=O)[O-])cc5F)c5ccc2[nH]5)C=C4)C=C3)cc1
REMARK SMILES IDX 8 1 7 2 6 3 5 4 4 5 3 6 2 7 1 8 36 9 37 10 101 11 38 12
REMARK SMILES IDX 100 13 39 14 40 15 41 16 94 17 42 18 99 19 93 20 95 21 43 22
REMARK SMILES IDX 98 23 92 24 91 25 44 27 78 28 57 29 77 30 58 31 61 32 76 33
REMARK SMILES IDX 96 34 59 35 60 36 75 38 97 39 62 40 45 41 46 42 55 43 47 44
REMARK SMILES IDX 48 45 54 46 56 47 49 48 50 49 51 50 52 51 53 52 79 53 80 54
REMARK SMILES IDX 89 55 81 56 82 57 88 58 90 59 83 60 84 61 85 62 86 63 87 64
REMARK SMILES IDX 63 65 64 66 73 67 65 68 66 69 72 70 74 71 67 72 68 73 69 74
REMARK SMILES IDX 70 75 71 76 9 77 10 78 11 79 12 80 13 81 14 82 15 83 16 84
REMARK SMILES IDX 17 85 18 86 19 87 34 88 31 89 33 90 35 91 32 92 20 93 21 94
REMARK SMILES IDX 22 95 23 97 24 98 30 99 25 100 28 101 26 102 29 103 27 104
REMARK H PARENT 95 26 61 37 22 96
REMARK Flexibility Score: inf
ROOT
ATOM      1  C   UNL     1       1.859  -2.206  -1.508  1.00  0.00     0.188 C 
ENDROOT
BRANCH   1   2
ATOM      2  C   UNL     1       2.353  -1.383  -0.315  1.00  0.00     0.188 C 
BRANCH   2   3
ATOM      3  O   UNL     1       3.677  -0.883  -0.509  1.00  0.00    -0.376 OA
BRANCH   3   4
ATOM      4  C   UNL     1       4.603  -0.987   0.573  1.00  0.00     0.202 C 
BRANCH   4   5
ATOM      5  C   UNL     1       4.318  -0.109   1.786  1.00  0.00     0.261 C 
BRANCH   5   6
ATOM      6  O   UNL     1       2.954   0.306   1.904  1.00  0.00    -0.460 OA
BRANCH   6   7
ATOM      7  C   UNL     1       2.300   1.299   1.259  1.00  0.00     0.338 C 
ATOM      8  O   UNL     1       1.102   1.447   1.507  1.00  0.00    -0.246 OA
BRANCH   7   9
ATOM      9  C   UNL     1       2.911   2.216   0.247  1.00  0.00     0.060 A 
ATOM     10  C   UNL     1       4.022   1.943  -0.553  1.00  0.00     0.016 A 
ATOM     11  C   UNL     1       2.243   3.433   0.035  1.00  0.00     0.016 A 
ATOM     12  C   UNL     1       4.482   2.829  -1.509  1.00  0.00     0.010 A 
ATOM     13  C   UNL     1       2.710   4.353  -0.903  1.00  0.00     0.010 A 
ATOM     14  C   UNL     1       3.854   4.054  -1.649  1.00  0.00    -0.014 A 
BRANCH  14  15
ATOM     15  C   UNL     1       4.604   5.099  -2.348  1.00  0.00     0.031 A 
ATOM     16  C   UNL     1       5.356   6.063  -1.487  1.00  0.00     0.074 A 
ATOM     17  C   UNL     1       4.720   5.074  -3.684  1.00  0.00     0.049 A 
ATOM     18  N   UNL     1       5.961   7.167  -1.812  1.00  0.00    -0.248 NA
ATOM     19  C   UNL     1       5.438   5.728  -0.052  1.00  0.00     0.031 C 
ATOM     20  C   UNL     1       4.176   4.033  -4.560  1.00  0.00     0.029 A 
ATOM     21  N   UNL     1       5.342   5.941  -4.535  1.00  0.00    -0.354 N 
ATOM     22  C   UNL     1       6.439   7.690  -0.616  1.00  0.00     0.074 A 
ATOM     23  C   UNL     1       6.070   6.779   0.440  1.00  0.00     0.031 C 
ATOM     24  C   UNL     1       4.469   4.340  -5.834  1.00  0.00     0.029 A 
ATOM     25  C   UNL     1       5.141   5.634  -5.858  1.00  0.00     0.049 A 
ATOM     26  H   UNL     1       5.878   6.709  -4.231  1.00  0.00     0.167 HD
ATOM     27  C   UNL     1       7.105   8.851  -0.436  1.00  0.00     0.037 A 
ATOM     28  C   UNL     1       5.414   6.370  -6.950  1.00  0.00     0.037 A 
ATOM     29  C   UNL     1       7.435   9.712  -1.537  1.00  0.00     0.049 A 
ATOM     30  C   UNL     1       6.056   7.713  -6.730  1.00  0.00     0.074 A 
ATOM     31  C   UNL     1       8.039  10.952  -1.520  1.00  0.00     0.029 A 
ATOM     32  N   UNL     1       7.172   9.403  -2.869  1.00  0.00    -0.354 N 
ATOM     33  N   UNL     1       6.413   8.275  -5.596  1.00  0.00    -0.248 NA
ATOM     34  C   UNL     1       6.321   8.530  -7.917  1.00  0.00     0.031 C 
ATOM     35  C   UNL     1       8.090  11.416  -2.839  1.00  0.00     0.029 A 
ATOM     36  C   UNL     1       7.586  10.435  -3.685  1.00  0.00     0.049 A 
ATOM     37  H   UNL     1       6.753   8.570  -3.182  1.00  0.00     0.167 HD
ATOM     38  C   UNL     1       6.974   9.499  -5.931  1.00  0.00     0.074 A 
ATOM     39  C   UNL     1       6.904   9.594  -7.380  1.00  0.00     0.031 C 
ATOM     40  C   UNL     1       7.505  10.456  -5.129  1.00  0.00     0.037 A 
BRANCH  27  41
ATOM     41  C   UNL     1       7.385   9.266   0.981  1.00  0.00     0.058 A 
ATOM     42  C   UNL     1       8.288   8.576   1.808  1.00  0.00     0.135 A 
ATOM     43  C   UNL     1       6.664  10.328   1.551  1.00  0.00     0.135 A 
ATOM     44  F   UNL     1       8.975   7.525   1.331  1.00  0.00    -0.206 F 
ATOM     45  C   UNL     1       8.429   8.893   3.156  1.00  0.00     0.059 A 
ATOM     46  C   UNL     1       6.813  10.684   2.888  1.00  0.00     0.059 A 
ATOM     47  F   UNL     1       5.773  11.012   0.815  1.00  0.00    -0.206 F 
ATOM     48  C   UNL     1       7.681   9.944   3.689  1.00  0.00     0.060 A 
BRANCH  48  49
ATOM     49  S   UNL     1       7.841  10.317   5.448  1.00  0.00     0.124 S 
ATOM     50  O   UNL     1       7.144   9.185   6.051  1.00  0.00    -0.237 OA
ATOM     51  O   UNL     1       9.289  10.338   5.631  1.00  0.00    -0.237 OA
ATOM     52  O   UNL     1       7.176  11.609   5.585  1.00  0.00    -0.744 OA
ENDBRANCH  48  49
ENDBRANCH  27  41
BRANCH  28  53
ATOM     53  C   UNL     1       5.018   5.874  -8.295  1.00  0.00     0.058 A 
ATOM     54  C   UNL     1       5.975   5.502  -9.248  1.00  0.00     0.135 A 
ATOM     55  C   UNL     1       3.663   5.701  -8.632  1.00  0.00     0.135 A 
ATOM     56  F   UNL     1       7.281   5.650  -8.980  1.00  0.00    -0.206 F 
ATOM     57  C   UNL     1       5.607   4.974 -10.484  1.00  0.00     0.059 A 
ATOM     58  C   UNL     1       3.271   5.151  -9.848  1.00  0.00     0.059 A 
ATOM     59  F   UNL     1       2.704   6.029  -7.753  1.00  0.00    -0.206 F 
ATOM     60  C   UNL     1       4.252   4.793 -10.771  1.00  0.00     0.060 A 
BRANCH  60  61
ATOM     61  S   UNL     1       3.791   4.041 -12.347  1.00  0.00     0.124 S 
ATOM     62  O   UNL     1       4.139   5.098 -13.290  1.00  0.00    -0.237 OA
ATOM     63  O   UNL     1       4.638   2.853 -12.376  1.00  0.00    -0.237 OA
ATOM     64  O   UNL     1       2.363   3.780 -12.192  1.00  0.00    -0.744 OA
ENDBRANCH  60  61
ENDBRANCH  28  53
BRANCH  40  65
ATOM     65  C   UNL     1       8.114  11.649  -5.801  1.00  0.00     0.058 A 
ATOM     66  C   UNL     1       7.327  12.667  -6.357  1.00  0.00     0.135 A 
ATOM     67  C   UNL     1       9.507  11.820  -5.777  1.00  0.00     0.135 A 
ATOM     68  F   UNL     1       5.992  12.540  -6.408  1.00  0.00    -0.206 F 
ATOM     69  C   UNL     1       7.905  13.821  -6.870  1.00  0.00     0.059 A 
ATOM     70  C   UNL     1      10.103  12.979  -6.255  1.00  0.00     0.059 A 
ATOM     71  F   UNL     1      10.296  10.874  -5.242  1.00  0.00    -0.206 F 
ATOM     72  C   UNL     1       9.293  13.972  -6.803  1.00  0.00     0.060 A 
BRANCH  72  73
ATOM     73  S   UNL     1      10.021  15.510  -7.396  1.00  0.00     0.124 S 
ATOM     74  O   UNL     1       9.877  15.365  -8.841  1.00  0.00    -0.237 OA
ATOM     75  O   UNL     1       9.171  16.518  -6.771  1.00  0.00    -0.237 OA
ATOM     76  O   UNL     1      11.391  15.454  -6.893  1.00  0.00    -0.744 OA
ENDBRANCH  72  73
ENDBRANCH  40  65
ENDBRANCH  14  15
ENDBRANCH   7   9
ENDBRANCH   6   7
ENDBRANCH   5   6
ENDBRANCH   4   5
ENDBRANCH   3   4
ENDBRANCH   2   3
ENDBRANCH   1   2
BRANCH   1  77
ATOM     77  O   UNL     1       2.580  -3.405  -1.774  1.00  0.00    -0.377 OA
BRANCH  77  78
ATOM     78  C   UNL     1       3.989  -3.297  -1.661  1.00  0.00     0.188 C 
BRANCH  78  79
ATOM     79  C   UNL     1       4.768  -2.416  -2.661  1.00  0.00     0.188 C 
BRANCH  79  80
ATOM     80  O   UNL     1       3.982  -1.424  -3.279  1.00  0.00    -0.376 OA
BRANCH  80  81
ATOM     81  C   UNL     1       3.479  -1.654  -4.588  1.00  0.00     0.202 C 
BRANCH  81  82
ATOM     82  C   UNL     1       2.999  -3.039  -5.087  1.00  0.00     0.261 C 
BRANCH  82  83
ATOM     83  O   UNL     1       3.389  -4.189  -4.320  1.00  0.00    -0.463 OA
BRANCH  83  84
ATOM     84  C   UNL     1       4.492  -4.883  -4.696  1.00  0.00     0.312 C 
ATOM     85  O   UNL     1       5.143  -4.651  -5.712  1.00  0.00    -0.252 OA
BRANCH  84  86
ATOM     86  C   UNL     1       4.893  -5.865  -3.603  1.00  0.00     0.143 C 
ATOM     87  C   UNL     1       6.387  -5.701  -3.222  1.00  0.00     0.124 C 
ATOM     88  C   UNL     1       4.829  -7.302  -4.088  1.00  0.00     0.133 C 
ATOM     89  C   UNL     1       6.930  -7.095  -3.583  1.00  0.00     0.132 C 
ATOM     90  C   UNL     1       4.969  -8.236  -2.876  1.00  0.00     0.036 C 
ATOM     91  O   UNL     1       6.115  -7.452  -4.725  1.00  0.00    -0.373 OA
ATOM     92  C   UNL     1       6.477  -8.191  -2.616  1.00  0.00     0.035 C 
BRANCH  87  93
ATOM     93  C   UNL     1       6.722  -5.409  -1.759  1.00  0.00     0.231 C 
ATOM     94  O   UNL     1       5.948  -5.693  -0.843  1.00  0.00    -0.274 OA
ATOM     95  N   UNL     1       7.985  -5.010  -1.411  1.00  0.00    -0.326 N 
ATOM     96  H   UNL     1       8.227  -5.188  -0.473  1.00  0.00     0.169 HD
BRANCH  95  97
ATOM     97  C   UNL     1       8.991  -4.392  -2.165  1.00  0.00     0.044 A 
ATOM     98  C   UNL     1       8.721  -3.404  -3.117  1.00  0.00     0.029 A 
ATOM     99  C   UNL     1      10.318  -4.723  -1.876  1.00  0.00     0.068 A 
ATOM    100  C   UNL     1       9.765  -2.796  -3.821  1.00  0.00     0.044 A 
ATOM    101  C   UNL     1      11.350  -4.138  -2.606  1.00  0.00     0.160 A 
ATOM    102  C   UNL     1      11.076  -3.183  -3.576  1.00  0.00     0.158 A 
ATOM    103  F   UNL     1      12.614  -4.515  -2.366  1.00  0.00    -0.204 F 
ATOM    104  F   UNL     1      12.073  -2.624  -4.273  1.00  0.00    -0.204 F 
ENDBRANCH  95  97
ENDBRANCH  87  93
ENDBRANCH  84  86
ENDBRANCH  83  84
ENDBRANCH  82  83
ENDBRANCH  81  82
ENDBRANCH  80  81
ENDBRANCH  79  80
ENDBRANCH  78  79
ENDBRANCH  77  78
ENDBRANCH   1  77
TORSDOF 25
