REMARK SMILES CCC(=O)Nc1ccc(NC(=O)[C@@H]2CC=CC[C@@H]2C(=O)OCCOCCOCCOCCOC(=O)c2ccc(-c3c4nc(c(-c5c(F)cc(S(=O)(=O)[O-])cc5F)c5ccc([nH]5)c(-c5c(F)cc(S(=O)(=O)[O-])cc5F)c5nc(c(-c6c(F)cc(S(=O)(=O)[O-])cc6F)c6ccc3[nH]6)C=C5)C=C4)cc2)cc1
REMARK SMILES IDX 26 1 25 2 24 3 23 4 22 5 21 6 19 7 20 8 18 9 13 10 14 11
REMARK SMILES IDX 15 12 17 13 16 14 11 15 10 16 12 18 9 19 6 20 7 21 103 22
REMARK SMILES IDX 8 23 102 24 5 25 3 26 4 27 2 29 1 30 27 31 28 32 29 33 30 34
REMARK SMILES IDX 31 35 32 36 33 37 34 38 35 39 36 40 37 41 101 42 38 43
REMARK SMILES IDX 100 44 39 45 40 46 41 47 94 48 42 49 99 50 93 51 95 52 43 53
REMARK SMILES IDX 98 54 92 55 91 56 44 58 78 59 57 60 77 61 58 62 61 63 76 64
REMARK SMILES IDX 96 65 59 66 60 67 75 69 97 70 62 71 45 72 46 73 55 74 47 75
REMARK SMILES IDX 48 76 54 77 56 78 49 79 50 80 51 81 52 82 53 83 79 84 80 85
REMARK SMILES IDX 89 86 81 87 82 88 88 89 90 90 83 91 84 92 85 93 86 94 87 95
REMARK SMILES IDX 63 96 64 97 73 98 65 99 66 100 72 101 74 102 67 103 68 104
REMARK SMILES IDX 69 105 70 106 71 107
REMARK H PARENT 10 17 5 28 95 57 61 68
REMARK Flexibility Score: inf
ROOT
ATOM      1  C   UNL     1       9.330   2.518  -2.734  1.00  0.00     0.188 C 
ENDROOT
BRANCH   1   2
ATOM      2  C   UNL     1       8.084   2.433  -3.646  1.00  0.00     0.188 C 
BRANCH   2   3
ATOM      3  O   UNL     1       7.577   3.581  -4.313  1.00  0.00    -0.376 OA
BRANCH   3   4
ATOM      4  C   UNL     1       7.709   4.856  -3.711  1.00  0.00     0.202 C 
BRANCH   4   5
ATOM      5  C   UNL     1       7.216   5.084  -2.274  1.00  0.00     0.261 C 
BRANCH   5   6
ATOM      6  O   UNL     1       7.447   4.042  -1.306  1.00  0.00    -0.463 OA
BRANCH   6   7
ATOM      7  C   UNL     1       6.402   3.226  -1.020  1.00  0.00     0.310 C 
ATOM      8  O   UNL     1       5.334   3.240  -1.622  1.00  0.00    -0.252 OA
BRANCH   7   9
ATOM      9  C   UNL     1       6.688   2.233   0.108  1.00  0.00     0.116 C 
ATOM     10  C   UNL     1       7.557   2.761   1.275  1.00  0.00     0.097 C 
ATOM     11  C   UNL     1       9.041   2.474   1.094  1.00  0.00     0.041 C 
ATOM     12  C   UNL     1       9.337   1.070   0.660  1.00  0.00    -0.030 C 
ATOM     13  C   UNL     1       7.082   0.824  -0.390  1.00  0.00     0.043 C 
ATOM     14  C   UNL     1       8.448   0.327  -0.007  1.00  0.00    -0.030 C 
BRANCH  10  15
ATOM     15  C   UNL     1       7.014   4.129   1.724  1.00  0.00     0.228 C 
ATOM     16  N   UNL     1       7.466   5.361   1.390  1.00  0.00    -0.326 N 
ATOM     17  H   UNL     1       6.748   6.034   1.412  1.00  0.00     0.169 HD
ATOM     18  O   UNL     1       5.911   4.122   2.299  1.00  0.00    -0.274 OA
BRANCH  16  19
ATOM     19  C   UNL     1       8.694   5.920   1.022  1.00  0.00     0.041 A 
ATOM     20  C   UNL     1      11.076   7.217   0.355  1.00  0.00     0.041 A 
ATOM     21  C   UNL     1      11.112   5.975   0.972  1.00  0.00     0.028 A 
ATOM     22  C   UNL     1       9.864   7.811   0.030  1.00  0.00     0.028 A 
ATOM     23  C   UNL     1       9.922   5.373   1.362  1.00  0.00     0.028 A 
ATOM     24  C   UNL     1       8.674   7.168   0.382  1.00  0.00     0.028 A 
BRANCH  20  25
ATOM     25  N   UNL     1      12.293   7.868   0.156  1.00  0.00    -0.326 N 
ATOM     26  C   UNL     1      12.896   8.604   1.145  1.00  0.00     0.224 C 
ATOM     27  O   UNL     1      14.119   8.501   1.261  1.00  0.00    -0.275 OA
ATOM     28  H   UNL     1      12.733   7.799  -0.722  1.00  0.00     0.169 HD
BRANCH  26  29
ATOM     29  C   UNL     1      12.079   9.395   2.147  1.00  0.00     0.097 C 
ATOM     30  C   UNL     1      11.102  10.390   1.551  1.00  0.00     0.014 C 
ENDBRANCH  26  29
ENDBRANCH  20  25
ENDBRANCH  16  19
ENDBRANCH  10  15
ENDBRANCH   7   9
ENDBRANCH   6   7
ENDBRANCH   5   6
ENDBRANCH   4   5
ENDBRANCH   3   4
ENDBRANCH   2   3
ENDBRANCH   1   2
BRANCH   1  31
ATOM     31  O   UNL     1       9.978   3.777  -2.704  1.00  0.00    -0.377 OA
BRANCH  31  32
ATOM     32  C   UNL     1      11.110   3.907  -3.554  1.00  0.00     0.188 C 
BRANCH  32  33
ATOM     33  C   UNL     1      10.934   3.413  -5.002  1.00  0.00     0.188 C 
BRANCH  33  34
ATOM     34  O   UNL     1      10.460   2.074  -5.085  1.00  0.00    -0.376 OA
BRANCH  34  35
ATOM     35  C   UNL     1      11.372   1.022  -5.351  1.00  0.00     0.202 C 
BRANCH  35  36
ATOM     36  C   UNL     1      12.370   0.649  -4.241  1.00  0.00     0.261 C 
BRANCH  36  37
ATOM     37  O   UNL     1      13.197   1.712  -3.749  1.00  0.00    -0.460 OA
BRANCH  37  38
ATOM     38  C   UNL     1      14.002   2.316  -4.647  1.00  0.00     0.338 C 
ATOM     39  O   UNL     1      14.150   2.001  -5.819  1.00  0.00    -0.246 OA
BRANCH  38  40
ATOM     40  C   UNL     1      14.519   3.564  -4.051  1.00  0.00     0.060 A 
ATOM     41  C   UNL     1      14.304   4.762  -4.743  1.00  0.00     0.016 A 
ATOM     42  C   UNL     1      15.225   3.560  -2.844  1.00  0.00     0.016 A 
ATOM     43  C   UNL     1      14.862   5.948  -4.276  1.00  0.00     0.010 A 
ATOM     44  C   UNL     1      15.802   4.750  -2.386  1.00  0.00     0.010 A 
ATOM     45  C   UNL     1      15.674   5.934  -3.137  1.00  0.00    -0.014 A 
BRANCH  45  46
ATOM     46  C   UNL     1      16.591   7.080  -2.913  1.00  0.00     0.031 A 
ATOM     47  C   UNL     1      18.021   6.936  -3.363  1.00  0.00     0.074 A 
ATOM     48  C   UNL     1      16.157   8.256  -2.429  1.00  0.00     0.049 A 
ATOM     49  N   UNL     1      18.992   7.810  -3.331  1.00  0.00    -0.248 NA
ATOM     50  C   UNL     1      18.397   5.642  -3.958  1.00  0.00     0.031 C 
ATOM     51  C   UNL     1      14.776   8.564  -2.077  1.00  0.00     0.029 A 
ATOM     52  N   UNL     1      16.840   9.412  -2.146  1.00  0.00    -0.354 N 
ATOM     53  C   UNL     1      20.084   7.180  -3.914  1.00  0.00     0.074 A 
ATOM     54  C   UNL     1      19.676   5.831  -4.237  1.00  0.00     0.031 C 
ATOM     55  C   UNL     1      14.720   9.806  -1.566  1.00  0.00     0.029 A 
ATOM     56  C   UNL     1      16.062  10.378  -1.554  1.00  0.00     0.049 A 
ATOM     57  H   UNL     1      17.796   9.537  -2.348  1.00  0.00     0.167 HD
ATOM     58  C   UNL     1      21.309   7.689  -4.184  1.00  0.00     0.037 A 
ATOM     59  C   UNL     1      16.396  11.582  -1.053  1.00  0.00     0.037 A 
ATOM     60  C   UNL     1      21.709   9.031  -3.852  1.00  0.00     0.049 A 
ATOM     61  C   UNL     1      17.804  12.076  -1.226  1.00  0.00     0.074 A 
ATOM     62  C   UNL     1      22.918   9.655  -4.102  1.00  0.00     0.029 A 
ATOM     63  N   UNL     1      20.916   9.951  -3.178  1.00  0.00    -0.354 N 
ATOM     64  N   UNL     1      18.820  11.485  -1.807  1.00  0.00    -0.248 NA
ATOM     65  C   UNL     1      18.096  13.423  -0.721  1.00  0.00     0.031 C 
ATOM     66  C   UNL     1      22.881  10.926  -3.518  1.00  0.00     0.029 A 
ATOM     67  C   UNL     1      21.624  11.124  -2.970  1.00  0.00     0.049 A 
ATOM     68  H   UNL     1      19.989   9.792  -2.890  1.00  0.00     0.167 HD
ATOM     69  C   UNL     1      19.856  12.412  -1.796  1.00  0.00     0.074 A 
ATOM     70  C   UNL     1      19.343  13.597  -1.136  1.00  0.00     0.031 C 
ATOM     71  C   UNL     1      21.106  12.300  -2.313  1.00  0.00     0.037 A 
BRANCH  58  72
ATOM     72  C   UNL     1      22.309   6.770  -4.832  1.00  0.00     0.058 A 
ATOM     73  C   UNL     1      22.159   6.309  -6.151  1.00  0.00     0.135 A 
ATOM     74  C   UNL     1      23.433   6.333  -4.112  1.00  0.00     0.135 A 
ATOM     75  F   UNL     1      21.093   6.676  -6.879  1.00  0.00    -0.206 F 
ATOM     76  C   UNL     1      23.063   5.415  -6.717  1.00  0.00     0.059 A 
ATOM     77  C   UNL     1      24.367   5.467  -4.670  1.00  0.00     0.059 A 
ATOM     78  F   UNL     1      23.625   6.737  -2.847  1.00  0.00    -0.206 F 
ATOM     79  C   UNL     1      24.162   4.996  -5.966  1.00  0.00     0.060 A 
BRANCH  79  80
ATOM     80  S   UNL     1      25.313   3.817  -6.702  1.00  0.00     0.124 S 
ATOM     81  O   UNL     1      24.516   2.595  -6.703  1.00  0.00    -0.237 OA
ATOM     82  O   UNL     1      25.569   4.408  -8.012  1.00  0.00    -0.237 OA
ATOM     83  O   UNL     1      26.445   3.826  -5.781  1.00  0.00    -0.744 OA
ENDBRANCH  79  80
ENDBRANCH  58  72
BRANCH  59  84
ATOM     84  C   UNL     1      15.372  12.421  -0.378  1.00  0.00     0.058 A 
ATOM     85  C   UNL     1      14.825  13.548  -1.007  1.00  0.00     0.135 A 
ATOM     86  C   UNL     1      14.921  12.110   0.913  1.00  0.00     0.135 A 
ATOM     87  F   UNL     1      15.247  13.902  -2.230  1.00  0.00    -0.206 F 
ATOM     88  C   UNL     1      13.860  14.333  -0.384  1.00  0.00     0.059 A 
ATOM     89  C   UNL     1      13.940  12.866   1.548  1.00  0.00     0.059 A 
ATOM     90  F   UNL     1      15.433  11.060   1.571  1.00  0.00    -0.206 F 
ATOM     91  C   UNL     1      13.414  13.976   0.890  1.00  0.00     0.060 A 
BRANCH  91  92
ATOM     92  S   UNL     1      12.098  14.950   1.651  1.00  0.00     0.124 S 
ATOM     93  O   UNL     1      12.797  16.183   1.989  1.00  0.00    -0.237 OA
ATOM     94  O   UNL     1      11.123  15.042   0.568  1.00  0.00    -0.237 OA
ATOM     95  O   UNL     1      11.683  14.126   2.784  1.00  0.00    -0.744 OA
ENDBRANCH  91  92
ENDBRANCH  59  84
BRANCH  71  96
ATOM     96  C   UNL     1      21.986  13.519  -2.252  1.00  0.00     0.058 A 
ATOM     97  C   UNL     1      22.498  14.017  -1.043  1.00  0.00     0.135 A 
ATOM     98  C   UNL     1      22.329  14.195  -3.435  1.00  0.00     0.135 A 
ATOM     99  F   UNL     1      22.199  13.413   0.118  1.00  0.00    -0.206 F 
ATOM    100  C   UNL     1      23.277  15.169  -1.005  1.00  0.00     0.059 A 
ATOM    101  C   UNL     1      23.139  15.326  -3.424  1.00  0.00     0.059 A 
ATOM    102  F   UNL     1      21.880  13.756  -4.621  1.00  0.00    -0.206 F 
ATOM    103  C   UNL     1      23.589  15.818  -2.201  1.00  0.00     0.060 A 
BRANCH 103 104
ATOM    104  S   UNL     1      24.597  17.314  -2.138  1.00  0.00     0.124 S 
ATOM    105  O   UNL     1      23.649  18.284  -1.599  1.00  0.00    -0.237 OA
ATOM    106  O   UNL     1      25.681  16.922  -1.243  1.00  0.00    -0.237 OA
ATOM    107  O   UNL     1      24.985  17.522  -3.530  1.00  0.00    -0.744 OA
ENDBRANCH 103 104
ENDBRANCH  71  96
ENDBRANCH  45  46
ENDBRANCH  38  40
ENDBRANCH  37  38
ENDBRANCH  36  37
ENDBRANCH  35  36
ENDBRANCH  34  35
ENDBRANCH  33  34
ENDBRANCH  32  33
ENDBRANCH  31  32
ENDBRANCH   1  31
TORSDOF 27
