REMARK SMILES CCn1ncc(Br)c1C(=O)N[C@H]1C(=O)N2C(C(=O)OCCOCCOCCOCCOC(=O)c3ccc(-c4c5nc(c(-c6c(F)cc(S(=O)(=O)[O-])cc6F)c6ccc([nH]6)c(-c6c(F)cc(S(=O)(=O)[O-])cc6F)c6nc(c(-c7c(F)cc(S(=O)(=O)[O-])cc7F)c7ccc4[nH]7)C=C6)C=C5)cc3)=C(C)CS[C@H]12
REMARK SMILES IDX 25 1 24 2 23 3 22 4 21 5 20 6 19 7 17 8 18 9 16 10 12 11
REMARK SMILES IDX 13 12 104 13 14 14 15 15 103 16 102 17 100 18 101 19 11 20
REMARK SMILES IDX 9 21 10 22 8 24 3 25 4 26 5 27 6 28 7 29 2 30 1 31 26 32
REMARK SMILES IDX 27 33 28 34 29 35 30 36 31 37 32 38 33 39 34 40 35 41 99 42
REMARK SMILES IDX 36 43 98 44 37 45 38 46 39 47 92 48 40 49 97 50 91 51 93 52
REMARK SMILES IDX 41 53 96 54 90 55 89 56 42 58 76 59 55 60 75 61 56 62 59 63
REMARK SMILES IDX 74 64 94 65 57 66 58 67 73 69 95 70 60 71 43 72 44 73 53 74
REMARK SMILES IDX 45 75 46 76 52 77 54 78 47 79 48 80 49 81 50 82 51 83 77 84
REMARK SMILES IDX 78 85 87 86 79 87 80 88 86 89 88 90 81 91 82 92 83 93 84 94
REMARK SMILES IDX 85 95 61 96 62 97 71 98 63 99 64 100 70 101 72 102 65 103
REMARK SMILES IDX 66 104 67 105 68 106 69 107
REMARK H PARENT 11 23 93 57 59 68
REMARK Flexibility Score: inf
ROOT
ATOM      1  O   UNL     1      -0.233   3.270  -2.692  1.00  0.00    -0.377 OA
ENDROOT
BRANCH   1   2
ATOM      2  C   UNL     1      -0.058   2.479  -1.521  1.00  0.00     0.188 C 
BRANCH   2   3
ATOM      3  C   UNL     1       0.348   3.170  -0.201  1.00  0.00     0.188 C 
BRANCH   3   4
ATOM      4  O   UNL     1       0.840   4.474  -0.448  1.00  0.00    -0.376 OA
BRANCH   4   5
ATOM      5  C   UNL     1       2.186   4.704  -0.109  1.00  0.00     0.202 C 
BRANCH   5   6
ATOM      6  C   UNL     1       3.245   3.777  -0.719  1.00  0.00     0.261 C 
BRANCH   6   7
ATOM      7  O   UNL     1       2.897   2.390  -0.864  1.00  0.00    -0.459 OA
BRANCH   7   8
ATOM      8  C   UNL     1       3.307   1.505   0.065  1.00  0.00     0.355 C 
ATOM      9  O   UNL     1       3.828   1.793   1.135  1.00  0.00    -0.244 OA
BRANCH   8  10
ATOM     10  C   UNL     1       3.057   0.075  -0.360  1.00  0.00     0.131 C 
ATOM     11  C   UNL     1       2.797  -2.354   1.971  1.00  0.00     0.206 C 
ATOM     12  C   UNL     1       1.844  -1.678   0.959  1.00  0.00     0.253 C 
ATOM     13  C   UNL     1       3.862  -1.780   0.964  1.00  0.00     0.181 C 
ATOM     14  O   UNL     1       0.766  -1.944   0.501  1.00  0.00    -0.272 OA
ATOM     15  N   UNL     1       2.837  -0.770   0.689  1.00  0.00    -0.289 N 
ATOM     16  S   UNL     1       4.114  -2.897  -0.502  1.00  0.00    -0.129 SA
ATOM     17  C   UNL     1       3.386  -1.899  -1.853  1.00  0.00     0.105 C 
ATOM     18  C   UNL     1       3.296  -0.413  -1.597  1.00  0.00    -0.032 C 
ATOM     19  C   UNL     1       3.536   0.398  -2.848  1.00  0.00     0.043 C 
BRANCH  11  20
ATOM     20  N   UNL     1       2.818  -1.827   3.385  1.00  0.00    -0.336 N 
ATOM     21  C   UNL     1       1.828  -1.102   4.029  1.00  0.00     0.271 C 
ATOM     22  O   UNL     1       1.410  -1.565   5.090  1.00  0.00    -0.267 OA
ATOM     23  H   UNL     1       3.628  -2.021   3.910  1.00  0.00     0.164 HD
BRANCH  21  24
ATOM     24  C   UNL     1       1.523   0.247   3.624  1.00  0.00     0.140 A 
ATOM     25  N   UNL     1       0.423   0.720   2.934  1.00  0.00    -0.259 N 
ATOM     26  N   UNL     1       0.332   2.071   2.919  1.00  0.00    -0.180 NA
ATOM     27  C   UNL     1       1.345   2.478   3.682  1.00  0.00     0.151 A 
ATOM     28  C   UNL     1       2.096   1.396   4.142  1.00  0.00     0.069 A 
ATOM     29  Br  UNL     1       3.500   1.559   5.372  1.00  0.00    -0.047 Br
BRANCH  25  30
ATOM     30  C   UNL     1      -0.690  -0.015   2.357  1.00  0.00     0.142 C 
ATOM     31  C   UNL     1      -0.833   0.191   0.856  1.00  0.00     0.029 C 
ENDBRANCH  25  30
ENDBRANCH  21  24
ENDBRANCH  11  20
ENDBRANCH   8  10
ENDBRANCH   7   8
ENDBRANCH   6   7
ENDBRANCH   5   6
ENDBRANCH   4   5
ENDBRANCH   3   4
ENDBRANCH   2   3
ENDBRANCH   1   2
BRANCH   1  32
ATOM     32  C   UNL     1      -0.886   4.533  -2.598  1.00  0.00     0.188 C 
BRANCH  32  33
ATOM     33  C   UNL     1      -2.012   4.803  -1.565  1.00  0.00     0.188 C 
BRANCH  33  34
ATOM     34  O   UNL     1      -2.189   3.799  -0.583  1.00  0.00    -0.376 OA
BRANCH  34  35
ATOM     35  C   UNL     1      -3.405   3.099  -0.423  1.00  0.00     0.202 C 
BRANCH  35  36
ATOM     36  C   UNL     1      -3.761   2.076  -1.495  1.00  0.00     0.261 C 
BRANCH  36  37
ATOM     37  O   UNL     1      -3.285   2.422  -2.778  1.00  0.00    -0.460 OA
BRANCH  37  38
ATOM     38  C   UNL     1      -4.008   3.392  -3.364  1.00  0.00     0.338 C 
ATOM     39  O   UNL     1      -4.845   4.108  -2.840  1.00  0.00    -0.246 OA
BRANCH  38  40
ATOM     40  C   UNL     1      -3.744   3.351  -4.798  1.00  0.00     0.060 A 
ATOM     41  C   UNL     1      -4.302   4.389  -5.539  1.00  0.00     0.016 A 
ATOM     42  C   UNL     1      -3.375   2.118  -5.358  1.00  0.00     0.016 A 
ATOM     43  C   UNL     1      -4.769   4.081  -6.789  1.00  0.00     0.010 A 
ATOM     44  C   UNL     1      -3.858   1.808  -6.598  1.00  0.00     0.010 A 
ATOM     45  C   UNL     1      -4.636   2.762  -7.242  1.00  0.00    -0.014 A 
BRANCH  45  46
ATOM     46  C   UNL     1      -5.287   2.421  -8.478  1.00  0.00     0.031 A 
ATOM     47  C   UNL     1      -4.578   2.987  -9.637  1.00  0.00     0.074 A 
ATOM     48  C   UNL     1      -6.374   1.635  -8.537  1.00  0.00     0.049 A 
ATOM     49  N   UNL     1      -4.925   4.020 -10.326  1.00  0.00    -0.248 NA
ATOM     50  C   UNL     1      -3.213   2.508  -9.901  1.00  0.00     0.031 C 
ATOM     51  C   UNL     1      -6.987   0.821  -7.486  1.00  0.00     0.029 A 
ATOM     52  N   UNL     1      -7.124   1.342  -9.626  1.00  0.00    -0.354 N 
ATOM     53  C   UNL     1      -3.932   4.165 -11.281  1.00  0.00     0.074 A 
ATOM     54  C   UNL     1      -2.815   3.375 -10.831  1.00  0.00     0.031 C 
ATOM     55  C   UNL     1      -7.866  -0.041  -8.052  1.00  0.00     0.029 A 
ATOM     56  C   UNL     1      -7.973   0.256  -9.471  1.00  0.00     0.049 A 
ATOM     57  H   UNL     1      -7.071   1.859 -10.462  1.00  0.00     0.167 HD
ATOM     58  C   UNL     1      -4.213   4.692 -12.501  1.00  0.00     0.037 A 
ATOM     59  C   UNL     1      -8.629  -0.375 -10.479  1.00  0.00     0.037 A 
ATOM     60  C   UNL     1      -5.471   5.397 -12.491  1.00  0.00     0.049 A 
ATOM     61  C   UNL     1      -8.687   0.583 -11.622  1.00  0.00     0.074 A 
ATOM     62  C   UNL     1      -5.964   6.474 -11.779  1.00  0.00     0.029 A 
ATOM     63  N   UNL     1      -6.570   4.749 -13.004  1.00  0.00    -0.354 N 
ATOM     64  N   UNL     1      -9.381   1.690 -11.602  1.00  0.00    -0.248 NA
ATOM     65  C   UNL     1      -7.593   0.560 -12.585  1.00  0.00     0.031 C 
ATOM     66  C   UNL     1      -7.326   6.150 -11.509  1.00  0.00     0.029 A 
ATOM     67  C   UNL     1      -7.609   4.930 -12.123  1.00  0.00     0.049 A 
ATOM     68  H   UNL     1      -6.606   4.246 -13.849  1.00  0.00     0.167 HD
ATOM     69  C   UNL     1      -8.573   2.635 -12.220  1.00  0.00     0.074 A 
ATOM     70  C   UNL     1      -7.518   1.863 -12.873  1.00  0.00     0.031 C 
ATOM     71  C   UNL     1      -8.664   3.962 -11.906  1.00  0.00     0.037 A 
BRANCH  58  72
ATOM     72  C   UNL     1      -3.538   4.236 -13.764  1.00  0.00     0.058 A 
ATOM     73  C   UNL     1      -3.713   4.981 -14.944  1.00  0.00     0.135 A 
ATOM     74  C   UNL     1      -2.946   2.962 -13.923  1.00  0.00     0.135 A 
ATOM     75  F   UNL     1      -4.287   6.194 -14.906  1.00  0.00    -0.206 F 
ATOM     76  C   UNL     1      -3.373   4.474 -16.197  1.00  0.00     0.059 A 
ATOM     77  C   UNL     1      -2.543   2.464 -15.152  1.00  0.00     0.059 A 
ATOM     78  F   UNL     1      -2.821   2.094 -12.911  1.00  0.00    -0.206 F 
ATOM     79  C   UNL     1      -2.797   3.209 -16.289  1.00  0.00     0.060 A 
BRANCH  79  80
ATOM     80  S   UNL     1      -2.441   2.514 -17.909  1.00  0.00     0.124 S 
ATOM     81  O   UNL     1      -3.784   2.281 -18.426  1.00  0.00    -0.237 OA
ATOM     82  O   UNL     1      -1.687   3.592 -18.539  1.00  0.00    -0.237 OA
ATOM     83  O   UNL     1      -1.667   1.316 -17.596  1.00  0.00    -0.744 OA
ENDBRANCH  79  80
ENDBRANCH  58  72
BRANCH  59  84
ATOM     84  C   UNL     1      -8.854  -1.837 -10.645  1.00  0.00     0.058 A 
ATOM     85  C   UNL     1      -9.706  -2.329 -11.651  1.00  0.00     0.135 A 
ATOM     86  C   UNL     1      -8.025  -2.789 -10.018  1.00  0.00     0.135 A 
ATOM     87  F   UNL     1     -10.517  -1.493 -12.317  1.00  0.00    -0.206 F 
ATOM     88  C   UNL     1      -9.696  -3.672 -12.049  1.00  0.00     0.059 A 
ATOM     89  C   UNL     1      -8.005  -4.133 -10.390  1.00  0.00     0.059 A 
ATOM     90  F   UNL     1      -7.134  -2.426  -9.083  1.00  0.00    -0.206 F 
ATOM     91  C   UNL     1      -8.823  -4.563 -11.426  1.00  0.00     0.060 A 
BRANCH  91  92
ATOM     92  S   UNL     1      -8.668  -6.250 -12.060  1.00  0.00     0.124 S 
ATOM     93  O   UNL     1      -9.945  -6.837 -11.673  1.00  0.00    -0.237 OA
ATOM     94  O   UNL     1      -8.475  -6.027 -13.489  1.00  0.00    -0.237 OA
ATOM     95  O   UNL     1      -7.501  -6.772 -11.352  1.00  0.00    -0.744 OA
ENDBRANCH  91  92
ENDBRANCH  59  84
BRANCH  71  96
ATOM     96  C   UNL     1      -9.846   4.421 -11.086  1.00  0.00     0.058 A 
ATOM     97  C   UNL     1     -10.110   4.010  -9.766  1.00  0.00     0.135 A 
ATOM     98  C   UNL     1     -10.661   5.434 -11.612  1.00  0.00     0.135 A 
ATOM     99  F   UNL     1      -9.314   3.127  -9.147  1.00  0.00    -0.206 F 
ATOM    100  C   UNL     1     -11.165   4.548  -9.024  1.00  0.00     0.059 A 
ATOM    101  C   UNL     1     -11.697   6.008 -10.880  1.00  0.00     0.059 A 
ATOM    102  F   UNL     1     -10.422   5.917 -12.843  1.00  0.00    -0.206 F 
ATOM    103  C   UNL     1     -11.954   5.548  -9.591  1.00  0.00     0.060 A 
BRANCH 103 104
ATOM    104  S   UNL     1     -13.280   6.290  -8.613  1.00  0.00     0.124 S 
ATOM    105  O   UNL     1     -14.261   5.212  -8.559  1.00  0.00    -0.237 OA
ATOM    106  O   UNL     1     -12.610   6.601  -7.353  1.00  0.00    -0.237 OA
ATOM    107  O   UNL     1     -13.675   7.454  -9.401  1.00  0.00    -0.744 OA
ENDBRANCH 103 104
ENDBRANCH  71  96
ENDBRANCH  45  46
ENDBRANCH  38  40
ENDBRANCH  37  38
ENDBRANCH  36  37
ENDBRANCH  35  36
ENDBRANCH  34  35
ENDBRANCH  33  34
ENDBRANCH  32  33
ENDBRANCH   1  32
TORSDOF 26
