REMARK SMILES CCC(CC)([NH2+]CC(=O)Nc1ccc(C)cc1)C(=O)OCCOCCOCCOCCOC(=O)c1ccc(-c2c3nc(c(-c4c(F)cc(S(=O)(=O)[O-])cc4F)c4ccc([nH]4)c(-c4c(F)cc(S(=O)(=O)[O-])cc4F)c4nc(c(-c5c(F)cc(S(=O)(=O)[O-])cc5F)c5ccc2[nH]5)C=C4)C=C3)cc1
REMARK SMILES IDX 25 1 24 2 23 3 22 4 21 5 20 6 18 7 19 8 3 9 2 10 1 11 4 12
REMARK SMILES IDX 5 13 6 14 7 17 8 18 9 19 10 20 11 22 12 23 17 24 13 25 16 26
REMARK SMILES IDX 14 27 15 28 26 29 27 30 28 31 29 32 30 33 31 34 32 35 33 36
REMARK SMILES IDX 34 37 35 38 36 39 100 40 37 41 99 42 38 43 39 44 40 45 93 46
REMARK SMILES IDX 41 47 98 48 92 49 94 50 42 51 97 52 91 53 90 54 43 56 77 57
REMARK SMILES IDX 56 58 76 59 57 60 60 61 75 62 95 63 58 64 59 65 74 67 96 68
REMARK SMILES IDX 61 69 44 70 45 71 54 72 46 73 47 74 53 75 55 76 48 77 49 78
REMARK SMILES IDX 50 79 51 80 52 81 78 82 79 83 88 84 80 85 81 86 87 87 89 88
REMARK SMILES IDX 82 89 83 90 84 91 85 92 86 93 62 94 63 95 72 96 64 97 65 98
REMARK SMILES IDX 71 99 73 100 66 101 67 102 68 103 69 104 70 105
REMARK H PARENT 6 15 6 16 10 21 94 55 60 66
REMARK Flexibility Score: inf
ROOT
ATOM      1  C   UNL     1       1.210   2.982   3.994  1.00  0.00     0.188 C 
ENDROOT
BRANCH   1   2
ATOM      2  C   UNL     1       1.545   1.473   3.944  1.00  0.00     0.188 C 
BRANCH   2   3
ATOM      3  O   UNL     1       2.853   0.977   3.794  1.00  0.00    -0.376 OA
BRANCH   3   4
ATOM      4  C   UNL     1       3.542   1.292   2.608  1.00  0.00     0.202 C 
BRANCH   4   5
ATOM      5  C   UNL     1       2.874   1.610   1.280  1.00  0.00     0.261 C 
BRANCH   5   6
ATOM      6  O   UNL     1       1.507   1.962   1.165  1.00  0.00    -0.459 OA
BRANCH   6   7
ATOM      7  C   UNL     1       0.573   1.031   0.859  1.00  0.00     0.368 C 
ATOM      8  O   UNL     1       0.851  -0.146   0.842  1.00  0.00    -0.245 OA
BRANCH   7   9
ATOM      9  C   UNL     1      -0.914   1.632   0.885  1.00  0.00     0.194 C 
BRANCH   9  10
ATOM     10  C   UNL     1      -1.558   0.692   1.979  1.00  0.00     0.077 C 
ATOM     11  C   UNL     1      -1.555  -0.821   1.579  1.00  0.00     0.011 C 
ENDBRANCH   9  10
BRANCH   9  12
ATOM     12  C   UNL     1      -1.949   1.577  -0.265  1.00  0.00     0.077 C 
ATOM     13  C   UNL     1      -3.268   2.352  -0.103  1.00  0.00     0.011 C 
ENDBRANCH   9  12
BRANCH   9  14
ATOM     14  N   UNL     1      -0.794   3.086   1.159  1.00  0.00    -0.324 N 
ATOM     15  H   UNL     1      -0.317   3.184   2.055  1.00  0.00     0.347 HD
ATOM     16  H   UNL     1      -1.755   3.425   1.120  1.00  0.00     0.347 HD
BRANCH  14  17
ATOM     17  C   UNL     1      -0.058   3.953   0.166  1.00  0.00     0.363 C 
BRANCH  17  18
ATOM     18  C   UNL     1      -0.533   4.118  -1.314  1.00  0.00     0.279 C 
ATOM     19  O   UNL     1      -1.274   5.076  -1.595  1.00  0.00    -0.268 OA
ATOM     20  N   UNL     1      -0.147   3.321  -2.389  1.00  0.00    -0.321 N 
ATOM     21  H   UNL     1      -0.392   3.677  -3.273  1.00  0.00     0.170 HD
BRANCH  20  22
ATOM     22  C   UNL     1       0.536   2.089  -2.419  1.00  0.00     0.041 A 
ATOM     23  C   UNL     1      -0.086   0.833  -2.430  1.00  0.00     0.026 A 
ATOM     24  C   UNL     1       1.887   2.081  -2.512  1.00  0.00     0.026 A 
ATOM     25  C   UNL     1       0.603  -0.326  -2.025  1.00  0.00     0.005 A 
ATOM     26  C   UNL     1       2.550   0.969  -2.027  1.00  0.00     0.005 A 
ATOM     27  C   UNL     1       1.935  -0.224  -1.685  1.00  0.00    -0.051 A 
ATOM     28  C   UNL     1       2.726  -1.280  -0.964  1.00  0.00     0.044 C 
ENDBRANCH  20  22
ENDBRANCH  17  18
ENDBRANCH  14  17
ENDBRANCH   9  14
ENDBRANCH   7   9
ENDBRANCH   6   7
ENDBRANCH   5   6
ENDBRANCH   4   5
ENDBRANCH   3   4
ENDBRANCH   2   3
ENDBRANCH   1   2
BRANCH   1  29
ATOM     29  O   UNL     1       1.656   3.857   2.974  1.00  0.00    -0.377 OA
BRANCH  29  30
ATOM     30  C   UNL     1       2.850   4.621   3.141  1.00  0.00     0.188 C 
BRANCH  30  31
ATOM     31  C   UNL     1       3.455   4.699   4.534  1.00  0.00     0.188 C 
BRANCH  31  32
ATOM     32  O   UNL     1       3.947   3.400   4.858  1.00  0.00    -0.376 OA
BRANCH  32  33
ATOM     33  C   UNL     1       3.797   2.964   6.198  1.00  0.00     0.202 C 
BRANCH  33  34
ATOM     34  C   UNL     1       4.529   3.860   7.185  1.00  0.00     0.261 C 
BRANCH  34  35
ATOM     35  O   UNL     1       5.949   3.621   7.086  1.00  0.00    -0.460 OA
BRANCH  35  36
ATOM     36  C   UNL     1       6.663   4.559   6.400  1.00  0.00     0.338 C 
ATOM     37  O   UNL     1       7.104   5.570   6.921  1.00  0.00    -0.246 OA
BRANCH  36  38
ATOM     38  C   UNL     1       6.938   4.136   4.990  1.00  0.00     0.060 A 
ATOM     39  C   UNL     1       7.262   5.077   4.005  1.00  0.00     0.016 A 
ATOM     40  C   UNL     1       6.747   2.817   4.604  1.00  0.00     0.016 A 
ATOM     41  C   UNL     1       7.217   4.736   2.634  1.00  0.00     0.010 A 
ATOM     42  C   UNL     1       6.681   2.493   3.251  1.00  0.00     0.010 A 
ATOM     43  C   UNL     1       6.851   3.445   2.231  1.00  0.00    -0.014 A 
BRANCH  43  44
ATOM     44  C   UNL     1       6.416   3.052   0.849  1.00  0.00     0.031 A 
ATOM     45  C   UNL     1       6.679   1.641   0.291  1.00  0.00     0.074 A 
ATOM     46  C   UNL     1       5.511   3.844   0.224  1.00  0.00     0.049 A 
ATOM     47  N   UNL     1       6.170   1.060  -0.760  1.00  0.00    -0.248 NA
ATOM     48  C   UNL     1       7.626   0.756   0.954  1.00  0.00     0.031 C 
ATOM     49  C   UNL     1       4.515   3.322  -0.686  1.00  0.00     0.029 A 
ATOM     50  N   UNL     1       5.094   5.162   0.376  1.00  0.00    -0.354 N 
ATOM     51  C   UNL     1       6.549  -0.286  -0.811  1.00  0.00     0.074 A 
ATOM     52  C   UNL     1       7.445  -0.403   0.314  1.00  0.00     0.031 C 
ATOM     53  C   UNL     1       3.564   4.228  -0.924  1.00  0.00     0.029 A 
ATOM     54  C   UNL     1       4.136   5.476  -0.605  1.00  0.00     0.049 A 
ATOM     55  H   UNL     1       5.421   5.782   1.067  1.00  0.00     0.167 HD
ATOM     56  C   UNL     1       6.061  -1.163  -1.767  1.00  0.00     0.037 A 
ATOM     57  C   UNL     1       4.415   6.305  -1.653  1.00  0.00     0.037 A 
ATOM     58  C   UNL     1       5.387  -0.446  -2.911  1.00  0.00     0.049 A 
ATOM     59  C   UNL     1       4.691   5.573  -3.024  1.00  0.00     0.074 A 
ATOM     60  C   UNL     1       4.307  -0.686  -3.755  1.00  0.00     0.029 A 
ATOM     61  N   UNL     1       5.797   0.860  -3.280  1.00  0.00    -0.354 N 
ATOM     62  N   UNL     1       4.867   4.263  -3.173  1.00  0.00    -0.248 NA
ATOM     63  C   UNL     1       4.746   6.229  -4.330  1.00  0.00     0.031 C 
ATOM     64  C   UNL     1       4.042   0.454  -4.552  1.00  0.00     0.029 A 
ATOM     65  C   UNL     1       4.955   1.438  -4.218  1.00  0.00     0.049 A 
ATOM     66  H   UNL     1       6.592   1.308  -2.910  1.00  0.00     0.167 HD
ATOM     67  C   UNL     1       5.087   3.914  -4.491  1.00  0.00     0.074 A 
ATOM     68  C   UNL     1       5.029   5.205  -5.165  1.00  0.00     0.031 C 
ATOM     69  C   UNL     1       5.284   2.639  -4.981  1.00  0.00     0.037 A 
BRANCH  56  70
ATOM     70  C   UNL     1       6.050  -2.766  -1.629  1.00  0.00     0.058 A 
ATOM     71  C   UNL     1       5.239  -3.606  -2.448  1.00  0.00     0.135 A 
ATOM     72  C   UNL     1       6.752  -3.548  -0.676  1.00  0.00     0.135 A 
ATOM     73  F   UNL     1       4.579  -3.155  -3.510  1.00  0.00    -0.206 F 
ATOM     74  C   UNL     1       5.064  -4.994  -2.290  1.00  0.00     0.059 A 
ATOM     75  C   UNL     1       6.636  -4.955  -0.524  1.00  0.00     0.059 A 
ATOM     76  F   UNL     1       7.648  -3.021   0.156  1.00  0.00    -0.206 F 
ATOM     77  C   UNL     1       5.774  -5.675  -1.329  1.00  0.00     0.060 A 
BRANCH  77  78
ATOM     78  S   UNL     1       5.639  -7.474  -1.257  1.00  0.00     0.124 S 
ATOM     79  O   UNL     1       4.268  -7.663  -0.793  1.00  0.00    -0.237 OA
ATOM     80  O   UNL     1       5.894  -7.861  -2.642  1.00  0.00    -0.237 OA
ATOM     81  O   UNL     1       6.678  -7.857  -0.306  1.00  0.00    -0.744 OA
ENDBRANCH  77  78
ENDBRANCH  56  70
BRANCH  57  82
ATOM     82  C   UNL     1       4.641   7.675  -1.053  1.00  0.00     0.058 A 
ATOM     83  C   UNL     1       3.482   8.217  -0.421  1.00  0.00     0.135 A 
ATOM     84  C   UNL     1       5.851   7.863  -0.353  1.00  0.00     0.135 A 
ATOM     85  F   UNL     1       2.291   8.126  -1.036  1.00  0.00    -0.206 F 
ATOM     86  C   UNL     1       3.473   8.598   0.930  1.00  0.00     0.059 A 
ATOM     87  C   UNL     1       5.862   8.241   1.003  1.00  0.00     0.059 A 
ATOM     88  F   UNL     1       6.995   7.403  -0.882  1.00  0.00    -0.206 F 
ATOM     89  C   UNL     1       4.659   8.534   1.655  1.00  0.00     0.060 A 
BRANCH  89  90
ATOM     90  S   UNL     1       4.586   8.557   3.476  1.00  0.00     0.124 S 
ATOM     91  O   UNL     1       4.661   9.981   3.771  1.00  0.00    -0.237 OA
ATOM     92  O   UNL     1       3.309   7.909   3.764  1.00  0.00    -0.237 OA
ATOM     93  O   UNL     1       5.752   7.765   3.846  1.00  0.00    -0.744 OA
ENDBRANCH  89  90
ENDBRANCH  57  82
BRANCH  69  94
ATOM     94  C   UNL     1       5.745   2.254  -6.379  1.00  0.00     0.058 A 
ATOM     95  C   UNL     1       5.287   2.813  -7.571  1.00  0.00     0.135 A 
ATOM     96  C   UNL     1       6.600   1.117  -6.521  1.00  0.00     0.135 A 
ATOM     97  F   UNL     1       4.321   3.744  -7.571  1.00  0.00    -0.206 F 
ATOM     98  C   UNL     1       5.793   2.403  -8.809  1.00  0.00     0.059 A 
ATOM     99  C   UNL     1       7.025   0.624  -7.741  1.00  0.00     0.059 A 
ATOM    100  F   UNL     1       7.074   0.448  -5.459  1.00  0.00    -0.206 F 
ATOM    101  C   UNL     1       6.692   1.335  -8.874  1.00  0.00     0.060 A 
BRANCH 101 102
ATOM    102  S   UNL     1       7.526   0.941 -10.417  1.00  0.00     0.124 S 
ATOM    103  O   UNL     1       6.468   1.111 -11.406  1.00  0.00    -0.237 OA
ATOM    104  O   UNL     1       8.576   1.957 -10.430  1.00  0.00    -0.237 OA
ATOM    105  O   UNL     1       7.984  -0.431 -10.221  1.00  0.00    -0.744 OA
ENDBRANCH 101 102
ENDBRANCH  69  94
ENDBRANCH  43  44
ENDBRANCH  36  38
ENDBRANCH  35  36
ENDBRANCH  34  35
ENDBRANCH  33  34
ENDBRANCH  32  33
ENDBRANCH  31  32
ENDBRANCH  30  31
ENDBRANCH  29  30
ENDBRANCH   1  29
TORSDOF 29
