REMARK SMILES Cc1ccc(C[C@@H](Cc2cc(F)cc(Br)c2)C(=O)OCCOCCOCCOCCOC(=O)c2ccc(-c3c4nc(c(-c5c(F)cc(S(=O)(=O)[O-])cc5F)c5ccc([nH]5)c(-c5c(F)cc(S(=O)(=O)[O-])cc5F)c5nc(c(-c6c(F)cc(S(=O)(=O)[O-])cc6F)c6ccc3[nH]6)C=C5)C=C4)cc2)cc1
REMARK SMILES IDX 26 1 25 2 24 3 23 4 22 5 21 6 20 7 19 8 17 9 18 10 7 11 6 12
REMARK SMILES IDX 5 13 1 14 2 15 3 16 101 17 4 18 100 19 8 20 9 21 10 22 16 23
REMARK SMILES IDX 11 24 14 25 12 26 13 27 15 28 27 29 28 30 29 31 30 32 31 33
REMARK SMILES IDX 32 34 33 35 34 36 35 37 99 38 36 39 98 40 37 41 38 42 39 43
REMARK SMILES IDX 92 44 40 45 97 46 91 47 93 48 41 49 96 50 90 51 89 52 42 54
REMARK SMILES IDX 76 55 55 56 75 57 56 58 59 59 74 60 94 61 57 62 58 63 73 65
REMARK SMILES IDX 95 66 60 67 43 68 44 69 53 70 45 71 46 72 52 73 54 74 47 75
REMARK SMILES IDX 48 76 49 77 50 78 51 79 77 80 78 81 87 82 79 83 80 84 86 85
REMARK SMILES IDX 88 86 81 87 82 88 83 89 84 90 85 91 61 92 62 93 71 94 63 95
REMARK SMILES IDX 64 96 70 97 72 98 65 99 66 100 67 101 68 102 69 103
REMARK H PARENT 93 53 59 64
REMARK Flexibility Score: inf
ROOT
ATOM      1  C   UNL     1      -6.945   3.188  -0.745  1.00  0.00     0.188 C 
ENDROOT
BRANCH   1   2
ATOM      2  O   UNL     1      -5.628   2.935  -0.331  1.00  0.00    -0.377 OA
BRANCH   2   3
ATOM      3  C   UNL     1      -4.615   2.598  -1.246  1.00  0.00     0.188 C 
BRANCH   3   4
ATOM      4  C   UNL     1      -4.722   2.968  -2.727  1.00  0.00     0.188 C 
BRANCH   4   5
ATOM      5  O   UNL     1      -5.809   2.465  -3.492  1.00  0.00    -0.376 OA
BRANCH   5   6
ATOM      6  C   UNL     1      -6.186   1.114  -3.260  1.00  0.00     0.202 C 
BRANCH   6   7
ATOM      7  C   UNL     1      -5.177   0.037  -3.666  1.00  0.00     0.261 C 
BRANCH   7   8
ATOM      8  O   UNL     1      -4.146  -0.154  -2.654  1.00  0.00    -0.463 OA
BRANCH   8   9
ATOM      9  C   UNL     1      -2.966  -0.663  -3.086  1.00  0.00     0.309 C 
ATOM     10  O   UNL     1      -2.676  -0.785  -4.272  1.00  0.00    -0.252 OA
BRANCH   9  11
ATOM     11  C   UNL     1      -2.001  -1.114  -1.981  1.00  0.00     0.108 C 
BRANCH  11  12
ATOM     12  C   UNL     1      -2.398  -0.808  -0.506  1.00  0.00     0.051 C 
BRANCH  12  13
ATOM     13  C   UNL     1      -1.119  -0.396   0.209  1.00  0.00    -0.047 A 
ATOM     14  C   UNL     1       3.086   0.251   0.115  1.00  0.00     0.044 C 
ATOM     15  C   UNL     1       1.617   0.094   0.362  1.00  0.00    -0.051 A 
ATOM     16  C   UNL     1       1.106  -1.162   0.712  1.00  0.00     0.004 A 
ATOM     17  C   UNL     1       0.733   1.149   0.110  1.00  0.00     0.004 A 
ATOM     18  C   UNL     1      -0.264  -1.396   0.678  1.00  0.00     0.004 A 
ATOM     19  C   UNL     1      -0.638   0.911   0.048  1.00  0.00     0.004 A 
ENDBRANCH  12  13
ENDBRANCH  11  12
BRANCH  11  20
ATOM     20  C   UNL     1      -1.397  -2.566  -2.212  1.00  0.00     0.051 C 
BRANCH  20  21
ATOM     21  C   UNL     1      -2.307  -3.754  -2.055  1.00  0.00    -0.043 A 
ATOM     22  C   UNL     1      -2.040  -4.946  -1.357  1.00  0.00     0.043 A 
ATOM     23  C   UNL     1      -3.538  -3.645  -2.627  1.00  0.00     0.019 A 
ATOM     24  C   UNL     1      -3.067  -5.876  -1.098  1.00  0.00     0.124 A 
ATOM     25  C   UNL     1      -4.542  -4.393  -2.079  1.00  0.00     0.021 A 
ATOM     26  F   UNL     1      -2.802  -7.018  -0.452  1.00  0.00    -0.207 F 
ATOM     27  C   UNL     1      -4.372  -5.561  -1.380  1.00  0.00     0.055 A 
ATOM     28  Br  UNL     1      -5.951  -3.284  -1.776  1.00  0.00    -0.051 Br
ENDBRANCH  20  21
ENDBRANCH  11  20
ENDBRANCH   9  11
ENDBRANCH   8   9
ENDBRANCH   7   8
ENDBRANCH   6   7
ENDBRANCH   5   6
ENDBRANCH   4   5
ENDBRANCH   3   4
ENDBRANCH   2   3
ENDBRANCH   1   2
BRANCH   1  29
ATOM     29  C   UNL     1      -7.360   4.662  -0.685  1.00  0.00     0.188 C 
BRANCH  29  30
ATOM     30  O   UNL     1      -6.430   5.612  -0.206  1.00  0.00    -0.376 OA
BRANCH  30  31
ATOM     31  C   UNL     1      -5.791   5.286   1.027  1.00  0.00     0.202 C 
BRANCH  31  32
ATOM     32  C   UNL     1      -6.582   4.700   2.239  1.00  0.00     0.261 C 
BRANCH  32  33
ATOM     33  O   UNL     1      -7.635   3.734   1.982  1.00  0.00    -0.460 OA
BRANCH  33  34
ATOM     34  C   UNL     1      -8.911   3.975   2.446  1.00  0.00     0.338 C 
ATOM     35  O   UNL     1      -9.328   4.957   2.999  1.00  0.00    -0.246 OA
BRANCH  34  36
ATOM     36  C   UNL     1      -9.802   2.946   1.806  1.00  0.00     0.060 A 
ATOM     37  C   UNL     1     -10.034   1.677   2.329  1.00  0.00     0.016 A 
ATOM     38  C   UNL     1     -10.129   3.188   0.479  1.00  0.00     0.016 A 
ATOM     39  C   UNL     1     -10.248   0.603   1.447  1.00  0.00     0.010 A 
ATOM     40  C   UNL     1     -10.126   2.118  -0.401  1.00  0.00     0.010 A 
ATOM     41  C   UNL     1      -9.999   0.812   0.080  1.00  0.00    -0.014 A 
BRANCH  41  42
ATOM     42  C   UNL     1      -9.050  -0.057  -0.702  1.00  0.00     0.031 A 
ATOM     43  C   UNL     1      -9.195  -0.315  -2.172  1.00  0.00     0.074 A 
ATOM     44  C   UNL     1      -7.894  -0.320  -0.046  1.00  0.00     0.049 A 
ATOM     45  N   UNL     1      -8.487  -1.104  -2.920  1.00  0.00    -0.248 NA
ATOM     46  C   UNL     1     -10.252   0.345  -2.936  1.00  0.00     0.031 C 
ATOM     47  C   UNL     1      -6.586  -0.731  -0.486  1.00  0.00     0.029 A 
ATOM     48  N   UNL     1      -7.760  -0.413   1.329  1.00  0.00    -0.354 N 
ATOM     49  C   UNL     1      -8.920  -0.969  -4.243  1.00  0.00     0.074 A 
ATOM     50  C   UNL     1      -9.959   0.021  -4.196  1.00  0.00     0.031 C 
ATOM     51  C   UNL     1      -5.938  -1.360   0.500  1.00  0.00     0.029 A 
ATOM     52  C   UNL     1      -6.821  -1.391   1.599  1.00  0.00     0.049 A 
ATOM     53  H   UNL     1      -8.248   0.122   1.996  1.00  0.00     0.167 HD
ATOM     54  C   UNL     1      -8.463  -1.778  -5.248  1.00  0.00     0.037 A 
ATOM     55  C   UNL     1      -7.192  -2.502   2.252  1.00  0.00     0.037 A 
ATOM     56  C   UNL     1      -8.053  -3.080  -4.682  1.00  0.00     0.049 A 
ATOM     57  C   UNL     1      -7.688  -3.723   1.325  1.00  0.00     0.074 A 
ATOM     58  C   UNL     1      -6.988  -3.941  -4.843  1.00  0.00     0.029 A 
ATOM     59  N   UNL     1      -8.842  -3.660  -3.644  1.00  0.00    -0.354 N 
ATOM     60  N   UNL     1      -8.192  -3.676   0.077  1.00  0.00    -0.248 NA
ATOM     61  C   UNL     1      -7.509  -5.126   1.724  1.00  0.00     0.031 C 
ATOM     62  C   UNL     1      -7.114  -4.978  -3.886  1.00  0.00     0.029 A 
ATOM     63  C   UNL     1      -8.169  -4.685  -3.006  1.00  0.00     0.049 A 
ATOM     64  H   UNL     1      -9.753  -3.367  -3.412  1.00  0.00     0.167 HD
ATOM     65  C   UNL     1      -8.351  -4.991  -0.485  1.00  0.00     0.074 A 
ATOM     66  C   UNL     1      -7.905  -5.825   0.638  1.00  0.00     0.031 C 
ATOM     67  C   UNL     1      -8.624  -5.445  -1.807  1.00  0.00     0.037 A 
BRANCH  54  68
ATOM     68  C   UNL     1      -8.334  -1.367  -6.756  1.00  0.00     0.058 A 
ATOM     69  C   UNL     1      -7.346  -1.935  -7.608  1.00  0.00     0.135 A 
ATOM     70  C   UNL     1      -9.078  -0.364  -7.425  1.00  0.00     0.135 A 
ATOM     71  F   UNL     1      -6.463  -2.830  -7.165  1.00  0.00    -0.206 F 
ATOM     72  C   UNL     1      -7.148  -1.591  -8.960  1.00  0.00     0.059 A 
ATOM     73  C   UNL     1      -8.889   0.015  -8.774  1.00  0.00     0.059 A 
ATOM     74  F   UNL     1     -10.052   0.318  -6.823  1.00  0.00    -0.206 F 
ATOM     75  C   UNL     1      -7.931  -0.616  -9.545  1.00  0.00     0.060 A 
BRANCH  75  76
ATOM     76  S   UNL     1      -7.695  -0.217 -11.291  1.00  0.00     0.124 S 
ATOM     77  O   UNL     1      -6.303   0.221 -11.326  1.00  0.00    -0.237 OA
ATOM     78  O   UNL     1      -7.973  -1.495 -11.938  1.00  0.00    -0.237 OA
ATOM     79  O   UNL     1      -8.681   0.832 -11.538  1.00  0.00    -0.744 OA
ENDBRANCH  75  76
ENDBRANCH  54  68
BRANCH  55  80
ATOM     80  C   UNL     1      -7.058  -1.954   3.705  1.00  0.00     0.058 A 
ATOM     81  C   UNL     1      -5.734  -1.484   4.045  1.00  0.00     0.135 A 
ATOM     82  C   UNL     1      -8.077  -1.103   4.218  1.00  0.00     0.135 A 
ATOM     83  F   UNL     1      -4.669  -2.171   3.596  1.00  0.00    -0.206 F 
ATOM     84  C   UNL     1      -5.458  -0.203   4.590  1.00  0.00     0.059 A 
ATOM     85  C   UNL     1      -7.813   0.170   4.808  1.00  0.00     0.059 A 
ATOM     86  F   UNL     1      -9.364  -1.393   3.968  1.00  0.00    -0.206 F 
ATOM     87  C   UNL     1      -6.505   0.637   4.941  1.00  0.00     0.060 A 
BRANCH  87  88
ATOM     88  S   UNL     1      -6.166   2.371   5.422  1.00  0.00     0.124 S 
ATOM     89  O   UNL     1      -5.932   2.251   6.856  1.00  0.00    -0.237 OA
ATOM     90  O   UNL     1      -4.993   2.717   4.624  1.00  0.00    -0.237 OA
ATOM     91  O   UNL     1      -7.394   3.060   5.041  1.00  0.00    -0.744 OA
ENDBRANCH  87  88
ENDBRANCH  55  80
BRANCH  67  92
ATOM     92  C   UNL     1      -9.057  -6.898  -2.244  1.00  0.00     0.058 A 
ATOM     93  C   UNL     1      -9.533  -7.897  -1.386  1.00  0.00     0.135 A 
ATOM     94  C   UNL     1      -9.120  -7.277  -3.634  1.00  0.00     0.135 A 
ATOM     95  F   UNL     1      -9.703  -7.665  -0.078  1.00  0.00    -0.206 F 
ATOM     96  C   UNL     1      -9.943  -9.164  -1.846  1.00  0.00     0.059 A 
ATOM     97  C   UNL     1      -9.478  -8.533  -4.107  1.00  0.00     0.059 A 
ATOM     98  F   UNL     1      -8.935  -6.413  -4.642  1.00  0.00    -0.206 F 
ATOM     99  C   UNL     1      -9.906  -9.475  -3.205  1.00  0.00     0.060 A 
BRANCH  99 100
ATOM    100  S   UNL     1     -10.598 -11.024  -3.812  1.00  0.00     0.124 S 
ATOM    101  O   UNL     1      -9.607 -11.993  -3.357  1.00  0.00    -0.237 OA
ATOM    102  O   UNL     1     -11.888 -11.063  -3.131  1.00  0.00    -0.237 OA
ATOM    103  O   UNL     1     -10.668 -10.832  -5.258  1.00  0.00    -0.744 OA
ENDBRANCH  99 100
ENDBRANCH  67  92
ENDBRANCH  41  42
ENDBRANCH  34  36
ENDBRANCH  33  34
ENDBRANCH  32  33
ENDBRANCH  31  32
ENDBRANCH  30  31
ENDBRANCH  29  30
ENDBRANCH   1  29
TORSDOF 27
