REMARK SMILES CN(C)c1cc(C(F)(F)F)cc(-c2cccc(/C=C/C(=O)OCCOCCOCCOCCOC(=O)c3ccc(-c4c5nc(c(-c6c(F)cc(S(=O)(=O)[O-])cc6F)c6ccc([nH]6)c(-c6c(F)cc(S(=O)(=O)[O-])cc6F)c6nc(c(-c7c(F)cc(S(=O)(=O)[O-])cc7F)c7ccc4[nH]7)C=C6)C=C5)cc3)c2)n1
REMARK SMILES IDX 28 1 27 2 26 3 25 4 24 5 23 6 22 7 20 8 21 9 19 10 18 11
REMARK SMILES IDX 17 12 13 13 14 14 103 15 15 16 16 17 12 18 4 19 5 20 104 21
REMARK SMILES IDX 6 22 11 23 2 24 1 25 3 26 7 27 8 28 9 29 10 30 29 31 30 32
REMARK SMILES IDX 31 33 32 34 33 35 34 36 35 37 36 38 37 39 38 40 102 41 39 42
REMARK SMILES IDX 101 43 40 44 41 45 42 46 95 47 43 48 100 49 94 50 96 51
REMARK SMILES IDX 44 52 99 53 93 54 92 55 45 57 79 58 58 59 78 60 59 61 62 62
REMARK SMILES IDX 77 63 97 64 60 65 61 66 76 68 98 69 63 70 46 71 47 72 56 73
REMARK SMILES IDX 48 74 49 75 55 76 57 77 50 78 51 79 52 80 53 81 54 82 80 83
REMARK SMILES IDX 81 84 90 85 82 86 83 87 89 88 91 89 84 90 85 91 86 92 87 93
REMARK SMILES IDX 88 94 64 95 65 96 74 97 66 98 67 99 73 100 75 101 68 102
REMARK SMILES IDX 69 103 70 104 71 105 72 106
REMARK H PARENT 96 56 62 67
REMARK Flexibility Score: inf
ROOT
ATOM      1  O   UNL     1      -1.751  10.216   4.603  1.00  0.00    -0.377 OA
ENDROOT
BRANCH   1   2
ATOM      2  C   UNL     1      -2.970   9.671   5.078  1.00  0.00     0.188 C 
BRANCH   2   3
ATOM      3  C   UNL     1      -3.527  10.255   6.390  1.00  0.00     0.188 C 
BRANCH   3   4
ATOM      4  O   UNL     1      -3.011  11.534   6.706  1.00  0.00    -0.376 OA
BRANCH   4   5
ATOM      5  C   UNL     1      -1.998  11.675   7.685  1.00  0.00     0.202 C 
BRANCH   5   6
ATOM      6  C   UNL     1      -0.743  10.786   7.693  1.00  0.00     0.261 C 
BRANCH   6   7
ATOM      7  O   UNL     1      -0.920   9.418   7.318  1.00  0.00    -0.460 OA
BRANCH   7   8
ATOM      8  C   UNL     1      -1.437   8.583   8.241  1.00  0.00     0.330 C 
ATOM      9  O   UNL     1      -1.783   8.881   9.373  1.00  0.00    -0.247 OA
BRANCH   8  10
ATOM     10  C   UNL     1      -1.705   7.250   7.652  1.00  0.00     0.094 C 
ATOM     11  C   UNL     1      -1.163   6.800   6.507  1.00  0.00     0.015 C 
BRANCH  11  12
ATOM     12  C   UNL     1      -1.477   5.493   5.904  1.00  0.00    -0.025 A 
ATOM     13  C   UNL     1      -0.731   3.597   4.531  1.00  0.00     0.001 A 
ATOM     14  C   UNL     1      -1.991   3.005   4.708  1.00  0.00     0.010 A 
ATOM     15  C   UNL     1      -0.500   4.853   5.126  1.00  0.00     0.018 A 
ATOM     16  C   UNL     1      -2.985   3.643   5.450  1.00  0.00     0.001 A 
ATOM     17  C   UNL     1      -2.731   4.884   6.037  1.00  0.00     0.008 A 
BRANCH  13  18
ATOM     18  C   UNL     1       0.324   2.906   3.773  1.00  0.00     0.073 A 
ATOM     19  C   UNL     1       0.890   1.786   1.794  1.00  0.00     0.129 A 
ATOM     20  C   UNL     1       2.170   1.552   2.286  1.00  0.00     0.060 A 
ATOM     21  N   UNL     1      -0.020   2.452   2.542  1.00  0.00    -0.231 NA
ATOM     22  C   UNL     1       2.543   2.032   3.545  1.00  0.00     0.061 A 
ATOM     23  C   UNL     1       1.593   2.716   4.302  1.00  0.00     0.042 A 
BRANCH  19  24
ATOM     24  N   UNL     1       0.537   1.383   0.516  1.00  0.00    -0.363 N 
ATOM     25  C   UNL     1       0.929   0.079   0.021  1.00  0.00     0.144 C 
ATOM     26  C   UNL     1      -0.536   2.112  -0.134  1.00  0.00     0.144 C 
ENDBRANCH  19  24
BRANCH  22  27
ATOM     27  C   UNL     1       3.937   1.846   4.073  1.00  0.00     0.416 C 
ATOM     28  F   UNL     1       4.548   3.027   4.353  1.00  0.00    -0.166 F 
ATOM     29  F   UNL     1       3.956   1.128   5.230  1.00  0.00    -0.166 F 
ATOM     30  F   UNL     1       4.761   1.186   3.213  1.00  0.00    -0.166 F 
ENDBRANCH  22  27
ENDBRANCH  13  18
ENDBRANCH  11  12
ENDBRANCH   8  10
ENDBRANCH   7   8
ENDBRANCH   6   7
ENDBRANCH   5   6
ENDBRANCH   4   5
ENDBRANCH   3   4
ENDBRANCH   2   3
ENDBRANCH   1   2
BRANCH   1  31
ATOM     31  C   UNL     1      -1.685  11.591   4.224  1.00  0.00     0.188 C 
BRANCH  31  32
ATOM     32  C   UNL     1      -2.929  12.511   4.142  1.00  0.00     0.188 C 
BRANCH  32  33
ATOM     33  O   UNL     1      -4.172  11.834   4.048  1.00  0.00    -0.376 OA
BRANCH  33  34
ATOM     34  C   UNL     1      -4.848  11.873   2.804  1.00  0.00     0.202 C 
BRANCH  34  35
ATOM     35  C   UNL     1      -4.168  11.146   1.637  1.00  0.00     0.261 C 
BRANCH  35  36
ATOM     36  O   UNL     1      -2.820  11.544   1.348  1.00  0.00    -0.460 OA
BRANCH  36  37
ATOM     37  C   UNL     1      -2.633  12.809   0.902  1.00  0.00     0.338 C 
ATOM     38  O   UNL     1      -3.482  13.654   0.719  1.00  0.00    -0.246 OA
BRANCH  37  39
ATOM     39  C   UNL     1      -1.172  13.044   0.847  1.00  0.00     0.060 A 
ATOM     40  C   UNL     1      -0.612  14.057   1.636  1.00  0.00     0.016 A 
ATOM     41  C   UNL     1      -0.364  12.257   0.025  1.00  0.00     0.016 A 
ATOM     42  C   UNL     1       0.762  14.306   1.579  1.00  0.00     0.010 A 
ATOM     43  C   UNL     1       1.006  12.521  -0.046  1.00  0.00     0.010 A 
ATOM     44  C   UNL     1       1.571  13.566   0.705  1.00  0.00    -0.014 A 
BRANCH  44  45
ATOM     45  C   UNL     1       2.961  14.005   0.425  1.00  0.00     0.031 A 
ATOM     46  C   UNL     1       3.213  14.805  -0.827  1.00  0.00     0.074 A 
ATOM     47  C   UNL     1       3.976  13.715   1.260  1.00  0.00     0.049 A 
ATOM     48  N   UNL     1       4.343  15.223  -1.333  1.00  0.00    -0.248 NA
ATOM     49  C   UNL     1       2.025  15.181  -1.615  1.00  0.00     0.031 C 
ATOM     50  C   UNL     1       3.853  12.988   2.523  1.00  0.00     0.029 A 
ATOM     51  N   UNL     1       5.319  13.988   1.159  1.00  0.00    -0.354 N 
ATOM     52  C   UNL     1       4.005  15.909  -2.494  1.00  0.00     0.074 A 
ATOM     53  C   UNL     1       2.569  15.821  -2.639  1.00  0.00     0.031 C 
ATOM     54  C   UNL     1       5.075  12.858   3.071  1.00  0.00     0.029 A 
ATOM     55  C   UNL     1       6.070  13.457   2.182  1.00  0.00     0.049 A 
ATOM     56  H   UNL     1       5.707  14.514   0.423  1.00  0.00     0.167 HD
ATOM     57  C   UNL     1       4.817  16.567  -3.355  1.00  0.00     0.037 A 
ATOM     58  C   UNL     1       7.407  13.433   2.361  1.00  0.00     0.037 A 
ATOM     59  C   UNL     1       6.246  16.650  -3.208  1.00  0.00     0.049 A 
ATOM     60  C   UNL     1       8.299  14.094   1.335  1.00  0.00     0.074 A 
ATOM     61  C   UNL     1       7.158  17.286  -4.031  1.00  0.00     0.029 A 
ATOM     62  N   UNL     1       6.970  16.081  -2.171  1.00  0.00    -0.354 N 
ATOM     63  N   UNL     1       7.966  14.748   0.246  1.00  0.00    -0.248 NA
ATOM     64  C   UNL     1       9.750  14.016   1.563  1.00  0.00     0.031 C 
ATOM     65  C   UNL     1       8.439  17.060  -3.519  1.00  0.00     0.029 A 
ATOM     66  C   UNL     1       8.320  16.337  -2.344  1.00  0.00     0.049 A 
ATOM     67  H   UNL     1       6.583  15.570  -1.424  1.00  0.00     0.167 HD
ATOM     68  C   UNL     1       9.161  15.193  -0.312  1.00  0.00     0.074 A 
ATOM     69  C   UNL     1      10.223  14.744   0.562  1.00  0.00     0.031 C 
ATOM     70  C   UNL     1       9.364  15.909  -1.447  1.00  0.00     0.037 A 
BRANCH  57  71
ATOM     71  C   UNL     1       4.186  17.246  -4.538  1.00  0.00     0.058 A 
ATOM     72  C   UNL     1       3.422  18.415  -4.393  1.00  0.00     0.135 A 
ATOM     73  C   UNL     1       4.407  16.765  -5.839  1.00  0.00     0.135 A 
ATOM     74  F   UNL     1       3.159  18.904  -3.171  1.00  0.00    -0.206 F 
ATOM     75  C   UNL     1       2.895  19.080  -5.495  1.00  0.00     0.059 A 
ATOM     76  C   UNL     1       3.914  17.430  -6.958  1.00  0.00     0.059 A 
ATOM     77  F   UNL     1       5.124  15.647  -6.033  1.00  0.00    -0.206 F 
ATOM     78  C   UNL     1       3.155  18.585  -6.775  1.00  0.00     0.060 A 
BRANCH  78  79
ATOM     79  S   UNL     1       2.504  19.489  -8.194  1.00  0.00     0.124 S 
ATOM     80  O   UNL     1       1.071  19.240  -8.067  1.00  0.00    -0.237 OA
ATOM     81  O   UNL     1       2.936  20.855  -7.916  1.00  0.00    -0.237 OA
ATOM     82  O   UNL     1       3.152  18.849  -9.334  1.00  0.00    -0.744 OA
ENDBRANCH  78  79
ENDBRANCH  57  71
BRANCH  58  83
ATOM     83  C   UNL     1       8.006  12.738   3.536  1.00  0.00     0.058 A 
ATOM     84  C   UNL     1       8.723  13.447   4.513  1.00  0.00     0.135 A 
ATOM     85  C   UNL     1       7.929  11.343   3.673  1.00  0.00     0.135 A 
ATOM     86  F   UNL     1       8.837  14.781   4.424  1.00  0.00    -0.206 F 
ATOM     87  C   UNL     1       9.375  12.798   5.557  1.00  0.00     0.059 A 
ATOM     88  C   UNL     1       8.544  10.674   4.727  1.00  0.00     0.059 A 
ATOM     89  F   UNL     1       7.249  10.614   2.775  1.00  0.00    -0.206 F 
ATOM     90  C   UNL     1       9.284  11.409   5.652  1.00  0.00     0.060 A 
BRANCH  90  91
ATOM     91  S   UNL     1      10.136  10.575   7.009  1.00  0.00     0.124 S 
ATOM     92  O   UNL     1      11.530  10.697   6.599  1.00  0.00    -0.237 OA
ATOM     93  O   UNL     1       9.736  11.377   8.161  1.00  0.00    -0.237 OA
ATOM     94  O   UNL     1       9.583   9.225   6.973  1.00  0.00    -0.744 OA
ENDBRANCH  90  91
ENDBRANCH  58  83
BRANCH  70  95
ATOM     95  C   UNL     1      10.776  16.312  -1.781  1.00  0.00     0.058 A 
ATOM     96  C   UNL     1      11.732  15.383  -2.217  1.00  0.00     0.135 A 
ATOM     97  C   UNL     1      11.156  17.664  -1.721  1.00  0.00     0.135 A 
ATOM     98  F   UNL     1      11.424  14.079  -2.289  1.00  0.00    -0.206 F 
ATOM     99  C   UNL     1      13.024  15.775  -2.558  1.00  0.00     0.059 A 
ATOM    100  C   UNL     1      12.431  18.082  -2.089  1.00  0.00     0.059 A 
ATOM    101  F   UNL     1      10.277  18.598  -1.323  1.00  0.00    -0.206 F 
ATOM    102  C   UNL     1      13.362  17.128  -2.495  1.00  0.00     0.060 A 
BRANCH 102 103
ATOM    103  S   UNL     1      15.029  17.626  -2.978  1.00  0.00     0.124 S 
ATOM    104  O   UNL     1      15.822  17.122  -1.862  1.00  0.00    -0.237 OA
ATOM    105  O   UNL     1      15.207  16.929  -4.248  1.00  0.00    -0.237 OA
ATOM    106  O   UNL     1      14.936  19.080  -3.075  1.00  0.00    -0.744 OA
ENDBRANCH 102 103
ENDBRANCH  70  95
ENDBRANCH  44  45
ENDBRANCH  37  39
ENDBRANCH  36  37
ENDBRANCH  35  36
ENDBRANCH  34  35
ENDBRANCH  33  34
ENDBRANCH  32  33
ENDBRANCH  31  32
ENDBRANCH   1  31
TORSDOF 27
