REMARK SMILES C[C@](Nc1ccc(C(N)=O)nn1)(C(=O)OCCOCCOCCOCCOC(=O)c1ccc(-c2c3nc(c(-c4c(F)cc(S(=O)(=O)[O-])cc4F)c4ccc([nH]4)c(-c4c(F)cc(S(=O)(=O)[O-])cc4F)c4nc(c(-c5c(F)cc(S(=O)(=O)[O-])cc5F)c5ccc2[nH]5)C=C4)C=C3)cc1)c1ccccc1
REMARK SMILES IDX 21 1 20 2 19 3 18 4 17 5 16 6 15 7 13 8 14 9 2 10 1 11 96 12
REMARK SMILES IDX 97 13 101 14 98 15 100 16 99 17 3 18 4 20 5 21 12 22 6 23
REMARK SMILES IDX 11 24 7 25 8 26 9 27 10 28 22 31 23 32 24 33 25 34 26 35
REMARK SMILES IDX 27 36 28 37 29 38 30 39 31 40 95 41 32 42 94 43 33 44 34 45
REMARK SMILES IDX 35 46 88 47 36 48 93 49 87 50 89 51 37 52 92 53 86 54 85 55
REMARK SMILES IDX 38 57 72 58 51 59 71 60 52 61 55 62 70 63 90 64 53 65 54 66
REMARK SMILES IDX 69 68 91 69 56 70 39 71 40 72 49 73 41 74 42 75 48 76 50 77
REMARK SMILES IDX 43 78 44 79 45 80 46 81 47 82 73 83 74 84 83 85 75 86 76 87
REMARK SMILES IDX 82 88 84 89 77 90 78 91 79 92 80 93 81 94 57 95 58 96 67 97
REMARK SMILES IDX 59 98 60 99 66 100 68 101 61 102 62 103 63 104 64 105 65 106
REMARK H PARENT 3 19 9 29 9 30 89 56 55 67
REMARK Flexibility Score: inf
ROOT
ATOM      1  O   UNL     1      -2.123  -0.061   0.865  1.00  0.00    -0.377 OA
ENDROOT
BRANCH   1   2
ATOM      2  C   UNL     1      -1.645   1.187   0.414  1.00  0.00     0.188 C 
BRANCH   2   3
ATOM      3  C   UNL     1      -2.524   1.849  -0.653  1.00  0.00     0.188 C 
BRANCH   3   4
ATOM      4  O   UNL     1      -3.784   1.279  -0.919  1.00  0.00    -0.376 OA
BRANCH   4   5
ATOM      5  C   UNL     1      -3.872  -0.056  -1.395  1.00  0.00     0.202 C 
BRANCH   5   6
ATOM      6  C   UNL     1      -2.728  -0.894  -2.029  1.00  0.00     0.261 C 
BRANCH   6   7
ATOM      7  O   UNL     1      -1.348  -0.668  -1.671  1.00  0.00    -0.461 OA
BRANCH   7   8
ATOM      8  C   UNL     1      -0.584  -0.004  -2.586  1.00  0.00     0.336 C 
ATOM      9  O   UNL     1      -1.059   0.503  -3.601  1.00  0.00    -0.249 OA
BRANCH   8  10
ATOM     10  C   UNL     1       0.972   0.007  -2.262  1.00  0.00     0.160 C 
ATOM     11  C   UNL     1       1.473  -1.014  -3.304  1.00  0.00     0.053 C 
BRANCH  10  12
ATOM     12  C   UNL     1       1.548   1.433  -2.454  1.00  0.00    -0.012 A 
ATOM     13  C   UNL     1       2.858   1.656  -2.901  1.00  0.00     0.007 A 
ATOM     14  C   UNL     1       0.803   2.581  -2.117  1.00  0.00     0.007 A 
ATOM     15  C   UNL     1       3.369   2.954  -3.041  1.00  0.00     0.000 A 
ATOM     16  C   UNL     1       1.300   3.878  -2.261  1.00  0.00     0.000 A 
ATOM     17  C   UNL     1       2.588   4.065  -2.730  1.00  0.00     0.000 A 
ENDBRANCH  10  12
BRANCH  10  18
ATOM     18  N   UNL     1       1.299  -0.383  -0.867  1.00  0.00    -0.350 N 
ATOM     19  H   UNL     1       0.906   0.204  -0.181  1.00  0.00     0.163 HD
BRANCH  18  20
ATOM     20  C   UNL     1       2.048  -1.410  -0.365  1.00  0.00     0.149 A 
ATOM     21  C   UNL     1       3.293  -1.775  -0.841  1.00  0.00     0.051 A 
ATOM     22  N   UNL     1       1.544  -2.054   0.713  1.00  0.00    -0.132 NA
ATOM     23  C   UNL     1       3.985  -2.836  -0.255  1.00  0.00     0.040 A 
ATOM     24  N   UNL     1       2.208  -3.116   1.303  1.00  0.00    -0.143 NA
ATOM     25  C   UNL     1       3.402  -3.497   0.808  1.00  0.00     0.150 A 
BRANCH  25  26
ATOM     26  C   UNL     1       4.094  -4.647   1.451  1.00  0.00     0.269 C 
ATOM     27  N   UNL     1       3.482  -5.213   2.536  1.00  0.00    -0.364 N 
ATOM     28  O   UNL     1       5.167  -5.067   1.032  1.00  0.00    -0.268 OA
ATOM     29  H   UNL     1       2.621  -4.860   2.856  1.00  0.00     0.160 HD
ATOM     30  H   UNL     1       3.903  -5.975   2.997  1.00  0.00     0.160 HD
ENDBRANCH  25  26
ENDBRANCH  18  20
ENDBRANCH  10  18
ENDBRANCH   8  10
ENDBRANCH   7   8
ENDBRANCH   6   7
ENDBRANCH   5   6
ENDBRANCH   4   5
ENDBRANCH   3   4
ENDBRANCH   2   3
ENDBRANCH   1   2
BRANCH   1  31
ATOM     31  C   UNL     1      -3.059  -0.034   1.939  1.00  0.00     0.188 C 
BRANCH  31  32
ATOM     32  C   UNL     1      -3.881   1.251   2.191  1.00  0.00     0.188 C 
BRANCH  32  33
ATOM     33  O   UNL     1      -3.122   2.455   2.166  1.00  0.00    -0.376 OA
BRANCH  33  34
ATOM     34  C   UNL     1      -2.656   3.014   3.385  1.00  0.00     0.202 C 
BRANCH  34  35
ATOM     35  C   UNL     1      -1.649   2.209   4.223  1.00  0.00     0.261 C 
BRANCH  35  36
ATOM     36  O   UNL     1      -2.063   0.902   4.642  1.00  0.00    -0.460 OA
BRANCH  36  37
ATOM     37  C   UNL     1      -3.216   0.797   5.333  1.00  0.00     0.338 C 
ATOM     38  O   UNL     1      -3.925   1.711   5.722  1.00  0.00    -0.246 OA
BRANCH  37  39
ATOM     39  C   UNL     1      -3.601  -0.629   5.344  1.00  0.00     0.060 A 
ATOM     40  C   UNL     1      -4.859  -0.992   4.843  1.00  0.00     0.016 A 
ATOM     41  C   UNL     1      -2.726  -1.601   5.836  1.00  0.00     0.016 A 
ATOM     42  C   UNL     1      -5.272  -2.320   4.892  1.00  0.00     0.010 A 
ATOM     43  C   UNL     1      -3.152  -2.929   5.912  1.00  0.00     0.010 A 
ATOM     44  C   UNL     1      -4.448  -3.279   5.492  1.00  0.00    -0.014 A 
BRANCH  44  45
ATOM     45  C   UNL     1      -5.057  -4.549   5.951  1.00  0.00     0.031 A 
ATOM     46  C   UNL     1      -5.537  -4.610   7.378  1.00  0.00     0.074 A 
ATOM     47  C   UNL     1      -5.234  -5.593   5.124  1.00  0.00     0.049 A 
ATOM     48  N   UNL     1      -6.104  -5.592   8.026  1.00  0.00    -0.248 NA
ATOM     49  C   UNL     1      -5.346  -3.390   8.182  1.00  0.00     0.031 C 
ATOM     50  C   UNL     1      -4.861  -5.628   3.712  1.00  0.00     0.029 A 
ATOM     51  N   UNL     1      -5.780  -6.828   5.363  1.00  0.00    -0.354 N 
ATOM     52  C   UNL     1      -6.323  -5.114   9.314  1.00  0.00     0.074 A 
ATOM     53  C   UNL     1      -5.797  -3.770   9.366  1.00  0.00     0.031 C 
ATOM     54  C   UNL     1      -5.190  -6.831   3.207  1.00  0.00     0.029 A 
ATOM     55  C   UNL     1      -5.768  -7.657   4.267  1.00  0.00     0.049 A 
ATOM     56  H   UNL     1      -6.145  -7.096   6.237  1.00  0.00     0.167 HD
ATOM     57  C   UNL     1      -6.917  -5.738  10.358  1.00  0.00     0.037 A 
ATOM     58  C   UNL     1      -6.170  -8.938   4.145  1.00  0.00     0.037 A 
ATOM     59  C   UNL     1      -7.434  -7.078  10.296  1.00  0.00     0.049 A 
ATOM     60  C   UNL     1      -6.768  -9.638   5.340  1.00  0.00     0.074 A 
ATOM     61  C   UNL     1      -8.067  -7.803  11.289  1.00  0.00     0.029 A 
ATOM     62  N   UNL     1      -7.367  -7.901   9.180  1.00  0.00    -0.354 N 
ATOM     63  N   UNL     1      -6.985  -9.174   6.549  1.00  0.00    -0.248 NA
ATOM     64  C   UNL     1      -7.182 -11.035   5.150  1.00  0.00     0.031 C 
ATOM     65  C   UNL     1      -8.327  -9.085  10.793  1.00  0.00     0.029 A 
ATOM     66  C   UNL     1      -7.923  -9.136   9.468  1.00  0.00     0.049 A 
ATOM     67  H   UNL     1      -6.981  -7.643   8.312  1.00  0.00     0.167 HD
ATOM     68  C   UNL     1      -7.603 -10.207   7.250  1.00  0.00     0.074 A 
ATOM     69  C   UNL     1      -7.722 -11.318   6.328  1.00  0.00     0.031 C 
ATOM     70  C   UNL     1      -8.043 -10.229   8.534  1.00  0.00     0.037 A 
BRANCH  57  71
ATOM     71  C   UNL     1      -6.983  -4.989  11.662  1.00  0.00     0.058 A 
ATOM     72  C   UNL     1      -7.789  -3.851  11.832  1.00  0.00     0.135 A 
ATOM     73  C   UNL     1      -6.214  -5.413  12.758  1.00  0.00     0.135 A 
ATOM     74  F   UNL     1      -8.528  -3.386  10.812  1.00  0.00    -0.206 F 
ATOM     75  C   UNL     1      -7.795  -3.135  13.026  1.00  0.00     0.059 A 
ATOM     76  C   UNL     1      -6.231  -4.733  13.972  1.00  0.00     0.059 A 
ATOM     77  F   UNL     1      -5.422  -6.491  12.652  1.00  0.00    -0.206 F 
ATOM     78  C   UNL     1      -7.009  -3.583  14.089  1.00  0.00     0.060 A 
BRANCH  78  79
ATOM     79  S   UNL     1      -7.010  -2.634  15.624  1.00  0.00     0.124 S 
ATOM     80  O   UNL     1      -6.252  -1.449  15.233  1.00  0.00    -0.237 OA
ATOM     81  O   UNL     1      -8.435  -2.425  15.860  1.00  0.00    -0.237 OA
ATOM     82  O   UNL     1      -6.343  -3.519  16.573  1.00  0.00    -0.744 OA
ENDBRANCH  78  79
ENDBRANCH  57  71
BRANCH  58  83
ATOM     83  C   UNL     1      -6.039  -9.635   2.837  1.00  0.00     0.058 A 
ATOM     84  C   UNL     1      -7.171  -9.980   2.084  1.00  0.00     0.135 A 
ATOM     85  C   UNL     1      -4.780  -9.962   2.308  1.00  0.00     0.135 A 
ATOM     86  F   UNL     1      -8.398  -9.702   2.552  1.00  0.00    -0.206 F 
ATOM     87  C   UNL     1      -7.063 -10.628   0.858  1.00  0.00     0.059 A 
ATOM     88  C   UNL     1      -4.645 -10.586   1.071  1.00  0.00     0.059 A 
ATOM     89  F   UNL     1      -3.664  -9.650   2.985  1.00  0.00    -0.206 F 
ATOM     90  C   UNL     1      -5.794 -10.920   0.356  1.00  0.00     0.060 A 
BRANCH  90  91
ATOM     91  S   UNL     1      -5.666 -11.700  -1.268  1.00  0.00     0.124 S 
ATOM     92  O   UNL     1      -6.167 -13.041  -0.992  1.00  0.00    -0.237 OA
ATOM     93  O   UNL     1      -6.530 -10.850  -2.082  1.00  0.00    -0.237 OA
ATOM     94  O   UNL     1      -4.242 -11.609  -1.574  1.00  0.00    -0.744 OA
ENDBRANCH  90  91
ENDBRANCH  58  83
BRANCH  70  95
ATOM     95  C   UNL     1      -8.755 -11.470   9.006  1.00  0.00     0.058 A 
ATOM     96  C   UNL     1      -8.084 -12.685   9.215  1.00  0.00     0.135 A 
ATOM     97  C   UNL     1     -10.129 -11.424   9.296  1.00  0.00     0.135 A 
ATOM     98  F   UNL     1      -6.771 -12.787   8.954  1.00  0.00    -0.206 F 
ATOM     99  C   UNL     1      -8.758 -13.820   9.659  1.00  0.00     0.059 A 
ATOM    100  C   UNL     1     -10.815 -12.536   9.774  1.00  0.00     0.059 A 
ATOM    101  F   UNL     1     -10.818 -10.284   9.130  1.00  0.00    -0.206 F 
ATOM    102  C   UNL     1     -10.124 -13.735   9.936  1.00  0.00     0.060 A 
BRANCH 102 103
ATOM    103  S   UNL     1     -10.983 -15.209  10.524  1.00  0.00     0.124 S 
ATOM    104  O   UNL     1     -11.046 -16.016   9.310  1.00  0.00    -0.237 OA
ATOM    105  O   UNL     1     -10.086 -15.699  11.566  1.00  0.00    -0.237 OA
ATOM    106  O   UNL     1     -12.263 -14.691  10.999  1.00  0.00    -0.744 OA
ENDBRANCH 102 103
ENDBRANCH  70  95
ENDBRANCH  44  45
ENDBRANCH  37  39
ENDBRANCH  36  37
ENDBRANCH  35  36
ENDBRANCH  34  35
ENDBRANCH  33  34
ENDBRANCH  32  33
ENDBRANCH  31  32
ENDBRANCH   1  31
TORSDOF 27
