REMARK SMILES Cc1nc2ccccc2c2c1C(=O)N(c1cccc(C(=O)OCCOCCOCCOCCOC(=O)c3ccc(-c4c5nc(c(-c6c(F)cc(S(=O)(=O)[O-])cc6F)c6ccc([nH]6)c(-c6c(F)cc(S(=O)(=O)[O-])cc6F)c6nc(c(-c7c(F)cc(S(=O)(=O)[O-])cc7F)c7ccc4[nH]7)C=C6)C=C5)cc3)c1)C2=O
REMARK SMILES IDX 29 1 28 2 27 3 26 4 25 5 24 6 23 7 22 8 20 9 21 10 19 11
REMARK SMILES IDX 15 12 16 13 103 14 17 15 18 16 14 17 1 18 2 19 3 20 11 21
REMARK SMILES IDX 4 22 10 23 12 24 5 25 9 26 104 27 13 28 6 29 8 30 105 31
REMARK SMILES IDX 7 32 30 33 31 34 32 35 33 36 34 37 35 38 36 39 37 40 38 41
REMARK SMILES IDX 102 42 39 43 101 44 40 45 41 46 42 47 95 48 43 49 100 50
REMARK SMILES IDX 94 51 96 52 44 53 99 54 93 55 92 56 45 58 79 59 58 60 78 61
REMARK SMILES IDX 59 62 62 63 77 64 97 65 60 66 61 67 76 69 98 70 63 71 46 72
REMARK SMILES IDX 47 73 56 74 48 75 49 76 55 77 57 78 50 79 51 80 52 81 53 82
REMARK SMILES IDX 54 83 80 84 81 85 90 86 82 87 83 88 89 89 91 90 84 91 85 92
REMARK SMILES IDX 86 93 87 94 88 95 64 96 65 97 74 98 66 99 67 100 73 101
REMARK SMILES IDX 75 102 68 103 69 104 70 105 71 106 72 107
REMARK H PARENT 96 57 62 68
REMARK Flexibility Score: inf
ROOT
ATOM      1  C   UNL     1      -5.705  -7.005   2.735  1.00  0.00     0.188 C 
ENDROOT
BRANCH   1   2
ATOM      2  O   UNL     1      -4.658  -6.150   3.169  1.00  0.00    -0.377 OA
BRANCH   2   3
ATOM      3  C   UNL     1      -3.325  -6.623   3.197  1.00  0.00     0.188 C 
BRANCH   3   4
ATOM      4  C   UNL     1      -3.028  -7.985   3.846  1.00  0.00     0.188 C 
BRANCH   4   5
ATOM      5  O   UNL     1      -4.168  -8.723   4.270  1.00  0.00    -0.376 OA
BRANCH   5   6
ATOM      6  C   UNL     1      -4.412  -8.729   5.675  1.00  0.00     0.202 C 
BRANCH   6   7
ATOM      7  C   UNL     1      -4.961  -7.408   6.242  1.00  0.00     0.261 C 
BRANCH   7   8
ATOM      8  O   UNL     1      -4.049  -6.300   6.106  1.00  0.00    -0.460 OA
BRANCH   8   9
ATOM      9  C   UNL     1      -2.976  -6.401   6.908  1.00  0.00     0.338 C 
ATOM     10  O   UNL     1      -2.783  -7.313   7.704  1.00  0.00    -0.246 OA
BRANCH   9  11
ATOM     11  C   UNL     1      -1.947  -5.358   6.661  1.00  0.00     0.062 A 
ATOM     12  C   UNL     1      -1.024  -3.246   5.883  1.00  0.00     0.053 A 
ATOM     13  C   UNL     1       0.118  -3.558   6.672  1.00  0.00     0.027 A 
ATOM     14  C   UNL     1      -2.109  -4.137   5.947  1.00  0.00     0.042 A 
ATOM     15  C   UNL     1       0.323  -4.797   7.249  1.00  0.00     0.003 A 
ATOM     16  C   UNL     1      -0.701  -5.708   7.211  1.00  0.00     0.016 A 
BRANCH  12  17
ATOM     17  N   UNL     1      -0.828  -2.222   4.889  1.00  0.00    -0.242 N 
ATOM     18  C   UNL     1      -0.952   0.136   0.776  1.00  0.00     0.067 C 
ATOM     19  C   UNL     1      -0.660  -1.212   1.383  1.00  0.00     0.052 A 
ATOM     20  N   UNL     1       0.043  -2.057   0.561  1.00  0.00    -0.252 NA
ATOM     21  C   UNL     1      -0.550  -1.304   2.755  1.00  0.00     0.075 A 
ATOM     22  C   UNL     1       0.631  -3.134   1.114  1.00  0.00     0.071 A 
ATOM     23  C   UNL     1       0.543  -2.003   3.174  1.00  0.00     0.064 A 
ATOM     24  C   UNL     1      -1.572  -1.810   3.792  1.00  0.00     0.268 C 
ATOM     25  C   UNL     1       0.956  -4.250   0.354  1.00  0.00     0.029 A 
ATOM     26  C   UNL     1       0.816  -3.197   2.494  1.00  0.00     0.014 A 
ATOM     27  C   UNL     1       0.451  -1.883   4.597  1.00  0.00     0.266 C 
ATOM     28  O   UNL     1      -2.758  -1.933   3.556  1.00  0.00    -0.268 OA
ATOM     29  C   UNL     1       1.199  -5.490   0.955  1.00  0.00     0.002 A 
ATOM     30  C   UNL     1       1.044  -4.455   3.108  1.00  0.00     0.011 A 
ATOM     31  O   UNL     1       1.344  -1.366   5.248  1.00  0.00    -0.268 OA
ATOM     32  C   UNL     1       1.166  -5.605   2.337  1.00  0.00     0.001 A 
ENDBRANCH  12  17
ENDBRANCH   9  11
ENDBRANCH   8   9
ENDBRANCH   7   8
ENDBRANCH   6   7
ENDBRANCH   5   6
ENDBRANCH   4   5
ENDBRANCH   3   4
ENDBRANCH   2   3
ENDBRANCH   1   2
BRANCH   1  33
ATOM     33  C   UNL     1      -5.457  -8.116   1.698  1.00  0.00     0.188 C 
BRANCH  33  34
ATOM     34  O   UNL     1      -4.235  -8.008   0.977  1.00  0.00    -0.376 OA
BRANCH  34  35
ATOM     35  C   UNL     1      -4.369  -7.650  -0.393  1.00  0.00     0.202 C 
BRANCH  35  36
ATOM     36  C   UNL     1      -4.590  -6.151  -0.617  1.00  0.00     0.261 C 
BRANCH  36  37
ATOM     37  O   UNL     1      -5.799  -5.622  -0.053  1.00  0.00    -0.460 OA
BRANCH  37  38
ATOM     38  C   UNL     1      -6.976  -6.112  -0.505  1.00  0.00     0.338 C 
ATOM     39  O   UNL     1      -7.138  -6.966  -1.357  1.00  0.00    -0.246 OA
BRANCH  38  40
ATOM     40  C   UNL     1      -8.043  -5.554   0.355  1.00  0.00     0.060 A 
ATOM     41  C   UNL     1      -8.080  -4.185   0.631  1.00  0.00     0.016 A 
ATOM     42  C   UNL     1      -8.977  -6.422   0.935  1.00  0.00     0.016 A 
ATOM     43  C   UNL     1      -9.073  -3.677   1.469  1.00  0.00     0.010 A 
ATOM     44  C   UNL     1      -9.965  -5.912   1.783  1.00  0.00     0.010 A 
ATOM     45  C   UNL     1     -10.033  -4.533   2.035  1.00  0.00    -0.014 A 
BRANCH  45  46
ATOM     46  C   UNL     1     -11.213  -3.947   2.713  1.00  0.00     0.031 A 
ATOM     47  C   UNL     1     -11.297  -3.804   4.201  1.00  0.00     0.074 A 
ATOM     48  C   UNL     1     -12.219  -3.513   1.929  1.00  0.00     0.049 A 
ATOM     49  N   UNL     1     -12.219  -3.208   4.913  1.00  0.00    -0.248 NA
ATOM     50  C   UNL     1     -10.218  -4.409   4.995  1.00  0.00     0.031 C 
ATOM     51  C   UNL     1     -12.245  -3.623   0.468  1.00  0.00     0.029 A 
ATOM     52  N   UNL     1     -13.396  -2.886   2.239  1.00  0.00    -0.354 N 
ATOM     53  C   UNL     1     -11.825  -3.338   6.238  1.00  0.00     0.074 A 
ATOM     54  C   UNL     1     -10.600  -4.113   6.234  1.00  0.00     0.031 C 
ATOM     55  C   UNL     1     -13.372  -3.062   0.007  1.00  0.00     0.029 A 
ATOM     56  C   UNL     1     -14.151  -2.565   1.137  1.00  0.00     0.049 A 
ATOM     57  H   UNL     1     -13.675  -2.685   3.162  1.00  0.00     0.167 HD
ATOM     58  C   UNL     1     -12.426  -2.839   7.346  1.00  0.00     0.037 A 
ATOM     59  C   UNL     1     -15.333  -1.929   1.042  1.00  0.00     0.037 A 
ATOM     60  C   UNL     1     -13.655  -2.081   7.334  1.00  0.00     0.049 A 
ATOM     61  C   UNL     1     -15.992  -1.415   2.288  1.00  0.00     0.074 A 
ATOM     62  C   UNL     1     -14.317  -1.500   8.403  1.00  0.00     0.029 A 
ATOM     63  N   UNL     1     -14.412  -1.806   6.204  1.00  0.00    -0.354 N 
ATOM     64  N   UNL     1     -15.570  -1.483   3.528  1.00  0.00    -0.248 NA
ATOM     65  C   UNL     1     -17.282  -0.732   2.126  1.00  0.00     0.031 C 
ATOM     66  C   UNL     1     -15.495  -0.915   7.926  1.00  0.00     0.029 A 
ATOM     67  C   UNL     1     -15.546  -1.090   6.553  1.00  0.00     0.049 A 
ATOM     68  H   UNL     1     -14.178  -2.080   5.287  1.00  0.00     0.167 HD
ATOM     69  C   UNL     1     -16.531  -0.833   4.291  1.00  0.00     0.074 A 
ATOM     70  C   UNL     1     -17.552  -0.370   3.373  1.00  0.00     0.031 C 
ATOM     71  C   UNL     1     -16.561  -0.638   5.632  1.00  0.00     0.037 A 
BRANCH  58  72
ATOM     72  C   UNL     1     -11.766  -3.076   8.677  1.00  0.00     0.058 A 
ATOM     73  C   UNL     1     -10.605  -2.378   9.047  1.00  0.00     0.135 A 
ATOM     74  C   UNL     1     -12.348  -3.929   9.629  1.00  0.00     0.135 A 
ATOM     75  F   UNL     1     -10.005  -1.553   8.175  1.00  0.00    -0.206 F 
ATOM     76  C   UNL     1     -10.038  -2.527  10.309  1.00  0.00     0.059 A 
ATOM     77  C   UNL     1     -11.809  -4.077  10.905  1.00  0.00     0.059 A 
ATOM     78  F   UNL     1     -13.461  -4.616   9.329  1.00  0.00    -0.206 F 
ATOM     79  C   UNL     1     -10.650  -3.376  11.234  1.00  0.00     0.060 A 
BRANCH  79  80
ATOM     80  S   UNL     1      -9.913  -3.535  12.875  1.00  0.00     0.124 S 
ATOM     81  O   UNL     1      -8.699  -4.288  12.577  1.00  0.00    -0.237 OA
ATOM     82  O   UNL     1      -9.715  -2.143  13.265  1.00  0.00    -0.237 OA
ATOM     83  O   UNL     1     -10.927  -4.258  13.636  1.00  0.00    -0.744 OA
ENDBRANCH  79  80
ENDBRANCH  58  72
BRANCH  59  84
ATOM     84  C   UNL     1     -15.934  -1.708  -0.297  1.00  0.00     0.058 A 
ATOM     85  C   UNL     1     -15.941  -0.433  -0.879  1.00  0.00     0.135 A 
ATOM     86  C   UNL     1     -16.462  -2.775  -1.040  1.00  0.00     0.135 A 
ATOM     87  F   UNL     1     -15.447   0.616  -0.205  1.00  0.00    -0.206 F 
ATOM     88  C   UNL     1     -16.458  -0.220  -2.152  1.00  0.00     0.059 A 
ATOM     89  C   UNL     1     -16.965  -2.591  -2.324  1.00  0.00     0.059 A 
ATOM     90  F   UNL     1     -16.457  -4.017  -0.532  1.00  0.00    -0.206 F 
ATOM     91  C   UNL     1     -16.964  -1.307  -2.869  1.00  0.00     0.060 A 
BRANCH  91  92
ATOM     92  S   UNL     1     -17.577  -1.027  -4.543  1.00  0.00     0.124 S 
ATOM     93  O   UNL     1     -18.826  -0.322  -4.284  1.00  0.00    -0.237 OA
ATOM     94  O   UNL     1     -16.504  -0.231  -5.133  1.00  0.00    -0.237 OA
ATOM     95  O   UNL     1     -17.713  -2.377  -5.081  1.00  0.00    -0.744 OA
ENDBRANCH  91  92
ENDBRANCH  59  84
BRANCH  71  96
ATOM     96  C   UNL     1     -17.733   0.116   6.196  1.00  0.00     0.058 A 
ATOM     97  C   UNL     1     -18.998  -0.480   6.314  1.00  0.00     0.135 A 
ATOM     98  C   UNL     1     -17.574   1.423   6.685  1.00  0.00     0.135 A 
ATOM     99  F   UNL     1     -19.205  -1.723   5.852  1.00  0.00    -0.206 F 
ATOM    100  C   UNL     1     -20.068   0.197   6.889  1.00  0.00     0.059 A 
ATOM    101  C   UNL     1     -18.625   2.110   7.285  1.00  0.00     0.059 A 
ATOM    102  F   UNL     1     -16.383   2.036   6.600  1.00  0.00    -0.206 F 
ATOM    103  C   UNL     1     -19.870   1.490   7.378  1.00  0.00     0.060 A 
BRANCH 103 104
ATOM    104  S   UNL     1     -21.255   2.334   8.172  1.00  0.00     0.124 S 
ATOM    105  O   UNL     1     -22.105   2.647   7.028  1.00  0.00    -0.237 OA
ATOM    106  O   UNL     1     -21.766   1.310   9.079  1.00  0.00    -0.237 OA
ATOM    107  O   UNL     1     -20.628   3.481   8.822  1.00  0.00    -0.744 OA
ENDBRANCH 103 104
ENDBRANCH  71  96
ENDBRANCH  45  46
ENDBRANCH  38  40
ENDBRANCH  37  38
ENDBRANCH  36  37
ENDBRANCH  35  36
ENDBRANCH  34  35
ENDBRANCH  33  34
ENDBRANCH   1  33
TORSDOF 24
