REMARK SMILES C[C@H](Cc1ccc2c(c1)OCCCO2)C(=O)OCCOCCOCCOCCOC(=O)c1ccc(-c2c3nc(c(-c4c(F)cc(S(=O)(=O)[O-])cc4F)c4ccc([nH]4)c(-c4c(F)cc(S(=O)(=O)[O-])cc4F)c4nc(c(-c5c(F)cc(S(=O)(=O)[O-])cc5F)c5ccc2[nH]5)C=C4)C=C3)cc1
REMARK SMILES IDX 22 1 21 2 20 3 19 4 18 5 17 6 15 7 16 8 2 9 1 10 3 11 4 12
REMARK SMILES IDX 5 13 9 14 6 15 8 16 7 17 10 18 11 19 14 21 13 22 12 23 23 25
REMARK SMILES IDX 24 26 25 27 26 28 27 29 28 30 29 31 30 32 31 33 32 34 33 35
REMARK SMILES IDX 97 36 34 37 96 38 35 39 36 40 37 41 90 42 38 43 95 44 89 45
REMARK SMILES IDX 91 46 39 47 94 48 88 49 87 50 40 52 74 53 53 54 73 55 54 56
REMARK SMILES IDX 57 57 72 58 92 59 55 60 56 61 71 63 93 64 58 65 41 66 42 67
REMARK SMILES IDX 51 68 43 69 44 70 50 71 52 72 45 73 46 74 47 75 48 76 49 77
REMARK SMILES IDX 75 78 76 79 85 80 77 81 78 82 84 83 86 84 79 85 80 86 81 87
REMARK SMILES IDX 82 88 83 89 59 90 60 91 69 92 61 93 62 94 68 95 70 96 63 97
REMARK SMILES IDX 64 98 65 99 66 100 67 101
REMARK H PARENT 91 51 57 62
REMARK Flexibility Score: 90.00
ROOT
ATOM      1  C   UNL     1      -1.441   1.399  -0.358  1.00  0.00     0.188 C 
ENDROOT
BRANCH   1   2
ATOM      2  C   UNL     1      -2.304   1.639  -1.597  1.00  0.00     0.188 C 
BRANCH   2   3
ATOM      3  O   UNL     1      -3.611   1.102  -1.659  1.00  0.00    -0.376 OA
BRANCH   3   4
ATOM      4  C   UNL     1      -3.910  -0.280  -1.543  1.00  0.00     0.202 C 
BRANCH   4   5
ATOM      5  C   UNL     1      -2.942  -1.429  -1.870  1.00  0.00     0.261 C 
BRANCH   5   6
ATOM      6  O   UNL     1      -1.589  -1.287  -1.417  1.00  0.00    -0.463 OA
BRANCH   6   7
ATOM      7  C   UNL     1      -0.619  -1.183  -2.350  1.00  0.00     0.309 C 
ATOM      8  O   UNL     1      -0.848  -1.139  -3.557  1.00  0.00    -0.252 OA
BRANCH   7   9
ATOM      9  C   UNL     1       0.822  -1.140  -1.819  1.00  0.00     0.100 C 
ATOM     10  C   UNL     1       1.549  -2.417  -2.238  1.00  0.00     0.020 C 
BRANCH   9  11
ATOM     11  C   UNL     1       1.215  -0.721  -0.378  1.00  0.00     0.050 C 
BRANCH  11  12
ATOM     12  C   UNL     1       0.474  -1.223   0.835  1.00  0.00    -0.043 A 
ATOM     13  C   UNL     1       0.456  -0.442   2.008  1.00  0.00     0.008 A 
ATOM     14  C   UNL     1      -0.271  -2.398   0.812  1.00  0.00     0.054 A 
ATOM     15  C   UNL     1      -0.369  -0.781   3.083  1.00  0.00     0.051 A 
ATOM     16  C   UNL     1      -1.119  -2.715   1.864  1.00  0.00     0.161 A 
ATOM     17  C   UNL     1      -1.169  -1.915   3.005  1.00  0.00     0.161 A 
BRANCH  16  18
ATOM     18  O   UNL     1      -1.979  -3.748   1.619  1.00  0.00    -0.490 OA
BRANCH  18  19
ATOM     19  C   UNL     1      -1.782  -4.814   2.540  1.00  0.00     0.233 CG0
ATOM     20  G   UNL     1      -2.499  -4.517   3.836  1.00  0.00     0.000 G0
ENDBRANCH  18  19
ENDBRANCH  16  18
BRANCH  17  21
ATOM     21  O   UNL     1      -2.037  -2.131   4.036  1.00  0.00    -0.490 OA
BRANCH  21  22
ATOM     22  C   UNL     1      -1.829  -3.412   4.633  1.00  0.00     0.233 C 
BRANCH  22  23
ATOM     23  C   UNL     1      -2.499  -4.517   3.836  1.00  0.00     0.083 CG0
ATOM     24  G   UNL     1      -1.782  -4.814   2.540  1.00  0.00     0.000 G0
ENDBRANCH  22  23
ENDBRANCH  21  22
ENDBRANCH  17  21
ENDBRANCH  11  12
ENDBRANCH   9  11
ENDBRANCH   7   9
ENDBRANCH   6   7
ENDBRANCH   5   6
ENDBRANCH   4   5
ENDBRANCH   3   4
ENDBRANCH   2   3
ENDBRANCH   1   2
BRANCH   1  25
ATOM     25  O   UNL     1      -1.883   1.903   0.878  1.00  0.00    -0.377 OA
BRANCH  25  26
ATOM     26  C   UNL     1      -3.057   1.298   1.384  1.00  0.00     0.188 C 
BRANCH  26  27
ATOM     27  C   UNL     1      -4.264   2.238   1.294  1.00  0.00     0.188 C 
BRANCH  27  28
ATOM     28  O   UNL     1      -4.111   3.657   1.270  1.00  0.00    -0.376 OA
BRANCH  28  29
ATOM     29  C   UNL     1      -2.845   4.270   1.450  1.00  0.00     0.202 C 
BRANCH  29  30
ATOM     30  C   UNL     1      -2.114   4.121   2.801  1.00  0.00     0.261 C 
BRANCH  30  31
ATOM     31  O   UNL     1      -2.442   2.989   3.615  1.00  0.00    -0.460 OA
BRANCH  31  32
ATOM     32  C   UNL     1      -3.587   3.074   4.329  1.00  0.00     0.338 C 
ATOM     33  O   UNL     1      -4.357   4.019   4.373  1.00  0.00    -0.246 OA
BRANCH  32  34
ATOM     34  C   UNL     1      -3.833   1.768   4.988  1.00  0.00     0.060 A 
ATOM     35  C   UNL     1      -2.839   1.152   5.751  1.00  0.00     0.016 A 
ATOM     36  C   UNL     1      -5.093   1.168   4.867  1.00  0.00     0.016 A 
ATOM     37  C   UNL     1      -3.125  -0.044   6.420  1.00  0.00     0.010 A 
ATOM     38  C   UNL     1      -5.377  -0.028   5.540  1.00  0.00     0.010 A 
ATOM     39  C   UNL     1      -4.405  -0.632   6.349  1.00  0.00    -0.014 A 
BRANCH  39  40
ATOM     40  C   UNL     1      -4.758  -1.726   7.296  1.00  0.00     0.031 A 
ATOM     41  C   UNL     1      -4.984  -3.149   6.881  1.00  0.00     0.074 A 
ATOM     42  C   UNL     1      -4.877  -1.408   8.601  1.00  0.00     0.049 A 
ATOM     43  N   UNL     1      -4.941  -4.230   7.621  1.00  0.00    -0.248 NA
ATOM     44  C   UNL     1      -5.295  -3.407   5.471  1.00  0.00     0.031 C 
ATOM     45  C   UNL     1      -4.803  -0.050   9.143  1.00  0.00     0.029 A 
ATOM     46  N   UNL     1      -5.078  -2.199   9.703  1.00  0.00    -0.354 N 
ATOM     47  C   UNL     1      -5.104  -5.300   6.750  1.00  0.00     0.074 A 
ATOM     48  C   UNL     1      -5.364  -4.735   5.446  1.00  0.00     0.031 C 
ATOM     49  C   UNL     1      -4.925  -0.105  10.477  1.00  0.00     0.029 A 
ATOM     50  C   UNL     1      -5.092  -1.498  10.883  1.00  0.00     0.049 A 
ATOM     51  H   UNL     1      -5.200  -3.174   9.652  1.00  0.00     0.167 HD
ATOM     52  C   UNL     1      -4.995  -6.625   7.014  1.00  0.00     0.037 A 
ATOM     53  C   UNL     1      -5.210  -1.926  12.155  1.00  0.00     0.037 A 
ATOM     54  C   UNL     1      -4.912  -7.177   8.338  1.00  0.00     0.049 A 
ATOM     55  C   UNL     1      -5.277  -3.401  12.432  1.00  0.00     0.074 A 
ATOM     56  C   UNL     1      -4.811  -8.505   8.710  1.00  0.00     0.029 A 
ATOM     57  N   UNL     1      -5.010  -6.436   9.504  1.00  0.00    -0.354 N 
ATOM     58  N   UNL     1      -5.173  -4.403  11.592  1.00  0.00    -0.248 NA
ATOM     59  C   UNL     1      -5.469  -3.806  13.831  1.00  0.00     0.031 C 
ATOM     60  C   UNL     1      -4.935  -8.573  10.102  1.00  0.00     0.029 A 
ATOM     61  C   UNL     1      -5.053  -7.283  10.597  1.00  0.00     0.049 A 
ATOM     62  H   UNL     1      -5.043  -5.453   9.549  1.00  0.00     0.167 HD
ATOM     63  C   UNL     1      -5.267  -5.557  12.362  1.00  0.00     0.074 A 
ATOM     64  C   UNL     1      -5.425  -5.129  13.737  1.00  0.00     0.031 C 
ATOM     65  C   UNL     1      -5.222  -6.852  11.962  1.00  0.00     0.037 A 
BRANCH  52  66
ATOM     66  C   UNL     1      -4.925  -7.577   5.856  1.00  0.00     0.058 A 
ATOM     67  C   UNL     1      -3.693  -7.825   5.229  1.00  0.00     0.135 A 
ATOM     68  C   UNL     1      -6.036  -8.310   5.423  1.00  0.00     0.135 A 
ATOM     69  F   UNL     1      -2.578  -7.222   5.670  1.00  0.00    -0.206 F 
ATOM     70  C   UNL     1      -3.581  -8.701   4.156  1.00  0.00     0.059 A 
ATOM     71  C   UNL     1      -5.941  -9.223   4.373  1.00  0.00     0.059 A 
ATOM     72  F   UNL     1      -7.224  -8.153   6.027  1.00  0.00    -0.206 F 
ATOM     73  C   UNL     1      -4.715  -9.389   3.727  1.00  0.00     0.060 A 
BRANCH  73  74
ATOM     74  S   UNL     1      -4.554 -10.516   2.325  1.00  0.00     0.124 S 
ATOM     75  O   UNL     1      -4.489  -9.578   1.209  1.00  0.00    -0.237 OA
ATOM     76  O   UNL     1      -3.314 -11.222   2.629  1.00  0.00    -0.237 OA
ATOM     77  O   UNL     1      -5.768 -11.323   2.399  1.00  0.00    -0.744 OA
ENDBRANCH  73  74
ENDBRANCH  52  66
BRANCH  53  78
ATOM     78  C   UNL     1      -5.229  -0.928  13.255  1.00  0.00     0.058 A 
ATOM     79  C   UNL     1      -4.145  -0.799  14.133  1.00  0.00     0.135 A 
ATOM     80  C   UNL     1      -6.311  -0.047  13.411  1.00  0.00     0.135 A 
ATOM     81  F   UNL     1      -3.090  -1.621  14.024  1.00  0.00    -0.206 F 
ATOM     82  C   UNL     1      -4.132   0.170  15.131  1.00  0.00     0.059 A 
ATOM     83  C   UNL     1      -6.310   0.946  14.384  1.00  0.00     0.059 A 
ATOM     84  F   UNL     1      -7.365  -0.122  12.583  1.00  0.00    -0.206 F 
ATOM     85  C   UNL     1      -5.216   1.043  15.243  1.00  0.00     0.060 A 
BRANCH  85  86
ATOM     86  S   UNL     1      -5.156   2.335  16.502  1.00  0.00     0.124 S 
ATOM     87  O   UNL     1      -5.264   1.555  17.729  1.00  0.00    -0.237 OA
ATOM     88  O   UNL     1      -3.855   2.947  16.247  1.00  0.00    -0.237 OA
ATOM     89  O   UNL     1      -6.308   3.172  16.183  1.00  0.00    -0.744 OA
ENDBRANCH  85  86
ENDBRANCH  53  78
BRANCH  65  90
ATOM     90  C   UNL     1      -5.363  -7.920  13.010  1.00  0.00     0.058 A 
ATOM     91  C   UNL     1      -6.600  -8.187  13.615  1.00  0.00     0.135 A 
ATOM     92  C   UNL     1      -4.281  -8.756  13.328  1.00  0.00     0.135 A 
ATOM     93  F   UNL     1      -7.665  -7.413  13.350  1.00  0.00    -0.206 F 
ATOM     94  C   UNL     1      -6.760  -9.247  14.501  1.00  0.00     0.059 A 
ATOM     95  C   UNL     1      -4.425  -9.839  14.189  1.00  0.00     0.059 A 
ATOM     96  F   UNL     1      -3.079  -8.549  12.768  1.00  0.00    -0.206 F 
ATOM     97  C   UNL     1      -5.669 -10.076  14.771  1.00  0.00     0.060 A 
BRANCH  97  98
ATOM     98  S   UNL     1      -5.915 -11.493  15.861  1.00  0.00     0.124 S 
ATOM     99  O   UNL     1      -6.103 -10.842  17.154  1.00  0.00    -0.237 OA
ATOM    100  O   UNL     1      -7.102 -12.121  15.289  1.00  0.00    -0.237 OA
ATOM    101  O   UNL     1      -4.678 -12.254  15.716  1.00  0.00    -0.744 OA
ENDBRANCH  97  98
ENDBRANCH  65  90
ENDBRANCH  39  40
ENDBRANCH  32  34
ENDBRANCH  31  32
ENDBRANCH  30  31
ENDBRANCH  29  30
ENDBRANCH  28  29
ENDBRANCH  27  28
ENDBRANCH  26  27
ENDBRANCH  25  26
ENDBRANCH   1  25
TORSDOF 25
