REMARK SMILES CC[C@H]1CC[C@](O)([C@H](F)C(=O)OCCOCCOCCOCCOC(=O)c2ccc(-c3c4nc(c(-c5c(F)cc(S(=O)(=O)[O-])cc5F)c5ccc([nH]5)c(-c5c(F)cc(S(=O)(=O)[O-])cc5F)c5nc(c(-c6c(F)cc(S(=O)(=O)[O-])cc6F)c6ccc3[nH]6)C=C5)C=C4)cc2)CC1
REMARK SMILES IDX 19 1 18 2 17 3 16 4 15 5 14 6 13 7 12 8 10 9 11 10 8 11 9 12
REMARK SMILES IDX 6 13 3 14 4 15 94 16 5 17 93 18 2 19 1 20 7 21 20 23 21 24
REMARK SMILES IDX 22 25 23 26 24 27 25 28 26 29 27 30 28 31 92 32 29 33 91 34
REMARK SMILES IDX 30 35 31 36 32 37 85 38 33 39 90 40 84 41 86 42 34 43 89 44
REMARK SMILES IDX 83 45 82 46 35 48 69 49 48 50 68 51 49 52 52 53 67 54 87 55
REMARK SMILES IDX 50 56 51 57 66 59 88 60 53 61 36 62 37 63 46 64 38 65 39 66
REMARK SMILES IDX 45 67 47 68 40 69 41 70 42 71 43 72 44 73 70 74 71 75 80 76
REMARK SMILES IDX 72 77 73 78 79 79 81 80 74 81 75 82 76 83 77 84 78 85 54 86
REMARK SMILES IDX 55 87 64 88 56 89 57 90 63 91 65 92 58 93 59 94 60 95 61 96
REMARK SMILES IDX 62 97
REMARK H PARENT 7 22 86 47 52 58
REMARK Flexibility Score: inf
ROOT
ATOM      1  C   UNL     1      -4.642  -0.301   5.079  1.00  0.00     0.188 C 
ENDROOT
BRANCH   1   2
ATOM      2  O   UNL     1      -3.343  -0.880   5.061  1.00  0.00    -0.377 OA
BRANCH   2   3
ATOM      3  C   UNL     1      -3.236  -2.268   5.264  1.00  0.00     0.188 C 
BRANCH   3   4
ATOM      4  C   UNL     1      -3.030  -2.671   6.737  1.00  0.00     0.188 C 
BRANCH   4   5
ATOM      5  O   UNL     1      -3.505  -1.877   7.813  1.00  0.00    -0.376 OA
BRANCH   5   6
ATOM      6  C   UNL     1      -3.132  -0.521   8.033  1.00  0.00     0.202 C 
BRANCH   6   7
ATOM      7  C   UNL     1      -1.740   0.071   7.769  1.00  0.00     0.261 C 
BRANCH   7   8
ATOM      8  O   UNL     1      -1.122  -0.367   6.572  1.00  0.00    -0.461 OA
BRANCH   8   9
ATOM      9  C   UNL     1      -0.163  -1.324   6.695  1.00  0.00     0.343 C 
ATOM     10  O   UNL     1       0.262  -1.770   7.755  1.00  0.00    -0.249 OA
BRANCH   9  11
ATOM     11  C   UNL     1       0.127  -1.911   5.329  1.00  0.00     0.307 C 
ATOM     12  F   UNL     1      -0.575  -1.260   4.347  1.00  0.00    -0.232 F 
BRANCH  11  13
ATOM     13  C   UNL     1       1.613  -1.933   4.939  1.00  0.00     0.107 C 
ATOM     14  C   UNL     1       1.946  -3.932   2.711  1.00  0.00    -0.011 C 
ATOM     15  C   UNL     1       1.241  -2.586   2.501  1.00  0.00     0.006 C 
ATOM     16  C   UNL     1       1.755  -4.389   4.169  1.00  0.00     0.006 C 
ATOM     17  C   UNL     1       1.773  -1.524   3.461  1.00  0.00     0.039 C 
ATOM     18  C   UNL     1       2.204  -3.338   5.196  1.00  0.00     0.039 C 
BRANCH  14  19
ATOM     19  C   UNL     1       3.429  -3.821   2.306  1.00  0.00    -0.000 C 
ATOM     20  C   UNL     1       4.094  -5.170   2.095  1.00  0.00     0.004 C 
ENDBRANCH  14  19
BRANCH  13  21
ATOM     21  O   UNL     1       2.347  -0.988   5.726  1.00  0.00    -0.386 OA
ATOM     22  H   UNL     1       3.282  -1.012   5.470  1.00  0.00     0.211 HD
ENDBRANCH  13  21
ENDBRANCH  11  13
ENDBRANCH   9  11
ENDBRANCH   8   9
ENDBRANCH   7   8
ENDBRANCH   6   7
ENDBRANCH   5   6
ENDBRANCH   4   5
ENDBRANCH   3   4
ENDBRANCH   2   3
ENDBRANCH   1   2
BRANCH   1  23
ATOM     23  C   UNL     1      -5.792  -0.987   5.854  1.00  0.00     0.188 C 
BRANCH  23  24
ATOM     24  O   UNL     1      -5.850  -2.401   5.722  1.00  0.00    -0.376 OA
BRANCH  24  25
ATOM     25  C   UNL     1      -6.821  -2.954   4.848  1.00  0.00     0.202 C 
BRANCH  25  26
ATOM     26  C   UNL     1      -6.648  -2.674   3.347  1.00  0.00     0.261 C 
BRANCH  26  27
ATOM     27  O   UNL     1      -6.611  -1.291   2.966  1.00  0.00    -0.460 OA
BRANCH  27  28
ATOM     28  C   UNL     1      -7.708  -0.546   3.221  1.00  0.00     0.338 C 
ATOM     29  O   UNL     1      -8.757  -0.932   3.713  1.00  0.00    -0.246 OA
BRANCH  28  30
ATOM     30  C   UNL     1      -7.356   0.869   2.986  1.00  0.00     0.060 A 
ATOM     31  C   UNL     1      -7.427   1.774   4.054  1.00  0.00     0.016 A 
ATOM     32  C   UNL     1      -6.948   1.296   1.721  1.00  0.00     0.016 A 
ATOM     33  C   UNL     1      -7.119   3.119   3.850  1.00  0.00     0.010 A 
ATOM     34  C   UNL     1      -6.664   2.648   1.513  1.00  0.00     0.010 A 
ATOM     35  C   UNL     1      -6.780   3.571   2.568  1.00  0.00    -0.014 A 
BRANCH  35  36
ATOM     36  C   UNL     1      -6.742   5.027   2.283  1.00  0.00     0.031 A 
ATOM     37  C   UNL     1      -7.954   5.659   1.654  1.00  0.00     0.074 A 
ATOM     38  C   UNL     1      -5.665   5.775   2.583  1.00  0.00     0.049 A 
ATOM     39  N   UNL     1      -8.134   6.886   1.243  1.00  0.00    -0.248 NA
ATOM     40  C   UNL     1      -9.121   4.782   1.460  1.00  0.00     0.031 C 
ATOM     41  C   UNL     1      -4.451   5.288   3.235  1.00  0.00     0.029 A 
ATOM     42  N   UNL     1      -5.418   7.107   2.362  1.00  0.00    -0.354 N 
ATOM     43  C   UNL     1      -9.426   6.927   0.733  1.00  0.00     0.074 A 
ATOM     44  C   UNL     1      -9.976   5.595   0.859  1.00  0.00     0.031 C 
ATOM     45  C   UNL     1      -3.579   6.306   3.346  1.00  0.00     0.029 A 
ATOM     46  C   UNL     1      -4.157   7.504   2.738  1.00  0.00     0.049 A 
ATOM     47  H   UNL     1      -6.082   7.721   1.971  1.00  0.00     0.167 HD
ATOM     48  C   UNL     1     -10.096   7.982   0.211  1.00  0.00     0.037 A 
ATOM     49  C   UNL     1      -3.533   8.690   2.581  1.00  0.00     0.037 A 
ATOM     50  C   UNL     1      -9.540   9.304   0.085  1.00  0.00     0.049 A 
ATOM     51  C   UNL     1      -4.270   9.831   1.924  1.00  0.00     0.074 A 
ATOM     52  C   UNL     1     -10.141  10.445  -0.416  1.00  0.00     0.029 A 
ATOM     53  N   UNL     1      -8.249   9.660   0.451  1.00  0.00    -0.354 N 
ATOM     54  N   UNL     1      -5.499   9.865   1.463  1.00  0.00    -0.248 NA
ATOM     55  C   UNL     1      -3.537  11.095   1.766  1.00  0.00     0.031 C 
ATOM     56  C   UNL     1      -9.195  11.475  -0.410  1.00  0.00     0.029 A 
ATOM     57  C   UNL     1      -8.026  10.995   0.159  1.00  0.00     0.049 A 
ATOM     58  H   UNL     1      -7.590   9.053   0.859  1.00  0.00     0.167 HD
ATOM     59  C   UNL     1      -5.695  11.160   0.991  1.00  0.00     0.074 A 
ATOM     60  C   UNL     1      -4.463  11.881   1.233  1.00  0.00     0.031 C 
ATOM     61  C   UNL     1      -6.795  11.704   0.412  1.00  0.00     0.037 A 
BRANCH  48  62
ATOM     62  C   UNL     1     -11.493   7.742  -0.294  1.00  0.00     0.058 A 
ATOM     63  C   UNL     1     -12.563   7.477   0.575  1.00  0.00     0.135 A 
ATOM     64  C   UNL     1     -11.770   7.809  -1.670  1.00  0.00     0.135 A 
ATOM     65  F   UNL     1     -12.353   7.380   1.898  1.00  0.00    -0.206 F 
ATOM     66  C   UNL     1     -13.852   7.264   0.098  1.00  0.00     0.059 A 
ATOM     67  C   UNL     1     -13.057   7.630  -2.167  1.00  0.00     0.059 A 
ATOM     68  F   UNL     1     -10.783   8.053  -2.547  1.00  0.00    -0.206 F 
ATOM     69  C   UNL     1     -14.090   7.345  -1.276  1.00  0.00     0.060 A 
BRANCH  69  70
ATOM     70  S   UNL     1     -15.770   7.077  -1.877  1.00  0.00     0.124 S 
ATOM     71  O   UNL     1     -15.936   5.645  -1.649  1.00  0.00    -0.237 OA
ATOM     72  O   UNL     1     -16.553   7.951  -1.010  1.00  0.00    -0.237 OA
ATOM     73  O   UNL     1     -15.701   7.485  -3.277  1.00  0.00    -0.744 OA
ENDBRANCH  69  70
ENDBRANCH  48  62
BRANCH  49  74
ATOM     74  C   UNL     1      -2.124   8.858   3.035  1.00  0.00     0.058 A 
ATOM     75  C   UNL     1      -1.801   9.709   4.103  1.00  0.00     0.135 A 
ATOM     76  C   UNL     1      -1.071   8.179   2.402  1.00  0.00     0.135 A 
ATOM     77  F   UNL     1      -2.768  10.394   4.731  1.00  0.00    -0.206 F 
ATOM     78  C   UNL     1      -0.485   9.892   4.518  1.00  0.00     0.059 A 
ATOM     79  C   UNL     1       0.250   8.322   2.818  1.00  0.00     0.059 A 
ATOM     80  F   UNL     1      -1.324   7.350   1.377  1.00  0.00    -0.206 F 
ATOM     81  C   UNL     1       0.534   9.189   3.871  1.00  0.00     0.060 A 
BRANCH  81  82
ATOM     82  S   UNL     1       2.231   9.399   4.451  1.00  0.00     0.124 S 
ATOM     83  O   UNL     1       2.527  10.758   4.012  1.00  0.00    -0.237 OA
ATOM     84  O   UNL     1       2.087   9.210   5.891  1.00  0.00    -0.237 OA
ATOM     85  O   UNL     1       2.957   8.340   3.756  1.00  0.00    -0.744 OA
ENDBRANCH  81  82
ENDBRANCH  49  74
BRANCH  61  86
ATOM     86  C   UNL     1      -6.740  13.162   0.036  1.00  0.00     0.058 A 
ATOM     87  C   UNL     1      -5.958  13.626  -1.033  1.00  0.00     0.135 A 
ATOM     88  C   UNL     1      -7.531  14.101   0.721  1.00  0.00     0.135 A 
ATOM     89  F   UNL     1      -5.180  12.774  -1.720  1.00  0.00    -0.206 F 
ATOM     90  C   UNL     1      -5.940  14.970  -1.392  1.00  0.00     0.059 A 
ATOM     91  C   UNL     1      -7.554  15.444   0.358  1.00  0.00     0.059 A 
ATOM     92  F   UNL     1      -8.309  13.712   1.744  1.00  0.00    -0.206 F 
ATOM     93  C   UNL     1      -6.744  15.872  -0.693  1.00  0.00     0.060 A 
BRANCH  93  94
ATOM     94  S   UNL     1      -6.736  17.607  -1.191  1.00  0.00     0.124 S 
ATOM     95  O   UNL     1      -5.419  18.039  -0.734  1.00  0.00    -0.237 OA
ATOM     96  O   UNL     1      -6.906  17.516  -2.638  1.00  0.00    -0.237 OA
ATOM     97  O   UNL     1      -7.869  18.176  -0.467  1.00  0.00    -0.744 OA
ENDBRANCH  93  94
ENDBRANCH  61  86
ENDBRANCH  35  36
ENDBRANCH  28  30
ENDBRANCH  27  28
ENDBRANCH  26  27
ENDBRANCH  25  26
ENDBRANCH  24  25
ENDBRANCH  23  24
ENDBRANCH   1  23
TORSDOF 26
