REMARK SMILES CCCc1cc(OC(F)(F)F)cc2c1O[C@@H](C(F)(F)F)C(C(=O)OCCOCCOCCOCCOC(=O)c1ccc(-c3c4nc(c(-c5c(F)cc(S(=O)(=O)[O-])cc5F)c5ccc([nH]5)c(-c5c(F)cc(S(=O)(=O)[O-])cc5F)c5nc(c(-c6c(F)cc(S(=O)(=O)[O-])cc6F)c6ccc3[nH]6)C=C5)C=C4)cc1)=C2
REMARK SMILES IDX 31 1 30 2 29 3 28 4 27 5 26 6 25 7 24 8 22 9 23 10 21 11
REMARK SMILES IDX 4 12 5 13 14 14 6 15 13 16 15 17 12 18 105 19 16 20 3 21
REMARK SMILES IDX 2 22 1 23 7 24 8 25 9 26 10 27 11 28 17 29 18 30 19 31 20 32
REMARK SMILES IDX 32 33 33 34 34 35 35 36 36 37 37 38 38 39 39 40 40 41 104 42
REMARK SMILES IDX 41 43 103 44 42 45 43 46 44 47 97 48 45 49 102 50 96 51
REMARK SMILES IDX 98 52 46 53 101 54 95 55 94 56 47 58 81 59 60 60 80 61 61 62
REMARK SMILES IDX 64 63 79 64 99 65 62 66 63 67 78 69 100 70 65 71 48 72 49 73
REMARK SMILES IDX 58 74 50 75 51 76 57 77 59 78 52 79 53 80 54 81 55 82 56 83
REMARK SMILES IDX 82 84 83 85 92 86 84 87 85 88 91 89 93 90 86 91 87 92 88 93
REMARK SMILES IDX 89 94 90 95 66 96 67 97 76 98 68 99 69 100 75 101 77 102
REMARK SMILES IDX 70 103 71 104 72 105 73 106 74 107
REMARK H PARENT 98 57 64 68
REMARK Flexibility Score: inf
ROOT
ATOM      1  C   UNL     1      -0.765   0.803  -7.697  1.00  0.00     0.188 C 
ENDROOT
BRANCH   1   2
ATOM      2  O   UNL     1      -0.516   1.243  -6.368  1.00  0.00    -0.377 OA
BRANCH   2   3
ATOM      3  C   UNL     1      -0.372   0.292  -5.332  1.00  0.00     0.188 C 
BRANCH   3   4
ATOM      4  C   UNL     1      -1.377  -0.869  -5.234  1.00  0.00     0.188 C 
BRANCH   4   5
ATOM      5  O   UNL     1      -2.406  -0.866  -6.215  1.00  0.00    -0.376 OA
BRANCH   5   6
ATOM      6  C   UNL     1      -3.723  -0.621  -5.735  1.00  0.00     0.202 C 
BRANCH   6   7
ATOM      7  C   UNL     1      -4.005   0.863  -5.482  1.00  0.00     0.261 C 
BRANCH   7   8
ATOM      8  O   UNL     1      -3.171   1.429  -4.458  1.00  0.00    -0.460 OA
BRANCH   8   9
ATOM      9  C   UNL     1      -3.386   0.992  -3.199  1.00  0.00     0.338 C 
ATOM     10  O   UNL     1      -4.237   0.196  -2.842  1.00  0.00    -0.246 OA
BRANCH   9  11
ATOM     11  C   UNL     1      -2.313   1.488  -2.324  1.00  0.00     0.087 C 
ATOM     12  C   UNL     1       0.473   2.760   0.521  1.00  0.00    -0.002 A 
ATOM     13  C   UNL     1       0.995   4.065   0.407  1.00  0.00     0.054 A 
ATOM     14  C   UNL     1      -0.499   2.367  -0.407  1.00  0.00     0.131 A 
ATOM     15  C   UNL     1       0.577   4.937  -0.606  1.00  0.00     0.130 A 
ATOM     16  C   UNL     1      -0.911   3.223  -1.445  1.00  0.00     0.021 A 
ATOM     17  O   UNL     1      -1.111   1.153  -0.237  1.00  0.00    -0.475 OA
ATOM     18  C   UNL     1      -0.355   4.498  -1.549  1.00  0.00     0.058 A 
ATOM     19  C   UNL     1      -1.980   2.789  -2.346  1.00  0.00     0.027 C 
ATOM     20  C   UNL     1      -1.543   0.518  -1.466  1.00  0.00     0.316 C 
BRANCH  12  21
ATOM     21  C   UNL     1       0.941   1.925   1.699  1.00  0.00     0.039 C 
BRANCH  21  22
ATOM     22  C   UNL     1       0.869   0.392   1.648  1.00  0.00     0.001 C 
ATOM     23  C   UNL     1       1.719  -0.231   0.550  1.00  0.00     0.004 C 
ENDBRANCH  21  22
ENDBRANCH  12  21
BRANCH  15  24
ATOM     24  O   UNL     1       1.004   6.224  -0.776  1.00  0.00    -0.406 OA
BRANCH  24  25
ATOM     25  C   UNL     1       1.539   6.881   0.361  1.00  0.00     0.573 C 
ATOM     26  F   UNL     1       0.729   6.758   1.436  1.00  0.00    -0.132 F 
ATOM     27  F   UNL     1       2.761   6.391   0.669  1.00  0.00    -0.132 F 
ATOM     28  F   UNL     1       1.677   8.197   0.087  1.00  0.00    -0.132 F 
ENDBRANCH  24  25
ENDBRANCH  15  24
BRANCH  20  29
ATOM     29  C   UNL     1      -2.180  -0.831  -1.094  1.00  0.00     0.430 C 
ATOM     30  F   UNL     1      -2.398  -1.607  -2.181  1.00  0.00    -0.167 F 
ATOM     31  F   UNL     1      -1.323  -1.544  -0.310  1.00  0.00    -0.167 F 
ATOM     32  F   UNL     1      -3.332  -0.711  -0.407  1.00  0.00    -0.167 F 
ENDBRANCH  20  29
ENDBRANCH   9  11
ENDBRANCH   8   9
ENDBRANCH   7   8
ENDBRANCH   6   7
ENDBRANCH   5   6
ENDBRANCH   4   5
ENDBRANCH   3   4
ENDBRANCH   2   3
ENDBRANCH   1   2
BRANCH   1  33
ATOM     33  C   UNL     1      -0.275  -0.579  -8.176  1.00  0.00     0.188 C 
BRANCH  33  34
ATOM     34  O   UNL     1       0.764  -1.151  -7.388  1.00  0.00    -0.376 OA
BRANCH  34  35
ATOM     35  C   UNL     1       2.047  -1.190  -7.998  1.00  0.00     0.202 C 
BRANCH  35  36
ATOM     36  C   UNL     1       2.764   0.163  -7.998  1.00  0.00     0.261 C 
BRANCH  36  37
ATOM     37  O   UNL     1       2.137   1.180  -8.795  1.00  0.00    -0.460 OA
BRANCH  37  38
ATOM     38  C   UNL     1       1.997   0.945 -10.119  1.00  0.00     0.338 C 
ATOM     39  O   UNL     1       2.376  -0.030 -10.742  1.00  0.00    -0.246 OA
BRANCH  38  40
ATOM     40  C   UNL     1       1.122   2.006 -10.654  1.00  0.00     0.060 A 
ATOM     41  C   UNL     1      -0.093   1.653 -11.256  1.00  0.00     0.016 A 
ATOM     42  C   UNL     1       1.477   3.347 -10.497  1.00  0.00     0.016 A 
ATOM     43  C   UNL     1      -0.962   2.652 -11.699  1.00  0.00     0.010 A 
ATOM     44  C   UNL     1       0.619   4.342 -10.963  1.00  0.00     0.010 A 
ATOM     45  C   UNL     1      -0.599   4.000 -11.574  1.00  0.00    -0.014 A 
BRANCH  45  46
ATOM     46  C   UNL     1      -1.416   5.067 -12.196  1.00  0.00     0.031 A 
ATOM     47  C   UNL     1      -1.051   5.537 -13.575  1.00  0.00     0.074 A 
ATOM     48  C   UNL     1      -2.432   5.641 -11.527  1.00  0.00     0.049 A 
ATOM     49  N   UNL     1      -1.545   6.527 -14.270  1.00  0.00    -0.248 NA
ATOM     50  C   UNL     1       0.019   4.790 -14.258  1.00  0.00     0.031 C 
ATOM     51  C   UNL     1      -2.895   5.253 -10.195  1.00  0.00     0.029 A 
ATOM     52  N   UNL     1      -3.241   6.695 -11.872  1.00  0.00    -0.354 N 
ATOM     53  C   UNL     1      -0.848   6.526 -15.471  1.00  0.00     0.074 A 
ATOM     54  C   UNL     1       0.118   5.450 -15.402  1.00  0.00     0.031 C 
ATOM     55  C   UNL     1      -3.893   6.076  -9.826  1.00  0.00     0.029 A 
ATOM     56  C   UNL     1      -4.113   7.068 -10.878  1.00  0.00     0.049 A 
ATOM     57  H   UNL     1      -3.201   7.140 -12.749  1.00  0.00     0.167 HD
ATOM     58  C   UNL     1      -1.002   7.346 -16.536  1.00  0.00     0.037 A 
ATOM     59  C   UNL     1      -4.964   8.112 -10.812  1.00  0.00     0.037 A 
ATOM     60  C   UNL     1      -1.950   8.426 -16.593  1.00  0.00     0.049 A 
ATOM     61  C   UNL     1      -5.053   9.069 -11.974  1.00  0.00     0.074 A 
ATOM     62  C   UNL     1      -2.200   9.297 -17.639  1.00  0.00     0.029 A 
ATOM     63  N   UNL     1      -2.792   8.794 -15.554  1.00  0.00    -0.354 N 
ATOM     64  N   UNL     1      -4.416   9.037 -13.121  1.00  0.00    -0.248 NA
ATOM     65  C   UNL     1      -5.968  10.211 -11.829  1.00  0.00     0.031 C 
ATOM     66  C   UNL     1      -3.159  10.223 -17.214  1.00  0.00     0.029 A 
ATOM     67  C   UNL     1      -3.538   9.902 -15.920  1.00  0.00     0.049 A 
ATOM     68  H   UNL     1      -2.851   8.336 -14.685  1.00  0.00     0.167 HD
ATOM     69  C   UNL     1      -4.862  10.143 -13.837  1.00  0.00     0.074 A 
ATOM     70  C   UNL     1      -5.836  10.816 -13.002  1.00  0.00     0.031 C 
ATOM     71  C   UNL     1      -4.499  10.565 -15.074  1.00  0.00     0.037 A 
BRANCH  58  72
ATOM     72  C   UNL     1      -0.103   7.120 -17.717  1.00  0.00     0.058 A 
ATOM     73  C   UNL     1      -0.283   6.026 -18.578  1.00  0.00     0.135 A 
ATOM     74  C   UNL     1       0.934   8.021 -18.006  1.00  0.00     0.135 A 
ATOM     75  F   UNL     1      -1.247   5.124 -18.334  1.00  0.00    -0.206 F 
ATOM     76  C   UNL     1       0.547   5.822 -19.674  1.00  0.00     0.059 A 
ATOM     77  C   UNL     1       1.763   7.848 -19.110  1.00  0.00     0.059 A 
ATOM     78  F   UNL     1       1.152   9.078 -17.208  1.00  0.00    -0.206 F 
ATOM     79  C   UNL     1       1.569   6.739 -19.931  1.00  0.00     0.060 A 
BRANCH  79  80
ATOM     80  S   UNL     1       2.636   6.462 -21.360  1.00  0.00     0.124 S 
ATOM     81  O   UNL     1       3.455   5.345 -20.900  1.00  0.00    -0.237 OA
ATOM     82  O   UNL     1       1.674   6.151 -22.413  1.00  0.00    -0.237 OA
ATOM     83  O   UNL     1       3.337   7.733 -21.512  1.00  0.00    -0.744 OA
ENDBRANCH  79  80
ENDBRANCH  58  72
BRANCH  59  84
ATOM     84  C   UNL     1      -5.780   8.334  -9.589  1.00  0.00     0.058 A 
ATOM     85  C   UNL     1      -7.170   8.147  -9.602  1.00  0.00     0.135 A 
ATOM     86  C   UNL     1      -5.187   8.746  -8.385  1.00  0.00     0.135 A 
ATOM     87  F   UNL     1      -7.785   7.770 -10.733  1.00  0.00    -0.206 F 
ATOM     88  C   UNL     1      -7.946   8.370  -8.468  1.00  0.00     0.059 A 
ATOM     89  C   UNL     1      -5.938   8.953  -7.233  1.00  0.00     0.059 A 
ATOM     90  F   UNL     1      -3.860   8.935  -8.319  1.00  0.00    -0.206 F 
ATOM     91  C   UNL     1      -7.319   8.770  -7.287  1.00  0.00     0.060 A 
BRANCH  91  92
ATOM     92  S   UNL     1      -8.326   9.002  -5.805  1.00  0.00     0.124 S 
ATOM     93  O   UNL     1      -8.988  10.268  -6.095  1.00  0.00    -0.237 OA
ATOM     94  O   UNL     1      -9.177   7.816  -5.825  1.00  0.00    -0.237 OA
ATOM     95  O   UNL     1      -7.337   9.034  -4.731  1.00  0.00    -0.744 OA
ENDBRANCH  91  92
ENDBRANCH  59  84
BRANCH  71  96
ATOM     96  C   UNL     1      -5.158  11.807 -15.608  1.00  0.00     0.058 A 
ATOM     97  C   UNL     1      -4.810  13.081 -15.134  1.00  0.00     0.135 A 
ATOM     98  C   UNL     1      -6.098  11.727 -16.648  1.00  0.00     0.135 A 
ATOM     99  F   UNL     1      -3.922  13.212 -14.136  1.00  0.00    -0.206 F 
ATOM    100  C   UNL     1      -5.382  14.234 -15.664  1.00  0.00     0.059 A 
ATOM    101  C   UNL     1      -6.664  12.868 -17.209  1.00  0.00     0.059 A 
ATOM    102  F   UNL     1      -6.458  10.533 -17.144  1.00  0.00    -0.206 F 
ATOM    103  C   UNL     1      -6.306  14.117 -16.704  1.00  0.00     0.060 A 
BRANCH 103 104
ATOM    104  S   UNL     1      -7.007  15.623 -17.413  1.00  0.00     0.124 S 
ATOM    105  O   UNL     1      -7.947  16.028 -16.374  1.00  0.00    -0.237 OA
ATOM    106  O   UNL     1      -5.830  16.473 -17.570  1.00  0.00    -0.237 OA
ATOM    107  O   UNL     1      -7.610  15.162 -18.661  1.00  0.00    -0.744 OA
ENDBRANCH 103 104
ENDBRANCH  71  96
ENDBRANCH  45  46
ENDBRANCH  38  40
ENDBRANCH  37  38
ENDBRANCH  36  37
ENDBRANCH  35  36
ENDBRANCH  34  35
ENDBRANCH  33  34
ENDBRANCH   1  33
TORSDOF 28
