REMARK SMILES CCc1nc(C)c(C(=O)OCCOCCOCCOCCOC(=O)c2ccc(-c3c4nc(c(-c5c(F)cc(S(=O)(=O)[O-])cc5F)c5ccc([nH]5)c(-c5c(F)cc(S(=O)(=O)[O-])cc5F)c5nc(c(-c6c(F)cc(S(=O)(=O)[O-])cc6F)c6ccc3[nH]6)C=C5)C=C4)cc2)c(SCc2cnc(Cl)s2)n1
REMARK SMILES IDX 16 1 15 2 14 3 13 4 12 5 11 6 10 7 8 8 9 9 7 10 3 11 4 12
REMARK SMILES IDX 100 13 5 14 91 15 6 16 2 17 1 18 92 19 93 20 94 21 95 22
REMARK SMILES IDX 99 23 96 24 97 25 98 26 17 27 18 28 19 29 20 30 21 31 22 32
REMARK SMILES IDX 23 33 24 34 25 35 26 36 90 37 27 38 89 39 28 40 29 41 30 42
REMARK SMILES IDX 83 43 31 44 88 45 82 46 84 47 32 48 87 49 81 50 80 51 33 53
REMARK SMILES IDX 67 54 46 55 66 56 47 57 50 58 65 59 85 60 48 61 49 62 64 64
REMARK SMILES IDX 86 65 51 66 34 67 35 68 44 69 36 70 37 71 43 72 45 73 38 74
REMARK SMILES IDX 39 75 40 76 41 77 42 78 68 79 69 80 78 81 70 82 71 83 77 84
REMARK SMILES IDX 79 85 72 86 73 87 74 88 75 89 76 90 52 91 53 92 62 93 54 94
REMARK SMILES IDX 55 95 61 96 63 97 56 98 57 99 58 100 59 101 60 102
REMARK H PARENT 84 52 50 63
REMARK Flexibility Score: inf
ROOT
ATOM      1  O   UNL     1      -0.793   5.561  -4.926  1.00  0.00    -0.377 OA
ENDROOT
BRANCH   1   2
ATOM      2  C   UNL     1      -0.205   5.579  -3.637  1.00  0.00     0.188 C 
BRANCH   2   3
ATOM      3  C   UNL     1       0.048   6.936  -2.945  1.00  0.00     0.188 C 
BRANCH   3   4
ATOM      4  O   UNL     1       0.755   7.908  -3.717  1.00  0.00    -0.376 OA
BRANCH   4   5
ATOM      5  C   UNL     1       2.143   8.124  -3.495  1.00  0.00     0.202 C 
BRANCH   5   6
ATOM      6  C   UNL     1       3.048   6.939  -3.803  1.00  0.00     0.261 C 
BRANCH   6   7
ATOM      7  O   UNL     1       2.608   5.822  -3.023  1.00  0.00    -0.460 OA
BRANCH   7   8
ATOM      8  C   UNL     1       3.171   5.557  -1.835  1.00  0.00     0.342 C 
ATOM      9  O   UNL     1       4.164   6.073  -1.368  1.00  0.00    -0.246 OA
BRANCH   8  10
ATOM     10  C   UNL     1       2.353   4.520  -1.207  1.00  0.00     0.113 A 
ATOM     11  C   UNL     1       1.006   2.414  -0.140  1.00  0.00     0.129 A 
ATOM     12  N   UNL     1       1.594   2.232  -1.321  1.00  0.00    -0.237 NA
ATOM     13  N   UNL     1       0.982   3.591   0.498  1.00  0.00    -0.226 NA
ATOM     14  C   UNL     1       2.267   3.276  -1.851  1.00  0.00     0.057 A 
ATOM     15  C   UNL     1       1.659   4.657  -0.009  1.00  0.00     0.115 A 
ATOM     16  C   UNL     1       2.965   2.942  -3.144  1.00  0.00     0.068 C 
BRANCH  11  17
ATOM     17  C   UNL     1       0.367   1.243   0.555  1.00  0.00     0.074 C 
ATOM     18  C   UNL     1       0.830  -0.112   0.036  1.00  0.00     0.012 C 
ENDBRANCH  11  17
BRANCH  15  19
ATOM     19  S   UNL     1       1.456   5.958   1.192  1.00  0.00    -0.100 SA
BRANCH  19  20
ATOM     20  C   UNL     1       1.731   7.615   0.504  1.00  0.00     0.125 C 
BRANCH  20  21
ATOM     21  C   UNL     1       3.140   8.099   0.470  1.00  0.00     0.036 A 
ATOM     22  C   UNL     1       3.653   9.160  -0.261  1.00  0.00     0.129 A 
ATOM     23  S   UNL     1       4.431   7.401   1.379  1.00  0.00    -0.107 S 
ATOM     24  N   UNL     1       5.029   9.249  -0.309  1.00  0.00    -0.233 NA
ATOM     25  C   UNL     1       5.524   8.285   0.428  1.00  0.00     0.183 A 
ATOM     26  Cl  UNL     1       7.195   7.913   0.482  1.00  0.00    -0.051 Cl
ENDBRANCH  20  21
ENDBRANCH  19  20
ENDBRANCH  15  19
ENDBRANCH   8  10
ENDBRANCH   7   8
ENDBRANCH   6   7
ENDBRANCH   5   6
ENDBRANCH   4   5
ENDBRANCH   3   4
ENDBRANCH   2   3
ENDBRANCH   1   2
BRANCH   1  27
ATOM     27  C   UNL     1      -0.311   6.546  -5.829  1.00  0.00     0.188 C 
BRANCH  27  28
ATOM     28  C   UNL     1      -1.163   7.828  -5.774  1.00  0.00     0.188 C 
BRANCH  28  29
ATOM     29  O   UNL     1      -2.115   7.809  -4.709  1.00  0.00    -0.376 OA
BRANCH  29  30
ATOM     30  C   UNL     1      -3.431   7.377  -5.039  1.00  0.00     0.202 C 
BRANCH  30  31
ATOM     31  C   UNL     1      -3.635   5.950  -5.583  1.00  0.00     0.261 C 
BRANCH  31  32
ATOM     32  O   UNL     1      -2.943   5.603  -6.796  1.00  0.00    -0.460 OA
BRANCH  32  33
ATOM     33  C   UNL     1      -3.108   6.371  -7.894  1.00  0.00     0.338 C 
ATOM     34  O   UNL     1      -3.864   7.316  -8.022  1.00  0.00    -0.246 OA
BRANCH  33  35
ATOM     35  C   UNL     1      -2.025   6.009  -8.842  1.00  0.00     0.060 A 
ATOM     36  C   UNL     1      -1.187   7.020  -9.336  1.00  0.00     0.016 A 
ATOM     37  C   UNL     1      -1.779   4.672  -9.169  1.00  0.00     0.016 A 
ATOM     38  C   UNL     1      -0.116   6.697 -10.173  1.00  0.00     0.010 A 
ATOM     39  C   UNL     1      -0.728   4.353 -10.032  1.00  0.00     0.010 A 
ATOM     40  C   UNL     1       0.091   5.366 -10.560  1.00  0.00    -0.014 A 
BRANCH  40  41
ATOM     41  C   UNL     1       0.983   5.058 -11.704  1.00  0.00     0.031 A 
ATOM     42  C   UNL     1       0.361   5.021 -13.074  1.00  0.00     0.074 A 
ATOM     43  C   UNL     1       2.295   4.807 -11.546  1.00  0.00     0.049 A 
ATOM     44  N   UNL     1       0.899   4.710 -14.224  1.00  0.00    -0.248 NA
ATOM     45  C   UNL     1      -1.065   5.381 -13.152  1.00  0.00     0.031 C 
ATOM     46  C   UNL     1       3.021   4.846 -10.278  1.00  0.00     0.029 A 
ATOM     47  N   UNL     1       3.249   4.451 -12.469  1.00  0.00    -0.354 N 
ATOM     48  C   UNL     1      -0.121   4.835 -15.159  1.00  0.00     0.074 A 
ATOM     49  C   UNL     1      -1.315   5.223 -14.442  1.00  0.00     0.031 C 
ATOM     50  C   UNL     1       4.305   4.508 -10.501  1.00  0.00     0.029 A 
ATOM     51  C   UNL     1       4.484   4.199 -11.920  1.00  0.00     0.049 A 
ATOM     52  H   UNL     1       3.065   4.384 -13.433  1.00  0.00     0.167 HD
ATOM     53  C   UNL     1      -0.069   4.649 -16.498  1.00  0.00     0.037 A 
ATOM     54  C   UNL     1       5.617   3.745 -12.496  1.00  0.00     0.037 A 
ATOM     55  C   UNL     1       1.114   4.247 -17.207  1.00  0.00     0.049 A 
ATOM     56  C   UNL     1       5.632   3.464 -13.980  1.00  0.00     0.074 A 
ATOM     57  C   UNL     1       1.274   4.041 -18.565  1.00  0.00     0.029 A 
ATOM     58  N   UNL     1       2.337   3.974 -16.612  1.00  0.00    -0.354 N 
ATOM     59  N   UNL     1       4.670   3.616 -14.859  1.00  0.00    -0.248 NA
ATOM     60  C   UNL     1       6.885   2.945 -14.549  1.00  0.00     0.031 C 
ATOM     61  C   UNL     1       2.582   3.598 -18.786  1.00  0.00     0.029 A 
ATOM     62  C   UNL     1       3.251   3.576 -17.572  1.00  0.00     0.049 A 
ATOM     63  H   UNL     1       2.527   4.053 -15.649  1.00  0.00     0.167 HD
ATOM     64  C   UNL     1       5.208   3.238 -16.086  1.00  0.00     0.074 A 
ATOM     65  C   UNL     1       6.583   2.857 -15.838  1.00  0.00     0.031 C 
ATOM     66  C   UNL     1       4.620   3.210 -17.308  1.00  0.00     0.037 A 
BRANCH  53  67
ATOM     67  C   UNL     1      -1.339   4.851 -17.273  1.00  0.00     0.058 A 
ATOM     68  C   UNL     1      -1.875   6.131 -17.487  1.00  0.00     0.135 A 
ATOM     69  C   UNL     1      -2.021   3.753 -17.819  1.00  0.00     0.135 A 
ATOM     70  F   UNL     1      -1.276   7.212 -16.963  1.00  0.00    -0.206 F 
ATOM     71  C   UNL     1      -3.057   6.313 -18.197  1.00  0.00     0.059 A 
ATOM     72  C   UNL     1      -3.190   3.913 -18.555  1.00  0.00     0.059 A 
ATOM     73  F   UNL     1      -1.556   2.508 -17.634  1.00  0.00    -0.206 F 
ATOM     74  C   UNL     1      -3.707   5.197 -18.728  1.00  0.00     0.060 A 
BRANCH  74  75
ATOM     75  S   UNL     1      -5.236   5.450 -19.653  1.00  0.00     0.124 S 
ATOM     76  O   UNL     1      -6.173   5.774 -18.583  1.00  0.00    -0.237 OA
ATOM     77  O   UNL     1      -4.883   6.553 -20.542  1.00  0.00    -0.237 OA
ATOM     78  O   UNL     1      -5.452   4.165 -20.310  1.00  0.00    -0.744 OA
ENDBRANCH  74  75
ENDBRANCH  53  67
BRANCH  54  79
ATOM     79  C   UNL     1       6.832   3.502 -11.671  1.00  0.00     0.058 A 
ATOM     80  C   UNL     1       7.976   4.303 -11.809  1.00  0.00     0.135 A 
ATOM     81  C   UNL     1       6.880   2.453 -10.740  1.00  0.00     0.135 A 
ATOM     82  F   UNL     1       7.987   5.308 -12.697  1.00  0.00    -0.206 F 
ATOM     83  C   UNL     1       9.127   4.068 -11.062  1.00  0.00     0.059 A 
ATOM     84  C   UNL     1       8.011   2.212  -9.964  1.00  0.00     0.059 A 
ATOM     85  F   UNL     1       5.813   1.659 -10.565  1.00  0.00    -0.206 F 
ATOM     86  C   UNL     1       9.133   3.020 -10.139  1.00  0.00     0.060 A 
BRANCH  86  87
ATOM     87  S   UNL     1      10.613   2.754  -9.138  1.00  0.00     0.124 S 
ATOM     88  O   UNL     1      11.529   2.175 -10.113  1.00  0.00    -0.237 OA
ATOM     89  O   UNL     1      10.927   4.108  -8.691  1.00  0.00    -0.237 OA
ATOM     90  O   UNL     1      10.149   1.849  -8.090  1.00  0.00    -0.744 OA
ENDBRANCH  86  87
ENDBRANCH  54  79
BRANCH  66  91
ATOM     91  C   UNL     1       5.458   2.785 -18.482  1.00  0.00     0.058 A 
ATOM     92  C   UNL     1       5.809   1.442 -18.690  1.00  0.00     0.135 A 
ATOM     93  C   UNL     1       5.843   3.722 -19.455  1.00  0.00     0.135 A 
ATOM     94  F   UNL     1       5.470   0.508 -17.788  1.00  0.00    -0.206 F 
ATOM     95  C   UNL     1       6.523   1.045 -19.816  1.00  0.00     0.059 A 
ATOM     96  C   UNL     1       6.535   3.343 -20.601  1.00  0.00     0.059 A 
ATOM     97  F   UNL     1       5.521   5.018 -19.310  1.00  0.00    -0.206 F 
ATOM     98  C   UNL     1       6.877   2.002 -20.769  1.00  0.00     0.060 A 
BRANCH  98  99
ATOM     99  S   UNL     1       7.757   1.465 -22.252  1.00  0.00     0.124 S 
ATOM    100  O   UNL     1       9.092   1.205 -21.723  1.00  0.00    -0.237 OA
ATOM    101  O   UNL     1       6.995   0.288 -22.658  1.00  0.00    -0.237 OA
ATOM    102  O   UNL     1       7.649   2.614 -23.146  1.00  0.00    -0.744 OA
ENDBRANCH  98  99
ENDBRANCH  66  91
ENDBRANCH  40  41
ENDBRANCH  33  35
ENDBRANCH  32  33
ENDBRANCH  31  32
ENDBRANCH  30  31
ENDBRANCH  29  30
ENDBRANCH  28  29
ENDBRANCH  27  28
ENDBRANCH   1  27
TORSDOF 27
