REMARK SMILES CCOC(=O)[C@@]1(C)C/C(=N/c2cccc(C(=O)OCCOCCOCCOCCOC(=O)c3ccc(-c4c5nc(c(-c6c(F)cc(S(=O)(=O)[O-])cc6F)c6ccc([nH]6)c(-c6c(F)cc(S(=O)(=O)[O-])cc6F)c6nc(c(-c7c(F)cc(S(=O)(=O)[O-])cc7F)c7ccc4[nH]7)C=C6)C=C5)cc3)c2)C(=O)N1c1ccccc1
REMARK SMILES IDX 23 1 22 2 21 3 20 4 19 5 18 6 16 7 17 8 15 9 11 10 12 11
REMARK SMILES IDX 99 12 13 13 14 14 10 15 6 16 7 17 8 18 102 19 9 20 100 21
REMARK SMILES IDX 101 22 4 23 5 24 3 25 2 26 1 27 103 28 104 29 108 30 105 31
REMARK SMILES IDX 107 32 106 33 24 34 25 35 26 36 27 37 28 38 29 39 30 40
REMARK SMILES IDX 31 41 32 42 33 43 34 44 98 45 35 46 97 47 36 48 37 49 38 50
REMARK SMILES IDX 91 51 39 52 96 53 90 54 92 55 40 56 95 57 89 58 88 59 41 61
REMARK SMILES IDX 75 62 54 63 74 64 55 65 58 66 73 67 93 68 56 69 57 70 72 72
REMARK SMILES IDX 94 73 59 74 42 75 43 76 52 77 44 78 45 79 51 80 53 81 46 82
REMARK SMILES IDX 47 83 48 84 49 85 50 86 76 87 77 88 86 89 78 90 79 91 85 92
REMARK SMILES IDX 87 93 80 94 81 95 82 96 83 97 84 98 60 99 61 100 70 101
REMARK SMILES IDX 62 102 63 103 69 104 71 105 64 106 65 107 66 108 67 109
REMARK SMILES IDX 68 110
REMARK H PARENT 92 60 58 71
REMARK Flexibility Score: inf
ROOT
ATOM      1  C   UNL     1       8.422   8.549   1.884  1.00  0.00     0.188 C 
ENDROOT
BRANCH   1   2
ATOM      2  C   UNL     1       9.121   9.368   2.976  1.00  0.00     0.188 C 
BRANCH   2   3
ATOM      3  O   UNL     1       9.785   8.577   3.966  1.00  0.00    -0.376 OA
BRANCH   3   4
ATOM      4  C   UNL     1       9.042   8.328   5.161  1.00  0.00     0.202 C 
BRANCH   4   5
ATOM      5  C   UNL     1       8.083   7.137   5.054  1.00  0.00     0.261 C 
BRANCH   5   6
ATOM      6  O   UNL     1       6.892   7.422   4.302  1.00  0.00    -0.460 OA
BRANCH   6   7
ATOM      7  C   UNL     1       6.020   8.317   4.818  1.00  0.00     0.338 C 
ATOM      8  O   UNL     1       6.136   8.921   5.871  1.00  0.00    -0.246 OA
BRANCH   7   9
ATOM      9  C   UNL     1       4.923   8.546   3.843  1.00  0.00     0.062 A 
ATOM     10  C   UNL     1       3.511   7.794   2.009  1.00  0.00     0.064 A 
ATOM     11  C   UNL     1       2.839   9.016   2.043  1.00  0.00     0.028 A 
ATOM     12  C   UNL     1       4.582   7.583   2.886  1.00  0.00     0.044 A 
ATOM     13  C   UNL     1       3.192   9.996   2.975  1.00  0.00     0.003 A 
ATOM     14  C   UNL     1       4.223   9.757   3.886  1.00  0.00     0.016 A 
BRANCH  10  15
ATOM     15  N   UNL     1       3.158   6.827   1.054  1.00  0.00    -0.248 NA
ATOM     16  C   UNL     1       3.302   3.401   1.448  1.00  0.00     0.148 C 
ATOM     17  C   UNL     1       4.824   3.385   1.203  1.00  0.00     0.048 C 
ATOM     18  C   UNL     1       2.668   4.492   0.539  1.00  0.00     0.103 C 
ATOM     19  N   UNL     1       2.978   3.825   2.836  1.00  0.00    -0.290 N 
ATOM     20  C   UNL     1       2.776   5.653   1.457  1.00  0.00     0.109 C 
ATOM     21  C   UNL     1       2.573   5.156   2.865  1.00  0.00     0.273 C 
ATOM     22  O   UNL     1       2.136   5.866   3.744  1.00  0.00    -0.267 OA
BRANCH  16  23
ATOM     23  C   UNL     1       2.644   2.086   0.991  1.00  0.00     0.332 C 
ATOM     24  O   UNL     1       3.106   1.371   0.107  1.00  0.00    -0.249 OA
BRANCH  23  25
ATOM     25  O   UNL     1       1.433   1.894   1.581  1.00  0.00    -0.464 OA
BRANCH  25  26
ATOM     26  C   UNL     1       0.801   0.619   1.356  1.00  0.00     0.229 C 
ATOM     27  C   UNL     1       0.272   0.480  -0.067  1.00  0.00     0.049 C 
ENDBRANCH  25  26
ENDBRANCH  23  25
ENDBRANCH  16  23
BRANCH  19  28
ATOM     28  C   UNL     1       3.182   3.014   3.999  1.00  0.00     0.045 A 
ATOM     29  C   UNL     1       2.834   3.474   5.280  1.00  0.00     0.026 A 
ATOM     30  C   UNL     1       3.769   1.741   3.922  1.00  0.00     0.026 A 
ATOM     31  C   UNL     1       3.076   2.710   6.430  1.00  0.00     0.002 A 
ATOM     32  C   UNL     1       4.017   0.978   5.070  1.00  0.00     0.002 A 
ATOM     33  C   UNL     1       3.674   1.462   6.324  1.00  0.00     0.000 A 
ENDBRANCH  19  28
ENDBRANCH  10  15
ENDBRANCH   7   9
ENDBRANCH   6   7
ENDBRANCH   5   6
ENDBRANCH   4   5
ENDBRANCH   3   4
ENDBRANCH   2   3
ENDBRANCH   1   2
BRANCH   1  34
ATOM     34  O   UNL     1       9.029   7.279   1.698  1.00  0.00    -0.377 OA
BRANCH  34  35
ATOM     35  C   UNL     1       9.906   7.172   0.582  1.00  0.00     0.188 C 
BRANCH  35  36
ATOM     36  C   UNL     1      11.098   8.134   0.591  1.00  0.00     0.188 C 
BRANCH  36  37
ATOM     37  O   UNL     1      10.737   9.404   0.023  1.00  0.00    -0.376 OA
BRANCH  37  38
ATOM     38  C   UNL     1      11.345   9.668  -1.247  1.00  0.00     0.202 C 
BRANCH  38  39
ATOM     39  C   UNL     1      10.594   9.024  -2.422  1.00  0.00     0.261 C 
BRANCH  39  40
ATOM     40  O   UNL     1      10.597   7.587  -2.403  1.00  0.00    -0.460 OA
BRANCH  40  41
ATOM     41  C   UNL     1      11.796   6.990  -2.592  1.00  0.00     0.338 C 
ATOM     42  O   UNL     1      12.856   7.549  -2.807  1.00  0.00    -0.246 OA
BRANCH  41  43
ATOM     43  C   UNL     1      11.654   5.538  -2.345  1.00  0.00     0.060 A 
ATOM     44  C   UNL     1      12.687   4.879  -1.669  1.00  0.00     0.016 A 
ATOM     45  C   UNL     1      10.536   4.825  -2.794  1.00  0.00     0.016 A 
ATOM     46  C   UNL     1      12.621   3.498  -1.474  1.00  0.00     0.010 A 
ATOM     47  C   UNL     1      10.480   3.440  -2.615  1.00  0.00     0.010 A 
ATOM     48  C   UNL     1      11.536   2.768  -1.981  1.00  0.00    -0.014 A 
BRANCH  48  49
ATOM     49  C   UNL     1      11.592   1.288  -1.999  1.00  0.00     0.031 A 
ATOM     50  C   UNL     1      12.370   0.611  -3.093  1.00  0.00     0.074 A 
ATOM     51  C   UNL     1      10.962   0.554  -1.065  1.00  0.00     0.049 A 
ATOM     52  N   UNL     1      12.596  -0.663  -3.282  1.00  0.00    -0.248 NA
ATOM     53  C   UNL     1      12.977   1.490  -4.106  1.00  0.00     0.031 C 
ATOM     54  C   UNL     1      10.176   1.085   0.047  1.00  0.00     0.029 A 
ATOM     55  N   UNL     1      10.885  -0.807  -0.915  1.00  0.00    -0.354 N 
ATOM     56  C   UNL     1      13.395  -0.739  -4.415  1.00  0.00     0.074 A 
ATOM     57  C   UNL     1      13.596   0.615  -4.886  1.00  0.00     0.031 C 
ATOM     58  C   UNL     1       9.681   0.056   0.759  1.00  0.00     0.029 A 
ATOM     59  C   UNL     1      10.117  -1.201   0.152  1.00  0.00     0.049 A 
ATOM     60  H   UNL     1      11.338  -1.442  -1.516  1.00  0.00     0.167 HD
ATOM     61  C   UNL     1      13.924  -1.834  -5.010  1.00  0.00     0.037 A 
ATOM     62  C   UNL     1       9.798  -2.436   0.582  1.00  0.00     0.037 A 
ATOM     63  C   UNL     1      13.701  -3.184  -4.577  1.00  0.00     0.049 A 
ATOM     64  C   UNL     1      10.334  -3.643  -0.137  1.00  0.00     0.074 A 
ATOM     65  C   UNL     1      14.207  -4.358  -5.107  1.00  0.00     0.029 A 
ATOM     66  N   UNL     1      12.885  -3.542  -3.515  1.00  0.00    -0.354 N 
ATOM     67  N   UNL     1      11.134  -3.696  -1.174  1.00  0.00    -0.248 NA
ATOM     68  C   UNL     1       9.921  -4.959   0.375  1.00  0.00     0.031 C 
ATOM     69  C   UNL     1      13.677  -5.430  -4.376  1.00  0.00     0.029 A 
ATOM     70  C   UNL     1      12.852  -4.919  -3.386  1.00  0.00     0.049 A 
ATOM     71  H   UNL     1      12.400  -2.909  -2.938  1.00  0.00     0.167 HD
ATOM     72  C   UNL     1      11.329  -5.048  -1.434  1.00  0.00     0.074 A 
ATOM     73  C   UNL     1      10.563  -5.781  -0.447  1.00  0.00     0.031 C 
ATOM     74  C   UNL     1      12.080  -5.629  -2.401  1.00  0.00     0.037 A 
BRANCH  61  75
ATOM     75  C   UNL     1      14.795  -1.587  -6.201  1.00  0.00     0.058 A 
ATOM     76  C   UNL     1      16.151  -1.261  -6.043  1.00  0.00     0.135 A 
ATOM     77  C   UNL     1      14.266  -1.618  -7.499  1.00  0.00     0.135 A 
ATOM     78  F   UNL     1      16.692  -1.199  -4.817  1.00  0.00    -0.206 F 
ATOM     79  C   UNL     1      16.951  -0.945  -7.136  1.00  0.00     0.059 A 
ATOM     80  C   UNL     1      15.049  -1.310  -8.607  1.00  0.00     0.059 A 
ATOM     81  F   UNL     1      12.970  -1.907  -7.694  1.00  0.00    -0.206 F 
ATOM     82  C   UNL     1      16.385  -0.954  -8.412  1.00  0.00     0.060 A 
BRANCH  82  83
ATOM     83  S   UNL     1      17.404  -0.487  -9.828  1.00  0.00     0.124 S 
ATOM     84  O   UNL     1      17.252   0.964  -9.825  1.00  0.00    -0.237 OA
ATOM     85  O   UNL     1      18.724  -0.986  -9.457  1.00  0.00    -0.237 OA
ATOM     86  O   UNL     1      16.765  -1.186 -10.940  1.00  0.00    -0.744 OA
ENDBRANCH  82  83
ENDBRANCH  61  75
BRANCH  62  87
ATOM     87  C   UNL     1       8.907  -2.597   1.755  1.00  0.00     0.058 A 
ATOM     88  C   UNL     1       9.428  -2.864   3.028  1.00  0.00     0.135 A 
ATOM     89  C   UNL     1       7.516  -2.485   1.619  1.00  0.00     0.135 A 
ATOM     90  F   UNL     1      10.753  -2.985   3.199  1.00  0.00    -0.206 F 
ATOM     91  C   UNL     1       8.597  -3.017   4.133  1.00  0.00     0.059 A 
ATOM     92  C   UNL     1       6.665  -2.629   2.709  1.00  0.00     0.059 A 
ATOM     93  F   UNL     1       6.978  -2.228   0.417  1.00  0.00    -0.206 F 
ATOM     94  C   UNL     1       7.216  -2.901   3.962  1.00  0.00     0.060 A 
BRANCH  94  95
ATOM     95  S   UNL     1       6.142  -3.058   5.406  1.00  0.00     0.124 S 
ATOM     96  O   UNL     1       6.134  -4.500   5.612  1.00  0.00    -0.237 OA
ATOM     97  O   UNL     1       6.851  -2.269   6.406  1.00  0.00    -0.237 OA
ATOM     98  O   UNL     1       4.884  -2.478   4.946  1.00  0.00    -0.744 OA
ENDBRANCH  94  95
ENDBRANCH  62  87
BRANCH  74  99
ATOM     99  C   UNL     1      12.110  -7.126  -2.438  1.00  0.00     0.058 A 
ATOM    100  C   UNL     1      11.117  -7.853  -3.111  1.00  0.00     0.135 A 
ATOM    101  C   UNL     1      13.163  -7.836  -1.841  1.00  0.00     0.135 A 
ATOM    102  F   UNL     1      10.090  -7.215  -3.692  1.00  0.00    -0.206 F 
ATOM    103  C   UNL     1      11.164  -9.241  -3.188  1.00  0.00     0.059 A 
ATOM    104  C   UNL     1      13.233  -9.223  -1.911  1.00  0.00     0.059 A 
ATOM    105  F   UNL     1      14.135  -7.180  -1.188  1.00  0.00    -0.206 F 
ATOM    106  C   UNL     1      12.224  -9.918  -2.582  1.00  0.00     0.060 A 
BRANCH 106 107
ATOM    107  S   UNL     1      12.319 -11.717  -2.713  1.00  0.00     0.124 S 
ATOM    108  O   UNL     1      11.567 -12.136  -1.536  1.00  0.00    -0.237 OA
ATOM    109  O   UNL     1      11.681 -11.985  -3.999  1.00  0.00    -0.237 OA
ATOM    110  O   UNL     1      13.755 -11.975  -2.671  1.00  0.00    -0.744 OA
ENDBRANCH 106 107
ENDBRANCH  74  99
ENDBRANCH  48  49
ENDBRANCH  41  43
ENDBRANCH  40  41
ENDBRANCH  39  40
ENDBRANCH  38  39
ENDBRANCH  37  38
ENDBRANCH  36  37
ENDBRANCH  35  36
ENDBRANCH  34  35
ENDBRANCH   1  34
TORSDOF 28
