REMARK SMILES CC(C)(Cn1ccc2ccc([N+](=O)[O-])cc21)C(=O)OCCOCCOCCOCCOC(=O)c1ccc(-c2c3nc(c(-c4c(F)cc(S(=O)(=O)[O-])cc4F)c4ccc([nH]4)c(-c4c(F)cc(S(=O)(=O)[O-])cc4F)c4nc(c(-c5c(F)cc(S(=O)(=O)[O-])cc5F)c5ccc2[nH]5)C=C4)C=C3)cc1
REMARK SMILES IDX 25 1 24 2 23 3 22 4 21 5 20 6 19 7 17 8 18 9 2 10 1 11 3 12
REMARK SMILES IDX 4 13 5 14 6 15 16 16 7 17 8 18 15 19 9 20 11 21 10 22 12 23
REMARK SMILES IDX 13 24 14 25 26 26 27 27 28 28 29 29 30 30 31 31 32 32 33 33
REMARK SMILES IDX 34 34 35 35 99 36 36 37 98 38 37 39 38 40 39 41 92 42 40 43
REMARK SMILES IDX 97 44 91 45 93 46 41 47 96 48 90 49 89 50 42 52 76 53 55 54
REMARK SMILES IDX 75 55 56 56 59 57 74 58 94 59 57 60 58 61 73 63 95 64 60 65
REMARK SMILES IDX 43 66 44 67 53 68 45 69 46 70 52 71 54 72 47 73 48 74 49 75
REMARK SMILES IDX 50 76 51 77 77 78 78 79 87 80 79 81 80 82 86 83 88 84 81 85
REMARK SMILES IDX 82 86 83 87 84 88 85 89 61 90 62 91 71 92 63 93 64 94 70 95
REMARK SMILES IDX 72 96 65 97 66 98 67 99 68 100 69 101
REMARK H PARENT 93 51 59 62
REMARK Flexibility Score: inf
ROOT
ATOM      1  O   UNL     1       0.258   3.695   2.982  1.00  0.00    -0.377 OA
ENDROOT
BRANCH   1   2
ATOM      2  C   UNL     1       0.294   2.336   2.699  1.00  0.00     0.188 C 
BRANCH   2   3
ATOM      3  C   UNL     1       1.385   1.418   3.252  1.00  0.00     0.188 C 
BRANCH   3   4
ATOM      4  O   UNL     1       2.698   1.948   3.334  1.00  0.00    -0.376 OA
BRANCH   4   5
ATOM      5  C   UNL     1       2.801   3.350   3.133  1.00  0.00     0.202 C 
BRANCH   5   6
ATOM      6  C   UNL     1       2.613   3.844   1.652  1.00  0.00     0.261 C 
BRANCH   6   7
ATOM      7  O   UNL     1       1.625   3.189   0.753  1.00  0.00    -0.463 OA
BRANCH   7   8
ATOM      8  C   UNL     1       1.836   1.891   0.381  1.00  0.00     0.313 C 
ATOM      9  O   UNL     1       2.929   1.355   0.548  1.00  0.00    -0.252 OA
BRANCH   8  10
ATOM     10  C   UNL     1       0.577   1.079  -0.315  1.00  0.00     0.080 C 
ATOM     11  C   UNL     1       1.108  -0.355  -0.434  1.00  0.00     0.025 C 
ATOM     12  C   UNL     1       0.585   1.775  -1.705  1.00  0.00     0.025 C 
BRANCH  10  13
ATOM     13  C   UNL     1      -1.069   0.898   0.087  1.00  0.00     0.140 C 
BRANCH  13  14
ATOM     14  N   UNL     1      -1.800   0.023   1.104  1.00  0.00    -0.346 N 
ATOM     15  C   UNL     1      -1.771  -1.350   1.294  1.00  0.00     0.087 A 
ATOM     16  C   UNL     1      -2.719   0.533   2.082  1.00  0.00     0.055 A 
ATOM     17  C   UNL     1      -2.398  -1.796   2.486  1.00  0.00     0.028 A 
ATOM     18  C   UNL     1      -2.971  -0.700   3.240  1.00  0.00     0.000 A 
ATOM     19  C   UNL     1      -2.774   2.140   2.489  1.00  0.00     0.112 A 
ATOM     20  C   UNL     1      -3.261  -0.323   5.019  1.00  0.00     0.017 A 
ATOM     21  C   UNL     1      -3.018   2.720   4.115  1.00  0.00     0.271 A 
ATOM     22  C   UNL     1      -3.171   1.457   5.513  1.00  0.00     0.086 A 
BRANCH  21  23
ATOM     23  N   UNL     1      -3.999   3.879   3.524  1.00  0.00     0.062 N 
ATOM     24  O   UNL     1      -3.437   4.728   2.812  1.00  0.00    -0.258 OA
ATOM     25  O   UNL     1      -5.236   3.806   3.582  1.00  0.00    -0.258 OA
ENDBRANCH  21  23
ENDBRANCH  13  14
ENDBRANCH  10  13
ENDBRANCH   8  10
ENDBRANCH   7   8
ENDBRANCH   6   7
ENDBRANCH   5   6
ENDBRANCH   4   5
ENDBRANCH   3   4
ENDBRANCH   2   3
ENDBRANCH   1   2
BRANCH   1  26
ATOM     26  C   UNL     1      -0.457   4.013   4.136  1.00  0.00     0.188 C 
BRANCH  26  27
ATOM     27  C   UNL     1      -0.527   2.976   5.257  1.00  0.00     0.188 C 
BRANCH  27  28
ATOM     28  O   UNL     1      -0.957   1.640   5.089  1.00  0.00    -0.376 OA
BRANCH  28  29
ATOM     29  C   UNL     1      -1.940   0.952   4.120  1.00  0.00     0.202 C 
BRANCH  29  30
ATOM     30  C   UNL     1      -4.119   1.105   3.886  1.00  0.00     0.261 C 
BRANCH  30  31
ATOM     31  O   UNL     1      -5.057   2.153   5.140  1.00  0.00    -0.460 OA
BRANCH  31  32
ATOM     32  C   UNL     1      -4.855   3.267   6.196  1.00  0.00     0.338 C 
ATOM     33  O   UNL     1      -5.551   3.178   7.212  1.00  0.00    -0.246 OA
BRANCH  32  34
ATOM     34  C   UNL     1      -3.701   4.487   6.286  1.00  0.00     0.060 A 
ATOM     35  C   UNL     1      -3.642   5.609   5.442  1.00  0.00     0.016 A 
ATOM     36  C   UNL     1      -2.699   4.570   7.283  1.00  0.00     0.016 A 
ATOM     37  C   UNL     1      -2.449   6.398   5.263  1.00  0.00     0.010 A 
ATOM     38  C   UNL     1      -1.536   5.463   7.197  1.00  0.00     0.010 A 
ATOM     39  C   UNL     1      -1.314   6.294   6.096  1.00  0.00    -0.014 A 
BRANCH  39  40
ATOM     40  C   UNL     1      -0.096   7.213   5.854  1.00  0.00     0.031 A 
ATOM     41  C   UNL     1      -0.567   8.619   5.584  1.00  0.00     0.074 A 
ATOM     42  C   UNL     1       1.268   7.002   5.902  1.00  0.00     0.049 A 
ATOM     43  N   UNL     1      -0.419   9.343   4.519  1.00  0.00    -0.248 NA
ATOM     44  C   UNL     1      -1.519   9.185   6.559  1.00  0.00     0.031 C 
ATOM     45  C   UNL     1       1.994   5.764   6.213  1.00  0.00     0.029 A 
ATOM     46  N   UNL     1       2.346   7.884   5.724  1.00  0.00    -0.354 N 
ATOM     47  C   UNL     1      -1.089  10.538   4.786  1.00  0.00     0.074 A 
ATOM     48  C   UNL     1      -1.906  10.301   5.946  1.00  0.00     0.031 C 
ATOM     49  C   UNL     1       3.308   6.007   6.440  1.00  0.00     0.029 A 
ATOM     50  C   UNL     1       3.593   7.409   6.216  1.00  0.00     0.049 A 
ATOM     51  H   UNL     1       2.247   8.764   5.293  1.00  0.00     0.167 HD
ATOM     52  C   UNL     1      -0.749  11.722   4.206  1.00  0.00     0.037 A 
ATOM     53  C   UNL     1       4.780   8.072   6.431  1.00  0.00     0.037 A 
ATOM     54  C   UNL     1       0.016  11.536   3.009  1.00  0.00     0.049 A 
ATOM     55  C   UNL     1       4.766   9.294   5.594  1.00  0.00     0.074 A 
ATOM     56  C   UNL     1      -0.232  10.989   1.767  1.00  0.00     0.029 A 
ATOM     57  N   UNL     1       1.379  11.633   3.114  1.00  0.00    -0.354 N 
ATOM     58  N   UNL     1       4.825   9.265   4.293  1.00  0.00    -0.248 NA
ATOM     59  C   UNL     1       4.139  10.462   6.187  1.00  0.00     0.031 C 
ATOM     60  C   UNL     1       0.981  10.340   1.401  1.00  0.00     0.029 A 
ATOM     61  C   UNL     1       1.931  10.613   2.383  1.00  0.00     0.049 A 
ATOM     62  H   UNL     1       1.873  12.315   3.624  1.00  0.00     0.167 HD
ATOM     63  C   UNL     1       3.825  10.138   3.901  1.00  0.00     0.074 A 
ATOM     64  C   UNL     1       3.431  10.841   5.123  1.00  0.00     0.031 C 
ATOM     65  C   UNL     1       3.208  10.018   2.692  1.00  0.00     0.037 A 
BRANCH  52  66
ATOM     66  C   UNL     1      -0.795  13.030   4.955  1.00  0.00     0.058 A 
ATOM     67  C   UNL     1      -0.740  14.255   4.266  1.00  0.00     0.135 A 
ATOM     68  C   UNL     1      -0.630  13.108   6.358  1.00  0.00     0.135 A 
ATOM     69  F   UNL     1      -0.836  14.290   2.928  1.00  0.00    -0.206 F 
ATOM     70  C   UNL     1      -0.530  15.469   4.927  1.00  0.00     0.059 A 
ATOM     71  C   UNL     1      -0.474  14.306   7.040  1.00  0.00     0.059 A 
ATOM     72  F   UNL     1      -0.522  12.010   7.119  1.00  0.00    -0.206 F 
ATOM     73  C   UNL     1      -0.403  15.483   6.315  1.00  0.00     0.060 A 
BRANCH  73  74
ATOM     74  S   UNL     1      -0.104  17.044   7.164  1.00  0.00     0.124 S 
ATOM     75  O   UNL     1       1.204  17.420   6.643  1.00  0.00    -0.237 OA
ATOM     76  O   UNL     1      -1.232  17.851   6.707  1.00  0.00    -0.237 OA
ATOM     77  O   UNL     1      -0.139  16.673   8.575  1.00  0.00    -0.744 OA
ENDBRANCH  73  74
ENDBRANCH  52  66
BRANCH  53  78
ATOM     78  C   UNL     1       5.717   7.990   7.620  1.00  0.00     0.058 A 
ATOM     79  C   UNL     1       6.936   8.715   7.701  1.00  0.00     0.135 A 
ATOM     80  C   UNL     1       5.269   7.455   8.840  1.00  0.00     0.135 A 
ATOM     81  F   UNL     1       7.467   9.272   6.600  1.00  0.00    -0.206 F 
ATOM     82  C   UNL     1       7.607   8.954   8.919  1.00  0.00     0.059 A 
ATOM     83  C   UNL     1       5.916   7.678  10.059  1.00  0.00     0.059 A 
ATOM     84  F   UNL     1       4.119   6.770   8.906  1.00  0.00    -0.206 F 
ATOM     85  C   UNL     1       7.064   8.459  10.103  1.00  0.00     0.060 A 
BRANCH  85  86
ATOM     86  S   UNL     1       7.761   8.938  11.710  1.00  0.00     0.124 S 
ATOM     87  O   UNL     1       9.064   8.281  11.693  1.00  0.00    -0.237 OA
ATOM     88  O   UNL     1       7.781  10.394  11.619  1.00  0.00    -0.237 OA
ATOM     89  O   UNL     1       6.803   8.393  12.670  1.00  0.00    -0.744 OA
ENDBRANCH  85  86
ENDBRANCH  53  78
BRANCH  65  90
ATOM     90  C   UNL     1       3.810   9.102   1.659  1.00  0.00     0.058 A 
ATOM     91  C   UNL     1       3.964   7.710   1.794  1.00  0.00     0.135 A 
ATOM     92  C   UNL     1       4.127   9.662   0.411  1.00  0.00     0.135 A 
ATOM     93  F   UNL     1       3.590   7.077   2.918  1.00  0.00    -0.206 F 
ATOM     94  C   UNL     1       4.455   6.927   0.744  1.00  0.00     0.059 A 
ATOM     95  C   UNL     1       4.572   8.895  -0.658  1.00  0.00     0.059 A 
ATOM     96  F   UNL     1       3.959  10.979   0.205  1.00  0.00    -0.206 F 
ATOM     97  C   UNL     1       4.747   7.527  -0.481  1.00  0.00     0.060 A 
BRANCH  97  98
ATOM     98  S   UNL     1       5.344   6.508  -1.848  1.00  0.00     0.124 S 
ATOM     99  O   UNL     1       6.604   5.997  -1.321  1.00  0.00    -0.237 OA
ATOM    100  O   UNL     1       4.271   5.529  -1.997  1.00  0.00    -0.237 OA
ATOM    101  O   UNL     1       5.471   7.457  -2.953  1.00  0.00    -0.744 OA
ENDBRANCH  97  98
ENDBRANCH  65  90
ENDBRANCH  39  40
ENDBRANCH  32  34
ENDBRANCH  31  32
ENDBRANCH  30  31
ENDBRANCH  29  30
ENDBRANCH  28  29
ENDBRANCH  27  28
ENDBRANCH  26  27
ENDBRANCH   1  26
TORSDOF 26
