REMARK SMILES O=C(CNC(=O)CN1C(=O)S/C(=C\c2cccc(Br)c2)C1=O)NCCCCCCNC(=O)c1ccc(-c2c3nc(c(-c4cc(S(=O)(=O)[O-])ccc4F)c4ccc([nH]4)c(-c4cc(S(=O)(=O)[O-])ccc4F)c4nc(c(-c5cc(S(=O)(=O)[O-])ccc5F)c5ccc2[nH]5)C=C4)C=C3)cc1
REMARK SMILES IDX 26 1 25 2 24 3 23 4 1 5 2 6 3 8 4 9 5 10 6 12 7 13 8 14 9 15
REMARK SMILES IDX 21 16 10 17 11 18 12 19 22 20 13 21 14 22 15 23 20 24 16 25
REMARK SMILES IDX 18 26 17 27 19 28 27 29 28 30 29 31 30 32 31 33 32 35 33 36
REMARK SMILES IDX 34 37 95 38 35 39 94 40 36 41 37 42 38 43 88 44 39 45 93 46
REMARK SMILES IDX 87 47 89 48 40 49 92 50 86 51 85 52 41 54 73 55 53 56 72 57
REMARK SMILES IDX 54 58 57 59 71 60 90 61 55 62 56 63 70 65 91 66 58 67 42 68
REMARK SMILES IDX 43 69 51 70 44 71 50 72 52 73 49 74 45 75 46 76 47 77 48 78
REMARK SMILES IDX 74 79 75 80 83 81 76 82 82 83 84 84 81 85 77 86 78 87 79 88
REMARK SMILES IDX 80 89 59 90 60 91 68 92 61 93 67 94 69 95 66 96 62 97 63 98
REMARK SMILES IDX 64 99 65 100
REMARK H PARENT 23 7 4 11 30 34 89 53 57 64
REMARK Flexibility Score: inf
ROOT
ATOM      1  C   UNL     1       3.539   1.984   2.719  1.00  0.00     0.002 C 
ENDROOT
BRANCH   1   2
ATOM      2  C   UNL     1       2.041   1.771   2.504  1.00  0.00     0.021 C 
BRANCH   2   3
ATOM      3  C   UNL     1       1.593   2.003   1.063  1.00  0.00     0.116 C 
BRANCH   3   4
ATOM      4  N   UNL     1       2.331   1.160   0.138  1.00  0.00    -0.355 N 
ATOM      5  O   UNL     1       0.944  -0.667   0.258  1.00  0.00    -0.273 OA
ATOM      6  C   UNL     1       1.965  -0.133  -0.164  1.00  0.00     0.239 C 
ATOM      7  H   UNL     1       3.133   1.532  -0.295  1.00  0.00     0.163 HD
BRANCH   6   8
ATOM      8  C   UNL     1       3.005  -0.913  -0.981  1.00  0.00     0.216 C 
BRANCH   8   9
ATOM      9  N   UNL     1       4.006  -0.053  -1.598  1.00  0.00    -0.345 N 
ATOM     10  C   UNL     1       5.363  -0.123  -1.594  1.00  0.00     0.240 C 
ATOM     11  H   UNL     1       3.636   0.708  -2.103  1.00  0.00     0.164 HD
ATOM     12  O   UNL     1       5.951   0.589  -2.414  1.00  0.00    -0.273 OA
BRANCH  10  13
ATOM     13  C   UNL     1       6.136  -1.147  -0.759  1.00  0.00     0.229 C 
BRANCH  13  14
ATOM     14  N   UNL     1       5.915  -1.115   0.678  1.00  0.00    -0.259 N 
ATOM     15  C   UNL     1       5.505  -2.233   1.354  1.00  0.00     0.294 C 
ATOM     16  C   UNL     1       6.353  -0.062   1.447  1.00  0.00     0.268 C 
ATOM     17  O   UNL     1       5.222  -3.315   0.868  1.00  0.00    -0.261 OA
ATOM     18  S   UNL     1       5.481  -1.928   3.080  1.00  0.00    -0.022 SA
ATOM     19  C   UNL     1       6.151  -0.355   2.899  1.00  0.00     0.083 C 
ATOM     20  O   UNL     1       6.830   0.979   1.019  1.00  0.00    -0.268 OA
ATOM     21  C   UNL     1       6.441   0.523   3.871  1.00  0.00     0.029 C 
BRANCH  21  22
ATOM     22  C   UNL     1       6.218   0.327   5.314  1.00  0.00    -0.023 A 
ATOM     23  C   UNL     1       7.274  -0.064   6.137  1.00  0.00     0.008 A 
ATOM     24  C   UNL     1       4.961   0.531   5.899  1.00  0.00     0.023 A 
ATOM     25  C   UNL     1       7.072  -0.237   7.513  1.00  0.00     0.002 A 
ATOM     26  C   UNL     1       4.761   0.357   7.266  1.00  0.00     0.018 A 
ATOM     27  C   UNL     1       5.816  -0.022   8.081  1.00  0.00     0.016 A 
ATOM     28  Br  UNL     1       3.033   0.610   7.992  1.00  0.00    -0.051 Br
ENDBRANCH  21  22
ENDBRANCH  13  14
ENDBRANCH  10  13
ENDBRANCH   8   9
ENDBRANCH   6   8
ENDBRANCH   3   4
ENDBRANCH   2   3
ENDBRANCH   1   2
BRANCH   1  29
ATOM     29  C   UNL     1       4.087   3.405   2.839  1.00  0.00     0.002 C 
BRANCH  29  30
ATOM     30  C   UNL     1       3.503   4.328   3.914  1.00  0.00     0.021 C 
BRANCH  30  31
ATOM     31  C   UNL     1       3.884   4.096   5.383  1.00  0.00     0.116 C 
BRANCH  31  32
ATOM     32  N   UNL     1       5.313   4.076   5.664  1.00  0.00    -0.352 N 
ATOM     33  C   UNL     1       5.992   4.512   6.785  1.00  0.00     0.251 C 
ATOM     34  H   UNL     1       5.877   3.698   4.951  1.00  0.00     0.163 HD
ATOM     35  O   UNL     1       7.217   4.430   6.820  1.00  0.00    -0.269 OA
BRANCH  33  36
ATOM     36  C   UNL     1       5.260   5.128   7.921  1.00  0.00     0.039 A 
ATOM     37  C   UNL     1       5.714   6.344   8.441  1.00  0.00     0.014 A 
ATOM     38  C   UNL     1       4.119   4.532   8.460  1.00  0.00     0.014 A 
ATOM     39  C   UNL     1       4.966   7.005   9.423  1.00  0.00     0.010 A 
ATOM     40  C   UNL     1       3.342   5.219   9.396  1.00  0.00     0.010 A 
ATOM     41  C   UNL     1       3.741   6.478   9.868  1.00  0.00    -0.014 A 
BRANCH  41  42
ATOM     42  C   UNL     1       2.842   7.280  10.747  1.00  0.00     0.031 A 
ATOM     43  C   UNL     1       2.487   6.825  12.136  1.00  0.00     0.074 A 
ATOM     44  C   UNL     1       2.294   8.412  10.256  1.00  0.00     0.049 A 
ATOM     45  N   UNL     1       1.750   7.424  13.040  1.00  0.00    -0.248 NA
ATOM     46  C   UNL     1       3.003   5.516  12.555  1.00  0.00     0.031 C 
ATOM     47  C   UNL     1       2.502   8.926   8.899  1.00  0.00     0.029 A 
ATOM     48  N   UNL     1       1.462   9.339  10.834  1.00  0.00    -0.354 N 
ATOM     49  C   UNL     1       1.711   6.565  14.134  1.00  0.00     0.074 A 
ATOM     50  C   UNL     1       2.446   5.377  13.750  1.00  0.00     0.031 C 
ATOM     51  C   UNL     1       1.866  10.100   8.770  1.00  0.00     0.029 A 
ATOM     52  C   UNL     1       1.165  10.404  10.013  1.00  0.00     0.049 A 
ATOM     53  H   UNL     1       1.110   9.250  11.749  1.00  0.00     0.167 HD
ATOM     54  C   UNL     1       1.134   6.758  15.348  1.00  0.00     0.034 A 
ATOM     55  C   UNL     1       0.421  11.505  10.235  1.00  0.00     0.034 A 
ATOM     56  C   UNL     1       0.395   7.947  15.709  1.00  0.00     0.049 A 
ATOM     57  C   UNL     1      -0.226  11.687  11.583  1.00  0.00     0.074 A 
ATOM     58  C   UNL     1      -0.165   8.278  16.932  1.00  0.00     0.029 A 
ATOM     59  N   UNL     1       0.089   8.992  14.844  1.00  0.00    -0.354 N 
ATOM     60  N   UNL     1      -0.173  10.909  12.640  1.00  0.00    -0.248 NA
ATOM     61  C   UNL     1      -1.022  12.906  11.770  1.00  0.00     0.031 C 
ATOM     62  C   UNL     1      -0.882   9.471  16.783  1.00  0.00     0.029 A 
ATOM     63  C   UNL     1      -0.692   9.941  15.493  1.00  0.00     0.049 A 
ATOM     64  H   UNL     1       0.383   9.052  13.907  1.00  0.00     0.167 HD
ATOM     65  C   UNL     1      -0.906  11.562  13.627  1.00  0.00     0.074 A 
ATOM     66  C   UNL     1      -1.363  12.808  13.045  1.00  0.00     0.031 C 
ATOM     67  C   UNL     1      -1.176  11.167  14.899  1.00  0.00     0.034 A 
BRANCH  54  68
ATOM     68  C   UNL     1       1.250   5.638  16.361  1.00  0.00     0.023 A 
ATOM     69  C   UNL     1       2.498   5.184  16.826  1.00  0.00     0.031 A 
ATOM     70  C   UNL     1       0.099   4.994  16.849  1.00  0.00     0.131 A 
ATOM     71  C   UNL     1       2.570   4.067  17.672  1.00  0.00     0.055 A 
ATOM     72  C   UNL     1       0.173   3.941  17.765  1.00  0.00     0.041 A 
ATOM     73  F   UNL     1      -1.122   5.364  16.432  1.00  0.00    -0.206 F 
ATOM     74  C   UNL     1       1.415   3.459  18.167  1.00  0.00     0.022 A 
BRANCH  71  75
ATOM     75  S   UNL     1       4.193   3.315  17.979  1.00  0.00     0.124 S 
ATOM     76  O   UNL     1       4.652   3.039  16.619  1.00  0.00    -0.237 OA
ATOM     77  O   UNL     1       4.901   4.372  18.690  1.00  0.00    -0.237 OA
ATOM     78  O   UNL     1       3.877   2.129  18.772  1.00  0.00    -0.744 OA
ENDBRANCH  71  75
ENDBRANCH  54  68
BRANCH  55  79
ATOM     79  C   UNL     1       0.257  12.536   9.168  1.00  0.00     0.023 A 
ATOM     80  C   UNL     1       0.749  13.840   9.344  1.00  0.00     0.031 A 
ATOM     81  C   UNL     1      -0.426  12.246   7.974  1.00  0.00     0.131 A 
ATOM     82  C   UNL     1       0.511  14.817   8.365  1.00  0.00     0.055 A 
ATOM     83  C   UNL     1      -0.610  13.207   6.977  1.00  0.00     0.041 A 
ATOM     84  F   UNL     1      -0.915  11.016   7.752  1.00  0.00    -0.206 F 
ATOM     85  C   UNL     1      -0.151  14.505   7.176  1.00  0.00     0.022 A 
BRANCH  82  86
ATOM     86  S   UNL     1       1.009  16.528   8.706  1.00  0.00     0.124 S 
ATOM     87  O   UNL     1       0.250  16.823   9.916  1.00  0.00    -0.237 OA
ATOM     88  O   UNL     1       2.453  16.397   8.869  1.00  0.00    -0.237 OA
ATOM     89  O   UNL     1       0.582  17.250   7.509  1.00  0.00    -0.744 OA
ENDBRANCH  82  86
ENDBRANCH  55  79
BRANCH  67  90
ATOM     90  C   UNL     1      -1.986  12.121  15.749  1.00  0.00     0.023 A 
ATOM     91  C   UNL     1      -3.304  12.479  15.408  1.00  0.00     0.031 A 
ATOM     92  C   UNL     1      -1.417  12.726  16.885  1.00  0.00     0.131 A 
ATOM     93  C   UNL     1      -3.971  13.476  16.136  1.00  0.00     0.055 A 
ATOM     94  C   UNL     1      -2.117  13.656  17.654  1.00  0.00     0.041 A 
ATOM     95  F   UNL     1      -0.162  12.431  17.260  1.00  0.00    -0.206 F 
ATOM     96  C   UNL     1      -3.394  14.052  17.269  1.00  0.00     0.022 A 
BRANCH  93  97
ATOM     97  S   UNL     1      -5.543  14.115  15.492  1.00  0.00     0.124 S 
ATOM     98  O   UNL     1      -5.168  14.541  14.148  1.00  0.00    -0.237 OA
ATOM     99  O   UNL     1      -6.411  12.945  15.571  1.00  0.00    -0.237 OA
ATOM    100  O   UNL     1      -5.877  15.198  16.416  1.00  0.00    -0.744 OA
ENDBRANCH  93  97
ENDBRANCH  67  90
ENDBRANCH  41  42
ENDBRANCH  33  36
ENDBRANCH  31  32
ENDBRANCH  30  31
ENDBRANCH  29  30
ENDBRANCH   1  29
TORSDOF 20
