REMARK SMILES COc1cc(/C=N/[NH+]=C2\NC(=O)[C@@H](CC(=O)NCCCCCCNC(=O)c3ccc(-c4c5nc(c(-c6cc(S(=O)(=O)[O-])ccc6F)c6ccc([nH]6)c(-c6cc(S(=O)(=O)[O-])ccc6F)c6nc(c(-c7cc(S(=O)(=O)[O-])ccc7F)c7ccc4[nH]7)C=C6)C=C5)cc3)S2)cc(I)c1OC
REMARK SMILES IDX 20 1 19 2 18 3 17 4 15 5 16 6 14 8 13 9 8 10 9 11 10 13
REMARK SMILES IDX 90 14 11 15 12 17 7 18 6 19 5 20 3 21 4 22 94 23 92 24 91 25
REMARK SMILES IDX 93 26 2 27 1 28 95 29 96 30 21 31 22 32 23 33 24 34 25 35
REMARK SMILES IDX 26 37 27 38 28 39 89 40 29 41 88 42 30 43 31 44 32 45 82 46
REMARK SMILES IDX 33 47 87 48 81 49 83 50 34 51 86 52 80 53 79 54 35 56 67 57
REMARK SMILES IDX 47 58 66 59 48 60 51 61 65 62 84 63 49 64 50 65 64 67 85 68
REMARK SMILES IDX 52 69 36 70 37 71 45 72 38 73 44 74 46 75 43 76 39 77 40 78
REMARK SMILES IDX 41 79 42 80 68 81 69 82 77 83 70 84 76 85 78 86 75 87 71 88
REMARK SMILES IDX 72 89 73 90 74 91 53 92 54 93 62 94 55 95 61 96 63 97 60 98
REMARK SMILES IDX 56 99 57 100 58 101 59 102
REMARK H PARENT 17 7 8 12 10 16 24 36 83 55 51 66
REMARK Flexibility Score: inf
ROOT
ATOM      1  C   UNL     1      11.644   8.708  -2.247  1.00  0.00     0.002 C 
ENDROOT
BRANCH   1   2
ATOM      2  C   UNL     1      10.431   7.792  -2.062  1.00  0.00     0.021 C 
BRANCH   2   3
ATOM      3  C   UNL     1       9.942   7.725  -0.615  1.00  0.00     0.116 C 
BRANCH   3   4
ATOM      4  N   UNL     1       9.224   8.937  -0.271  1.00  0.00    -0.356 N 
ATOM      5  C   UNL     1       7.883   9.139  -0.184  1.00  0.00     0.221 C 
ATOM      6  O   UNL     1       7.458  10.282  -0.023  1.00  0.00    -0.275 OA
ATOM      7  H   UNL     1       9.786   9.722  -0.074  1.00  0.00     0.163 HD
BRANCH   5   8
ATOM      8  C   UNL     1       6.945   7.962  -0.275  1.00  0.00     0.127 C 
BRANCH   8   9
ATOM      9  C   UNL     1       6.584   7.641  -1.723  1.00  0.00     0.183 C 
ATOM     10  N   UNL     1       5.816   3.897  -2.148  1.00  0.00    -0.142 N 
ATOM     11  C   UNL     1       5.895   5.179  -2.037  1.00  0.00     0.337 C 
ATOM     12  H   UNL     1       6.583   3.324  -2.377  1.00  0.00     0.343 HD
ATOM     13  N   UNL     1       4.860   6.008  -1.768  1.00  0.00    -0.202 N 
ATOM     14  S   UNL     1       7.348   6.072  -2.301  1.00  0.00    -0.020 SA
ATOM     15  C   UNL     1       5.096   7.350  -1.775  1.00  0.00     0.322 C 
ATOM     16  H   UNL     1       3.963   5.652  -1.574  1.00  0.00     0.316 HD
ATOM     17  O   UNL     1       4.212   8.190  -1.774  1.00  0.00    -0.246 OA
BRANCH  10  18
ATOM     18  N   UNL     1       4.529   3.402  -1.911  1.00  0.00    -0.093 NA
ATOM     19  C   UNL     1       3.858   3.287  -3.013  1.00  0.00     0.166 C 
BRANCH  19  20
ATOM     20  C   UNL     1       2.462   2.852  -2.984  1.00  0.00     0.002 A 
ATOM     21  C   UNL     1       0.721   1.461  -2.101  1.00  0.00     0.162 A 
ATOM     22  C   UNL     1       2.065   1.833  -2.131  1.00  0.00     0.060 A 
ATOM     23  C   UNL     1      -0.248   2.125  -2.908  1.00  0.00     0.174 A 
ATOM     24  C   UNL     1       0.181   3.174  -3.743  1.00  0.00     0.060 A 
ATOM     25  C   UNL     1       1.544   3.517  -3.789  1.00  0.00     0.028 A 
ATOM     26  I   UNL     1      -0.997   4.443  -4.951  1.00  0.00    -0.040 I 
BRANCH  21  27
ATOM     27  O   UNL     1       0.273   0.396  -1.350  1.00  0.00    -0.493 OA
ATOM     28  C   UNL     1       0.957   0.150  -0.126  1.00  0.00     0.278 C 
ENDBRANCH  21  27
BRANCH  23  29
ATOM     29  O   UNL     1      -1.507   1.640  -2.679  1.00  0.00    -0.492 OA
ATOM     30  C   UNL     1      -2.598   1.920  -3.527  1.00  0.00     0.278 C 
ENDBRANCH  23  29
ENDBRANCH  19  20
ENDBRANCH  10  18
ENDBRANCH   8   9
ENDBRANCH   5   8
ENDBRANCH   3   4
ENDBRANCH   2   3
ENDBRANCH   1   2
BRANCH   1  31
ATOM     31  C   UNL     1      12.867   8.309  -1.415  1.00  0.00     0.002 C 
BRANCH  31  32
ATOM     32  C   UNL     1      13.331   6.865  -1.619  1.00  0.00     0.021 C 
BRANCH  32  33
ATOM     33  C   UNL     1      13.748   6.546  -3.050  1.00  0.00     0.116 C 
BRANCH  33  34
ATOM     34  N   UNL     1      14.888   7.352  -3.458  1.00  0.00    -0.352 N 
ATOM     35  C   UNL     1      16.116   6.945  -3.912  1.00  0.00     0.251 C 
ATOM     36  H   UNL     1      14.759   8.326  -3.400  1.00  0.00     0.163 HD
ATOM     37  O   UNL     1      17.047   7.744  -3.943  1.00  0.00    -0.269 OA
BRANCH  35  38
ATOM     38  C   UNL     1      16.308   5.547  -4.353  1.00  0.00     0.039 A 
ATOM     39  C   UNL     1      17.492   4.888  -4.021  1.00  0.00     0.014 A 
ATOM     40  C   UNL     1      15.331   4.898  -5.114  1.00  0.00     0.014 A 
ATOM     41  C   UNL     1      17.683   3.566  -4.428  1.00  0.00     0.010 A 
ATOM     42  C   UNL     1      15.484   3.556  -5.442  1.00  0.00     0.010 A 
ATOM     43  C   UNL     1      16.673   2.882  -5.125  1.00  0.00    -0.014 A 
BRANCH  43  44
ATOM     44  C   UNL     1      16.866   1.480  -5.575  1.00  0.00     0.031 A 
ATOM     45  C   UNL     1      16.875   1.160  -7.047  1.00  0.00     0.074 A 
ATOM     46  C   UNL     1      17.000   0.495  -4.665  1.00  0.00     0.049 A 
ATOM     47  N   UNL     1      16.986   0.001  -7.644  1.00  0.00    -0.248 NA
ATOM     48  C   UNL     1      16.704   2.294  -7.969  1.00  0.00     0.031 C 
ATOM     49  C   UNL     1      16.972   0.679  -3.213  1.00  0.00     0.029 A 
ATOM     50  N   UNL     1      17.186  -0.854  -4.825  1.00  0.00    -0.354 N 
ATOM     51  C   UNL     1      16.887   0.265  -9.006  1.00  0.00     0.074 A 
ATOM     52  C   UNL     1      16.629   1.682  -9.140  1.00  0.00     0.031 C 
ATOM     53  C   UNL     1      17.172  -0.507  -2.616  1.00  0.00     0.029 A 
ATOM     54  C   UNL     1      17.293  -1.542  -3.638  1.00  0.00     0.049 A 
ATOM     55  H   UNL     1      17.238  -1.290  -5.706  1.00  0.00     0.167 HD
ATOM     56  C   UNL     1      17.029  -0.590 -10.050  1.00  0.00     0.034 A 
ATOM     57  C   UNL     1      17.464  -2.858  -3.402  1.00  0.00     0.034 A 
ATOM     58  C   UNL     1      17.293  -2.000  -9.896  1.00  0.00     0.049 A 
ATOM     59  C   UNL     1      17.588  -3.795  -4.578  1.00  0.00     0.074 A 
ATOM     60  C   UNL     1      17.490  -2.953 -10.879  1.00  0.00     0.029 A 
ATOM     61  N   UNL     1      17.390  -2.663  -8.678  1.00  0.00    -0.354 N 
ATOM     62  N   UNL     1      17.535  -3.525  -5.862  1.00  0.00    -0.248 NA
ATOM     63  C   UNL     1      17.815  -5.212  -4.270  1.00  0.00     0.031 C 
ATOM     64  C   UNL     1      17.629  -4.200 -10.260  1.00  0.00     0.029 A 
ATOM     65  C   UNL     1      17.615  -4.015  -8.887  1.00  0.00     0.049 A 
ATOM     66  H   UNL     1      17.309  -2.234  -7.795  1.00  0.00     0.167 HD
ATOM     67  C   UNL     1      17.766  -4.734  -6.514  1.00  0.00     0.074 A 
ATOM     68  C   UNL     1      17.971  -5.727  -5.479  1.00  0.00     0.031 C 
ATOM     69  C   UNL     1      17.813  -4.998  -7.846  1.00  0.00     0.034 A 
BRANCH  56  70
ATOM     70  C   UNL     1      16.872  -0.018 -11.442  1.00  0.00     0.023 A 
ATOM     71  C   UNL     1      17.719   0.996 -11.926  1.00  0.00     0.031 A 
ATOM     72  C   UNL     1      15.837  -0.463 -12.284  1.00  0.00     0.131 A 
ATOM     73  C   UNL     1      17.462   1.590 -13.171  1.00  0.00     0.055 A 
ATOM     74  C   UNL     1      15.645   0.068 -13.561  1.00  0.00     0.041 A 
ATOM     75  F   UNL     1      14.979  -1.410 -11.872  1.00  0.00    -0.206 F 
ATOM     76  C   UNL     1      16.449   1.114 -14.005  1.00  0.00     0.022 A 
BRANCH  73  77
ATOM     77  S   UNL     1      18.362   3.104 -13.608  1.00  0.00     0.124 S 
ATOM     78  O   UNL     1      18.005   3.988 -12.501  1.00  0.00    -0.237 OA
ATOM     79  O   UNL     1      19.747   2.649 -13.643  1.00  0.00    -0.237 OA
ATOM     80  O   UNL     1      17.794   3.478 -14.902  1.00  0.00    -0.744 OA
ENDBRANCH  73  77
ENDBRANCH  56  70
BRANCH  57  81
ATOM     81  C   UNL     1      17.531  -3.374  -2.004  1.00  0.00     0.023 A 
ATOM     82  C   UNL     1      18.693  -3.990  -1.514  1.00  0.00     0.031 A 
ATOM     83  C   UNL     1      16.416  -3.298  -1.149  1.00  0.00     0.131 A 
ATOM     84  C   UNL     1      18.698  -4.555  -0.229  1.00  0.00     0.055 A 
ATOM     85  C   UNL     1      16.446  -3.808   0.150  1.00  0.00     0.041 A 
ATOM     86  F   UNL     1      15.280  -2.716  -1.565  1.00  0.00    -0.206 F 
ATOM     87  C   UNL     1      17.587  -4.455   0.612  1.00  0.00     0.022 A 
BRANCH  84  88
ATOM     88  S   UNL     1      20.148  -5.511   0.294  1.00  0.00     0.124 S 
ATOM     89  O   UNL     1      20.214  -6.538  -0.738  1.00  0.00    -0.237 OA
ATOM     90  O   UNL     1      21.202  -4.502   0.265  1.00  0.00    -0.237 OA
ATOM     91  O   UNL     1      19.780  -5.985   1.627  1.00  0.00    -0.744 OA
ENDBRANCH  84  88
ENDBRANCH  57  81
BRANCH  69  92
ATOM     92  C   UNL     1      18.167  -6.410  -8.255  1.00  0.00     0.023 A 
ATOM     93  C   UNL     1      17.344  -7.507  -7.945  1.00  0.00     0.031 A 
ATOM     94  C   UNL     1      19.366  -6.662  -8.947  1.00  0.00     0.131 A 
ATOM     95  C   UNL     1      17.765  -8.808  -8.258  1.00  0.00     0.055 A 
ATOM     96  C   UNL     1      19.743  -7.951  -9.324  1.00  0.00     0.041 A 
ATOM     97  F   UNL     1      20.195  -5.655  -9.268  1.00  0.00    -0.206 F 
ATOM     98  C   UNL     1      18.950  -9.035  -8.964  1.00  0.00     0.022 A 
BRANCH  95  99
ATOM     99  S   UNL     1      16.808 -10.210  -7.619  1.00  0.00     0.124 S 
ATOM    100  O   UNL     1      16.799  -9.942  -6.185  1.00  0.00    -0.237 OA
ATOM    101  O   UNL     1      15.530 -10.053  -8.305  1.00  0.00    -0.237 OA
ATOM    102  O   UNL     1      17.591 -11.375  -8.028  1.00  0.00    -0.744 OA
ENDBRANCH  95  99
ENDBRANCH  69  92
ENDBRANCH  43  44
ENDBRANCH  35  38
ENDBRANCH  33  34
ENDBRANCH  32  33
ENDBRANCH  31  32
ENDBRANCH   1  31
TORSDOF 21
