REMARK SMILES CC(C)[C@H](CO)NS(=O)(=O)c1ccc(Cl)c(C(=O)NCCCCCCNC(=O)c2ccc(-c3c4nc(c(-c5cc(S(=O)(=O)[O-])ccc5F)c5ccc([nH]5)c(-c5cc(S(=O)(=O)[O-])ccc5F)c5nc(c(-c6cc(S(=O)(=O)[O-])ccc6F)c6ccc3[nH]6)C=C5)C=C4)cc2)c1
REMARK SMILES IDX 21 1 20 2 19 3 17 4 18 5 16 7 11 8 12 9 92 10 13 11 14 12
REMARK SMILES IDX 15 13 8 14 9 15 10 16 7 17 4 19 2 20 1 21 3 22 5 23 6 24
REMARK SMILES IDX 22 26 23 27 24 28 25 29 26 30 27 31 28 33 29 34 30 35 91 36
REMARK SMILES IDX 31 37 90 38 32 39 33 40 34 41 84 42 35 43 89 44 83 45 85 46
REMARK SMILES IDX 36 47 88 48 82 49 81 50 37 52 69 53 49 54 68 55 50 56 53 57
REMARK SMILES IDX 67 58 86 59 51 60 52 61 66 63 87 64 54 65 38 66 39 67 47 68
REMARK SMILES IDX 40 69 46 70 48 71 45 72 41 73 42 74 43 75 44 76 70 77 71 78
REMARK SMILES IDX 79 79 72 80 78 81 80 82 77 83 73 84 74 85 75 86 76 87 55 88
REMARK SMILES IDX 56 89 64 90 57 91 63 92 65 93 62 94 58 95 59 96 60 97 61 98
REMARK H PARENT 19 6 7 18 6 25 26 32 85 51 53 62
REMARK Flexibility Score: inf
ROOT
ATOM      1  C   UNL     1      -3.323  -5.872  -4.431  1.00  0.00     0.021 C 
ENDROOT
BRANCH   1   2
ATOM      2  C   UNL     1      -4.009  -4.840  -3.539  1.00  0.00     0.116 C 
BRANCH   2   3
ATOM      3  N   UNL     1      -3.176  -4.374  -2.448  1.00  0.00    -0.352 N 
ATOM      4  C   UNL     1      -3.062  -3.126  -1.894  1.00  0.00     0.252 C 
ATOM      5  O   UNL     1      -2.231  -2.938  -1.002  1.00  0.00    -0.269 OA
ATOM      6  H   UNL     1      -2.601  -5.062  -2.041  1.00  0.00     0.163 HD
BRANCH   4   7
ATOM      7  C   UNL     1      -3.839  -1.953  -2.367  1.00  0.00     0.059 A 
ATOM      8  C   UNL     1      -3.731   0.452  -2.705  1.00  0.00     0.083 A 
ATOM      9  C   UNL     1      -5.112   0.483  -2.919  1.00  0.00     0.023 A 
ATOM     10  C   UNL     1      -3.088  -0.769  -2.524  1.00  0.00     0.037 A 
ATOM     11  C   UNL     1      -5.858  -0.691  -2.819  1.00  0.00     0.023 A 
ATOM     12  C   UNL     1      -5.236  -1.894  -2.462  1.00  0.00     0.053 A 
ATOM     13  Cl  UNL     1      -6.290  -3.182  -2.007  1.00  0.00    -0.083 Cl
BRANCH   8  14
ATOM     14  S   UNL     1      -2.912   2.017  -2.497  1.00  0.00     0.240 S 
ATOM     15  O   UNL     1      -3.729   2.786  -1.589  1.00  0.00    -0.207 OA
ATOM     16  O   UNL     1      -2.628   2.502  -3.831  1.00  0.00    -0.207 OA
BRANCH  14  17
ATOM     17  N   UNL     1      -1.419   1.785  -1.786  1.00  0.00    -0.206 NA
ATOM     18  H   UNL     1      -0.852   1.351  -2.515  1.00  0.00     0.141 HD
BRANCH  17  19
ATOM     19  C   UNL     1      -1.097   1.020  -0.557  1.00  0.00     0.098 C 
BRANCH  19  20
ATOM     20  C   UNL     1      -1.253   1.774   0.781  1.00  0.00     0.003 C 
ATOM     21  C   UNL     1      -0.368   3.010   0.938  1.00  0.00     0.009 C 
ATOM     22  C   UNL     1      -2.700   2.099   1.143  1.00  0.00     0.009 C 
ENDBRANCH  19  20
BRANCH  19  23
ATOM     23  C   UNL     1       0.377   0.550  -0.723  1.00  0.00     0.176 C 
BRANCH  23  24
ATOM     24  O   UNL     1       0.476  -0.421  -1.765  1.00  0.00    -0.395 OA
ATOM     25  H   UNL     1      -0.071  -1.190  -1.543  1.00  0.00     0.210 HD
ENDBRANCH  23  24
ENDBRANCH  19  23
ENDBRANCH  17  19
ENDBRANCH  14  17
ENDBRANCH   8  14
ENDBRANCH   4   7
ENDBRANCH   2   3
ENDBRANCH   1   2
BRANCH   1  26
ATOM     26  C   UNL     1      -2.904  -7.188  -3.765  1.00  0.00     0.002 C 
BRANCH  26  27
ATOM     27  C   UNL     1      -3.951  -7.925  -2.923  1.00  0.00     0.002 C 
BRANCH  27  28
ATOM     28  C   UNL     1      -5.320  -8.174  -3.560  1.00  0.00     0.021 C 
BRANCH  28  29
ATOM     29  C   UNL     1      -5.329  -8.825  -4.939  1.00  0.00     0.116 C 
BRANCH  29  30
ATOM     30  N   UNL     1      -4.750 -10.154  -4.953  1.00  0.00    -0.352 N 
ATOM     31  C   UNL     1      -5.239 -11.321  -5.493  1.00  0.00     0.251 C 
ATOM     32  H   UNL     1      -3.874 -10.233  -4.509  1.00  0.00     0.163 HD
ATOM     33  O   UNL     1      -4.627 -12.369  -5.304  1.00  0.00    -0.269 OA
BRANCH  31  34
ATOM     34  C   UNL     1      -6.508 -11.333  -6.262  1.00  0.00     0.039 A 
ATOM     35  C   UNL     1      -7.419 -12.370  -6.027  1.00  0.00     0.014 A 
ATOM     36  C   UNL     1      -6.804 -10.358  -7.219  1.00  0.00     0.014 A 
ATOM     37  C   UNL     1      -8.647 -12.390  -6.697  1.00  0.00     0.010 A 
ATOM     38  C   UNL     1      -8.054 -10.346  -7.842  1.00  0.00     0.010 A 
ATOM     39  C   UNL     1      -8.990 -11.360  -7.585  1.00  0.00    -0.014 A 
BRANCH  39  40
ATOM     40  C   UNL     1     -10.319 -11.330  -8.255  1.00  0.00     0.031 A 
ATOM     41  C   UNL     1     -10.418 -11.491  -9.748  1.00  0.00     0.074 A 
ATOM     42  C   UNL     1     -11.430 -11.096  -7.529  1.00  0.00     0.049 A 
ATOM     43  N   UNL     1     -11.468 -11.405 -10.524  1.00  0.00    -0.248 NA
ATOM     44  C   UNL     1      -9.162 -11.760 -10.464  1.00  0.00     0.031 C 
ATOM     45  C   UNL     1     -11.465 -10.889  -6.080  1.00  0.00     0.029 A 
ATOM     46  N   UNL     1     -12.744 -10.979  -7.911  1.00  0.00    -0.354 N 
ATOM     47  C   UNL     1     -11.001 -11.592 -11.821  1.00  0.00     0.074 A 
ATOM     48  C   UNL     1      -9.563 -11.748 -11.726  1.00  0.00     0.031 C 
ATOM     49  C   UNL     1     -12.735 -10.682  -5.695  1.00  0.00     0.029 A 
ATOM     50  C   UNL     1     -13.600 -10.703  -6.871  1.00  0.00     0.049 A 
ATOM     51  H   UNL     1     -13.045 -11.082  -8.843  1.00  0.00     0.167 HD
ATOM     52  C   UNL     1     -11.704 -11.646 -12.980  1.00  0.00     0.034 A 
ATOM     53  C   UNL     1     -14.929 -10.477  -6.864  1.00  0.00     0.034 A 
ATOM     54  C   UNL     1     -13.138 -11.506 -13.061  1.00  0.00     0.049 A 
ATOM     55  C   UNL     1     -15.689 -10.535  -8.164  1.00  0.00     0.074 A 
ATOM     56  C   UNL     1     -13.954 -11.595 -14.177  1.00  0.00     0.029 A 
ATOM     57  N   UNL     1     -13.973 -11.243 -11.982  1.00  0.00    -0.354 N 
ATOM     58  N   UNL     1     -15.235 -10.749  -9.377  1.00  0.00    -0.248 NA
ATOM     59  C   UNL     1     -17.142 -10.332  -8.091  1.00  0.00     0.031 C 
ATOM     60  C   UNL     1     -15.271 -11.334 -13.782  1.00  0.00     0.029 A 
ATOM     61  C   UNL     1     -15.289 -11.144 -12.410  1.00  0.00     0.049 A 
ATOM     62  H   UNL     1     -13.675 -11.142 -11.050  1.00  0.00     0.167 HD
ATOM     63  C   UNL     1     -16.352 -10.732 -10.207  1.00  0.00     0.074 A 
ATOM     64  C   UNL     1     -17.501 -10.499  -9.356  1.00  0.00     0.031 C 
ATOM     65  C   UNL     1     -16.423 -10.901 -11.552  1.00  0.00     0.034 A 
BRANCH  52  66
ATOM     66  C   UNL     1     -10.921 -11.838 -14.256  1.00  0.00     0.023 A 
ATOM     67  C   UNL     1     -10.194 -13.016 -14.504  1.00  0.00     0.031 A 
ATOM     68  C   UNL     1     -10.875 -10.820 -15.224  1.00  0.00     0.131 A 
ATOM     69  C   UNL     1      -9.394 -13.117 -15.652  1.00  0.00     0.055 A 
ATOM     70  C   UNL     1     -10.138 -10.957 -16.402  1.00  0.00     0.041 A 
ATOM     71  F   UNL     1     -11.533  -9.666 -15.034  1.00  0.00    -0.206 F 
ATOM     72  C   UNL     1      -9.379 -12.105 -16.615  1.00  0.00     0.022 A 
BRANCH  69  73
ATOM     73  S   UNL     1      -8.267 -14.530 -15.801  1.00  0.00     0.124 S 
ATOM     74  O   UNL     1      -7.424 -14.359 -14.620  1.00  0.00    -0.237 OA
ATOM     75  O   UNL     1      -9.180 -15.666 -15.775  1.00  0.00    -0.237 OA
ATOM     76  O   UNL     1      -7.593 -14.298 -17.077  1.00  0.00    -0.744 OA
ENDBRANCH  69  73
ENDBRANCH  52  66
BRANCH  53  77
ATOM     77  C   UNL     1     -15.634 -10.160  -5.590  1.00  0.00     0.023 A 
ATOM     78  C   UNL     1     -16.571 -11.050  -5.042  1.00  0.00     0.031 A 
ATOM     79  C   UNL     1     -15.409  -8.942  -4.925  1.00  0.00     0.131 A 
ATOM     80  C   UNL     1     -17.282 -10.690  -3.887  1.00  0.00     0.055 A 
ATOM     81  C   UNL     1     -16.087  -8.609  -3.752  1.00  0.00     0.041 A 
ATOM     82  F   UNL     1     -14.517  -8.061  -5.405  1.00  0.00    -0.206 F 
ATOM     83  C   UNL     1     -17.040  -9.480  -3.233  1.00  0.00     0.022 A 
BRANCH  80  84
ATOM     84  S   UNL     1     -18.589 -11.799  -3.293  1.00  0.00     0.124 S 
ATOM     85  O   UNL     1     -19.465 -11.879  -4.457  1.00  0.00    -0.237 OA
ATOM     86  O   UNL     1     -17.836 -13.007  -2.971  1.00  0.00    -0.237 OA
ATOM     87  O   UNL     1     -19.142 -11.087  -2.143  1.00  0.00    -0.744 OA
ENDBRANCH  80  84
ENDBRANCH  53  77
BRANCH  65  88
ATOM     88  C   UNL     1     -17.798 -10.882 -12.169  1.00  0.00     0.023 A 
ATOM     89  C   UNL     1     -18.560  -9.703 -12.241  1.00  0.00     0.031 A 
ATOM     90  C   UNL     1     -18.359 -12.068 -12.675  1.00  0.00     0.131 A 
ATOM     91  C   UNL     1     -19.863  -9.745 -12.761  1.00  0.00     0.055 A 
ATOM     92  C   UNL     1     -19.636 -12.094 -13.237  1.00  0.00     0.041 A 
ATOM     93  F   UNL     1     -17.674 -13.221 -12.630  1.00  0.00    -0.206 F 
ATOM     94  C   UNL     1     -20.400 -10.930 -13.271  1.00  0.00     0.022 A 
BRANCH  91  95
ATOM     95  S   UNL     1     -20.878  -8.244 -12.692  1.00  0.00     0.124 S 
ATOM     96  O   UNL     1     -20.921  -7.971 -11.259  1.00  0.00    -0.237 OA
ATOM     97  O   UNL     1     -20.102  -7.305 -13.496  1.00  0.00    -0.237 OA
ATOM     98  O   UNL     1     -22.149  -8.661 -13.282  1.00  0.00    -0.744 OA
ENDBRANCH  91  95
ENDBRANCH  65  88
ENDBRANCH  39  40
ENDBRANCH  31  34
ENDBRANCH  29  30
ENDBRANCH  28  29
ENDBRANCH  27  28
ENDBRANCH  26  27
ENDBRANCH   1  26
TORSDOF 22
