REMARK SMILES CCN(CC(C)(C)O)C(=O)NCCCC(=O)NCCCCCCNC(=O)c1ccc(-c2c3nc(c(-c4cc(S(=O)(=O)[O-])ccc4F)c4ccc([nH]4)c(-c4cc(S(=O)(=O)[O-])ccc4F)c4nc(c(-c5cc(S(=O)(=O)[O-])ccc5F)c5ccc2[nH]5)C=C4)C=C3)cc1
REMARK SMILES IDX 18 1 17 2 15 3 16 4 14 6 13 7 12 8 11 9 9 10 10 11 3 13 2 14
REMARK SMILES IDX 1 15 4 16 5 17 6 18 7 19 8 20 19 22 20 23 21 24 22 25 23 26
REMARK SMILES IDX 24 27 25 28 26 30 27 31 28 32 89 33 29 34 88 35 30 36 31 37
REMARK SMILES IDX 32 38 82 39 33 40 87 41 81 42 83 43 34 44 86 45 80 46 79 47
REMARK SMILES IDX 35 49 67 50 47 51 66 52 48 53 51 54 65 55 84 56 49 57 50 58
REMARK SMILES IDX 64 60 85 61 52 62 36 63 37 64 45 65 38 66 44 67 46 68 43 69
REMARK SMILES IDX 39 70 40 71 41 72 42 73 68 74 69 75 77 76 70 77 76 78 78 79
REMARK SMILES IDX 75 80 71 81 72 82 73 83 74 84 53 85 54 86 62 87 55 88 61 89
REMARK SMILES IDX 63 90 60 91 56 92 57 93 58 94 59 95
REMARK H PARENT 17 5 11 12 8 21 24 29 83 48 51 59
REMARK Flexibility Score: inf
ROOT
ATOM      1  C   UNL     1       4.130   3.235  -4.879  1.00  0.00     0.116 C 
ENDROOT
BRANCH   1   2
ATOM      2  N   UNL     1       4.203   4.583  -5.416  1.00  0.00    -0.356 N 
ATOM      3  C   UNL     1       4.300   5.777  -4.772  1.00  0.00     0.220 C 
ATOM      4  O   UNL     1       4.256   6.812  -5.438  1.00  0.00    -0.275 OA
ATOM      5  H   UNL     1       4.178   4.641  -6.398  1.00  0.00     0.163 HD
BRANCH   3   6
ATOM      6  C   UNL     1       4.436   5.830  -3.265  1.00  0.00     0.102 C 
BRANCH   6   7
ATOM      7  C   UNL     1       3.092   6.074  -2.583  1.00  0.00     0.031 C 
BRANCH   7   8
ATOM      8  C   UNL     1       2.223   4.829  -2.434  1.00  0.00     0.118 C 
BRANCH   8   9
ATOM      9  N   UNL     1       2.718   3.935  -1.405  1.00  0.00    -0.338 N 
ATOM     10  C   UNL     1       2.204   3.032  -0.553  1.00  0.00     0.317 C 
ATOM     11  O   UNL     1       3.049   2.444   0.131  1.00  0.00    -0.249 OA
ATOM     12  H   UNL     1       3.695   4.010  -1.304  1.00  0.00     0.165 HD
BRANCH  10  13
ATOM     13  N   UNL     1       0.868   2.768  -0.434  1.00  0.00    -0.322 N 
BRANCH  13  14
ATOM     14  C   UNL     1       0.498   1.692   0.502  1.00  0.00     0.118 C 
ATOM     15  C   UNL     1       0.688   0.307  -0.104  1.00  0.00     0.027 C 
ENDBRANCH  13  14
BRANCH  13  16
ATOM     16  C   UNL     1      -0.243   3.360  -1.188  1.00  0.00     0.155 C 
BRANCH  16  17
ATOM     17  C   UNL     1      -0.905   4.611  -0.529  1.00  0.00     0.077 C 
ATOM     18  C   UNL     1       0.037   5.712  -0.022  1.00  0.00     0.043 C 
ATOM     19  C   UNL     1      -1.897   5.216  -1.530  1.00  0.00     0.043 C 
BRANCH  17  20
ATOM     20  O   UNL     1      -1.673   4.185   0.607  1.00  0.00    -0.389 OA
ATOM     21  H   UNL     1      -1.082   3.794   1.269  1.00  0.00     0.211 HD
ENDBRANCH  17  20
ENDBRANCH  16  17
ENDBRANCH  13  16
ENDBRANCH  10  13
ENDBRANCH   8   9
ENDBRANCH   7   8
ENDBRANCH   6   7
ENDBRANCH   3   6
ENDBRANCH   1   2
BRANCH   1  22
ATOM     22  C   UNL     1       2.786   2.591  -5.230  1.00  0.00     0.021 C 
BRANCH  22  23
ATOM     23  C   UNL     1       2.815   1.768  -6.517  1.00  0.00     0.002 C 
BRANCH  23  24
ATOM     24  C   UNL     1       3.671   0.500  -6.438  1.00  0.00     0.002 C 
BRANCH  24  25
ATOM     25  C   UNL     1       3.310  -0.468  -5.304  1.00  0.00     0.021 C 
BRANCH  25  26
ATOM     26  C   UNL     1       1.847  -0.907  -5.275  1.00  0.00     0.116 C 
BRANCH  26  27
ATOM     27  N   UNL     1       1.450  -1.509  -6.536  1.00  0.00    -0.352 N 
ATOM     28  C   UNL     1       1.124  -2.805  -6.822  1.00  0.00     0.251 C 
ATOM     29  H   UNL     1       1.410  -0.890  -7.300  1.00  0.00     0.163 HD
ATOM     30  O   UNL     1       1.136  -3.178  -8.000  1.00  0.00    -0.269 OA
BRANCH  28  31
ATOM     31  C   UNL     1       0.748  -3.751  -5.750  1.00  0.00     0.039 A 
ATOM     32  C   UNL     1       1.141  -5.088  -5.863  1.00  0.00     0.014 A 
ATOM     33  C   UNL     1      -0.066  -3.351  -4.685  1.00  0.00     0.014 A 
ATOM     34  C   UNL     1       0.725  -6.018  -4.909  1.00  0.00     0.010 A 
ATOM     35  C   UNL     1      -0.424  -4.266  -3.697  1.00  0.00     0.010 A 
ATOM     36  C   UNL     1      -0.060  -5.615  -3.817  1.00  0.00    -0.014 A 
BRANCH  36  37
ATOM     37  C   UNL     1      -0.571  -6.613  -2.843  1.00  0.00     0.031 A 
ATOM     38  C   UNL     1      -2.048  -6.902  -2.775  1.00  0.00     0.074 A 
ATOM     39  C   UNL     1       0.284  -7.239  -2.014  1.00  0.00     0.049 A 
ATOM     40  N   UNL     1      -2.698  -7.724  -1.991  1.00  0.00    -0.248 NA
ATOM     41  C   UNL     1      -2.910  -6.142  -3.692  1.00  0.00     0.031 C 
ATOM     42  C   UNL     1       1.729  -7.007  -1.960  1.00  0.00     0.029 A 
ATOM     43  N   UNL     1       0.066  -8.197  -1.058  1.00  0.00    -0.354 N 
ATOM     44  C   UNL     1      -4.044  -7.569  -2.310  1.00  0.00     0.074 A 
ATOM     45  C   UNL     1      -4.118  -6.527  -3.311  1.00  0.00     0.031 C 
ATOM     46  C   UNL     1       2.270  -7.822  -1.039  1.00  0.00     0.029 A 
ATOM     47  C   UNL     1       1.211  -8.612  -0.419  1.00  0.00     0.049 A 
ATOM     48  H   UNL     1      -0.827  -8.556  -0.849  1.00  0.00     0.167 HD
ATOM     49  C   UNL     1      -5.116  -8.251  -1.832  1.00  0.00     0.034 A 
ATOM     50  C   UNL     1       1.384  -9.530   0.551  1.00  0.00     0.034 A 
ATOM     51  C   UNL     1      -5.019  -9.299  -0.845  1.00  0.00     0.049 A 
ATOM     52  C   UNL     1       0.184 -10.296   1.048  1.00  0.00     0.074 A 
ATOM     53  C   UNL     1      -6.029 -10.079  -0.307  1.00  0.00     0.029 A 
ATOM     54  N   UNL     1      -3.836  -9.718  -0.247  1.00  0.00    -0.354 N 
ATOM     55  N   UNL     1      -1.078 -10.169   0.706  1.00  0.00    -0.248 NA
ATOM     56  C   UNL     1       0.438 -11.347   2.041  1.00  0.00     0.031 C 
ATOM     57  C   UNL     1      -5.464 -10.932   0.649  1.00  0.00     0.029 A 
ATOM     58  C   UNL     1      -4.093 -10.735   0.660  1.00  0.00     0.049 A 
ATOM     59  H   UNL     1      -2.945  -9.347  -0.440  1.00  0.00     0.167 HD
ATOM     60  C   UNL     1      -1.763 -11.151   1.416  1.00  0.00     0.074 A 
ATOM     61  C   UNL     1      -0.770 -11.869   2.190  1.00  0.00     0.031 C 
ATOM     62  C   UNL     1      -3.090 -11.438   1.426  1.00  0.00     0.034 A 
BRANCH  49  63
ATOM     63  C   UNL     1      -6.477  -7.857  -2.359  1.00  0.00     0.023 A 
ATOM     64  C   UNL     1      -6.806  -7.982  -3.721  1.00  0.00     0.031 A 
ATOM     65  C   UNL     1      -7.444  -7.306  -1.500  1.00  0.00     0.131 A 
ATOM     66  C   UNL     1      -8.028  -7.483  -4.198  1.00  0.00     0.055 A 
ATOM     67  C   UNL     1      -8.694  -6.891  -1.967  1.00  0.00     0.041 A 
ATOM     68  F   UNL     1      -7.185  -7.142  -0.194  1.00  0.00    -0.206 F 
ATOM     69  C   UNL     1      -8.985  -6.962  -3.326  1.00  0.00     0.022 A 
BRANCH  66  70
ATOM     70  S   UNL     1      -8.282  -7.382  -5.991  1.00  0.00     0.124 S 
ATOM     71  O   UNL     1      -7.184  -6.506  -6.394  1.00  0.00    -0.237 OA
ATOM     72  O   UNL     1      -8.173  -8.776  -6.405  1.00  0.00    -0.237 OA
ATOM     73  O   UNL     1      -9.614  -6.795  -6.117  1.00  0.00    -0.744 OA
ENDBRANCH  66  70
ENDBRANCH  49  63
BRANCH  50  74
ATOM     74  C   UNL     1       2.742  -9.797   1.103  1.00  0.00     0.023 A 
ATOM     75  C   UNL     1       3.372 -11.037   0.907  1.00  0.00     0.031 A 
ATOM     76  C   UNL     1       3.415  -8.828   1.866  1.00  0.00     0.131 A 
ATOM     77  C   UNL     1       4.613 -11.294   1.509  1.00  0.00     0.055 A 
ATOM     78  C   UNL     1       4.673  -9.071   2.423  1.00  0.00     0.041 A 
ATOM     79  F   UNL     1       2.862  -7.623   2.074  1.00  0.00    -0.206 F 
ATOM     80  C   UNL     1       5.273 -10.316   2.256  1.00  0.00     0.022 A 
BRANCH  77  81
ATOM     81  S   UNL     1       5.319 -12.958   1.365  1.00  0.00     0.124 S 
ATOM     82  O   UNL     1       4.261 -13.781   1.939  1.00  0.00    -0.237 OA
ATOM     83  O   UNL     1       5.517 -13.079  -0.075  1.00  0.00    -0.237 OA
ATOM     84  O   UNL     1       6.546 -12.877   2.156  1.00  0.00    -0.744 OA
ENDBRANCH  77  81
ENDBRANCH  50  74
BRANCH  62  85
ATOM     85  C   UNL     1      -3.525 -12.617   2.262  1.00  0.00     0.023 A 
ATOM     86  C   UNL     1      -3.420 -12.612   3.663  1.00  0.00     0.031 A 
ATOM     87  C   UNL     1      -4.017 -13.777   1.639  1.00  0.00     0.131 A 
ATOM     88  C   UNL     1      -3.735 -13.769   4.391  1.00  0.00     0.055 A 
ATOM     89  C   UNL     1      -4.388 -14.904   2.373  1.00  0.00     0.041 A 
ATOM     90  F   UNL     1      -4.138 -13.837   0.303  1.00  0.00    -0.206 F 
ATOM     91  C   UNL     1      -4.231 -14.910   3.756  1.00  0.00     0.022 A 
BRANCH  88  92
ATOM     92  S   UNL     1      -3.376 -13.802   6.169  1.00  0.00     0.124 S 
ATOM     93  O   UNL     1      -1.957 -13.459   6.200  1.00  0.00    -0.237 OA
ATOM     94  O   UNL     1      -4.288 -12.789   6.689  1.00  0.00    -0.237 OA
ATOM     95  O   UNL     1      -3.689 -15.176   6.557  1.00  0.00    -0.744 OA
ENDBRANCH  88  92
ENDBRANCH  62  85
ENDBRANCH  36  37
ENDBRANCH  28  31
ENDBRANCH  26  27
ENDBRANCH  25  26
ENDBRANCH  24  25
ENDBRANCH  23  24
ENDBRANCH  22  23
ENDBRANCH   1  22
TORSDOF 24
