REMARK SMILES CC(C)[C@H]([NH2+]Cc1ccc(N(C)C)cc1)C(=O)NCCCCCCNC(=O)c1ccc(-c2c3nc(c(-c4cc(S(=O)(=O)[O-])ccc4F)c4ccc([nH]4)c(-c4cc(S(=O)(=O)[O-])ccc4F)c4nc(c(-c5cc(S(=O)(=O)[O-])ccc5F)c5ccc2[nH]5)C=C4)C=C3)cc1
REMARK SMILES IDX 21 1 20 2 19 3 18 4 16 5 17 6 4 8 2 9 1 10 3 11 5 12 6 15
REMARK SMILES IDX 7 16 8 17 15 18 9 19 14 20 10 21 11 22 12 23 13 24 22 25
REMARK SMILES IDX 23 26 24 27 25 28 26 29 27 31 28 32 29 33 90 34 30 35 89 36
REMARK SMILES IDX 31 37 32 38 33 39 83 40 34 41 88 42 82 43 84 44 35 45 87 46
REMARK SMILES IDX 81 47 80 48 36 50 68 51 48 52 67 53 49 54 52 55 66 56 85 57
REMARK SMILES IDX 50 58 51 59 65 61 86 62 53 63 37 64 38 65 46 66 39 67 45 68
REMARK SMILES IDX 47 69 44 70 40 71 41 72 42 73 43 74 69 75 70 76 78 77 71 78
REMARK SMILES IDX 77 79 79 80 76 81 72 82 73 83 74 84 75 85 54 86 55 87 63 88
REMARK SMILES IDX 56 89 62 90 64 91 61 92 57 93 58 94 59 95 60 96
REMARK H PARENT 18 7 5 13 5 14 25 30 84 49 52 60
REMARK Flexibility Score: inf
ROOT
ATOM      1  C   UNL     1       0.592   5.226   3.526  1.00  0.00     0.002 C 
ENDROOT
BRANCH   1   2
ATOM      2  C   UNL     1       1.037   3.868   2.969  1.00  0.00     0.021 C 
BRANCH   2   3
ATOM      3  C   UNL     1      -0.110   2.895   2.716  1.00  0.00     0.116 C 
BRANCH   3   4
ATOM      4  N   UNL     1      -0.934   3.341   1.611  1.00  0.00    -0.351 N 
ATOM      5  C   UNL     1      -1.446   2.638   0.561  1.00  0.00     0.278 C 
ATOM      6  O   UNL     1      -2.203   3.229  -0.212  1.00  0.00    -0.268 OA
ATOM      7  H   UNL     1      -1.160   4.299   1.620  1.00  0.00     0.163 HD
BRANCH   5   8
ATOM      8  C   UNL     1      -1.107   1.138   0.374  1.00  0.00     0.275 C 
BRANCH   8   9
ATOM      9  C   UNL     1      -1.808   0.216   1.424  1.00  0.00     0.051 C 
ATOM     10  C   UNL     1      -3.051   0.826   2.091  1.00  0.00     0.014 C 
ATOM     11  C   UNL     1      -2.237  -1.104   0.764  1.00  0.00     0.014 C 
ENDBRANCH   8   9
BRANCH   8  12
ATOM     12  N   UNL     1       0.354   1.001   0.111  1.00  0.00    -0.332 N 
ATOM     13  H   UNL     1       0.809   1.831   0.489  1.00  0.00     0.347 HD
ATOM     14  H   UNL     1       0.421   0.881  -0.900  1.00  0.00     0.347 HD
BRANCH  12  15
ATOM     15  C   UNL     1       1.041  -0.158   0.662  1.00  0.00     0.297 C 
BRANCH  15  16
ATOM     16  C   UNL     1       2.546  -0.005   0.625  1.00  0.00     0.006 A 
ATOM     17  C   UNL     1       3.329  -0.700  -0.296  1.00  0.00     0.012 A 
ATOM     18  C   UNL     1       3.204   0.798   1.559  1.00  0.00     0.012 A 
ATOM     19  C   UNL     1       4.733  -0.621  -0.252  1.00  0.00     0.026 A 
ATOM     20  C   UNL     1       4.604   0.869   1.592  1.00  0.00     0.026 A 
ATOM     21  C   UNL     1       5.420   0.147   0.704  1.00  0.00     0.036 A 
BRANCH  21  22
ATOM     22  N   UNL     1       6.805   0.177   0.799  1.00  0.00    -0.378 N 
ATOM     23  C   UNL     1       7.688  -0.582  -0.078  1.00  0.00     0.143 C 
ATOM     24  C   UNL     1       7.468   1.084   1.734  1.00  0.00     0.143 C 
ENDBRANCH  21  22
ENDBRANCH  15  16
ENDBRANCH  12  15
ENDBRANCH   8  12
ENDBRANCH   5   8
ENDBRANCH   3   4
ENDBRANCH   2   3
ENDBRANCH   1   2
BRANCH   1  25
ATOM     25  C   UNL     1      -0.215   5.157   4.826  1.00  0.00     0.002 C 
BRANCH  25  26
ATOM     26  C   UNL     1       0.453   4.385   5.968  1.00  0.00     0.021 C 
BRANCH  26  27
ATOM     27  C   UNL     1       1.847   4.876   6.347  1.00  0.00     0.116 C 
BRANCH  27  28
ATOM     28  N   UNL     1       1.844   6.271   6.751  1.00  0.00    -0.352 N 
ATOM     29  C   UNL     1       2.387   6.859   7.862  1.00  0.00     0.251 C 
ATOM     30  H   UNL     1       1.383   6.885   6.135  1.00  0.00     0.163 HD
ATOM     31  O   UNL     1       2.105   8.032   8.120  1.00  0.00    -0.269 OA
BRANCH  29  32
ATOM     32  C   UNL     1       3.281   6.095   8.758  1.00  0.00     0.039 A 
ATOM     33  C   UNL     1       3.136   6.253  10.139  1.00  0.00     0.014 A 
ATOM     34  C   UNL     1       4.272   5.248   8.252  1.00  0.00     0.014 A 
ATOM     35  C   UNL     1       3.950   5.526  11.009  1.00  0.00     0.010 A 
ATOM     36  C   UNL     1       5.036   4.470   9.122  1.00  0.00     0.010 A 
ATOM     37  C   UNL     1       4.887   4.605  10.510  1.00  0.00    -0.014 A 
BRANCH  37  38
ATOM     38  C   UNL     1       5.697   3.777  11.441  1.00  0.00     0.031 A 
ATOM     39  C   UNL     1       7.192   3.941  11.509  1.00  0.00     0.074 A 
ATOM     40  C   UNL     1       5.081   2.856  12.208  1.00  0.00     0.049 A 
ATOM     41  N   UNL     1       8.058   3.316  12.267  1.00  0.00    -0.248 NA
ATOM     42  C   UNL     1       7.795   4.914  10.586  1.00  0.00     0.031 C 
ATOM     43  C   UNL     1       3.644   2.569  12.188  1.00  0.00     0.029 A 
ATOM     44  N   UNL     1       5.576   1.994  13.153  1.00  0.00    -0.354 N 
ATOM     45  C   UNL     1       9.306   3.816  11.911  1.00  0.00     0.074 A 
ATOM     46  C   UNL     1       9.087   4.748  10.825  1.00  0.00     0.031 C 
ATOM     47  C   UNL     1       3.371   1.625  13.102  1.00  0.00     0.029 A 
ATOM     48  C   UNL     1       4.613   1.210  13.746  1.00  0.00     0.049 A 
ATOM     49  H   UNL     1       6.531   1.941  13.385  1.00  0.00     0.167 HD
ATOM     50  C   UNL     1      10.518   3.540  12.455  1.00  0.00     0.034 A 
ATOM     51  C   UNL     1       4.717   0.264  14.699  1.00  0.00     0.034 A 
ATOM     52  C   UNL     1      10.716   2.611  13.544  1.00  0.00     0.049 A 
ATOM     53  C   UNL     1       6.074  -0.024  15.288  1.00  0.00     0.074 A 
ATOM     54  C   UNL     1      11.889   2.301  14.210  1.00  0.00     0.029 A 
ATOM     55  N   UNL     1       9.718   1.834  14.120  1.00  0.00    -0.354 N 
ATOM     56  N   UNL     1       7.237   0.509  14.987  1.00  0.00    -0.248 NA
ATOM     57  C   UNL     1       6.129  -1.028  16.356  1.00  0.00     0.031 C 
ATOM     58  C   UNL     1      11.614   1.288  15.137  1.00  0.00     0.029 A 
ATOM     59  C   UNL     1      10.255   1.022  15.109  1.00  0.00     0.049 A 
ATOM     60  H   UNL     1       8.768   1.857  13.864  1.00  0.00     0.167 HD
ATOM     61  C   UNL     1       8.157  -0.081  15.849  1.00  0.00     0.074 A 
ATOM     62  C   UNL     1       7.407  -0.984  16.699  1.00  0.00     0.031 C 
ATOM     63  C   UNL     1       9.500   0.105  15.932  1.00  0.00     0.034 A 
BRANCH  50  64
ATOM     64  C   UNL     1      11.724   4.233  11.862  1.00  0.00     0.023 A 
ATOM     65  C   UNL     1      11.867   5.632  11.898  1.00  0.00     0.031 A 
ATOM     66  C   UNL     1      12.738   3.486  11.236  1.00  0.00     0.131 A 
ATOM     67  C   UNL     1      12.957   6.243  11.258  1.00  0.00     0.055 A 
ATOM     68  C   UNL     1      13.862   4.095  10.673  1.00  0.00     0.041 A 
ATOM     69  F   UNL     1      12.649   2.150  11.150  1.00  0.00    -0.206 F 
ATOM     70  C   UNL     1      13.969   5.483  10.668  1.00  0.00     0.022 A 
BRANCH  67  71
ATOM     71  S   UNL     1      12.960   8.049  11.084  1.00  0.00     0.124 S 
ATOM     72  O   UNL     1      11.720   8.275  10.344  1.00  0.00    -0.237 OA
ATOM     73  O   UNL     1      12.967   8.499  12.471  1.00  0.00    -0.237 OA
ATOM     74  O   UNL     1      14.184   8.319  10.333  1.00  0.00    -0.744 OA
ENDBRANCH  67  71
ENDBRANCH  50  64
BRANCH  51  75
ATOM     75  C   UNL     1       3.511  -0.483  15.159  1.00  0.00     0.023 A 
ATOM     76  C   UNL     1       3.051  -0.379  16.481  1.00  0.00     0.031 A 
ATOM     77  C   UNL     1       2.825  -1.350  14.289  1.00  0.00     0.131 A 
ATOM     78  C   UNL     1       1.972  -1.166  16.911  1.00  0.00     0.055 A 
ATOM     79  C   UNL     1       1.716  -2.089  14.706  1.00  0.00     0.041 A 
ATOM     80  F   UNL     1       3.217  -1.482  13.012  1.00  0.00    -0.206 F 
ATOM     81  C   UNL     1       1.293  -2.010  16.029  1.00  0.00     0.022 A 
BRANCH  78  82
ATOM     82  S   UNL     1       1.522  -1.139  18.668  1.00  0.00     0.124 S 
ATOM     83  O   UNL     1       2.773  -1.541  19.302  1.00  0.00    -0.237 OA
ATOM     84  O   UNL     1       1.125   0.252  18.856  1.00  0.00    -0.237 OA
ATOM     85  O   UNL     1       0.436  -2.112  18.756  1.00  0.00    -0.744 OA
ENDBRANCH  78  82
ENDBRANCH  51  75
BRANCH  63  86
ATOM     86  C   UNL     1      10.228  -0.675  17.002  1.00  0.00     0.023 A 
ATOM     87  C   UNL     1      10.287  -2.080  16.979  1.00  0.00     0.031 A 
ATOM     88  C   UNL     1      10.828  -0.008  18.085  1.00  0.00     0.131 A 
ATOM     89  C   UNL     1      10.859  -2.775  18.055  1.00  0.00     0.055 A 
ATOM     90  C   UNL     1      11.460  -0.702  19.117  1.00  0.00     0.041 A 
ATOM     91  F   UNL     1      10.801   1.332  18.163  1.00  0.00    -0.206 F 
ATOM     92  C   UNL     1      11.461  -2.094  19.116  1.00  0.00     0.022 A 
BRANCH  89  93
ATOM     93  S   UNL     1      10.688  -4.580  18.113  1.00  0.00     0.124 S 
ATOM     94  O   UNL     1       9.240  -4.749  18.032  1.00  0.00    -0.237 OA
ATOM     95  O   UNL     1      11.445  -5.002  16.939  1.00  0.00    -0.237 OA
ATOM     96  O   UNL     1      11.283  -4.940  19.398  1.00  0.00    -0.744 OA
ENDBRANCH  89  93
ENDBRANCH  63  86
ENDBRANCH  37  38
ENDBRANCH  29  32
ENDBRANCH  27  28
ENDBRANCH  26  27
ENDBRANCH  25  26
ENDBRANCH   1  25
TORSDOF 21
