REMARK SMILES O=C(Cc1ccccc1C(=O)NCCCCCCNC(=O)c1ccc(-c2c3nc(c(-c4cc(S(=O)(=O)[O-])ccc4F)c4ccc([nH]4)c(-c4cc(S(=O)(=O)[O-])ccc4F)c4nc(c(-c5cc(S(=O)(=O)[O-])ccc5F)c5ccc2[nH]5)C=C4)C=C3)cc1)Nc1cccc(OC[C@@H]2CCCO2)c1
REMARK SMILES IDX 14 1 13 2 12 3 10 4 11 5 9 7 4 8 5 9 6 10 8 11 7 12 3 13
REMARK SMILES IDX 2 14 1 15 85 16 86 18 87 19 98 20 88 21 90 22 89 23 91 24
REMARK SMILES IDX 92 25 93 26 94 27 97 28 95 29 96 30 15 31 16 32 17 33 18 34
REMARK SMILES IDX 19 35 20 36 21 38 22 39 23 40 84 41 24 42 83 43 25 44 26 45
REMARK SMILES IDX 27 46 77 47 28 48 82 49 76 50 78 51 29 52 81 53 75 54 74 55
REMARK SMILES IDX 30 57 62 58 42 59 61 60 43 61 46 62 60 63 79 64 44 65 45 66
REMARK SMILES IDX 59 68 80 69 47 70 31 71 32 72 40 73 33 74 39 75 41 76 38 77
REMARK SMILES IDX 34 78 35 79 36 80 37 81 63 82 64 83 72 84 65 85 71 86 73 87
REMARK SMILES IDX 70 88 66 89 67 90 68 91 69 92 48 93 49 94 57 95 50 96 56 97
REMARK SMILES IDX 58 98 55 99 51 100 52 101 53 102 54 103
REMARK H PARENT 12 6 85 17 19 37 78 56 46 67
REMARK Flexibility Score: inf
ROOT
ATOM      1  C   UNL     1       1.501  -1.853  -1.642  1.00  0.00     0.021 C 
ENDROOT
BRANCH   1   2
ATOM      2  C   UNL     1       1.583  -0.591  -2.518  1.00  0.00     0.116 C 
BRANCH   2   3
ATOM      3  N   UNL     1       1.322   0.655  -1.810  1.00  0.00    -0.352 N 
ATOM      4  C   UNL     1       2.131   1.690  -1.433  1.00  0.00     0.251 C 
ATOM      5  O   UNL     1       1.649   2.688  -0.900  1.00  0.00    -0.269 OA
ATOM      6  H   UNL     1       0.379   0.775  -1.554  1.00  0.00     0.163 HD
BRANCH   4   7
ATOM      7  C   UNL     1       3.566   1.699  -1.769  1.00  0.00     0.043 A 
ATOM      8  C   UNL     1       4.551   0.883  -1.185  1.00  0.00    -0.026 A 
ATOM      9  C   UNL     1       5.855   0.963  -1.725  1.00  0.00     0.005 A 
ATOM     10  C   UNL     1       6.196   1.902  -2.702  1.00  0.00     0.000 A 
ATOM     11  C   UNL     1       3.927   2.681  -2.714  1.00  0.00     0.014 A 
ATOM     12  C   UNL     1       5.239   2.791  -3.168  1.00  0.00     0.001 A 
BRANCH   8  13
ATOM     13  C   UNL     1       4.369  -0.102  -0.050  1.00  0.00     0.136 C 
BRANCH  13  14
ATOM     14  C   UNL     1       3.284   0.156   0.982  1.00  0.00     0.228 C 
ATOM     15  O   UNL     1       2.158  -0.306   0.841  1.00  0.00    -0.274 OA
ATOM     16  N   UNL     1       3.683   0.902   2.071  1.00  0.00    -0.326 N 
ATOM     17  H   UNL     1       4.596   1.271   2.058  1.00  0.00     0.169 HD
BRANCH  16  18
ATOM     18  C   UNL     1       2.886   1.181   3.209  1.00  0.00     0.044 A 
ATOM     19  C   UNL     1       3.300   2.233   4.028  1.00  0.00     0.026 A 
ATOM     20  C   UNL     1       1.720   0.469   3.545  1.00  0.00     0.072 A 
ATOM     21  C   UNL     1       2.527   2.615   5.124  1.00  0.00     0.006 A 
ATOM     22  C   UNL     1       0.952   0.830   4.657  1.00  0.00     0.121 A 
ATOM     23  C   UNL     1       1.358   1.918   5.430  1.00  0.00     0.046 A 
BRANCH  22  24
ATOM     24  O   UNL     1      -0.185   0.215   5.113  1.00  0.00    -0.491 OA
BRANCH  24  25
ATOM     25  C   UNL     1      -0.838  -0.737   4.271  1.00  0.00     0.261 C 
BRANCH  25  26
ATOM     26  C   UNL     1      -1.899  -0.106   3.349  1.00  0.00     0.156 C 
ATOM     27  C   UNL     1      -1.962  -0.783   1.984  1.00  0.00     0.038 C 
ATOM     28  O   UNL     1      -1.679   1.297   3.106  1.00  0.00    -0.375 OA
ATOM     29  C   UNL     1      -2.310   0.356   1.057  1.00  0.00     0.031 C 
ATOM     30  C   UNL     1      -1.570   1.507   1.696  1.00  0.00     0.161 C 
ENDBRANCH  25  26
ENDBRANCH  24  25
ENDBRANCH  22  24
ENDBRANCH  16  18
ENDBRANCH  13  14
ENDBRANCH   8  13
ENDBRANCH   4   7
ENDBRANCH   2   3
ENDBRANCH   1   2
BRANCH   1  31
ATOM     31  C   UNL     1       0.317  -1.901  -0.666  1.00  0.00     0.002 C 
BRANCH  31  32
ATOM     32  C   UNL     1      -0.811  -2.849  -1.059  1.00  0.00     0.002 C 
BRANCH  32  33
ATOM     33  C   UNL     1      -0.483  -4.324  -0.832  1.00  0.00     0.021 C 
BRANCH  33  34
ATOM     34  C   UNL     1      -0.249  -4.721   0.625  1.00  0.00     0.116 C 
BRANCH  34  35
ATOM     35  N   UNL     1      -1.458  -4.653   1.439  1.00  0.00    -0.352 N 
ATOM     36  C   UNL     1      -2.057  -5.654   2.170  1.00  0.00     0.251 C 
ATOM     37  H   UNL     1      -1.904  -3.776   1.469  1.00  0.00     0.163 HD
ATOM     38  O   UNL     1      -3.138  -5.469   2.719  1.00  0.00    -0.269 OA
BRANCH  36  39
ATOM     39  C   UNL     1      -1.389  -6.969   2.236  1.00  0.00     0.039 A 
ATOM     40  C   UNL     1      -2.059  -8.096   1.758  1.00  0.00     0.014 A 
ATOM     41  C   UNL     1      -0.058  -7.053   2.656  1.00  0.00     0.014 A 
ATOM     42  C   UNL     1      -1.359  -9.295   1.609  1.00  0.00     0.010 A 
ATOM     43  C   UNL     1       0.654  -8.227   2.432  1.00  0.00     0.010 A 
ATOM     44  C   UNL     1       0.015  -9.356   1.894  1.00  0.00    -0.014 A 
BRANCH  44  45
ATOM     45  C   UNL     1       0.805 -10.587   1.621  1.00  0.00     0.031 A 
ATOM     46  C   UNL     1       1.466 -11.319   2.756  1.00  0.00     0.074 A 
ATOM     47  C   UNL     1       0.984 -11.000   0.350  1.00  0.00     0.049 A 
ATOM     48  N   UNL     1       2.252 -12.364   2.722  1.00  0.00    -0.248 NA
ATOM     49  C   UNL     1       1.242 -10.778   4.105  1.00  0.00     0.031 C 
ATOM     50  C   UNL     1       0.440 -10.340  -0.840  1.00  0.00     0.029 A 
ATOM     51  N   UNL     1       1.680 -12.070  -0.157  1.00  0.00    -0.354 N 
ATOM     52  C   UNL     1       2.627 -12.598   4.041  1.00  0.00     0.074 A 
ATOM     53  C   UNL     1       2.040 -11.540   4.836  1.00  0.00     0.031 C 
ATOM     54  C   UNL     1       0.797 -11.036  -1.932  1.00  0.00     0.029 A 
ATOM     55  C   UNL     1       1.628 -12.166  -1.530  1.00  0.00     0.049 A 
ATOM     56  H   UNL     1       2.170 -12.709   0.408  1.00  0.00     0.167 HD
ATOM     57  C   UNL     1       3.368 -13.616   4.546  1.00  0.00     0.034 A 
ATOM     58  C   UNL     1       2.191 -13.059  -2.368  1.00  0.00     0.034 A 
ATOM     59  C   UNL     1       3.933 -14.669   3.739  1.00  0.00     0.049 A 
ATOM     60  C   UNL     1       3.018 -14.178  -1.786  1.00  0.00     0.074 A 
ATOM     61  C   UNL     1       4.650 -15.780   4.148  1.00  0.00     0.029 A 
ATOM     62  N   UNL     1       3.849 -14.741   2.353  1.00  0.00    -0.354 N 
ATOM     63  N   UNL     1       3.314 -14.419  -0.529  1.00  0.00    -0.248 NA
ATOM     64  C   UNL     1       3.575 -15.152  -2.734  1.00  0.00     0.031 C 
ATOM     65  C   UNL     1       5.053 -16.486   3.009  1.00  0.00     0.029 A 
ATOM     66  C   UNL     1       4.526 -15.859   1.891  1.00  0.00     0.049 A 
ATOM     67  H   UNL     1       3.378 -14.091   1.783  1.00  0.00     0.167 HD
ATOM     68  C   UNL     1       4.068 -15.590  -0.535  1.00  0.00     0.074 A 
ATOM     69  C   UNL     1       4.167 -16.012  -1.918  1.00  0.00     0.031 C 
ATOM     70  C   UNL     1       4.625 -16.259   0.507  1.00  0.00     0.034 A 
BRANCH  57  71
ATOM     71  C   UNL     1       3.620 -13.613   6.035  1.00  0.00     0.023 A 
ATOM     72  C   UNL     1       2.564 -13.697   6.961  1.00  0.00     0.031 A 
ATOM     73  C   UNL     1       4.925 -13.476   6.540  1.00  0.00     0.131 A 
ATOM     74  C   UNL     1       2.819 -13.551   8.332  1.00  0.00     0.055 A 
ATOM     75  C   UNL     1       5.181 -13.422   7.912  1.00  0.00     0.041 A 
ATOM     76  F   UNL     1       5.973 -13.371   5.708  1.00  0.00    -0.206 F 
ATOM     77  C   UNL     1       4.123 -13.440   8.817  1.00  0.00     0.022 A 
BRANCH  74  78
ATOM     78  S   UNL     1       1.410 -13.345   9.455  1.00  0.00     0.124 S 
ATOM     79  O   UNL     1       0.770 -12.151   8.907  1.00  0.00    -0.237 OA
ATOM     80  O   UNL     1       0.682 -14.596   9.281  1.00  0.00    -0.237 OA
ATOM     81  O   UNL     1       2.037 -13.162  10.762  1.00  0.00    -0.744 OA
ENDBRANCH  74  78
ENDBRANCH  57  71
BRANCH  58  82
ATOM     82  C   UNL     1       2.000 -12.941  -3.843  1.00  0.00     0.023 A 
ATOM     83  C   UNL     1       1.300 -13.923  -4.562  1.00  0.00     0.031 A 
ATOM     84  C   UNL     1       2.549 -11.864  -4.562  1.00  0.00     0.131 A 
ATOM     85  C   UNL     1       1.205 -13.834  -5.960  1.00  0.00     0.055 A 
ATOM     86  C   UNL     1       2.409 -11.753  -5.947  1.00  0.00     0.041 A 
ATOM     87  F   UNL     1       3.222 -10.894  -3.923  1.00  0.00    -0.206 F 
ATOM     88  C   UNL     1       1.744 -12.749  -6.656  1.00  0.00     0.022 A 
BRANCH  85  89
ATOM     89  S   UNL     1       0.432 -15.201  -6.869  1.00  0.00     0.124 S 
ATOM     90  O   UNL     1       1.265 -16.330  -6.472  1.00  0.00    -0.237 OA
ATOM     91  O   UNL     1      -0.927 -15.186  -6.338  1.00  0.00    -0.237 OA
ATOM     92  O   UNL     1       0.557 -14.793  -8.267  1.00  0.00    -0.744 OA
ENDBRANCH  85  89
ENDBRANCH  58  82
BRANCH  70  93
ATOM     93  C   UNL     1       5.355 -17.539   0.186  1.00  0.00     0.023 A 
ATOM     94  C   UNL     1       6.553 -17.544  -0.550  1.00  0.00     0.031 A 
ATOM     95  C   UNL     1       4.837 -18.774   0.616  1.00  0.00     0.131 A 
ATOM     96  C   UNL     1       7.165 -18.763  -0.880  1.00  0.00     0.055 A 
ATOM     97  C   UNL     1       5.482 -19.979   0.336  1.00  0.00     0.041 A 
ATOM     98  F   UNL     1       3.695 -18.828   1.320  1.00  0.00    -0.206 F 
ATOM     99  C   UNL     1       6.646 -19.979  -0.427  1.00  0.00     0.022 A 
BRANCH  96 100
ATOM    100  S   UNL     1       8.603 -18.744  -1.985  1.00  0.00     0.124 S 
ATOM    101  O   UNL     1       8.060 -18.102  -3.178  1.00  0.00    -0.237 OA
ATOM    102  O   UNL     1       9.571 -17.960  -1.225  1.00  0.00    -0.237 OA
ATOM    103  O   UNL     1       8.936 -20.159  -2.139  1.00  0.00    -0.744 OA
ENDBRANCH  96 100
ENDBRANCH  70  93
ENDBRANCH  44  45
ENDBRANCH  36  39
ENDBRANCH  34  35
ENDBRANCH  33  34
ENDBRANCH  32  33
ENDBRANCH  31  32
ENDBRANCH   1  31
TORSDOF 22
