REMARK SMILES Cc1c([C@H](C)NC(=O)c2cnn(CC(=O)NCCCCCCNC(=O)c3ccc(-c4c5nc(c(-c6cc(S(=O)(=O)[O-])ccc6F)c6ccc([nH]6)c(-c6cc(S(=O)(=O)[O-])ccc6F)c6nc(c(-c7cc(S(=O)(=O)[O-])ccc7F)c7ccc4[nH]7)C=C6)C=C5)cc3)c2)cnn1C
REMARK SMILES IDX 19 1 18 2 17 3 16 4 14 5 15 6 13 8 12 9 9 10 10 11 89 12
REMARK SMILES IDX 11 13 7 14 6 15 8 17 4 18 5 19 3 20 1 21 2 22 92 23 90 24
REMARK SMILES IDX 91 25 93 26 20 27 21 28 22 29 23 30 24 31 25 33 26 34 27 35
REMARK SMILES IDX 88 36 28 37 87 38 29 39 30 40 31 41 81 42 32 43 86 44 80 45
REMARK SMILES IDX 82 46 33 47 85 48 79 49 78 50 34 52 66 53 46 54 65 55 47 56
REMARK SMILES IDX 50 57 64 58 83 59 48 60 49 61 63 63 84 64 51 65 35 66 36 67
REMARK SMILES IDX 44 68 37 69 43 70 45 71 42 72 38 73 39 74 40 75 41 76 67 77
REMARK SMILES IDX 68 78 76 79 69 80 75 81 77 82 74 83 70 84 71 85 72 86 73 87
REMARK SMILES IDX 52 88 53 89 61 90 54 91 60 92 62 93 59 94 55 95 56 96 57 97
REMARK SMILES IDX 58 98
REMARK H PARENT 16 7 6 16 23 32 82 51 50 62
REMARK Flexibility Score: inf
ROOT
ATOM      1  C   UNL     1      -5.183   0.200   1.179  1.00  0.00     0.002 C 
ENDROOT
BRANCH   1   2
ATOM      2  C   UNL     1      -4.512  -1.022   1.819  1.00  0.00     0.021 C 
BRANCH   2   3
ATOM      3  C   UNL     1      -5.289  -1.634   2.986  1.00  0.00     0.116 C 
BRANCH   3   4
ATOM      4  N   UNL     1      -6.524  -2.264   2.557  1.00  0.00    -0.354 N 
ATOM      5  C   UNL     1      -6.924  -3.570   2.638  1.00  0.00     0.241 C 
ATOM      6  O   UNL     1      -8.067  -3.838   2.251  1.00  0.00    -0.273 OA
ATOM      7  H   UNL     1      -7.177  -1.656   2.141  1.00  0.00     0.163 HD
BRANCH   5   8
ATOM      8  C   UNL     1      -6.066  -4.623   3.308  1.00  0.00     0.243 C 
BRANCH   8   9
ATOM      9  N   UNL     1      -4.762  -4.766   2.698  1.00  0.00    -0.262 N 
ATOM     10  C   UNL     1      -2.606  -4.510   2.330  1.00  0.00     0.077 A 
ATOM     11  C   UNL     1      -3.358  -4.708   1.146  1.00  0.00     0.149 A 
ATOM     12  C   UNL     1      -3.553  -4.677   3.325  1.00  0.00     0.123 A 
ATOM     13  N   UNL     1      -4.657  -4.900   1.372  1.00  0.00    -0.180 NA
BRANCH  10  14
ATOM     14  C   UNL     1      -1.198  -4.242   2.583  1.00  0.00     0.254 C 
ATOM     15  N   UNL     1      -0.445  -3.552   1.670  1.00  0.00    -0.345 N 
ATOM     16  H   UNL     1       0.521  -3.520   1.855  1.00  0.00     0.164 HD
ATOM     17  O   UNL     1      -0.662  -4.599   3.632  1.00  0.00    -0.269 OA
BRANCH  15  18
ATOM     18  C   UNL     1      -0.874  -2.866   0.474  1.00  0.00     0.113 C 
ATOM     19  C   UNL     1      -0.153  -1.524   0.339  1.00  0.00     0.036 C 
BRANCH  18  20
ATOM     20  C   UNL     1      -0.768  -3.759  -0.728  1.00  0.00     0.015 A 
ATOM     21  C   UNL     1      -0.517  -6.301   0.037  1.00  0.00     0.067 C 
ATOM     22  C   UNL     1      -0.647  -5.145  -0.889  1.00  0.00     0.040 A 
ATOM     23  N   UNL     1      -0.786  -5.370  -2.238  1.00  0.00    -0.273 N 
ATOM     24  C   UNL     1      -0.989  -3.292  -2.046  1.00  0.00     0.141 A 
ATOM     25  N   UNL     1      -1.163  -4.282  -2.911  1.00  0.00    -0.181 NA
ATOM     26  C   UNL     1      -0.681  -6.629  -2.940  1.00  0.00     0.174 C 
ENDBRANCH  18  20
ENDBRANCH  15  18
ENDBRANCH  10  14
ENDBRANCH   8   9
ENDBRANCH   5   8
ENDBRANCH   3   4
ENDBRANCH   2   3
ENDBRANCH   1   2
BRANCH   1  27
ATOM     27  C   UNL     1      -5.596   1.323   2.144  1.00  0.00     0.002 C 
BRANCH  27  28
ATOM     28  C   UNL     1      -4.499   1.866   3.071  1.00  0.00     0.021 C 
BRANCH  28  29
ATOM     29  C   UNL     1      -3.380   2.597   2.345  1.00  0.00     0.116 C 
BRANCH  29  30
ATOM     30  N   UNL     1      -3.827   3.849   1.736  1.00  0.00    -0.352 N 
ATOM     31  C   UNL     1      -3.091   4.741   0.969  1.00  0.00     0.251 C 
ATOM     32  H   UNL     1      -4.769   4.089   1.889  1.00  0.00     0.163 HD
ATOM     33  O   UNL     1      -3.437   5.902   0.868  1.00  0.00    -0.269 OA
BRANCH  31  34
ATOM     34  C   UNL     1      -1.883   4.238   0.279  1.00  0.00     0.039 A 
ATOM     35  C   UNL     1      -0.716   5.000   0.171  1.00  0.00     0.014 A 
ATOM     36  C   UNL     1      -1.938   2.954  -0.252  1.00  0.00     0.014 A 
ATOM     37  C   UNL     1       0.418   4.417  -0.400  1.00  0.00     0.010 A 
ATOM     38  C   UNL     1      -0.788   2.332  -0.657  1.00  0.00     0.010 A 
ATOM     39  C   UNL     1       0.381   3.069  -0.794  1.00  0.00    -0.014 A 
BRANCH  39  40
ATOM     40  C   UNL     1       1.573   2.352  -1.244  1.00  0.00     0.031 A 
ATOM     41  C   UNL     1       2.697   2.370  -0.276  1.00  0.00     0.074 A 
ATOM     42  C   UNL     1       1.583   1.553  -2.337  1.00  0.00     0.049 A 
ATOM     43  N   UNL     1       3.818   2.998  -0.390  1.00  0.00    -0.248 NA
ATOM     44  C   UNL     1       2.491   1.765   1.050  1.00  0.00     0.031 C 
ATOM     45  C   UNL     1       0.473   1.268  -3.247  1.00  0.00     0.029 A 
ATOM     46  N   UNL     1       2.580   0.765  -2.834  1.00  0.00    -0.354 N 
ATOM     47  C   UNL     1       4.565   2.662   0.734  1.00  0.00     0.074 A 
ATOM     48  C   UNL     1       3.626   2.101   1.667  1.00  0.00     0.031 C 
ATOM     49  C   UNL     1       0.813   0.265  -4.083  1.00  0.00     0.029 A 
ATOM     50  C   UNL     1       2.196  -0.121  -3.853  1.00  0.00     0.049 A 
ATOM     51  H   UNL     1       3.506   0.814  -2.501  1.00  0.00     0.167 HD
ATOM     52  C   UNL     1       5.927   2.650   0.688  1.00  0.00     0.034 A 
ATOM     53  C   UNL     1       2.957  -1.084  -4.464  1.00  0.00     0.034 A 
ATOM     54  C   UNL     1       6.404   3.360  -0.483  1.00  0.00     0.049 A 
ATOM     55  C   UNL     1       4.366  -0.661  -4.256  1.00  0.00     0.074 A 
ATOM     56  C   UNL     1       6.268   4.654  -0.953  1.00  0.00     0.029 A 
ATOM     57  N   UNL     1       6.790   2.617  -1.579  1.00  0.00    -0.354 N 
ATOM     58  N   UNL     1       4.865   0.398  -4.832  1.00  0.00    -0.248 NA
ATOM     59  C   UNL     1       5.052  -1.078  -3.039  1.00  0.00     0.031 C 
ATOM     60  C   UNL     1       6.064   4.515  -2.360  1.00  0.00     0.029 A 
ATOM     61  C   UNL     1       6.176   3.161  -2.683  1.00  0.00     0.049 A 
ATOM     62  H   UNL     1       7.393   1.839  -1.572  1.00  0.00     0.167 HD
ATOM     63  C   UNL     1       5.604   1.029  -3.843  1.00  0.00     0.074 A 
ATOM     64  C   UNL     1       5.779   0.020  -2.797  1.00  0.00     0.031 C 
ATOM     65  C   UNL     1       5.741   2.389  -3.829  1.00  0.00     0.034 A 
BRANCH  52  66
ATOM     66  C   UNL     1       6.816   1.694   1.462  1.00  0.00     0.023 A 
ATOM     67  C   UNL     1       8.201   1.773   1.213  1.00  0.00     0.031 A 
ATOM     68  C   UNL     1       6.395   0.557   2.187  1.00  0.00     0.131 A 
ATOM     69  C   UNL     1       9.062   0.715   1.552  1.00  0.00     0.055 A 
ATOM     70  C   UNL     1       7.267  -0.463   2.582  1.00  0.00     0.041 A 
ATOM     71  F   UNL     1       5.115   0.312   2.485  1.00  0.00    -0.206 F 
ATOM     72  C   UNL     1       8.604  -0.407   2.232  1.00  0.00     0.022 A 
BRANCH  69  73
ATOM     73  S   UNL     1      10.755   0.753   0.911  1.00  0.00     0.124 S 
ATOM     74  O   UNL     1      10.522   0.949  -0.516  1.00  0.00    -0.237 OA
ATOM     75  O   UNL     1      11.322   1.886   1.635  1.00  0.00    -0.237 OA
ATOM     76  O   UNL     1      11.286  -0.556   1.284  1.00  0.00    -0.744 OA
ENDBRANCH  69  73
ENDBRANCH  52  66
BRANCH  53  77
ATOM     77  C   UNL     1       2.579  -2.399  -5.090  1.00  0.00     0.023 A 
ATOM     78  C   UNL     1       3.495  -3.286  -5.726  1.00  0.00     0.031 A 
ATOM     79  C   UNL     1       1.294  -2.925  -4.884  1.00  0.00     0.131 A 
ATOM     80  C   UNL     1       3.128  -4.637  -6.000  1.00  0.00     0.055 A 
ATOM     81  C   UNL     1       0.958  -4.253  -5.146  1.00  0.00     0.041 A 
ATOM     82  F   UNL     1       0.307  -2.187  -4.371  1.00  0.00    -0.206 F 
ATOM     83  C   UNL     1       1.891  -5.139  -5.620  1.00  0.00     0.022 A 
BRANCH  80  84
ATOM     84  S   UNL     1       4.186  -5.789  -6.937  1.00  0.00     0.124 S 
ATOM     85  O   UNL     1       3.959  -5.351  -8.310  1.00  0.00    -0.237 OA
ATOM     86  O   UNL     1       5.514  -5.550  -6.387  1.00  0.00    -0.237 OA
ATOM     87  O   UNL     1       3.624  -7.105  -6.618  1.00  0.00    -0.744 OA
ENDBRANCH  80  84
ENDBRANCH  53  77
BRANCH  65  88
ATOM     88  C   UNL     1       5.207   3.149  -5.028  1.00  0.00     0.023 A 
ATOM     89  C   UNL     1       3.847   3.168  -5.426  1.00  0.00     0.031 A 
ATOM     90  C   UNL     1       6.103   3.956  -5.744  1.00  0.00     0.131 A 
ATOM     91  C   UNL     1       3.437   3.954  -6.521  1.00  0.00     0.055 A 
ATOM     92  C   UNL     1       5.691   4.748  -6.816  1.00  0.00     0.041 A 
ATOM     93  F   UNL     1       7.398   4.009  -5.392  1.00  0.00    -0.206 F 
ATOM     94  C   UNL     1       4.358   4.744  -7.214  1.00  0.00     0.022 A 
BRANCH  91  95
ATOM     95  S   UNL     1       1.696   3.953  -7.069  1.00  0.00     0.124 S 
ATOM     96  O   UNL     1       1.384   2.536  -7.213  1.00  0.00    -0.237 OA
ATOM     97  O   UNL     1       1.018   4.648  -5.978  1.00  0.00    -0.237 OA
ATOM     98  O   UNL     1       1.736   4.699  -8.329  1.00  0.00    -0.744 OA
ENDBRANCH  91  95
ENDBRANCH  65  88
ENDBRANCH  39  40
ENDBRANCH  31  34
ENDBRANCH  29  30
ENDBRANCH  28  29
ENDBRANCH  27  28
ENDBRANCH   1  27
TORSDOF 20
