REMARK SMILES O=C(NCCCCCCNC(=O)c1cccc2c(C(F)(F)F)cc(Br)nc12)c1ccc(-c2c3nc(c(-c4cc(S(=O)(=O)[O-])ccc4F)c4ccc([nH]4)c(-c4cc(S(=O)(=O)[O-])ccc4F)c4nc(c(-c5cc(S(=O)(=O)[O-])ccc5F)c5ccc2[nH]5)C=C4)C=C3)cc1
REMARK SMILES IDX 5 1 4 2 3 3 1 4 2 5 28 7 29 8 90 9 30 10 89 11 31 12 32 13
REMARK SMILES IDX 33 14 83 15 34 16 88 17 82 18 84 19 35 20 87 21 81 22 80 23
REMARK SMILES IDX 36 25 68 26 48 27 67 28 49 29 52 30 66 31 85 32 50 33 51 34
REMARK SMILES IDX 65 36 86 37 53 38 37 39 38 40 46 41 39 42 45 43 47 44 44 45
REMARK SMILES IDX 40 46 41 47 42 48 43 49 69 50 70 51 78 52 71 53 77 54 79 55
REMARK SMILES IDX 76 56 72 57 73 58 74 59 75 60 54 61 55 62 63 63 56 64 62 65
REMARK SMILES IDX 64 66 61 67 57 68 58 69 59 70 60 71 6 72 7 73 8 74 9 75
REMARK SMILES IDX 10 76 11 77 12 79 13 80 14 81 27 82 15 83 17 84 26 85 16 86
REMARK SMILES IDX 18 87 24 88 23 89 25 90 19 91 20 92 21 93 22 94
REMARK H PARENT 3 6 84 24 52 35 10 78
REMARK Flexibility Score: inf
ROOT
ATOM      1  C   UNL     1       4.718  -1.393   2.311  1.00  0.00     0.021 C 
ENDROOT
BRANCH   1   2
ATOM      2  C   UNL     1       4.417  -0.967   0.876  1.00  0.00     0.116 C 
BRANCH   2   3
ATOM      3  N   UNL     1       2.993  -0.937   0.598  1.00  0.00    -0.352 N 
ATOM      4  O   UNL     1       0.999  -0.057   0.064  1.00  0.00    -0.269 OA
ATOM      5  C   UNL     1       2.224   0.056   0.046  1.00  0.00     0.251 C 
ATOM      6  H   UNL     1       2.503  -1.755   0.843  1.00  0.00     0.163 HD
BRANCH   5   7
ATOM      7  C   UNL     1       2.841   1.254  -0.570  1.00  0.00     0.039 A 
ATOM      8  C   UNL     1       2.211   2.493  -0.400  1.00  0.00     0.014 A 
ATOM      9  C   UNL     1       3.969   1.158  -1.391  1.00  0.00     0.014 A 
ATOM     10  C   UNL     1       2.709   3.631  -1.044  1.00  0.00     0.010 A 
ATOM     11  C   UNL     1       4.496   2.302  -1.991  1.00  0.00     0.010 A 
ATOM     12  C   UNL     1       3.853   3.542  -1.849  1.00  0.00    -0.014 A 
BRANCH  12  13
ATOM     13  C   UNL     1       4.338   4.702  -2.641  1.00  0.00     0.031 A 
ATOM     14  C   UNL     1       4.229   4.658  -4.142  1.00  0.00     0.074 A 
ATOM     15  C   UNL     1       4.916   5.755  -2.034  1.00  0.00     0.049 A 
ATOM     16  N   UNL     1       4.716   5.483  -5.030  1.00  0.00    -0.248 NA
ATOM     17  C   UNL     1       3.490   3.522  -4.720  1.00  0.00     0.031 C 
ATOM     18  C   UNL     1       5.075   5.909  -0.589  1.00  0.00     0.029 A 
ATOM     19  N   UNL     1       5.494   6.887  -2.557  1.00  0.00    -0.354 N 
ATOM     20  C   UNL     1       4.368   4.954  -6.268  1.00  0.00     0.074 A 
ATOM     21  C   UNL     1       3.659   3.720  -6.019  1.00  0.00     0.031 C 
ATOM     22  C   UNL     1       5.711   7.065  -0.340  1.00  0.00     0.029 A 
ATOM     23  C   UNL     1       6.048   7.715  -1.606  1.00  0.00     0.049 A 
ATOM     24  H   UNL     1       5.512   7.087  -3.520  1.00  0.00     0.167 HD
ATOM     25  C   UNL     1       4.604   5.463  -7.499  1.00  0.00     0.034 A 
ATOM     26  C   UNL     1       6.762   8.853  -1.740  1.00  0.00     0.034 A 
ATOM     27  C   UNL     1       5.269   6.717  -7.730  1.00  0.00     0.049 A 
ATOM     28  C   UNL     1       7.010   9.404  -3.124  1.00  0.00     0.074 A 
ATOM     29  C   UNL     1       5.519   7.338  -8.941  1.00  0.00     0.029 A 
ATOM     30  N   UNL     1       5.771   7.548  -6.740  1.00  0.00    -0.354 N 
ATOM     31  N   UNL     1       6.632   8.917  -4.283  1.00  0.00    -0.248 NA
ATOM     32  C   UNL     1       7.772  10.658  -3.228  1.00  0.00     0.031 C 
ATOM     33  C   UNL     1       6.208   8.522  -8.687  1.00  0.00     0.029 A 
ATOM     34  C   UNL     1       6.339   8.671  -7.315  1.00  0.00     0.049 A 
ATOM     35  H   UNL     1       5.729   7.367  -5.774  1.00  0.00     0.167 HD
ATOM     36  C   UNL     1       7.080   9.818  -5.246  1.00  0.00     0.074 A 
ATOM     37  C   UNL     1       7.746  10.888  -4.536  1.00  0.00     0.031 C 
ATOM     38  C   UNL     1       6.955   9.758  -6.594  1.00  0.00     0.034 A 
BRANCH  25  39
ATOM     39  C   UNL     1       4.126   4.700  -8.706  1.00  0.00     0.023 A 
ATOM     40  C   UNL     1       5.058   4.193  -9.631  1.00  0.00     0.031 A 
ATOM     41  C   UNL     1       2.758   4.602  -9.013  1.00  0.00     0.131 A 
ATOM     42  C   UNL     1       4.610   3.646 -10.839  1.00  0.00     0.055 A 
ATOM     43  C   UNL     1       2.315   4.021 -10.201  1.00  0.00     0.041 A 
ATOM     44  F   UNL     1       1.833   5.071  -8.160  1.00  0.00    -0.206 F 
ATOM     45  C   UNL     1       3.244   3.551 -11.126  1.00  0.00     0.022 A 
BRANCH  42  46
ATOM     46  S   UNL     1       5.781   3.086 -12.105  1.00  0.00     0.124 S 
ATOM     47  O   UNL     1       5.349   1.708 -12.327  1.00  0.00    -0.237 OA
ATOM     48  O   UNL     1       5.508   4.010 -13.201  1.00  0.00    -0.237 OA
ATOM     49  O   UNL     1       7.084   3.229 -11.465  1.00  0.00    -0.744 OA
ENDBRANCH  42  46
ENDBRANCH  25  39
BRANCH  26  50
ATOM     50  C   UNL     1       7.254   9.556  -0.518  1.00  0.00     0.023 A 
ATOM     51  C   UNL     1       8.165   8.939   0.359  1.00  0.00     0.031 A 
ATOM     52  C   UNL     1       6.755  10.822  -0.165  1.00  0.00     0.131 A 
ATOM     53  C   UNL     1       8.505   9.562   1.567  1.00  0.00     0.055 A 
ATOM     54  C   UNL     1       7.146  11.468   1.009  1.00  0.00     0.041 A 
ATOM     55  F   UNL     1       5.875  11.447  -0.962  1.00  0.00    -0.206 F 
ATOM     56  C   UNL     1       8.013  10.831   1.890  1.00  0.00     0.022 A 
BRANCH  53  57
ATOM     57  S   UNL     1       9.491   8.691   2.818  1.00  0.00     0.124 S 
ATOM     58  O   UNL     1      10.709   9.492   2.857  1.00  0.00    -0.237 OA
ATOM     59  O   UNL     1       8.634   8.786   3.998  1.00  0.00    -0.237 OA
ATOM     60  O   UNL     1       9.634   7.347   2.268  1.00  0.00    -0.744 OA
ENDBRANCH  53  57
ENDBRANCH  26  50
BRANCH  38  61
ATOM     61  C   UNL     1       7.510  10.879  -7.437  1.00  0.00     0.023 A 
ATOM     62  C   UNL     1       6.635  11.666  -8.211  1.00  0.00     0.031 A 
ATOM     63  C   UNL     1       8.893  11.022  -7.637  1.00  0.00     0.131 A 
ATOM     64  C   UNL     1       7.152  12.517  -9.195  1.00  0.00     0.055 A 
ATOM     65  C   UNL     1       9.404  11.906  -8.588  1.00  0.00     0.041 A 
ATOM     66  F   UNL     1       9.763  10.282  -6.931  1.00  0.00    -0.206 F 
ATOM     67  C   UNL     1       8.532  12.645  -9.384  1.00  0.00     0.022 A 
BRANCH  64  68
ATOM     68  S   UNL     1       6.053  13.412 -10.328  1.00  0.00     0.124 S 
ATOM     69  O   UNL     1       6.464  14.799 -10.116  1.00  0.00    -0.237 OA
ATOM     70  O   UNL     1       6.420  12.845 -11.622  1.00  0.00    -0.237 OA
ATOM     71  O   UNL     1       4.713  13.084  -9.853  1.00  0.00    -0.744 OA
ENDBRANCH  64  68
ENDBRANCH  38  61
ENDBRANCH  12  13
ENDBRANCH   5   7
ENDBRANCH   2   3
ENDBRANCH   1   2
BRANCH   1  72
ATOM     72  C   UNL     1       4.236  -2.793   2.703  1.00  0.00     0.002 C 
BRANCH  72  73
ATOM     73  C   UNL     1       4.725  -3.943   1.818  1.00  0.00     0.002 C 
BRANCH  73  74
ATOM     74  C   UNL     1       6.243  -4.055   1.638  1.00  0.00     0.021 C 
BRANCH  74  75
ATOM     75  C   UNL     1       7.060  -4.127   2.927  1.00  0.00     0.116 C 
BRANCH  75  76
ATOM     76  N   UNL     1       6.705  -5.266   3.751  1.00  0.00    -0.352 N 
ATOM     77  C   UNL     1       7.526  -6.152   4.406  1.00  0.00     0.253 C 
ATOM     78  H   UNL     1       5.739  -5.428   3.856  1.00  0.00     0.163 HD
ATOM     79  O   UNL     1       7.045  -7.043   5.103  1.00  0.00    -0.269 OA
BRANCH  77  80
ATOM     80  C   UNL     1       8.989  -5.972   4.345  1.00  0.00     0.066 A 
ATOM     81  C   UNL     1       9.525  -4.829   4.955  1.00  0.00     0.016 A 
ATOM     82  C   UNL     1       9.787  -6.964   3.760  1.00  0.00     0.085 A 
ATOM     83  C   UNL     1      10.897  -4.643   4.967  1.00  0.00     0.002 A 
ATOM     84  C   UNL     1      11.193  -6.787   3.807  1.00  0.00     0.013 A 
ATOM     85  N   UNL     1       9.239  -8.045   3.163  1.00  0.00    -0.240 NA
ATOM     86  C   UNL     1      11.721  -5.613   4.403  1.00  0.00     0.011 A 
ATOM     87  C   UNL     1      12.010  -7.807   3.252  1.00  0.00     0.068 A 
ATOM     88  C   UNL     1      10.031  -8.992   2.636  1.00  0.00     0.107 A 
ATOM     89  C   UNL     1      11.406  -8.923   2.660  1.00  0.00     0.049 A 
ATOM     90  Br  UNL     1       9.200 -10.495   1.834  1.00  0.00    -0.029 Br
BRANCH  87  91
ATOM     91  C   UNL     1      13.515  -7.736   3.295  1.00  0.00     0.417 C 
ATOM     92  F   UNL     1      14.014  -6.671   2.611  1.00  0.00    -0.166 F 
ATOM     93  F   UNL     1      14.001  -7.632   4.564  1.00  0.00    -0.166 F 
ATOM     94  F   UNL     1      14.125  -8.833   2.763  1.00  0.00    -0.166 F 
ENDBRANCH  87  91
ENDBRANCH  77  80
ENDBRANCH  75  76
ENDBRANCH  74  75
ENDBRANCH  73  74
ENDBRANCH  72  73
ENDBRANCH   1  72
TORSDOF 17
