REMARK SMILES CC1(C)C(CNC(=O)[C@H]2C[C@H]2C(=O)NCCCCCCNC(=O)c2ccc(-c3c4nc(c(-c5cc(S(=O)(=O)[O-])ccc5F)c5ccc([nH]5)c(-c5cc(S(=O)(=O)[O-])ccc5F)c5nc(c(-c6cc(S(=O)(=O)[O-])ccc6F)c6ccc3[nH]6)C=C5)C=C4)cc2)C1(C)C
REMARK SMILES IDX 17 1 16 2 15 3 14 4 12 5 13 6 11 8 9 9 10 10 7 11 6 12 8 14
REMARK SMILES IDX 5 15 4 16 1 17 2 18 3 19 87 20 88 21 89 22 18 23 19 24 20 25
REMARK SMILES IDX 21 26 22 27 23 29 24 30 25 31 86 32 26 33 85 34 27 35 28 36
REMARK SMILES IDX 29 37 79 38 30 39 84 40 78 41 80 42 31 43 83 44 77 45 76 46
REMARK SMILES IDX 32 48 64 49 44 50 63 51 45 52 48 53 62 54 81 55 46 56 47 57
REMARK SMILES IDX 61 59 82 60 49 61 33 62 34 63 42 64 35 65 41 66 43 67 40 68
REMARK SMILES IDX 36 69 37 70 38 71 39 72 65 73 66 74 74 75 67 76 73 77 75 78
REMARK SMILES IDX 72 79 68 80 69 81 70 82 71 83 50 84 51 85 59 86 52 87 58 88
REMARK SMILES IDX 60 89 57 90 53 91 54 92 55 93 56 94
REMARK H PARENT 14 7 6 13 21 28 80 47 48 58
REMARK Flexibility Score: inf
ROOT
ATOM      1  C   UNL     1       5.050   6.042   3.042  1.00  0.00     0.002 C 
ENDROOT
BRANCH   1   2
ATOM      2  C   UNL     1       3.878   5.878   4.022  1.00  0.00     0.021 C 
BRANCH   2   3
ATOM      3  C   UNL     1       2.856   7.010   3.962  1.00  0.00     0.116 C 
BRANCH   3   4
ATOM      4  N   UNL     1       2.221   7.034   2.659  1.00  0.00    -0.356 N 
ATOM      5  C   UNL     1       1.308   6.177   2.110  1.00  0.00     0.223 C 
ATOM      6  O   UNL     1       1.375   5.974   0.902  1.00  0.00    -0.275 OA
ATOM      7  H   UNL     1       2.488   7.783   2.080  1.00  0.00     0.163 HD
BRANCH   5   8
ATOM      8  C   UNL     1       0.134   5.642   2.822  1.00  0.00     0.091 C 
ATOM      9  C   UNL     1       0.055   4.298   3.502  1.00  0.00     0.091 C 
ATOM     10  C   UNL     1      -0.239   5.607   4.253  1.00  0.00     0.028 C 
BRANCH   9  11
ATOM     11  C   UNL     1       1.042   3.450   4.213  1.00  0.00     0.223 C 
ATOM     12  N   UNL     1       1.915   2.645   3.553  1.00  0.00    -0.356 N 
ATOM     13  H   UNL     1       2.289   1.919   4.103  1.00  0.00     0.163 HD
ATOM     14  O   UNL     1       0.986   3.372   5.438  1.00  0.00    -0.275 OA
BRANCH  12  15
ATOM     15  C   UNL     1       2.394   2.661   2.188  1.00  0.00     0.120 C 
BRANCH  15  16
ATOM     16  C   UNL     1       3.888   2.506   2.270  1.00  0.00     0.021 C 
ATOM     17  C   UNL     1       5.608   0.876   3.232  1.00  0.00     0.012 C 
ATOM     18  C   UNL     1       4.593   1.163   2.137  1.00  0.00    -0.025 C 
ATOM     19  C   UNL     1       3.891  -0.098   1.694  1.00  0.00     0.012 C 
ATOM     20  C   UNL     1       4.825   2.284   1.094  1.00  0.00    -0.025 C 
ATOM     21  C   UNL     1       6.171   2.981   1.086  1.00  0.00     0.012 C 
ATOM     22  C   UNL     1       4.210   2.253  -0.286  1.00  0.00     0.012 C 
ENDBRANCH  15  16
ENDBRANCH  12  15
ENDBRANCH   9  11
ENDBRANCH   5   8
ENDBRANCH   3   4
ENDBRANCH   2   3
ENDBRANCH   1   2
BRANCH   1  23
ATOM     23  C   UNL     1       6.173   6.956   3.528  1.00  0.00     0.002 C 
BRANCH  23  24
ATOM     24  C   UNL     1       6.914   6.461   4.775  1.00  0.00     0.021 C 
BRANCH  24  25
ATOM     25  C   UNL     1       7.533   5.067   4.671  1.00  0.00     0.116 C 
BRANCH  25  26
ATOM     26  N   UNL     1       8.586   4.996   3.672  1.00  0.00    -0.352 N 
ATOM     27  C   UNL     1       9.876   4.536   3.799  1.00  0.00     0.251 C 
ATOM     28  H   UNL     1       8.342   5.326   2.777  1.00  0.00     0.163 HD
ATOM     29  O   UNL     1      10.676   4.713   2.885  1.00  0.00    -0.269 OA
BRANCH  27  30
ATOM     30  C   UNL     1      10.305   3.856   5.043  1.00  0.00     0.039 A 
ATOM     31  C   UNL     1      11.510   4.239   5.637  1.00  0.00     0.014 A 
ATOM     32  C   UNL     1       9.533   2.842   5.618  1.00  0.00     0.014 A 
ATOM     33  C   UNL     1      11.908   3.652   6.842  1.00  0.00     0.010 A 
ATOM     34  C   UNL     1       9.904   2.296   6.848  1.00  0.00     0.010 A 
ATOM     35  C   UNL     1      11.094   2.699   7.476  1.00  0.00    -0.014 A 
BRANCH  35  36
ATOM     36  C   UNL     1      11.478   2.134   8.798  1.00  0.00     0.031 A 
ATOM     37  C   UNL     1      11.843   0.681   8.934  1.00  0.00     0.074 A 
ATOM     38  C   UNL     1      11.466   2.929   9.887  1.00  0.00     0.049 A 
ATOM     39  N   UNL     1      12.196   0.012  10.002  1.00  0.00    -0.248 NA
ATOM     40  C   UNL     1      11.780  -0.131   7.710  1.00  0.00     0.031 C 
ATOM     41  C   UNL     1      11.076   4.341   9.896  1.00  0.00     0.029 A 
ATOM     42  N   UNL     1      11.785   2.666  11.196  1.00  0.00    -0.354 N 
ATOM     43  C   UNL     1      12.404  -1.297   9.582  1.00  0.00     0.074 A 
ATOM     44  C   UNL     1      12.069  -1.338   8.173  1.00  0.00     0.031 C 
ATOM     45  C   UNL     1      11.198   4.823  11.144  1.00  0.00     0.029 A 
ATOM     46  C   UNL     1      11.647   3.753  12.029  1.00  0.00     0.049 A 
ATOM     47  H   UNL     1      12.085   1.782  11.509  1.00  0.00     0.167 HD
ATOM     48  C   UNL     1      12.858  -2.360  10.294  1.00  0.00     0.034 A 
ATOM     49  C   UNL     1      11.857   3.874  13.355  1.00  0.00     0.034 A 
ATOM     50  C   UNL     1      13.181  -2.310  11.701  1.00  0.00     0.049 A 
ATOM     51  C   UNL     1      12.365   2.681  14.125  1.00  0.00     0.074 A 
ATOM     52  C   UNL     1      13.660  -3.322  12.515  1.00  0.00     0.029 A 
ATOM     53  N   UNL     1      13.058  -1.184  12.505  1.00  0.00    -0.354 N 
ATOM     54  N   UNL     1      12.602   1.462  13.699  1.00  0.00    -0.248 NA
ATOM     55  C   UNL     1      12.658   2.890  15.548  1.00  0.00     0.031 C 
ATOM     56  C   UNL     1      13.778  -2.823  13.819  1.00  0.00     0.029 A 
ATOM     57  C   UNL     1      13.438  -1.481  13.806  1.00  0.00     0.049 A 
ATOM     58  H   UNL     1      12.746  -0.302  12.197  1.00  0.00     0.167 HD
ATOM     59  C   UNL     1      13.098   0.767  14.799  1.00  0.00     0.074 A 
ATOM     60  C   UNL     1      13.150   1.711  15.896  1.00  0.00     0.031 C 
ATOM     61  C   UNL     1      13.474  -0.534  14.896  1.00  0.00     0.034 A 
BRANCH  48  62
ATOM     62  C   UNL     1      13.014  -3.668   9.555  1.00  0.00     0.023 A 
ATOM     63  C   UNL     1      13.930  -3.804   8.496  1.00  0.00     0.031 A 
ATOM     64  C   UNL     1      12.225  -4.783   9.889  1.00  0.00     0.131 A 
ATOM     65  C   UNL     1      13.981  -4.998   7.761  1.00  0.00     0.055 A 
ATOM     66  C   UNL     1      12.338  -5.995   9.204  1.00  0.00     0.041 A 
ATOM     67  F   UNL     1      11.321  -4.709  10.878  1.00  0.00    -0.206 F 
ATOM     68  C   UNL     1      13.209  -6.104   8.124  1.00  0.00     0.022 A 
BRANCH  65  69
ATOM     69  S   UNL     1      14.970  -5.038   6.242  1.00  0.00     0.124 S 
ATOM     70  O   UNL     1      14.323  -4.001   5.442  1.00  0.00    -0.237 OA
ATOM     71  O   UNL     1      16.310  -4.728   6.728  1.00  0.00    -0.237 OA
ATOM     72  O   UNL     1      14.786  -6.402   5.749  1.00  0.00    -0.744 OA
ENDBRANCH  65  69
ENDBRANCH  48  62
BRANCH  49  73
ATOM     73  C   UNL     1      11.591   5.167  14.048  1.00  0.00     0.023 A 
ATOM     74  C   UNL     1      12.631   5.900  14.642  1.00  0.00     0.031 A 
ATOM     75  C   UNL     1      10.280   5.659  14.176  1.00  0.00     0.131 A 
ATOM     76  C   UNL     1      12.338   7.054  15.384  1.00  0.00     0.055 A 
ATOM     77  C   UNL     1      10.000   6.837  14.870  1.00  0.00     0.041 A 
ATOM     78  F   UNL     1       9.251   5.001  13.619  1.00  0.00    -0.206 F 
ATOM     79  C   UNL     1      11.031   7.533  15.494  1.00  0.00     0.022 A 
BRANCH  76  80
ATOM     80  S   UNL     1      13.683   7.869  16.289  1.00  0.00     0.124 S 
ATOM     81  O   UNL     1      14.199   6.776  17.105  1.00  0.00    -0.237 OA
ATOM     82  O   UNL     1      14.545   8.321  15.203  1.00  0.00    -0.237 OA
ATOM     83  O   UNL     1      13.002   8.931  17.026  1.00  0.00    -0.744 OA
ENDBRANCH  76  80
ENDBRANCH  49  73
BRANCH  61  84
ATOM     84  C   UNL     1      14.013  -0.987  16.231  1.00  0.00     0.023 A 
ATOM     85  C   UNL     1      13.202  -1.029  17.379  1.00  0.00     0.031 A 
ATOM     86  C   UNL     1      15.368  -1.338  16.366  1.00  0.00     0.131 A 
ATOM     87  C   UNL     1      13.768  -1.343  18.624  1.00  0.00     0.055 A 
ATOM     88  C   UNL     1      15.912  -1.710  17.596  1.00  0.00     0.041 A 
ATOM     89  F   UNL     1      16.189  -1.316  15.303  1.00  0.00    -0.206 F 
ATOM     90  C   UNL     1      15.115  -1.696  18.738  1.00  0.00     0.022 A 
BRANCH  87  91
ATOM     91  S   UNL     1      12.746  -1.170  20.113  1.00  0.00     0.124 S 
ATOM     92  O   UNL     1      12.303   0.217  20.019  1.00  0.00    -0.237 OA
ATOM     93  O   UNL     1      11.717  -2.183  19.904  1.00  0.00    -0.237 OA
ATOM     94  O   UNL     1      13.678  -1.450  21.204  1.00  0.00    -0.744 OA
ENDBRANCH  87  91
ENDBRANCH  61  84
ENDBRANCH  35  36
ENDBRANCH  27  30
ENDBRANCH  25  26
ENDBRANCH  24  25
ENDBRANCH  23  24
ENDBRANCH   1  23
TORSDOF 19
