REMARK SMILES COc1ccsc1CN(Cc1ccccc1)C(=O)/C=C/C(=O)NCCCCCCNC(=O)c1ccc(-c2c3nc(c(-c4cc(S(=O)(=O)[O-])ccc4F)c4ccc([nH]4)c(-c4cc(S(=O)(=O)[O-])ccc4F)c4nc(c(-c5cc(S(=O)(=O)[O-])ccc5F)c5ccc2[nH]5)C=C4)C=C3)cc1
REMARK SMILES IDX 25 1 24 2 23 3 21 4 22 5 20 7 19 8 17 9 18 10 9 11 8 12 7 13
REMARK SMILES IDX 3 14 4 15 5 16 6 17 2 18 1 19 10 20 11 21 12 22 16 23 13 24
REMARK SMILES IDX 15 25 14 26 26 27 27 28 28 29 29 30 30 31 31 32 32 34 33 35
REMARK SMILES IDX 34 36 95 37 35 38 94 39 36 40 37 41 38 42 88 43 39 44 93 45
REMARK SMILES IDX 87 46 89 47 40 48 92 49 86 50 85 51 41 53 73 54 53 55 72 56
REMARK SMILES IDX 54 57 57 58 71 59 90 60 55 61 56 62 70 64 91 65 58 66 42 67
REMARK SMILES IDX 43 68 51 69 44 70 50 71 52 72 49 73 45 74 46 75 47 76 48 77
REMARK SMILES IDX 74 78 75 79 83 80 76 81 82 82 84 83 81 84 77 85 78 86 79 87
REMARK SMILES IDX 80 88 59 89 60 90 68 91 61 92 67 93 69 94 66 95 62 96 63 97
REMARK SMILES IDX 64 98 65 99
REMARK H PARENT 23 6 30 33 89 52 57 63
REMARK Flexibility Score: inf
ROOT
ATOM      1  C   UNL     1      -2.883  -4.321   5.575  1.00  0.00     0.021 C 
ENDROOT
BRANCH   1   2
ATOM      2  C   UNL     1      -3.980  -3.499   4.896  1.00  0.00     0.116 C 
BRANCH   2   3
ATOM      3  N   UNL     1      -4.651  -2.691   5.899  1.00  0.00    -0.353 N 
ATOM      4  C   UNL     1      -4.398  -1.454   6.395  1.00  0.00     0.244 C 
ATOM      5  O   UNL     1      -4.992  -1.088   7.410  1.00  0.00    -0.270 OA
ATOM      6  H   UNL     1      -5.441  -3.124   6.296  1.00  0.00     0.163 HD
BRANCH   4   7
ATOM      7  C   UNL     1      -3.587  -0.458   5.659  1.00  0.00     0.077 C 
ATOM      8  C   UNL     1      -2.575  -0.684   4.820  1.00  0.00     0.077 C 
BRANCH   8   9
ATOM      9  C   UNL     1      -1.921   0.162   3.781  1.00  0.00     0.247 C 
ATOM     10  O   UNL     1      -1.035  -0.430   3.154  1.00  0.00    -0.270 OA
BRANCH   9  11
ATOM     11  N   UNL     1      -2.319   1.447   3.447  1.00  0.00    -0.330 N 
BRANCH  11  12
ATOM     12  C   UNL     1      -1.538   2.145   2.409  1.00  0.00     0.170 C 
BRANCH  12  13
ATOM     13  C   UNL     1      -0.055   2.131   2.668  1.00  0.00     0.066 A 
ATOM     14  C   UNL     1       0.933   1.723   1.796  1.00  0.00     0.134 A 
ATOM     15  C   UNL     1       2.222   1.690   2.395  1.00  0.00     0.058 A 
ATOM     16  C   UNL     1       2.183   2.107   3.708  1.00  0.00     0.069 A 
ATOM     17  S   UNL     1       0.611   2.595   4.182  1.00  0.00    -0.143 S 
BRANCH  14  18
ATOM     18  O   UNL     1       0.627   1.414   0.512  1.00  0.00    -0.496 OA
ATOM     19  C   UNL     1       1.076   0.113   0.144  1.00  0.00     0.278 C 
ENDBRANCH  14  18
ENDBRANCH  12  13
ENDBRANCH  11  12
BRANCH  11  20
ATOM     20  C   UNL     1      -3.491   2.174   3.936  1.00  0.00     0.155 C 
BRANCH  20  21
ATOM     21  C   UNL     1      -4.870   1.667   3.537  1.00  0.00    -0.029 A 
ATOM     22  C   UNL     1      -5.977   2.475   3.859  1.00  0.00     0.005 A 
ATOM     23  C   UNL     1      -5.127   0.404   2.984  1.00  0.00     0.005 A 
ATOM     24  C   UNL     1      -7.286   2.014   3.691  1.00  0.00     0.000 A 
ATOM     25  C   UNL     1      -6.436  -0.075   2.856  1.00  0.00     0.000 A 
ATOM     26  C   UNL     1      -7.515   0.728   3.215  1.00  0.00     0.000 A 
ENDBRANCH  20  21
ENDBRANCH  11  20
ENDBRANCH   9  11
ENDBRANCH   8   9
ENDBRANCH   4   7
ENDBRANCH   2   3
ENDBRANCH   1   2
BRANCH   1  27
ATOM     27  C   UNL     1      -3.454  -5.464   6.428  1.00  0.00     0.002 C 
BRANCH  27  28
ATOM     28  C   UNL     1      -4.199  -6.536   5.625  1.00  0.00     0.002 C 
BRANCH  28  29
ATOM     29  C   UNL     1      -3.375  -7.178   4.507  1.00  0.00     0.021 C 
BRANCH  29  30
ATOM     30  C   UNL     1      -2.101  -7.862   4.993  1.00  0.00     0.116 C 
BRANCH  30  31
ATOM     31  N   UNL     1      -2.403  -8.985   5.867  1.00  0.00    -0.352 N 
ATOM     32  C   UNL     1      -2.034 -10.300   5.736  1.00  0.00     0.251 C 
ATOM     33  H   UNL     1      -2.946  -8.772   6.660  1.00  0.00     0.163 HD
ATOM     34  O   UNL     1      -2.585 -11.162   6.411  1.00  0.00    -0.269 OA
BRANCH  32  35
ATOM     35  C   UNL     1      -0.982 -10.663   4.763  1.00  0.00     0.039 A 
ATOM     36  C   UNL     1      -1.177 -11.764   3.928  1.00  0.00     0.014 A 
ATOM     37  C   UNL     1       0.193  -9.909   4.677  1.00  0.00     0.014 A 
ATOM     38  C   UNL     1      -0.216 -12.076   2.965  1.00  0.00     0.010 A 
ATOM     39  C   UNL     1       1.113 -10.177   3.670  1.00  0.00     0.010 A 
ATOM     40  C   UNL     1       0.921 -11.267   2.806  1.00  0.00    -0.014 A 
BRANCH  40  41
ATOM     41  C   UNL     1       1.925 -11.546   1.748  1.00  0.00     0.031 A 
ATOM     42  C   UNL     1       3.334 -11.913   2.126  1.00  0.00     0.074 A 
ATOM     43  C   UNL     1       1.582 -11.409   0.452  1.00  0.00     0.049 A 
ATOM     44  N   UNL     1       4.371 -12.118   1.356  1.00  0.00    -0.248 NA
ATOM     45  C   UNL     1       3.618 -12.036   3.563  1.00  0.00     0.031 C 
ATOM     46  C   UNL     1       0.256 -11.023  -0.034  1.00  0.00     0.029 A 
ATOM     47  N   UNL     1       2.320 -11.570  -0.694  1.00  0.00    -0.354 N 
ATOM     48  C   UNL     1       5.434 -12.383   2.214  1.00  0.00     0.074 A 
ATOM     49  C   UNL     1       4.926 -12.246   3.562  1.00  0.00     0.031 C 
ATOM     50  C   UNL     1       0.268 -11.002  -1.376  1.00  0.00     0.029 A 
ATOM     51  C   UNL     1       1.611 -11.322  -1.847  1.00  0.00     0.049 A 
ATOM     52  H   UNL     1       3.267 -11.837  -0.691  1.00  0.00     0.167 HD
ATOM     53  C   UNL     1       6.707 -12.732   1.904  1.00  0.00     0.034 A 
ATOM     54  C   UNL     1       2.004 -11.336  -3.137  1.00  0.00     0.034 A 
ATOM     55  C   UNL     1       7.192 -12.868   0.552  1.00  0.00     0.049 A 
ATOM     56  C   UNL     1       3.435 -11.688  -3.456  1.00  0.00     0.074 A 
ATOM     57  C   UNL     1       8.446 -13.266   0.121  1.00  0.00     0.029 A 
ATOM     58  N   UNL     1       6.449 -12.600  -0.592  1.00  0.00    -0.354 N 
ATOM     59  N   UNL     1       4.416 -11.985  -2.635  1.00  0.00    -0.248 NA
ATOM     60  C   UNL     1       3.808 -11.715  -4.876  1.00  0.00     0.031 C 
ATOM     61  C   UNL     1       8.484 -13.165  -1.274  1.00  0.00     0.029 A 
ATOM     62  C   UNL     1       7.229 -12.788  -1.723  1.00  0.00     0.049 A 
ATOM     63  H   UNL     1       5.506 -12.318  -0.598  1.00  0.00     0.167 HD
ATOM     64  C   UNL     1       5.515 -12.266  -3.443  1.00  0.00     0.074 A 
ATOM     65  C   UNL     1       5.070 -12.116  -4.813  1.00  0.00     0.031 C 
ATOM     66  C   UNL     1       6.776 -12.621  -3.085  1.00  0.00     0.034 A 
BRANCH  53  67
ATOM     67  C   UNL     1       7.664 -12.959   3.052  1.00  0.00     0.023 A 
ATOM     68  C   UNL     1       7.447 -13.969   4.007  1.00  0.00     0.031 A 
ATOM     69  C   UNL     1       8.792 -12.136   3.215  1.00  0.00     0.131 A 
ATOM     70  C   UNL     1       8.291 -14.075   5.122  1.00  0.00     0.055 A 
ATOM     71  C   UNL     1       9.680 -12.304   4.280  1.00  0.00     0.041 A 
ATOM     72  F   UNL     1       9.043 -11.140   2.350  1.00  0.00    -0.206 F 
ATOM     73  C   UNL     1       9.422 -13.267   5.251  1.00  0.00     0.022 A 
BRANCH  70  74
ATOM     74  S   UNL     1       7.800 -15.176   6.477  1.00  0.00     0.124 S 
ATOM     75  O   UNL     1       6.492 -14.634   6.837  1.00  0.00    -0.237 OA
ATOM     76  O   UNL     1       7.795 -16.485   5.834  1.00  0.00    -0.237 OA
ATOM     77  O   UNL     1       8.846 -14.975   7.478  1.00  0.00    -0.744 OA
ENDBRANCH  70  74
ENDBRANCH  53  67
BRANCH  54  78
ATOM     78  C   UNL     1       1.040 -10.998  -4.223  1.00  0.00     0.023 A 
ATOM     79  C   UNL     1       0.670 -11.952  -5.184  1.00  0.00     0.031 A 
ATOM     80  C   UNL     1       0.500  -9.704  -4.338  1.00  0.00     0.131 A 
ATOM     81  C   UNL     1      -0.174 -11.586  -6.244  1.00  0.00     0.055 A 
ATOM     82  C   UNL     1      -0.384  -9.361  -5.362  1.00  0.00     0.041 A 
ATOM     83  F   UNL     1       0.817  -8.754  -3.443  1.00  0.00    -0.206 F 
ATOM     84  C   UNL     1      -0.715 -10.302  -6.331  1.00  0.00     0.022 A 
BRANCH  81  85
ATOM     85  S   UNL     1      -0.489 -12.795  -7.560  1.00  0.00     0.124 S 
ATOM     86  O   UNL     1       0.861 -13.075  -8.035  1.00  0.00    -0.237 OA
ATOM     87  O   UNL     1      -1.149 -13.872  -6.830  1.00  0.00    -0.237 OA
ATOM     88  O   UNL     1      -1.342 -12.064  -8.495  1.00  0.00    -0.744 OA
ENDBRANCH  81  85
ENDBRANCH  54  78
BRANCH  66  89
ATOM     89  C   UNL     1       7.749 -12.915  -4.201  1.00  0.00     0.023 A 
ATOM     90  C   UNL     1       8.192 -11.913  -5.082  1.00  0.00     0.031 A 
ATOM     91  C   UNL     1       8.234 -14.222  -4.388  1.00  0.00     0.131 A 
ATOM     92  C   UNL     1       9.049 -12.244  -6.143  1.00  0.00     0.055 A 
ATOM     93  C   UNL     1       9.137 -14.533  -5.406  1.00  0.00     0.041 A 
ATOM     94  F   UNL     1       7.842 -15.219  -3.579  1.00  0.00    -0.206 F 
ATOM     95  C   UNL     1       9.539 -13.544  -6.299  1.00  0.00     0.022 A 
BRANCH  92  96
ATOM     96  S   UNL     1       9.443 -10.973  -7.375  1.00  0.00     0.124 S 
ATOM     97  O   UNL     1       8.119 -10.615  -7.875  1.00  0.00    -0.237 OA
ATOM     98  O   UNL     1      10.117  -9.958  -6.572  1.00  0.00    -0.237 OA
ATOM     99  O   UNL     1      10.298 -11.674  -8.331  1.00  0.00    -0.744 OA
ENDBRANCH  92  96
ENDBRANCH  66  89
ENDBRANCH  40  41
ENDBRANCH  32  35
ENDBRANCH  30  31
ENDBRANCH  29  30
ENDBRANCH  28  29
ENDBRANCH  27  28
ENDBRANCH   1  27
TORSDOF 23
