REMARK SMILES O=C(NCCCCCCNC(=O)c1ccc(-c2c3nc(c(-c4cc(S(=O)(=O)[O-])ccc4F)c4ccc([nH]4)c(-c4cc(S(=O)(=O)[O-])ccc4F)c4nc(c(-c5cc(S(=O)(=O)[O-])ccc5F)c5ccc2[nH]5)C=C4)C=C3)cc1)c1ccc(NC(=O)[C@@H]2CC=CC[C@@H]2C(=O)Nc2ccc(Br)cc2)cc1
REMARK SMILES IDX 6 1 5 2 4 3 3 4 1 5 2 6 76 8 77 9 100 10 78 11 99 12 79 13
REMARK SMILES IDX 80 14 81 15 82 17 83 18 84 19 88 20 85 21 87 22 86 23 89 24
REMARK SMILES IDX 90 25 91 26 92 28 93 29 98 30 94 31 97 32 95 33 96 34 7 35
REMARK SMILES IDX 8 36 9 37 10 38 11 39 12 41 13 42 14 43 75 44 15 45 74 46
REMARK SMILES IDX 16 47 17 48 18 49 68 50 19 51 73 52 67 53 69 54 20 55 72 56
REMARK SMILES IDX 66 57 65 58 21 60 53 61 33 62 52 63 34 64 37 65 51 66 70 67
REMARK SMILES IDX 35 68 36 69 50 71 71 72 38 73 22 74 23 75 31 76 24 77 30 78
REMARK SMILES IDX 32 79 29 80 25 81 26 82 27 83 28 84 54 85 55 86 63 87 56 88
REMARK SMILES IDX 62 89 64 90 61 91 57 92 58 93 59 94 60 95 39 96 40 97 48 98
REMARK SMILES IDX 41 99 47 100 49 101 46 102 42 103 43 104 44 105 45 106
REMARK H PARENT 3 7 80 16 91 27 10 40 69 59 37 70
REMARK Flexibility Score: inf
ROOT
ATOM      1  C   UNL     1       3.641  10.645   5.567  1.00  0.00     0.002 C 
ENDROOT
BRANCH   1   2
ATOM      2  C   UNL     1       4.720   9.611   5.255  1.00  0.00     0.021 C 
BRANCH   2   3
ATOM      3  C   UNL     1       4.942   9.338   3.775  1.00  0.00     0.116 C 
BRANCH   3   4
ATOM      4  N   UNL     1       5.576  10.447   3.072  1.00  0.00    -0.352 N 
ATOM      5  O   UNL     1       7.157  11.393   1.733  1.00  0.00    -0.269 OA
ATOM      6  C   UNL     1       6.650  10.388   2.209  1.00  0.00     0.251 C 
ATOM      7  H   UNL     1       5.194  11.340   3.232  1.00  0.00     0.163 HD
BRANCH   6   8
ATOM      8  C   UNL     1       7.193   9.053   1.891  1.00  0.00     0.039 A 
ATOM      9  C   UNL     1       6.340   8.084   1.370  1.00  0.00     0.016 A 
ATOM     10  C   UNL     1       8.490   8.720   2.268  1.00  0.00     0.016 A 
ATOM     11  C   UNL     1       6.741   6.751   1.361  1.00  0.00     0.027 A 
ATOM     12  C   UNL     1       8.901   7.383   2.194  1.00  0.00     0.027 A 
ATOM     13  C   UNL     1       8.025   6.375   1.753  1.00  0.00     0.041 A 
BRANCH  13  14
ATOM     14  N   UNL     1       8.523   5.057   1.762  1.00  0.00    -0.326 N 
ATOM     15  C   UNL     1       8.104   3.853   1.263  1.00  0.00     0.228 C 
ATOM     16  H   UNL     1       9.379   4.985   2.243  1.00  0.00     0.169 HD
ATOM     17  O   UNL     1       8.837   2.881   1.473  1.00  0.00    -0.274 OA
BRANCH  15  18
ATOM     18  C   UNL     1       6.833   3.706   0.459  1.00  0.00     0.095 C 
ATOM     19  C   UNL     1       6.342   2.262   0.306  1.00  0.00     0.041 C 
ATOM     20  C   UNL     1       6.834   4.438  -0.900  1.00  0.00     0.095 C 
ATOM     21  C   UNL     1       4.997   2.259  -0.375  1.00  0.00    -0.030 C 
ATOM     22  C   UNL     1       5.351   4.545  -1.360  1.00  0.00     0.041 C 
ATOM     23  C   UNL     1       4.539   3.300  -1.091  1.00  0.00    -0.030 C 
BRANCH  20  24
ATOM     24  C   UNL     1       7.622   3.800  -2.064  1.00  0.00     0.228 C 
ATOM     25  O   UNL     1       7.289   2.747  -2.607  1.00  0.00    -0.274 OA
ATOM     26  N   UNL     1       8.556   4.588  -2.700  1.00  0.00    -0.326 N 
ATOM     27  H   UNL     1       8.513   4.591  -3.683  1.00  0.00     0.169 HD
BRANCH  26  28
ATOM     28  C   UNL     1       9.560   5.386  -2.136  1.00  0.00     0.041 A 
ATOM     29  C   UNL     1      10.024   6.496  -2.843  1.00  0.00     0.027 A 
ATOM     30  C   UNL     1      10.199   5.016  -0.955  1.00  0.00     0.027 A 
ATOM     31  C   UNL     1      11.055   7.284  -2.318  1.00  0.00     0.018 A 
ATOM     32  C   UNL     1      11.235   5.792  -0.429  1.00  0.00     0.018 A 
ATOM     33  C   UNL     1      11.647   6.935  -1.105  1.00  0.00     0.018 A 
ATOM     34  Br  UNL     1      13.039   7.993  -0.391  1.00  0.00    -0.051 Br
ENDBRANCH  26  28
ENDBRANCH  20  24
ENDBRANCH  15  18
ENDBRANCH  13  14
ENDBRANCH   6   8
ENDBRANCH   3   4
ENDBRANCH   2   3
ENDBRANCH   1   2
BRANCH   1  35
ATOM     35  C   UNL     1       2.261  10.373   4.960  1.00  0.00     0.002 C 
BRANCH  35  36
ATOM     36  C   UNL     1       1.663   8.987   5.223  1.00  0.00     0.021 C 
BRANCH  36  37
ATOM     37  C   UNL     1       1.602   8.550   6.685  1.00  0.00     0.116 C 
BRANCH  37  38
ATOM     38  N   UNL     1       0.868   9.482   7.520  1.00  0.00    -0.352 N 
ATOM     39  C   UNL     1      -0.113   9.244   8.450  1.00  0.00     0.251 C 
ATOM     40  H   UNL     1       1.110  10.429   7.401  1.00  0.00     0.163 HD
ATOM     41  O   UNL     1      -0.703  10.194   8.957  1.00  0.00    -0.269 OA
BRANCH  39  42
ATOM     42  C   UNL     1      -0.482   7.858   8.820  1.00  0.00     0.039 A 
ATOM     43  C   UNL     1      -1.838   7.538   8.938  1.00  0.00     0.014 A 
ATOM     44  C   UNL     1       0.488   6.885   9.076  1.00  0.00     0.014 A 
ATOM     45  C   UNL     1      -2.223   6.232   9.254  1.00  0.00     0.010 A 
ATOM     46  C   UNL     1       0.103   5.569   9.335  1.00  0.00     0.010 A 
ATOM     47  C   UNL     1      -1.256   5.230   9.427  1.00  0.00    -0.014 A 
BRANCH  47  48
ATOM     48  C   UNL     1      -1.648   3.825   9.710  1.00  0.00     0.031 A 
ATOM     49  C   UNL     1      -1.317   3.199  11.037  1.00  0.00     0.074 A 
ATOM     50  C   UNL     1      -2.245   3.093   8.748  1.00  0.00     0.049 A 
ATOM     51  N   UNL     1      -1.505   1.970  11.444  1.00  0.00    -0.248 NA
ATOM     52  C   UNL     1      -0.662   4.068  12.025  1.00  0.00     0.031 C 
ATOM     53  C   UNL     1      -2.586   3.576   7.409  1.00  0.00     0.029 A 
ATOM     54  N   UNL     1      -2.659   1.786   8.745  1.00  0.00    -0.354 N 
ATOM     55  C   UNL     1      -0.972   1.909  12.728  1.00  0.00     0.074 A 
ATOM     56  C   UNL     1      -0.412   3.216  13.008  1.00  0.00     0.031 C 
ATOM     57  C   UNL     1      -3.173   2.584   6.720  1.00  0.00     0.029 A 
ATOM     58  C   UNL     1      -3.216   1.385   7.553  1.00  0.00     0.049 A 
ATOM     59  H   UNL     1      -2.567   1.189   9.523  1.00  0.00     0.167 HD
ATOM     60  C   UNL     1      -0.964   0.866  13.596  1.00  0.00     0.034 A 
ATOM     61  C   UNL     1      -3.697   0.187   7.170  1.00  0.00     0.034 A 
ATOM     62  C   UNL     1      -1.547  -0.423  13.310  1.00  0.00     0.049 A 
ATOM     63  C   UNL     1      -3.671  -0.959   8.147  1.00  0.00     0.074 A 
ATOM     64  C   UNL     1      -1.665  -1.521  14.145  1.00  0.00     0.029 A 
ATOM     65  N   UNL     1      -2.103  -0.791  12.092  1.00  0.00    -0.354 N 
ATOM     66  N   UNL     1      -3.209  -0.986   9.375  1.00  0.00    -0.248 NA
ATOM     67  C   UNL     1      -4.238  -2.233   7.686  1.00  0.00     0.031 C 
ATOM     68  C   UNL     1      -2.239  -2.570  13.414  1.00  0.00     0.029 A 
ATOM     69  C   UNL     1      -2.536  -2.108  12.143  1.00  0.00     0.049 A 
ATOM     70  H   UNL     1      -2.179  -0.203  11.306  1.00  0.00     0.167 HD
ATOM     71  C   UNL     1      -3.457  -2.273   9.843  1.00  0.00     0.074 A 
ATOM     72  C   UNL     1      -4.114  -2.988   8.768  1.00  0.00     0.031 C 
ATOM     73  C   UNL     1      -3.175  -2.813  11.056  1.00  0.00     0.034 A 
BRANCH  60  74
ATOM     74  C   UNL     1      -0.273   1.076  14.922  1.00  0.00     0.023 A 
ATOM     75  C   UNL     1      -0.734   2.021  15.855  1.00  0.00     0.031 A 
ATOM     76  C   UNL     1       0.888   0.349  15.240  1.00  0.00     0.131 A 
ATOM     77  C   UNL     1       0.007   2.274  17.020  1.00  0.00     0.055 A 
ATOM     78  C   UNL     1       1.576   0.548  16.438  1.00  0.00     0.041 A 
ATOM     79  F   UNL     1       1.386  -0.553  14.380  1.00  0.00    -0.206 F 
ATOM     80  C   UNL     1       1.146   1.528  17.329  1.00  0.00     0.022 A 
BRANCH  77  81
ATOM     81  S   UNL     1      -0.455   3.696  18.047  1.00  0.00     0.124 S 
ATOM     82  O   UNL     1      -0.348   4.796  17.092  1.00  0.00    -0.237 OA
ATOM     83  O   UNL     1      -1.805   3.349  18.476  1.00  0.00    -0.237 OA
ATOM     84  O   UNL     1       0.555   3.698  19.104  1.00  0.00    -0.744 OA
ENDBRANCH  77  81
ENDBRANCH  60  74
BRANCH  61  85
ATOM     85  C   UNL     1      -4.242  -0.000   5.797  1.00  0.00     0.023 A 
ATOM     86  C   UNL     1      -5.611  -0.230   5.593  1.00  0.00     0.031 A 
ATOM     87  C   UNL     1      -3.397   0.019   4.674  1.00  0.00     0.131 A 
ATOM     88  C   UNL     1      -6.093  -0.469   4.297  1.00  0.00     0.055 A 
ATOM     89  C   UNL     1      -3.887  -0.179   3.382  1.00  0.00     0.041 A 
ATOM     90  F   UNL     1      -2.082   0.245   4.818  1.00  0.00    -0.206 F 
ATOM     91  C   UNL     1      -5.242  -0.435   3.189  1.00  0.00     0.022 A 
BRANCH  88  92
ATOM     92  S   UNL     1      -7.846  -0.881   4.085  1.00  0.00     0.124 S 
ATOM     93  O   UNL     1      -7.966  -2.091   4.889  1.00  0.00    -0.237 OA
ATOM     94  O   UNL     1      -8.502   0.310   4.614  1.00  0.00    -0.237 OA
ATOM     95  O   UNL     1      -7.978  -1.073   2.642  1.00  0.00    -0.744 OA
ENDBRANCH  88  92
ENDBRANCH  61  85
BRANCH  73  96
ATOM     96  C   UNL     1      -3.619  -4.235  11.287  1.00  0.00     0.023 A 
ATOM     97  C   UNL     1      -3.010  -5.315  10.624  1.00  0.00     0.031 A 
ATOM     98  C   UNL     1      -4.681  -4.508  12.166  1.00  0.00     0.131 A 
ATOM     99  C   UNL     1      -3.502  -6.615  10.813  1.00  0.00     0.055 A 
ATOM    100  C   UNL     1      -5.133  -5.809  12.389  1.00  0.00     0.041 A 
ATOM    101  F   UNL     1      -5.297  -3.511  12.822  1.00  0.00    -0.206 F 
ATOM    102  C   UNL     1      -4.551  -6.870  11.702  1.00  0.00     0.022 A 
BRANCH  99 103
ATOM    103  S   UNL     1      -2.806  -7.964   9.820  1.00  0.00     0.124 S 
ATOM    104  O   UNL     1      -3.088  -7.517   8.460  1.00  0.00    -0.237 OA
ATOM    105  O   UNL     1      -1.402  -7.952  10.218  1.00  0.00    -0.237 OA
ATOM    106  O   UNL     1      -3.562  -9.137  10.256  1.00  0.00    -0.744 OA
ENDBRANCH  99 103
ENDBRANCH  73  96
ENDBRANCH  47  48
ENDBRANCH  39  42
ENDBRANCH  37  38
ENDBRANCH  36  37
ENDBRANCH  35  36
ENDBRANCH   1  35
TORSDOF 20
