REMARK SMILES CC(C)C[C@H](NC(=O)[C@@H](NC(=O)[C@H](C)NC(=O)CNC(=O)OCc1ccccc1)C(C)C)C(=O)NCCCCCCNC(=O)c1ccc(-c2c3nc(c(-c4cc(S(=O)(=O)[O-])ccc4F)c4ccc([nH]4)c(-c4cc(S(=O)(=O)[O-])ccc4F)c4nc(c(-c5cc(S(=O)(=O)[O-])ccc5F)c5ccc2[nH]5)C=C4)C=C3)cc1
REMARK SMILES IDX 33 1 34 2 35 3 5 5 4 6 2 7 1 8 3 9 6 10 7 11 8 13 9 14 10 15
REMARK SMILES IDX 11 16 12 18 13 19 14 20 15 21 16 22 17 24 18 25 19 26 20 27
REMARK SMILES IDX 21 29 22 30 23 31 24 32 25 33 29 34 26 35 28 36 27 37 30 38
REMARK SMILES IDX 31 39 32 40 36 41 37 42 38 43 39 44 40 45 41 46 42 47 43 48
REMARK SMILES IDX 44 50 45 51 46 52 107 53 47 54 106 55 48 56 49 57 50 58
REMARK SMILES IDX 100 59 51 60 105 61 99 62 101 63 52 64 104 65 98 66 97 67
REMARK SMILES IDX 53 69 85 70 65 71 84 72 66 73 69 74 83 75 102 76 67 77 68 78
REMARK SMILES IDX 82 80 103 81 70 82 54 83 55 84 63 85 56 86 62 87 64 88 61 89
REMARK SMILES IDX 57 90 58 91 59 92 60 93 86 94 87 95 95 96 88 97 94 98 96 99
REMARK SMILES IDX 93 100 89 101 90 102 91 103 92 104 71 105 72 106 80 107
REMARK SMILES IDX 73 108 79 109 81 110 78 111 74 112 75 113 76 114 77 115
REMARK H PARENT 35 4 6 12 10 17 15 23 19 28 42 49 101 68 69 79
REMARK Flexibility Score: inf
ROOT
ATOM      1  C   UNL     1      -3.588   2.727  -2.007  1.00  0.00     0.242 C 
ATOM      2  O   UNL     1      -3.012   3.034  -0.962  1.00  0.00    -0.273 OA
ATOM      3  N   UNL     1      -3.566   3.659  -2.986  1.00  0.00    -0.354 N 
ATOM      4  H   UNL     1      -2.746   4.202  -3.018  1.00  0.00     0.163 HD
ENDROOT
BRANCH   1   5
ATOM      5  C   UNL     1      -4.362   1.404  -2.100  1.00  0.00     0.171 C 
BRANCH   5   6
ATOM      6  C   UNL     1      -4.236   0.688  -3.455  1.00  0.00     0.038 C 
BRANCH   6   7
ATOM      7  C   UNL     1      -3.035  -0.280  -3.486  1.00  0.00    -0.015 C 
ATOM      8  C   UNL     1      -3.358  -1.585  -2.753  1.00  0.00     0.007 C 
ATOM      9  C   UNL     1      -2.635  -0.585  -4.929  1.00  0.00     0.007 C 
ENDBRANCH   6   7
ENDBRANCH   5   6
BRANCH   5  10
ATOM     10  N   UNL     1      -5.747   1.593  -1.709  1.00  0.00    -0.343 N 
ATOM     11  C   UNL     1      -6.454   1.247  -0.611  1.00  0.00     0.243 C 
ATOM     12  H   UNL     1      -6.282   2.072  -2.383  1.00  0.00     0.164 HD
ATOM     13  O   UNL     1      -7.665   1.492  -0.706  1.00  0.00    -0.273 OA
BRANCH  11  14
ATOM     14  C   UNL     1      -5.898   0.603   0.710  1.00  0.00     0.174 C 
BRANCH  14  15
ATOM     15  N   UNL     1      -4.567  -0.040   0.743  1.00  0.00    -0.342 N 
ATOM     16  C   UNL     1      -3.301   0.290   1.118  1.00  0.00     0.242 C 
ATOM     17  H   UNL     1      -4.608  -0.962   0.398  1.00  0.00     0.164 HD
ATOM     18  O   UNL     1      -2.487  -0.644   1.101  1.00  0.00    -0.273 OA
BRANCH  16  19
ATOM     19  C   UNL     1      -2.882   1.677   1.650  1.00  0.00     0.168 C 
ATOM     20  C   UNL     1      -1.474   1.994   1.126  1.00  0.00     0.041 C 
BRANCH  19  21
ATOM     21  N   UNL     1      -2.786   1.612   3.111  1.00  0.00    -0.343 N 
ATOM     22  C   UNL     1      -3.071   2.521   4.081  1.00  0.00     0.240 C 
ATOM     23  H   UNL     1      -2.453   0.751   3.453  1.00  0.00     0.164 HD
ATOM     24  O   UNL     1      -2.844   2.186   5.248  1.00  0.00    -0.273 OA
BRANCH  22  25
ATOM     25  C   UNL     1      -3.817   3.829   3.786  1.00  0.00     0.219 C 
BRANCH  25  26
ATOM     26  N   UNL     1      -3.240   4.656   2.748  1.00  0.00    -0.312 N 
ATOM     27  C   UNL     1      -3.869   5.166   1.650  1.00  0.00     0.407 C 
ATOM     28  H   UNL     1      -2.286   4.876   2.846  1.00  0.00     0.167 HD
ATOM     29  O   UNL     1      -3.264   5.847   0.839  1.00  0.00    -0.225 OA
BRANCH  27  30
ATOM     30  O   UNL     1      -5.169   4.790   1.556  1.00  0.00    -0.445 OA
BRANCH  30  31
ATOM     31  C   UNL     1      -5.725   4.913   0.245  1.00  0.00     0.270 C 
BRANCH  31  32
ATOM     32  C   UNL     1      -6.587   6.131   0.047  1.00  0.00    -0.011 A 
ATOM     33  C   UNL     1      -7.963   6.095   0.310  1.00  0.00     0.007 A 
ATOM     34  C   UNL     1      -6.032   7.294  -0.503  1.00  0.00     0.007 A 
ATOM     35  C   UNL     1      -8.773   7.182  -0.028  1.00  0.00     0.000 A 
ATOM     36  C   UNL     1      -6.844   8.371  -0.856  1.00  0.00     0.000 A 
ATOM     37  C   UNL     1      -8.216   8.312  -0.626  1.00  0.00     0.000 A 
ENDBRANCH  31  32
ENDBRANCH  30  31
ENDBRANCH  27  30
ENDBRANCH  25  26
ENDBRANCH  22  25
ENDBRANCH  19  21
ENDBRANCH  16  19
ENDBRANCH  14  15
BRANCH  14  38
ATOM     38  C   UNL     1      -6.237   1.393   2.008  1.00  0.00     0.015 C 
ATOM     39  C   UNL     1      -7.643   2.005   2.065  1.00  0.00     0.010 C 
ATOM     40  C   UNL     1      -6.068   0.510   3.259  1.00  0.00     0.010 C 
ENDBRANCH  14  38
ENDBRANCH  11  14
ENDBRANCH   5  10
ENDBRANCH   1   5
BRANCH   3  41
ATOM     41  C   UNL     1      -4.552   3.987  -3.994  1.00  0.00     0.116 C 
BRANCH  41  42
ATOM     42  C   UNL     1      -5.206   5.334  -3.678  1.00  0.00     0.021 C 
BRANCH  42  43
ATOM     43  C   UNL     1      -4.226   6.506  -3.499  1.00  0.00     0.002 C 
BRANCH  43  44
ATOM     44  C   UNL     1      -3.325   6.795  -4.701  1.00  0.00     0.002 C 
BRANCH  44  45
ATOM     45  C   UNL     1      -4.074   7.053  -6.007  1.00  0.00     0.021 C 
BRANCH  45  46
ATOM     46  C   UNL     1      -5.156   8.124  -5.919  1.00  0.00     0.116 C 
BRANCH  46  47
ATOM     47  N   UNL     1      -4.615   9.439  -5.618  1.00  0.00    -0.352 N 
ATOM     48  C   UNL     1      -4.818  10.617  -6.298  1.00  0.00     0.251 C 
ATOM     49  H   UNL     1      -4.029   9.493  -4.828  1.00  0.00     0.163 HD
ATOM     50  O   UNL     1      -4.168  11.619  -6.019  1.00  0.00    -0.269 OA
BRANCH  48  51
ATOM     51  C   UNL     1      -5.807  10.638  -7.394  1.00  0.00     0.039 A 
ATOM     52  C   UNL     1      -5.408  11.066  -8.661  1.00  0.00     0.014 A 
ATOM     53  C   UNL     1      -7.102  10.155  -7.179  1.00  0.00     0.014 A 
ATOM     54  C   UNL     1      -6.289  10.938  -9.736  1.00  0.00     0.010 A 
ATOM     55  C   UNL     1      -7.952   9.966  -8.264  1.00  0.00     0.010 A 
ATOM     56  C   UNL     1      -7.551  10.348  -9.554  1.00  0.00    -0.014 A 
BRANCH  56  57
ATOM     57  C   UNL     1      -8.463  10.108 -10.702  1.00  0.00     0.031 A 
ATOM     58  C   UNL     1      -9.788  10.813 -10.767  1.00  0.00     0.074 A 
ATOM     59  C   UNL     1      -8.132   9.197 -11.637  1.00  0.00     0.049 A 
ATOM     60  N   UNL     1     -10.761  10.672 -11.630  1.00  0.00    -0.248 NA
ATOM     61  C   UNL     1     -10.067  11.780  -9.695  1.00  0.00     0.031 C 
ATOM     62  C   UNL     1      -6.897   8.410 -11.650  1.00  0.00     0.029 A 
ATOM     63  N   UNL     1      -8.813   8.762 -12.746  1.00  0.00    -0.354 N 
ATOM     64  C   UNL     1     -11.771  11.527 -11.204  1.00  0.00     0.074 A 
ATOM     65  C   UNL     1     -11.316  12.124  -9.965  1.00  0.00     0.031 C 
ATOM     66  C   UNL     1      -6.906   7.595 -12.717  1.00  0.00     0.029 A 
ATOM     67  C   UNL     1      -8.162   7.769 -13.441  1.00  0.00     0.049 A 
ATOM     68  H   UNL     1      -9.686   9.127 -13.020  1.00  0.00     0.167 HD
ATOM     69  C   UNL     1     -12.955  11.808 -11.804  1.00  0.00     0.034 A 
ATOM     70  C   UNL     1      -8.541   7.064 -14.525  1.00  0.00     0.034 A 
ATOM     71  C   UNL     1     -13.390  11.200 -13.038  1.00  0.00     0.049 A 
ATOM     72  C   UNL     1      -9.871   7.368 -15.163  1.00  0.00     0.074 A 
ATOM     73  C   UNL     1     -14.539  11.451 -13.767  1.00  0.00     0.029 A 
ATOM     74  N   UNL     1     -12.699  10.205 -13.721  1.00  0.00    -0.354 N 
ATOM     75  N   UNL     1     -10.790   8.227 -14.785  1.00  0.00    -0.248 NA
ATOM     76  C   UNL     1     -10.210   6.617 -16.378  1.00  0.00     0.031 C 
ATOM     77  C   UNL     1     -14.576  10.563 -14.849  1.00  0.00     0.029 A 
ATOM     78  C   UNL     1     -13.415   9.807 -14.840  1.00  0.00     0.049 A 
ATOM     79  H   UNL     1     -11.828   9.836 -13.449  1.00  0.00     0.167 HD
ATOM     80  C   UNL     1     -11.809   8.132 -15.728  1.00  0.00     0.074 A 
ATOM     81  C   UNL     1     -11.383   7.145 -16.700  1.00  0.00     0.031 C 
ATOM     82  C   UNL     1     -12.989   8.802 -15.787  1.00  0.00     0.034 A 
BRANCH  69  83
ATOM     83  C   UNL     1     -13.861  12.797 -11.107  1.00  0.00     0.023 A 
ATOM     84  C   UNL     1     -13.457  14.123 -10.870  1.00  0.00     0.031 A 
ATOM     85  C   UNL     1     -15.120  12.399 -10.624  1.00  0.00     0.131 A 
ATOM     86  C   UNL     1     -14.255  14.971 -10.088  1.00  0.00     0.055 A 
ATOM     87  C   UNL     1     -15.951  13.277  -9.924  1.00  0.00     0.041 A 
ATOM     88  F   UNL     1     -15.555  11.142 -10.801  1.00  0.00    -0.206 F 
ATOM     89  C   UNL     1     -15.511  14.566  -9.634  1.00  0.00     0.022 A 
BRANCH  86  90
ATOM     90  S   UNL     1     -13.548  16.544  -9.526  1.00  0.00     0.124 S 
ATOM     91  O   UNL     1     -12.348  16.094  -8.823  1.00  0.00    -0.237 OA
ATOM     92  O   UNL     1     -13.325  17.255 -10.780  1.00  0.00    -0.237 OA
ATOM     93  O   UNL     1     -14.591  17.102  -8.668  1.00  0.00    -0.744 OA
ENDBRANCH  86  90
ENDBRANCH  69  83
BRANCH  70  94
ATOM     94  C   UNL     1      -7.663   5.983 -15.056  1.00  0.00     0.023 A 
ATOM     95  C   UNL     1      -7.045   6.098 -16.311  1.00  0.00     0.031 A 
ATOM     96  C   UNL     1      -7.440   4.809 -14.314  1.00  0.00     0.131 A 
ATOM     97  C   UNL     1      -6.260   5.042 -16.802  1.00  0.00     0.055 A 
ATOM     98  C   UNL     1      -6.623   3.781 -14.787  1.00  0.00     0.041 A 
ATOM     99  F   UNL     1      -8.001   4.655 -13.104  1.00  0.00    -0.206 F 
ATOM    100  C   UNL     1      -6.035   3.891 -16.043  1.00  0.00     0.022 A 
BRANCH  97 101
ATOM    101  S   UNL     1      -5.580   5.169 -18.478  1.00  0.00     0.124 S 
ATOM    102  O   UNL     1      -6.790   5.304 -19.281  1.00  0.00    -0.237 OA
ATOM    103  O   UNL     1      -4.741   6.358 -18.375  1.00  0.00    -0.237 OA
ATOM    104  O   UNL     1      -4.855   3.911 -18.647  1.00  0.00    -0.744 OA
ENDBRANCH  97 101
ENDBRANCH  70  94
BRANCH  82 105
ATOM    105  C   UNL     1     -13.888   8.500 -16.960  1.00  0.00     0.023 A 
ATOM    106  C   UNL     1     -14.519   7.252 -17.104  1.00  0.00     0.031 A 
ATOM    107  C   UNL     1     -14.111   9.473 -17.950  1.00  0.00     0.131 A 
ATOM    108  C   UNL     1     -15.305   6.993 -18.238  1.00  0.00     0.055 A 
ATOM    109  C   UNL     1     -14.939   9.229 -19.047  1.00  0.00     0.041 A 
ATOM    110  F   UNL     1     -13.531  10.681 -17.864  1.00  0.00    -0.206 F 
ATOM    111  C   UNL     1     -15.532   7.979 -19.201  1.00  0.00     0.022 A 
BRANCH 108 112
ATOM    112  S   UNL     1     -15.963   5.320 -18.479  1.00  0.00     0.124 S 
ATOM    113  O   UNL     1     -14.744   4.520 -18.535  1.00  0.00    -0.237 OA
ATOM    114  O   UNL     1     -16.793   5.136 -17.292  1.00  0.00    -0.237 OA
ATOM    115  O   UNL     1     -16.698   5.419 -19.738  1.00  0.00    -0.744 OA
ENDBRANCH 108 112
ENDBRANCH  82 105
ENDBRANCH  56  57
ENDBRANCH  48  51
ENDBRANCH  46  47
ENDBRANCH  45  46
ENDBRANCH  44  45
ENDBRANCH  43  44
ENDBRANCH  42  43
ENDBRANCH  41  42
ENDBRANCH   3  41
TORSDOF 29
