REMARK SMILES CCc1cc(OCC(=O)NCCCCCCNC(=O)c2ccc(-c3c4nc(c(-c5cc(S(=O)(=O)[O-])ccc5F)c5ccc([nH]5)c(-c5cc(S(=O)(=O)[O-])ccc5F)c5nc(c(-c6cc(S(=O)(=O)[O-])ccc6F)c6ccc3[nH]6)C=C5)C=C4)cc2)nc(Nc2ccc(C)c(F)c2)n1
REMARK SMILES IDX 13 1 12 2 11 3 10 4 8 5 9 6 7 8 6 9 5 10 3 11 4 12 94 13
REMARK SMILES IDX 84 14 83 15 2 16 1 17 85 18 86 20 87 21 93 22 88 23 91 24
REMARK SMILES IDX 89 25 92 26 90 27 14 28 15 29 16 30 17 31 18 32 19 34 20 35
REMARK SMILES IDX 21 36 82 37 22 38 81 39 23 40 24 41 25 42 75 43 26 44 80 45
REMARK SMILES IDX 74 46 76 47 27 48 79 49 73 50 72 51 28 53 60 54 40 55 59 56
REMARK SMILES IDX 41 57 44 58 58 59 77 60 42 61 43 62 57 64 78 65 45 66 29 67
REMARK SMILES IDX 30 68 38 69 31 70 37 71 39 72 36 73 32 74 33 75 34 76 35 77
REMARK SMILES IDX 61 78 62 79 70 80 63 81 69 82 71 83 68 84 64 85 65 86 66 87
REMARK SMILES IDX 67 88 46 89 47 90 55 91 48 92 54 93 56 94 53 95 49 96 50 97
REMARK SMILES IDX 51 98 52 99
REMARK H PARENT 10 7 85 19 17 33 76 52 44 63
REMARK Flexibility Score: inf
ROOT
ATOM      1  C   UNL     1       4.963   4.996   0.392  1.00  0.00     0.002 C 
ENDROOT
BRANCH   1   2
ATOM      2  C   UNL     1       3.907   5.269   1.472  1.00  0.00     0.021 C 
BRANCH   2   3
ATOM      3  C   UNL     1       2.637   5.955   0.972  1.00  0.00     0.116 C 
BRANCH   3   4
ATOM      4  N   UNL     1       1.934   5.146  -0.006  1.00  0.00    -0.353 N 
ATOM      5  C   UNL     1       0.710   4.560   0.102  1.00  0.00     0.258 C 
ATOM      6  O   UNL     1       0.278   3.896  -0.844  1.00  0.00    -0.271 OA
ATOM      7  H   UNL     1       2.404   5.002  -0.859  1.00  0.00     0.163 HD
BRANCH   5   8
ATOM      8  C   UNL     1      -0.120   4.754   1.377  1.00  0.00     0.331 C 
BRANCH   8   9
ATOM      9  O   UNL     1       0.447   4.334   2.604  1.00  0.00    -0.467 OA
BRANCH   9  10
ATOM     10  C   UNL     1       0.752   3.012   2.758  1.00  0.00     0.218 A 
ATOM     11  C   UNL     1       0.875   0.753   2.172  1.00  0.00     0.050 A 
ATOM     12  C   UNL     1       0.399   2.011   1.884  1.00  0.00     0.092 A 
ATOM     13  N   UNL     1       1.604   0.506   3.272  1.00  0.00    -0.218 NA
ATOM     14  C   UNL     1       1.847   1.522   4.114  1.00  0.00     0.230 A 
ATOM     15  N   UNL     1       1.444   2.777   3.885  1.00  0.00    -0.177 NA
BRANCH  11  16
ATOM     16  C   UNL     1       0.581  -0.417   1.272  1.00  0.00     0.053 C 
ATOM     17  C   UNL     1       1.184  -0.258  -0.116  1.00  0.00     0.011 C 
ENDBRANCH  11  16
BRANCH  14  18
ATOM     18  N   UNL     1       2.458   1.275   5.340  1.00  0.00    -0.324 N 
ATOM     19  H   UNL     1       2.492   2.041   5.958  1.00  0.00     0.170 HD
BRANCH  18  20
ATOM     20  C   UNL     1       3.031   0.093   5.818  1.00  0.00     0.044 A 
ATOM     21  C   UNL     1       2.742  -0.343   7.118  1.00  0.00     0.026 A 
ATOM     22  C   UNL     1       3.801  -0.738   4.999  1.00  0.00     0.065 A 
ATOM     23  C   UNL     1       3.203  -1.580   7.583  1.00  0.00     0.008 A 
ATOM     24  C   UNL     1       4.278  -1.957   5.471  1.00  0.00     0.128 A 
ATOM     25  C   UNL     1       3.983  -2.400   6.760  1.00  0.00    -0.015 A 
ATOM     26  F   UNL     1       5.023  -2.717   4.655  1.00  0.00    -0.207 F 
ATOM     27  C   UNL     1       4.449  -3.738   7.244  1.00  0.00     0.047 C 
ENDBRANCH  18  20
ENDBRANCH  14  18
ENDBRANCH   9  10
ENDBRANCH   8   9
ENDBRANCH   5   8
ENDBRANCH   3   4
ENDBRANCH   2   3
ENDBRANCH   1   2
BRANCH   1  28
ATOM     28  C   UNL     1       5.389   6.208  -0.444  1.00  0.00     0.002 C 
BRANCH  28  29
ATOM     29  C   UNL     1       5.872   7.423   0.351  1.00  0.00     0.021 C 
BRANCH  29  30
ATOM     30  C   UNL     1       7.060   7.165   1.272  1.00  0.00     0.116 C 
BRANCH  30  31
ATOM     31  N   UNL     1       8.251   6.776   0.539  1.00  0.00    -0.352 N 
ATOM     32  C   UNL     1       9.524   7.280   0.603  1.00  0.00     0.251 C 
ATOM     33  H   UNL     1       8.125   6.038  -0.101  1.00  0.00     0.163 HD
ATOM     34  O   UNL     1      10.346   6.935  -0.249  1.00  0.00    -0.269 OA
BRANCH  32  35
ATOM     35  C   UNL     1       9.913   8.243   1.660  1.00  0.00     0.039 A 
ATOM     36  C   UNL     1      10.782   9.287   1.329  1.00  0.00     0.014 A 
ATOM     37  C   UNL     1       9.470   8.104   2.979  1.00  0.00     0.014 A 
ATOM     38  C   UNL     1      11.177  10.203   2.307  1.00  0.00     0.010 A 
ATOM     39  C   UNL     1       9.801   9.064   3.935  1.00  0.00     0.010 A 
ATOM     40  C   UNL     1      10.677  10.111   3.616  1.00  0.00    -0.014 A 
BRANCH  40  41
ATOM     41  C   UNL     1      11.107  11.077   4.663  1.00  0.00     0.031 A 
ATOM     42  C   UNL     1      11.915  10.605   5.843  1.00  0.00     0.074 A 
ATOM     43  C   UNL     1      10.761  12.374   4.561  1.00  0.00     0.049 A 
ATOM     44  N   UNL     1      12.400  11.293   6.847  1.00  0.00    -0.248 NA
ATOM     45  C   UNL     1      12.184   9.163   5.919  1.00  0.00     0.031 C 
ATOM     46  C   UNL     1       9.948  12.949   3.487  1.00  0.00     0.029 A 
ATOM     47  N   UNL     1      11.059  13.447   5.362  1.00  0.00    -0.354 N 
ATOM     48  C   UNL     1      13.032  10.366   7.671  1.00  0.00     0.074 A 
ATOM     49  C   UNL     1      12.786   9.062   7.093  1.00  0.00     0.031 C 
ATOM     50  C   UNL     1       9.855  14.276   3.670  1.00  0.00     0.029 A 
ATOM     51  C   UNL     1      10.569  14.642   4.889  1.00  0.00     0.049 A 
ATOM     52  H   UNL     1      11.574  13.369   6.197  1.00  0.00     0.167 HD
ATOM     53  C   UNL     1      13.777  10.582   8.786  1.00  0.00     0.034 A 
ATOM     54  C   UNL     1      10.696  15.893   5.375  1.00  0.00     0.034 A 
ATOM     55  C   UNL     1      14.008  11.889   9.354  1.00  0.00     0.049 A 
ATOM     56  C   UNL     1      11.502  16.110   6.629  1.00  0.00     0.074 A 
ATOM     57  C   UNL     1      14.758  12.231  10.467  1.00  0.00     0.029 A 
ATOM     58  N   UNL     1      13.483  13.076   8.855  1.00  0.00    -0.354 N 
ATOM     59  N   UNL     1      12.130  15.231   7.375  1.00  0.00    -0.248 NA
ATOM     60  C   UNL     1      11.632  17.497   7.091  1.00  0.00     0.031 C 
ATOM     61  C   UNL     1      14.635  13.611  10.675  1.00  0.00     0.029 A 
ATOM     62  C   UNL     1      13.874  14.146   9.648  1.00  0.00     0.049 A 
ATOM     63  H   UNL     1      12.915  13.147   8.054  1.00  0.00     0.167 HD
ATOM     64  C   UNL     1      12.766  15.966   8.373  1.00  0.00     0.074 A 
ATOM     65  C   UNL     1      12.452  17.359   8.122  1.00  0.00     0.031 C 
ATOM     66  C   UNL     1      13.545  15.531   9.397  1.00  0.00     0.034 A 
BRANCH  53  67
ATOM     67  C   UNL     1      14.366   9.361   9.461  1.00  0.00     0.023 A 
ATOM     68  C   UNL     1      15.249   8.501   8.782  1.00  0.00     0.031 A 
ATOM     69  C   UNL     1      13.987   9.007  10.768  1.00  0.00     0.131 A 
ATOM     70  C   UNL     1      15.629   7.281   9.362  1.00  0.00     0.055 A 
ATOM     71  C   UNL     1      14.451   7.840  11.379  1.00  0.00     0.041 A 
ATOM     72  F   UNL     1      13.134   9.774  11.465  1.00  0.00    -0.206 F 
ATOM     73  C   UNL     1      15.258   6.956  10.668  1.00  0.00     0.022 A 
BRANCH  70  74
ATOM     74  S   UNL     1      16.444   6.044   8.313  1.00  0.00     0.124 S 
ATOM     75  O   UNL     1      15.468   5.883   7.237  1.00  0.00    -0.237 OA
ATOM     76  O   UNL     1      17.690   6.709   7.953  1.00  0.00    -0.237 OA
ATOM     77  O   UNL     1      16.584   4.887   9.195  1.00  0.00    -0.744 OA
ENDBRANCH  70  74
ENDBRANCH  53  67
BRANCH  54  78
ATOM     78  C   UNL     1      10.079  17.044   4.658  1.00  0.00     0.023 A 
ATOM     79  C   UNL     1      10.881  18.031   4.062  1.00  0.00     0.031 A 
ATOM     80  C   UNL     1       8.683  17.193   4.585  1.00  0.00     0.131 A 
ATOM     81  C   UNL     1      10.283  19.145   3.455  1.00  0.00     0.055 A 
ATOM     82  C   UNL     1       8.092  18.280   3.938  1.00  0.00     0.041 A 
ATOM     83  F   UNL     1       7.873  16.273   5.131  1.00  0.00    -0.206 F 
ATOM     84  C   UNL     1       8.894  19.271   3.378  1.00  0.00     0.022 A 
BRANCH  81  85
ATOM     85  S   UNL     1      11.352  20.467   2.822  1.00  0.00     0.124 S 
ATOM     86  O   UNL     1      12.055  20.885   4.030  1.00  0.00    -0.237 OA
ATOM     87  O   UNL     1      12.150  19.761   1.826  1.00  0.00    -0.237 OA
ATOM     88  O   UNL     1      10.405  21.440   2.282  1.00  0.00    -0.744 OA
ENDBRANCH  81  85
ENDBRANCH  54  78
BRANCH  66  89
ATOM     89  C   UNL     1      14.156  16.590  10.285  1.00  0.00     0.023 A 
ATOM     90  C   UNL     1      13.368  17.434  11.088  1.00  0.00     0.031 A 
ATOM     91  C   UNL     1      15.549  16.787  10.291  1.00  0.00     0.131 A 
ATOM     92  C   UNL     1      13.969  18.483  11.801  1.00  0.00     0.055 A 
ATOM     93  C   UNL     1      16.148  17.788  11.057  1.00  0.00     0.041 A 
ATOM     94  F   UNL     1      16.352  16.013   9.544  1.00  0.00    -0.206 F 
ATOM     95  C   UNL     1      15.355  18.656  11.802  1.00  0.00     0.022 A 
BRANCH  92  96
ATOM     96  S   UNL     1      12.902  19.700  12.622  1.00  0.00     0.124 S 
ATOM     97  O   UNL     1      12.048  20.145  11.526  1.00  0.00    -0.237 OA
ATOM     98  O   UNL     1      12.251  18.897  13.652  1.00  0.00    -0.237 OA
ATOM     99  O   UNL     1      13.844  20.701  13.120  1.00  0.00    -0.744 OA
ENDBRANCH  92  96
ENDBRANCH  66  89
ENDBRANCH  40  41
ENDBRANCH  32  35
ENDBRANCH  30  31
ENDBRANCH  29  30
ENDBRANCH  28  29
ENDBRANCH   1  28
TORSDOF 21
