REMARK SMILES O=C(NCCCCCCNC(=O)C1(C/C=C/c2ccccc2)CCCCC1)c1ccc(-c2c3nc(c(-c4cc(S(=O)(=O)[O-])ccc4F)c4ccc([nH]4)c(-c4cc(S(=O)(=O)[O-])ccc4F)c4nc(c(-c5cc(S(=O)(=O)[O-])ccc5F)c5ccc2[nH]5)C=C4)C=C3)cc1
REMARK SMILES IDX 6 1 5 2 4 3 3 4 1 5 2 6 28 8 29 9 90 10 30 11 89 12 31 13
REMARK SMILES IDX 32 14 33 15 83 16 34 17 88 18 82 19 84 20 35 21 87 22 81 23
REMARK SMILES IDX 80 24 36 26 68 27 48 28 67 29 49 30 52 31 66 32 85 33 50 34
REMARK SMILES IDX 51 35 65 37 86 38 53 39 37 40 38 41 46 42 39 43 45 44 47 45
REMARK SMILES IDX 44 46 40 47 41 48 42 49 43 50 69 51 70 52 78 53 71 54 77 55
REMARK SMILES IDX 79 56 76 57 72 58 73 59 74 60 75 61 54 62 55 63 63 64 56 65
REMARK SMILES IDX 62 66 64 67 61 68 57 69 58 70 59 71 60 72 7 73 8 74 9 75
REMARK SMILES IDX 10 76 11 77 12 79 13 80 23 81 27 82 24 83 26 84 25 85 14 86
REMARK SMILES IDX 15 87 16 88 17 89 18 90 22 91 19 92 21 93 20 94
REMARK H PARENT 3 7 84 25 52 36 10 78
REMARK Flexibility Score: inf
ROOT
ATOM      1  C   UNL     1       4.004  -2.860  -2.572  1.00  0.00     0.002 C 
ENDROOT
BRANCH   1   2
ATOM      2  C   UNL     1       4.393  -2.467  -1.147  1.00  0.00     0.021 C 
BRANCH   2   3
ATOM      3  C   UNL     1       4.306  -0.973  -0.861  1.00  0.00     0.116 C 
BRANCH   3   4
ATOM      4  N   UNL     1       2.933  -0.493  -0.871  1.00  0.00    -0.352 N 
ATOM      5  O   UNL     1       1.043   0.353   0.028  1.00  0.00    -0.269 OA
ATOM      6  C   UNL     1       2.251   0.185   0.114  1.00  0.00     0.251 C 
ATOM      7  H   UNL     1       2.423  -0.676  -1.693  1.00  0.00     0.163 HD
BRANCH   6   8
ATOM      8  C   UNL     1       2.998   0.692   1.288  1.00  0.00     0.039 A 
ATOM      9  C   UNL     1       4.207   1.369   1.115  1.00  0.00     0.014 A 
ATOM     10  C   UNL     1       2.489   0.475   2.571  1.00  0.00     0.014 A 
ATOM     11  C   UNL     1       4.974   1.702   2.224  1.00  0.00     0.010 A 
ATOM     12  C   UNL     1       3.223   0.892   3.686  1.00  0.00     0.010 A 
ATOM     13  C   UNL     1       4.487   1.481   3.523  1.00  0.00    -0.014 A 
BRANCH  13  14
ATOM     14  C   UNL     1       5.303   1.920   4.685  1.00  0.00     0.031 A 
ATOM     15  C   UNL     1       5.863   0.926   5.665  1.00  0.00     0.074 A 
ATOM     16  C   UNL     1       5.572   3.234   4.823  1.00  0.00     0.049 A 
ATOM     17  N   UNL     1       6.628   1.135   6.706  1.00  0.00    -0.248 NA
ATOM     18  C   UNL     1       5.508  -0.485   5.456  1.00  0.00     0.031 C 
ATOM     19  C   UNL     1       5.075   4.289   3.935  1.00  0.00     0.029 A 
ATOM     20  N   UNL     1       6.343   3.906   5.734  1.00  0.00    -0.354 N 
ATOM     21  C   UNL     1       6.830  -0.111   7.291  1.00  0.00     0.074 A 
ATOM     22  C   UNL     1       6.077  -1.065   6.503  1.00  0.00     0.031 C 
ATOM     23  C   UNL     1       5.604   5.463   4.308  1.00  0.00     0.029 A 
ATOM     24  C   UNL     1       6.418   5.259   5.500  1.00  0.00     0.049 A 
ATOM     25  H   UNL     1       6.801   3.462   6.485  1.00  0.00     0.167 HD
ATOM     26  C   UNL     1       7.579  -0.427   8.379  1.00  0.00     0.034 A 
ATOM     27  C   UNL     1       7.060   6.231   6.174  1.00  0.00     0.034 A 
ATOM     28  C   UNL     1       8.329   0.541   9.147  1.00  0.00     0.049 A 
ATOM     29  C   UNL     1       7.858   5.858   7.392  1.00  0.00     0.074 A 
ATOM     30  C   UNL     1       9.152   0.326  10.239  1.00  0.00     0.029 A 
ATOM     31  N   UNL     1       8.339   1.912   8.912  1.00  0.00    -0.354 N 
ATOM     32  N   UNL     1       8.058   4.671   7.917  1.00  0.00    -0.248 NA
ATOM     33  C   UNL     1       8.519   6.956   8.106  1.00  0.00     0.031 C 
ATOM     34  C   UNL     1       9.603   1.568  10.704  1.00  0.00     0.029 A 
ATOM     35  C   UNL     1       9.125   2.555   9.857  1.00  0.00     0.049 A 
ATOM     36  H   UNL     1       7.858   2.361   8.180  1.00  0.00     0.167 HD
ATOM     37  C   UNL     1       8.887   4.880   9.015  1.00  0.00     0.074 A 
ATOM     38  C   UNL     1       9.165   6.302   9.059  1.00  0.00     0.031 C 
ATOM     39  C   UNL     1       9.376   3.977   9.903  1.00  0.00     0.034 A 
BRANCH  26  40
ATOM     40  C   UNL     1       7.579  -1.870   8.829  1.00  0.00     0.023 A 
ATOM     41  C   UNL     1       8.091  -2.903   8.024  1.00  0.00     0.031 A 
ATOM     42  C   UNL     1       7.029  -2.223  10.076  1.00  0.00     0.131 A 
ATOM     43  C   UNL     1       7.974  -4.240   8.438  1.00  0.00     0.055 A 
ATOM     44  C   UNL     1       6.989  -3.547  10.517  1.00  0.00     0.041 A 
ATOM     45  F   UNL     1       6.507  -1.285  10.882  1.00  0.00    -0.206 F 
ATOM     46  C   UNL     1       7.448  -4.567   9.690  1.00  0.00     0.022 A 
BRANCH  43  47
ATOM     47  S   UNL     1       8.381  -5.553   7.253  1.00  0.00     0.124 S 
ATOM     48  O   UNL     1       7.503  -5.225   6.133  1.00  0.00    -0.237 OA
ATOM     49  O   UNL     1       9.807  -5.344   7.028  1.00  0.00    -0.237 OA
ATOM     50  O   UNL     1       8.034  -6.780   7.968  1.00  0.00    -0.744 OA
ENDBRANCH  43  47
ENDBRANCH  26  40
BRANCH  27  51
ATOM     51  C   UNL     1       6.960   7.648   5.723  1.00  0.00     0.023 A 
ATOM     52  C   UNL     1       8.092   8.344   5.274  1.00  0.00     0.031 A 
ATOM     53  C   UNL     1       5.732   8.332   5.755  1.00  0.00     0.131 A 
ATOM     54  C   UNL     1       7.981   9.694   4.909  1.00  0.00     0.055 A 
ATOM     55  C   UNL     1       5.616   9.659   5.341  1.00  0.00     0.041 A 
ATOM     56  F   UNL     1       4.618   7.709   6.172  1.00  0.00    -0.206 F 
ATOM     57  C   UNL     1       6.748  10.352   4.925  1.00  0.00     0.022 A 
BRANCH  54  58
ATOM     58  S   UNL     1       9.490  10.603   4.477  1.00  0.00     0.124 S 
ATOM     59  O   UNL     1      10.286  10.451   5.689  1.00  0.00    -0.237 OA
ATOM     60  O   UNL     1       9.959   9.871   3.305  1.00  0.00    -0.237 OA
ATOM     61  O   UNL     1       9.007  11.957   4.212  1.00  0.00    -0.744 OA
ENDBRANCH  54  58
ENDBRANCH  27  51
BRANCH  39  62
ATOM     62  C   UNL     1      10.294   4.515  10.974  1.00  0.00     0.023 A 
ATOM     63  C   UNL     1       9.832   5.391  11.972  1.00  0.00     0.031 A 
ATOM     64  C   UNL     1      11.660   4.181  10.967  1.00  0.00     0.131 A 
ATOM     65  C   UNL     1      10.739   5.955  12.881  1.00  0.00     0.055 A 
ATOM     66  C   UNL     1      12.547   4.697  11.913  1.00  0.00     0.041 A 
ATOM     67  F   UNL     1      12.157   3.353  10.034  1.00  0.00    -0.206 F 
ATOM     68  C   UNL     1      12.091   5.602  12.867  1.00  0.00     0.022 A 
BRANCH  65  69
ATOM     69  S   UNL     1      10.149   7.244  14.013  1.00  0.00     0.124 S 
ATOM     70  O   UNL     1       9.620   8.242  13.088  1.00  0.00    -0.237 OA
ATOM     71  O   UNL     1       9.160   6.528  14.813  1.00  0.00    -0.237 OA
ATOM     72  O   UNL     1      11.355   7.646  14.734  1.00  0.00    -0.744 OA
ENDBRANCH  65  69
ENDBRANCH  39  62
ENDBRANCH  13  14
ENDBRANCH   6   8
ENDBRANCH   3   4
ENDBRANCH   2   3
ENDBRANCH   1   2
BRANCH   1  73
ATOM     73  C   UNL     1       4.822  -2.180  -3.676  1.00  0.00     0.002 C 
BRANCH  73  74
ATOM     74  C   UNL     1       6.345  -2.292  -3.519  1.00  0.00     0.021 C 
BRANCH  74  75
ATOM     75  C   UNL     1       6.863  -3.733  -3.535  1.00  0.00     0.116 C 
BRANCH  75  76
ATOM     76  N   UNL     1       6.733  -4.282  -4.872  1.00  0.00    -0.356 N 
ATOM     77  C   UNL     1       7.606  -4.349  -5.913  1.00  0.00     0.226 C 
ATOM     78  H   UNL     1       5.852  -4.680  -5.060  1.00  0.00     0.163 HD
ATOM     79  O   UNL     1       7.076  -4.442  -7.025  1.00  0.00    -0.274 OA
BRANCH  77  80
ATOM     80  C   UNL     1       9.148  -4.333  -5.724  1.00  0.00     0.053 C 
ATOM     81  C   UNL     1       9.622  -2.941  -5.220  1.00  0.00     0.017 C 
ATOM     82  C   UNL     1       9.557  -5.459  -4.736  1.00  0.00     0.017 C 
ATOM     83  C   UNL     1      11.068  -2.911  -4.719  1.00  0.00     0.001 C 
ATOM     84  C   UNL     1      11.019  -5.393  -4.305  1.00  0.00     0.001 C 
ATOM     85  C   UNL     1      11.357  -4.027  -3.723  1.00  0.00     0.000 C 
BRANCH  80  86
ATOM     86  C   UNL     1       9.827  -4.553  -7.128  1.00  0.00     0.044 C 
BRANCH  86  87
ATOM     87  C   UNL     1       9.585  -5.885  -7.795  1.00  0.00    -0.025 C 
ATOM     88  C   UNL     1       8.906  -6.013  -8.947  1.00  0.00     0.004 C 
BRANCH  88  89
ATOM     89  C   UNL     1       8.583  -7.307  -9.548  1.00  0.00    -0.026 A 
ATOM     90  C   UNL     1       8.824  -7.521 -10.909  1.00  0.00     0.008 A 
ATOM     91  C   UNL     1       7.961  -8.313  -8.797  1.00  0.00     0.008 A 
ATOM     92  C   UNL     1       8.473  -8.735 -11.504  1.00  0.00     0.001 A 
ATOM     93  C   UNL     1       7.607  -9.524  -9.393  1.00  0.00     0.001 A 
ATOM     94  C   UNL     1       7.866  -9.736 -10.746  1.00  0.00     0.000 A 
ENDBRANCH  88  89
ENDBRANCH  86  87
ENDBRANCH  80  86
ENDBRANCH  77  80
ENDBRANCH  75  76
ENDBRANCH  74  75
ENDBRANCH  73  74
ENDBRANCH   1  73
TORSDOF 19
