REMARK SMILES O=C(CCn1cc(/C=C\C(=O)c2ccc(F)cc2)c(-c2cccc(Cl)c2)n1)NCCCCCCNC(=O)c1ccc(-c2c3nc(c(-c4cc(S(=O)(=O)[O-])ccc4F)c4ccc([nH]4)c(-c4cc(S(=O)(=O)[O-])ccc4F)c4nc(c(-c5cc(S(=O)(=O)[O-])ccc5F)c5ccc2[nH]5)C=C4)C=C3)cc1
REMARK SMILES IDX 30 1 29 2 28 3 1 4 2 5 3 7 4 8 5 9 6 10 27 11 7 12 19 13
REMARK SMILES IDX 8 14 9 15 10 16 11 17 12 18 13 19 18 20 14 21 17 22 15 23
REMARK SMILES IDX 16 24 20 25 21 26 26 27 22 28 24 29 23 30 25 31 31 32 32 33
REMARK SMILES IDX 33 34 34 35 35 36 36 37 37 39 38 40 39 41 100 42 40 43 99 44
REMARK SMILES IDX 41 45 42 46 43 47 93 48 44 49 98 50 92 51 94 52 45 53 97 54
REMARK SMILES IDX 91 55 90 56 46 58 78 59 58 60 77 61 59 62 62 63 76 64 95 65
REMARK SMILES IDX 60 66 61 67 75 69 96 70 63 71 47 72 48 73 56 74 49 75 55 76
REMARK SMILES IDX 57 77 54 78 50 79 51 80 52 81 53 82 79 83 80 84 88 85 81 86
REMARK SMILES IDX 87 87 89 88 86 89 82 90 83 91 84 92 85 93 64 94 65 95 73 96
REMARK SMILES IDX 66 97 72 98 74 99 71 100 67 101 68 102 69 103 70 104
REMARK H PARENT 28 6 35 38 94 57 62 68
REMARK Flexibility Score: inf
ROOT
ATOM      1  C   UNL     1       2.327   0.199   3.566  1.00  0.00     0.021 C 
ENDROOT
BRANCH   1   2
ATOM      2  C   UNL     1       1.770   0.802   2.278  1.00  0.00     0.116 C 
BRANCH   2   3
ATOM      3  N   UNL     1       2.387   0.232   1.101  1.00  0.00    -0.356 N 
ATOM      4  O   UNL     1       0.594   0.436  -0.322  1.00  0.00    -0.275 OA
ATOM      5  C   UNL     1       1.769   0.151  -0.122  1.00  0.00     0.221 C 
ATOM      6  H   UNL     1       3.304  -0.119   1.182  1.00  0.00     0.163 HD
BRANCH   5   7
ATOM      7  C   UNL     1       2.690  -0.250  -1.255  1.00  0.00     0.123 C 
BRANCH   7   8
ATOM      8  C   UNL     1       3.588   0.932  -1.641  1.00  0.00     0.154 C 
BRANCH   8   9
ATOM      9  N   UNL     1       4.535   1.297  -0.598  1.00  0.00    -0.271 N 
ATOM     10  C   UNL     1       5.018   2.523  -0.226  1.00  0.00     0.117 A 
ATOM     11  N   UNL     1       5.014   0.302   0.159  1.00  0.00    -0.172 NA
ATOM     12  C   UNL     1       6.003   2.274   0.720  1.00  0.00     0.021 A 
ATOM     13  C   UNL     1       6.029   0.849   0.821  1.00  0.00     0.100 A 
BRANCH  12  14
ATOM     14  C   UNL     1       6.816   3.266   1.377  1.00  0.00     0.016 C 
ATOM     15  C   UNL     1       7.981   3.187   2.067  1.00  0.00     0.053 C 
BRANCH  15  16
ATOM     16  C   UNL     1       9.016   2.107   2.467  1.00  0.00     0.185 C 
ATOM     17  O   UNL     1      10.028   2.462   3.062  1.00  0.00    -0.289 OA
BRANCH  16  18
ATOM     18  C   UNL     1       8.793   0.615   2.024  1.00  0.00     0.022 A 
ATOM     19  C   UNL     1       8.624   0.858   0.231  1.00  0.00     0.015 A 
ATOM     20  C   UNL     1       7.955  -1.076   2.798  1.00  0.00     0.015 A 
ATOM     21  C   UNL     1       7.678  -0.304  -0.703  1.00  0.00     0.040 A 
ATOM     22  C   UNL     1       7.012  -2.151   1.711  1.00  0.00     0.040 A 
ATOM     23  C   UNL     1       6.900  -1.720   0.027  1.00  0.00     0.123 A 
ATOM     24  F   UNL     1       6.120  -2.474  -0.764  1.00  0.00    -0.207 F 
ENDBRANCH  16  18
ENDBRANCH  15  16
ENDBRANCH  12  14
BRANCH  13  25
ATOM     25  C   UNL     1       7.053   0.031   1.566  1.00  0.00     0.004 A 
ATOM     26  C   UNL     1       8.720  -1.033   1.097  1.00  0.00     0.010 A 
ATOM     27  C   UNL     1       7.007   0.699   3.260  1.00  0.00     0.031 A 
ATOM     28  C   UNL     1      10.029  -1.172   2.309  1.00  0.00     0.002 A 
ATOM     29  C   UNL     1       8.378   0.464   4.327  1.00  0.00     0.041 A 
ATOM     30  C   UNL     1       9.815  -0.416   3.858  1.00  0.00     0.020 A 
ATOM     31  Cl  UNL     1       8.274   1.065   5.934  1.00  0.00    -0.084 Cl
ENDBRANCH  13  25
ENDBRANCH   8   9
ENDBRANCH   7   8
ENDBRANCH   5   7
ENDBRANCH   2   3
ENDBRANCH   1   2
BRANCH   1  32
ATOM     32  C   UNL     1       3.765   0.623   3.872  1.00  0.00     0.002 C 
BRANCH  32  33
ATOM     33  C   UNL     1       3.968   2.135   4.115  1.00  0.00     0.002 C 
BRANCH  33  34
ATOM     34  C   UNL     1       3.305   2.727   5.349  1.00  0.00     0.021 C 
BRANCH  34  35
ATOM     35  C   UNL     1       3.778   2.068   6.639  1.00  0.00     0.116 C 
BRANCH  35  36
ATOM     36  N   UNL     1       5.184   2.320   6.993  1.00  0.00    -0.352 N 
ATOM     37  C   UNL     1       5.780   2.115   8.237  1.00  0.00     0.251 C 
ATOM     38  H   UNL     1       5.764   2.669   6.278  1.00  0.00     0.163 HD
ATOM     39  O   UNL     1       6.804   2.699   8.569  1.00  0.00    -0.269 OA
BRANCH  37  40
ATOM     40  C   UNL     1       5.178   1.085   9.105  1.00  0.00     0.039 A 
ATOM     41  C   UNL     1       5.037   1.148  10.492  1.00  0.00     0.014 A 
ATOM     42  C   UNL     1       4.708  -0.025   8.434  1.00  0.00     0.014 A 
ATOM     43  C   UNL     1       4.360   0.092  11.134  1.00  0.00     0.010 A 
ATOM     44  C   UNL     1       3.653  -0.663   8.997  1.00  0.00     0.010 A 
ATOM     45  C   UNL     1       3.700  -0.877  10.353  1.00  0.00    -0.014 A 
BRANCH  45  46
ATOM     46  C   UNL     1       2.649  -1.800  10.798  1.00  0.00     0.031 A 
ATOM     47  C   UNL     1       1.586  -1.024  11.509  1.00  0.00     0.074 A 
ATOM     48  C   UNL     1       2.580  -3.108  10.397  1.00  0.00     0.049 A 
ATOM     49  N   UNL     1       1.528  -0.867  12.791  1.00  0.00    -0.248 NA
ATOM     50  C   UNL     1       0.727  -0.049  10.794  1.00  0.00     0.031 C 
ATOM     51  C   UNL     1       3.516  -3.908   9.585  1.00  0.00     0.029 A 
ATOM     52  N   UNL     1       1.603  -4.048  10.655  1.00  0.00    -0.354 N 
ATOM     53  C   UNL     1       0.380  -0.124  13.020  1.00  0.00     0.074 A 
ATOM     54  C   UNL     1       0.140   0.599  11.807  1.00  0.00     0.031 C 
ATOM     55  C   UNL     1       2.961  -5.102   9.234  1.00  0.00     0.029 A 
ATOM     56  C   UNL     1       1.666  -5.247   9.882  1.00  0.00     0.049 A 
ATOM     57  H   UNL     1       0.904  -3.901  11.332  1.00  0.00     0.167 HD
ATOM     58  C   UNL     1      -0.459  -0.482  14.030  1.00  0.00     0.034 A 
ATOM     59  C   UNL     1       0.777  -6.311   9.905  1.00  0.00     0.034 A 
ATOM     60  C   UNL     1       0.201  -1.432  14.899  1.00  0.00     0.049 A 
ATOM     61  C   UNL     1       0.104  -6.211  11.231  1.00  0.00     0.074 A 
ATOM     62  C   UNL     1       1.359  -1.401  15.651  1.00  0.00     0.029 A 
ATOM     63  N   UNL     1      -0.061  -2.760  14.646  1.00  0.00    -0.354 N 
ATOM     64  N   UNL     1       0.764  -6.386  12.347  1.00  0.00    -0.248 NA
ATOM     65  C   UNL     1      -1.044  -5.314  11.297  1.00  0.00     0.031 C 
ATOM     66  C   UNL     1       1.993  -2.652  15.395  1.00  0.00     0.029 A 
ATOM     67  C   UNL     1       1.123  -3.457  14.659  1.00  0.00     0.049 A 
ATOM     68  H   UNL     1      -0.951  -3.147  14.481  1.00  0.00     0.167 HD
ATOM     69  C   UNL     1       0.426  -5.287  13.120  1.00  0.00     0.074 A 
ATOM     70  C   UNL     1      -0.707  -4.660  12.416  1.00  0.00     0.031 C 
ATOM     71  C   UNL     1       1.300  -4.750  14.025  1.00  0.00     0.034 A 
BRANCH  58  72
ATOM     72  C   UNL     1      -1.963  -0.361  13.998  1.00  0.00     0.023 A 
ATOM     73  C   UNL     1      -2.655  -0.657  15.186  1.00  0.00     0.031 A 
ATOM     74  C   UNL     1      -2.754  -0.245  12.833  1.00  0.00     0.131 A 
ATOM     75  C   UNL     1      -4.044  -0.869  15.181  1.00  0.00     0.055 A 
ATOM     76  C   UNL     1      -4.141  -0.417  12.838  1.00  0.00     0.041 A 
ATOM     77  F   UNL     1      -2.228  -0.050  11.618  1.00  0.00    -0.206 F 
ATOM     78  C   UNL     1      -4.794  -0.750  14.013  1.00  0.00     0.022 A 
BRANCH  75  79
ATOM     79  S   UNL     1      -4.843  -1.385  16.721  1.00  0.00     0.124 S 
ATOM     80  O   UNL     1      -4.169  -2.648  17.001  1.00  0.00    -0.237 OA
ATOM     81  O   UNL     1      -4.523  -0.273  17.610  1.00  0.00    -0.237 OA
ATOM     82  O   UNL     1      -6.252  -1.496  16.351  1.00  0.00    -0.744 OA
ENDBRANCH  75  79
ENDBRANCH  58  72
BRANCH  59  83
ATOM     83  C   UNL     1       0.132  -7.092   8.761  1.00  0.00     0.023 A 
ATOM     84  C   UNL     1      -0.763  -8.212   8.900  1.00  0.00     0.031 A 
ATOM     85  C   UNL     1       0.183  -6.526   7.473  1.00  0.00     0.131 A 
ATOM     86  C   UNL     1      -1.547  -8.675   7.792  1.00  0.00     0.055 A 
ATOM     87  C   UNL     1      -0.607  -6.968   6.404  1.00  0.00     0.041 A 
ATOM     88  F   UNL     1       0.948  -5.454   7.225  1.00  0.00    -0.206 F 
ATOM     89  C   UNL     1      -1.481  -8.030   6.559  1.00  0.00     0.022 A 
BRANCH  86  90
ATOM     90  S   UNL     1      -2.760 -10.066   7.905  1.00  0.00     0.124 S 
ATOM     91  O   UNL     1      -1.894 -11.238   7.961  1.00  0.00    -0.237 OA
ATOM     92  O   UNL     1      -3.507  -9.752   9.117  1.00  0.00    -0.237 OA
ATOM     93  O   UNL     1      -3.538  -9.947   6.669  1.00  0.00    -0.744 OA
ENDBRANCH  86  90
ENDBRANCH  59  83
BRANCH  71  94
ATOM     94  C   UNL     1       2.588  -5.487  14.358  1.00  0.00     0.023 A 
ATOM     95  C   UNL     1       3.718  -5.663  13.515  1.00  0.00     0.031 A 
ATOM     96  C   UNL     1       2.724  -5.852  15.708  1.00  0.00     0.131 A 
ATOM     97  C   UNL     1       4.920  -6.189  14.051  1.00  0.00     0.055 A 
ATOM     98  C   UNL     1       3.918  -6.334  16.235  1.00  0.00     0.041 A 
ATOM     99  F   UNL     1       1.702  -5.673  16.559  1.00  0.00    -0.206 F 
ATOM    100  C   UNL     1       5.019  -6.509  15.409  1.00  0.00     0.022 A 
BRANCH  97 101
ATOM    101  S   UNL     1       6.399  -6.459  13.006  1.00  0.00     0.124 S 
ATOM    102  O   UNL     1       5.911  -7.362  11.970  1.00  0.00    -0.237 OA
ATOM    103  O   UNL     1       6.738  -5.108  12.568  1.00  0.00    -0.237 OA
ATOM    104  O   UNL     1       7.369  -7.057  13.927  1.00  0.00    -0.744 OA
ENDBRANCH  97 101
ENDBRANCH  71  94
ENDBRANCH  45  46
ENDBRANCH  37  40
ENDBRANCH  35  36
ENDBRANCH  34  35
ENDBRANCH  33  34
ENDBRANCH  32  33
ENDBRANCH   1  32
TORSDOF 22
