REMARK SMILES O=C(COc1ccc(N2C[C@@H](C(=O)NCCCCCCNC(=O)c3ccc(-c4c5nc(c(-c6cc(S(=O)(=O)[O-])ccc6F)c6ccc([nH]6)c(-c6cc(S(=O)(=O)[O-])ccc6F)c6nc(c(-c7cc(S(=O)(=O)[O-])ccc7F)c7ccc4[nH]7)C=C6)C=C5)cc3)CC2=O)cc1)Nc1ccc(Cl)cc1Cl
REMARK SMILES IDX 16 1 15 2 14 3 12 4 13 5 11 7 9 8 10 9 88 10 87 11 89 12
REMARK SMILES IDX 8 13 5 14 6 15 91 16 7 17 90 18 4 19 3 20 2 21 1 22 92 23
REMARK SMILES IDX 93 25 94 26 99 27 95 28 98 29 100 30 96 31 97 32 17 33 18 34
REMARK SMILES IDX 19 35 20 36 21 37 22 38 23 40 24 41 25 42 86 43 26 44 85 45
REMARK SMILES IDX 27 46 28 47 29 48 79 49 30 50 84 51 78 52 80 53 31 54 83 55
REMARK SMILES IDX 77 56 76 57 32 59 64 60 44 61 63 62 45 63 48 64 62 65 81 66
REMARK SMILES IDX 46 67 47 68 61 70 82 71 49 72 33 73 34 74 42 75 35 76 41 77
REMARK SMILES IDX 43 78 40 79 36 80 37 81 38 82 39 83 65 84 66 85 74 86 67 87
REMARK SMILES IDX 73 88 75 89 72 90 68 91 69 92 70 93 71 94 50 95 51 96 59 97
REMARK SMILES IDX 52 98 58 99 60 100 57 101 53 102 54 103 55 104 56 105
REMARK H PARENT 14 6 92 24 21 39 80 58 48 69
REMARK Flexibility Score: inf
ROOT
ATOM      1  C   UNL     1      -2.911  -7.103   3.108  1.00  0.00     0.021 C 
ENDROOT
BRANCH   1   2
ATOM      2  C   UNL     1      -1.927  -6.276   3.938  1.00  0.00     0.116 C 
BRANCH   2   3
ATOM      3  N   UNL     1      -1.551  -6.974   5.157  1.00  0.00    -0.356 N 
ATOM      4  C   UNL     1      -0.364  -7.457   5.599  1.00  0.00     0.225 C 
ATOM      5  O   UNL     1      -0.360  -8.051   6.682  1.00  0.00    -0.275 OA
ATOM      6  H   UNL     1      -2.300  -7.125   5.777  1.00  0.00     0.163 HD
BRANCH   4   7
ATOM      7  C   UNL     1       0.937  -7.260   4.852  1.00  0.00     0.107 C 
ATOM      8  N   UNL     1       1.762  -5.571   3.436  1.00  0.00    -0.312 N 
ATOM      9  C   UNL     1       1.350  -5.800   4.795  1.00  0.00     0.139 C 
ATOM     10  C   UNL     1       1.522  -6.665   2.606  1.00  0.00     0.227 C 
ATOM     11  C   UNL     1       0.949  -7.786   3.426  1.00  0.00     0.116 C 
ATOM     12  O   UNL     1       1.749  -6.771   1.407  1.00  0.00    -0.274 OA
BRANCH   8  13
ATOM     13  C   UNL     1       2.227  -4.314   2.991  1.00  0.00     0.044 A 
ATOM     14  C   UNL     1       3.203  -1.859   2.012  1.00  0.00     0.120 A 
ATOM     15  C   UNL     1       3.581  -2.309   3.275  1.00  0.00     0.048 A 
ATOM     16  C   UNL     1       2.333  -2.631   1.249  1.00  0.00     0.048 A 
ATOM     17  C   UNL     1       3.068  -3.516   3.779  1.00  0.00     0.030 A 
ATOM     18  C   UNL     1       1.859  -3.850   1.729  1.00  0.00     0.030 A 
BRANCH  14  19
ATOM     19  O   UNL     1       3.832  -0.753   1.502  1.00  0.00    -0.484 OA
BRANCH  19  20
ATOM     20  C   UNL     1       2.958   0.343   1.222  1.00  0.00     0.329 C 
BRANCH  20  21
ATOM     21  C   UNL     1       2.042   0.183   0.005  1.00  0.00     0.262 C 
ATOM     22  O   UNL     1       0.835   0.378   0.103  1.00  0.00    -0.271 OA
ATOM     23  N   UNL     1       2.713  -0.313  -1.107  1.00  0.00    -0.322 N 
ATOM     24  H   UNL     1       3.695  -0.370  -1.065  1.00  0.00     0.170 HD
BRANCH  23  25
ATOM     25  C   UNL     1       2.074  -0.742  -2.296  1.00  0.00     0.060 A 
ATOM     26  C   UNL     1       2.539  -1.957  -2.828  1.00  0.00     0.029 A 
ATOM     27  C   UNL     1       1.015  -0.079  -2.944  1.00  0.00     0.066 A 
ATOM     28  C   UNL     1       1.898  -2.548  -3.919  1.00  0.00     0.023 A 
ATOM     29  C   UNL     1       0.374  -0.676  -4.037  1.00  0.00     0.043 A 
ATOM     30  Cl  UNL     1       0.567   1.552  -2.581  1.00  0.00    -0.082 Cl
ATOM     31  C   UNL     1       0.807  -1.913  -4.506  1.00  0.00     0.042 A 
ATOM     32  Cl  UNL     1       0.011  -2.660  -5.834  1.00  0.00    -0.084 Cl
ENDBRANCH  23  25
ENDBRANCH  20  21
ENDBRANCH  19  20
ENDBRANCH  14  19
ENDBRANCH   8  13
ENDBRANCH   4   7
ENDBRANCH   2   3
ENDBRANCH   1   2
BRANCH   1  33
ATOM     33  C   UNL     1      -4.276  -7.319   3.777  1.00  0.00     0.002 C 
BRANCH  33  34
ATOM     34  C   UNL     1      -5.027  -6.039   4.156  1.00  0.00     0.002 C 
BRANCH  34  35
ATOM     35  C   UNL     1      -5.244  -5.051   3.008  1.00  0.00     0.021 C 
BRANCH  35  36
ATOM     36  C   UNL     1      -6.015  -5.616   1.820  1.00  0.00     0.116 C 
BRANCH  36  37
ATOM     37  N   UNL     1      -7.379  -5.976   2.175  1.00  0.00    -0.352 N 
ATOM     38  C   UNL     1      -8.556  -5.585   1.582  1.00  0.00     0.251 C 
ATOM     39  H   UNL     1      -7.472  -6.582   2.945  1.00  0.00     0.163 HD
ATOM     40  O   UNL     1      -9.628  -5.819   2.133  1.00  0.00    -0.269 OA
BRANCH  38  41
ATOM     41  C   UNL     1      -8.517  -4.862   0.293  1.00  0.00     0.039 A 
ATOM     42  C   UNL     1      -9.289  -3.709   0.134  1.00  0.00     0.014 A 
ATOM     43  C   UNL     1      -7.703  -5.313  -0.750  1.00  0.00     0.014 A 
ATOM     44  C   UNL     1      -9.192  -2.968  -1.048  1.00  0.00     0.010 A 
ATOM     45  C   UNL     1      -7.554  -4.536  -1.895  1.00  0.00     0.010 A 
ATOM     46  C   UNL     1      -8.294  -3.354  -2.057  1.00  0.00    -0.014 A 
BRANCH  46  47
ATOM     47  C   UNL     1      -8.107  -2.546  -3.292  1.00  0.00     0.031 A 
ATOM     48  C   UNL     1      -8.440  -3.146  -4.632  1.00  0.00     0.074 A 
ATOM     49  C   UNL     1      -7.554  -1.317  -3.215  1.00  0.00     0.049 A 
ATOM     50  N   UNL     1      -8.213  -2.672  -5.829  1.00  0.00    -0.248 NA
ATOM     51  C   UNL     1      -9.088  -4.467  -4.623  1.00  0.00     0.031 C 
ATOM     52  C   UNL     1      -7.166  -0.641  -1.975  1.00  0.00     0.029 A 
ATOM     53  N   UNL     1      -7.195  -0.428  -4.200  1.00  0.00    -0.354 N 
ATOM     54  C   UNL     1      -8.659  -3.648  -6.715  1.00  0.00     0.074 A 
ATOM     55  C   UNL     1      -9.140  -4.753  -5.916  1.00  0.00     0.031 C 
ATOM     56  C   UNL     1      -6.627   0.553  -2.273  1.00  0.00     0.029 A 
ATOM     57  C   UNL     1      -6.574   0.706  -3.724  1.00  0.00     0.049 A 
ATOM     58  H   UNL     1      -7.366  -0.586  -5.156  1.00  0.00     0.167 HD
ATOM     59  C   UNL     1      -8.670  -3.616  -8.069  1.00  0.00     0.034 A 
ATOM     60  C   UNL     1      -5.994   1.734  -4.380  1.00  0.00     0.034 A 
ATOM     61  C   UNL     1      -8.212  -2.492  -8.847  1.00  0.00     0.049 A 
ATOM     62  C   UNL     1      -6.001   1.730  -5.891  1.00  0.00     0.074 A 
ATOM     63  C   UNL     1      -8.262  -2.324 -10.220  1.00  0.00     0.029 A 
ATOM     64  N   UNL     1      -7.608  -1.355  -8.329  1.00  0.00    -0.354 N 
ATOM     65  N   UNL     1      -6.487   0.827  -6.711  1.00  0.00    -0.248 NA
ATOM     66  C   UNL     1      -5.389   2.884  -6.567  1.00  0.00     0.031 C 
ATOM     67  C   UNL     1      -7.610  -1.131 -10.539  1.00  0.00     0.029 A 
ATOM     68  C   UNL     1      -7.241  -0.504  -9.359  1.00  0.00     0.049 A 
ATOM     69  H   UNL     1      -7.461  -1.180  -7.371  1.00  0.00     0.167 HD
ATOM     70  C   UNL     1      -6.279   1.328  -7.994  1.00  0.00     0.074 A 
ATOM     71  C   UNL     1      -5.628   2.611  -7.841  1.00  0.00     0.031 C 
ATOM     72  C   UNL     1      -6.605   0.781  -9.191  1.00  0.00     0.034 A 
BRANCH  59  73
ATOM     73  C   UNL     1      -9.155  -4.839  -8.807  1.00  0.00     0.023 A 
ATOM     74  C   UNL     1     -10.486  -5.281  -8.730  1.00  0.00     0.031 A 
ATOM     75  C   UNL     1      -8.269  -5.555  -9.633  1.00  0.00     0.131 A 
ATOM     76  C   UNL     1     -10.883  -6.430  -9.431  1.00  0.00     0.055 A 
ATOM     77  C   UNL     1      -8.687  -6.653 -10.386  1.00  0.00     0.041 A 
ATOM     78  F   UNL     1      -6.980  -5.193  -9.727  1.00  0.00    -0.206 F 
ATOM     79  C   UNL     1      -9.999  -7.102 -10.280  1.00  0.00     0.022 A 
BRANCH  76  80
ATOM     80  S   UNL     1     -12.543  -7.098  -9.139  1.00  0.00     0.124 S 
ATOM     81  O   UNL     1     -12.500  -7.377  -7.705  1.00  0.00    -0.237 OA
ATOM     82  O   UNL     1     -13.404  -5.996  -9.550  1.00  0.00    -0.237 OA
ATOM     83  O   UNL     1     -12.592  -8.282  -9.995  1.00  0.00    -0.744 OA
ENDBRANCH  76  80
ENDBRANCH  59  73
BRANCH  60  84
ATOM     84  C   UNL     1      -5.314   2.834  -3.631  1.00  0.00     0.023 A 
ATOM     85  C   UNL     1      -5.739   4.166  -3.754  1.00  0.00     0.031 A 
ATOM     86  C   UNL     1      -4.172   2.579  -2.849  1.00  0.00     0.131 A 
ATOM     87  C   UNL     1      -4.989   5.199  -3.170  1.00  0.00     0.055 A 
ATOM     88  C   UNL     1      -3.471   3.603  -2.208  1.00  0.00     0.041 A 
ATOM     89  F   UNL     1      -3.718   1.325  -2.699  1.00  0.00    -0.206 F 
ATOM     90  C   UNL     1      -3.867   4.925  -2.384  1.00  0.00     0.022 A 
BRANCH  87  91
ATOM     91  S   UNL     1      -5.419   6.915  -3.573  1.00  0.00     0.124 S 
ATOM     92  O   UNL     1      -5.366   6.898  -5.031  1.00  0.00    -0.237 OA
ATOM     93  O   UNL     1      -6.746   7.042  -2.981  1.00  0.00    -0.237 OA
ATOM     94  O   UNL     1      -4.369   7.693  -2.920  1.00  0.00    -0.744 OA
ENDBRANCH  87  91
ENDBRANCH  60  84
BRANCH  72  95
ATOM     95  C   UNL     1      -6.341   1.597 -10.432  1.00  0.00     0.023 A 
ATOM     96  C   UNL     1      -5.040   1.875 -10.884  1.00  0.00     0.031 A 
ATOM     97  C   UNL     1      -7.424   2.070 -11.197  1.00  0.00     0.131 A 
ATOM     98  C   UNL     1      -4.855   2.633 -12.051  1.00  0.00     0.055 A 
ATOM     99  C   UNL     1      -7.234   2.771 -12.387  1.00  0.00     0.041 A 
ATOM    100  F   UNL     1      -8.688   1.836 -10.808  1.00  0.00    -0.206 F 
ATOM    101  C   UNL     1      -5.943   3.063 -12.816  1.00  0.00     0.022 A 
BRANCH  98 102
ATOM    102  S   UNL     1      -3.171   3.102 -12.534  1.00  0.00     0.124 S 
ATOM    103  O   UNL     1      -2.734   3.890 -11.387  1.00  0.00    -0.237 OA
ATOM    104  O   UNL     1      -2.520   1.807 -12.703  1.00  0.00    -0.237 OA
ATOM    105  O   UNL     1      -3.366   3.860 -13.769  1.00  0.00    -0.744 OA
ENDBRANCH  98 102
ENDBRANCH  72  95
ENDBRANCH  46  47
ENDBRANCH  38  41
ENDBRANCH  36  37
ENDBRANCH  35  36
ENDBRANCH  34  35
ENDBRANCH  33  34
ENDBRANCH   1  33
TORSDOF 21
