REMARK SMILES O=C(NCCCCCCNC(=O)c1ccc2c(=O)n3cc(C(=O)c4cc(F)ccc4O)cc(Cl)c3nc2c1)c1ccc(-c2c3nc(c(-c4cc(S(=O)(=O)[O-])ccc4F)c4ccc([nH]4)c(-c4cc(S(=O)(=O)[O-])ccc4F)c4nc(c(-c5cc(S(=O)(=O)[O-])ccc5F)c5ccc2[nH]5)C=C4)C=C3)cc1
REMARK SMILES IDX 6 1 5 2 4 3 3 4 1 5 2 6 39 8 40 9 101 10 41 11 100 12 42 13
REMARK SMILES IDX 43 14 44 15 94 16 45 17 99 18 93 19 95 20 46 21 98 22 92 23
REMARK SMILES IDX 91 24 47 26 79 27 59 28 78 29 60 30 63 31 77 32 96 33 61 34
REMARK SMILES IDX 62 35 76 37 97 38 64 39 48 40 49 41 57 42 50 43 56 44 58 45
REMARK SMILES IDX 55 46 51 47 52 48 53 49 54 50 80 51 81 52 89 53 82 54 88 55
REMARK SMILES IDX 90 56 87 57 83 58 84 59 85 60 86 61 65 62 66 63 74 64 67 65
REMARK SMILES IDX 73 66 75 67 72 68 68 69 69 70 70 71 71 72 7 73 8 74 9 75
REMARK SMILES IDX 10 76 11 77 12 79 13 80 14 81 38 82 15 83 37 84 16 85 36 86
REMARK SMILES IDX 17 87 35 88 18 89 19 90 33 91 20 92 32 93 34 94 21 95 22 96
REMARK SMILES IDX 23 97 24 98 25 99 30 100 26 101 29 102 27 103 28 104 31 105
REMARK H PARENT 3 7 95 25 63 36 10 78 31 106
REMARK Flexibility Score: inf
ROOT
ATOM      1  C   UNL     1       4.358   3.756   0.511  1.00  0.00     0.002 C 
ENDROOT
BRANCH   1   2
ATOM      2  C   UNL     1       4.856   2.567  -0.315  1.00  0.00     0.021 C 
BRANCH   2   3
ATOM      3  C   UNL     1       4.553   1.197   0.284  1.00  0.00     0.116 C 
BRANCH   3   4
ATOM      4  N   UNL     1       3.125   0.976   0.434  1.00  0.00    -0.352 N 
ATOM      5  O   UNL     1       1.134   0.015   0.034  1.00  0.00    -0.269 OA
ATOM      6  C   UNL     1       2.358  -0.075   0.002  1.00  0.00     0.251 C 
ATOM      7  H   UNL     1       2.638   1.683   0.916  1.00  0.00     0.163 HD
BRANCH   6   8
ATOM      8  C   UNL     1       2.998  -1.312  -0.497  1.00  0.00     0.039 A 
ATOM      9  C   UNL     1       2.440  -1.958  -1.604  1.00  0.00     0.014 A 
ATOM     10  C   UNL     1       4.100  -1.871   0.158  1.00  0.00     0.014 A 
ATOM     11  C   UNL     1       2.990  -3.159  -2.056  1.00  0.00     0.010 A 
ATOM     12  C   UNL     1       4.693  -3.028  -0.339  1.00  0.00     0.010 A 
ATOM     13  C   UNL     1       4.122  -3.703  -1.428  1.00  0.00    -0.014 A 
BRANCH  13  14
ATOM     14  C   UNL     1       4.685  -5.008  -1.856  1.00  0.00     0.031 A 
ATOM     15  C   UNL     1       4.649  -6.183  -0.918  1.00  0.00     0.074 A 
ATOM     16  C   UNL     1       5.264  -5.128  -3.066  1.00  0.00     0.049 A 
ATOM     17  N   UNL     1       5.122  -7.390  -1.088  1.00  0.00    -0.248 NA
ATOM     18  C   UNL     1       4.019  -5.966   0.395  1.00  0.00     0.031 C 
ATOM     19  C   UNL     1       5.386  -4.049  -4.043  1.00  0.00     0.029 A 
ATOM     20  N   UNL     1       5.862  -6.203  -3.675  1.00  0.00    -0.354 N 
ATOM     21  C   UNL     1       4.865  -8.067   0.099  1.00  0.00     0.074 A 
ATOM     22  C   UNL     1       4.251  -7.121   1.002  1.00  0.00     0.031 C 
ATOM     23  C   UNL     1       5.996  -4.521  -5.140  1.00  0.00     0.029 A 
ATOM     24  C   UNL     1       6.354  -5.923  -4.928  1.00  0.00     0.049 A 
ATOM     25  H   UNL     1       5.933  -7.091  -3.254  1.00  0.00     0.167 HD
ATOM     26  C   UNL     1       5.094  -9.368   0.395  1.00  0.00     0.034 A 
ATOM     27  C   UNL     1       7.023  -6.701  -5.805  1.00  0.00     0.034 A 
ATOM     28  C   UNL     1       5.676 -10.304  -0.532  1.00  0.00     0.049 A 
ATOM     29  C   UNL     1       7.276  -8.146  -5.457  1.00  0.00     0.074 A 
ATOM     30  C   UNL     1       5.872 -11.662  -0.358  1.00  0.00     0.029 A 
ATOM     31  N   UNL     1       6.158  -9.988  -1.794  1.00  0.00    -0.354 N 
ATOM     32  N   UNL     1       6.939  -8.801  -4.370  1.00  0.00    -0.248 NA
ATOM     33  C   UNL     1       7.990  -8.963  -6.448  1.00  0.00     0.031 C 
ATOM     34  C   UNL     1       6.545 -12.150  -1.478  1.00  0.00     0.029 A 
ATOM     35  C   UNL     1       6.692 -11.117  -2.393  1.00  0.00     0.049 A 
ATOM     36  H   UNL     1       6.125  -9.094  -2.204  1.00  0.00     0.167 HD
ATOM     37  C   UNL     1       7.383 -10.108  -4.553  1.00  0.00     0.074 A 
ATOM     38  C   UNL     1       7.991 -10.157  -5.866  1.00  0.00     0.031 C 
ATOM     39  C   UNL     1       7.296 -11.165  -3.705  1.00  0.00     0.034 A 
BRANCH  26  40
ATOM     40  C   UNL     1       4.707  -9.879   1.763  1.00  0.00     0.023 A 
ATOM     41  C   UNL     1       5.690 -10.424   2.611  1.00  0.00     0.031 A 
ATOM     42  C   UNL     1       3.365  -9.935   2.182  1.00  0.00     0.131 A 
ATOM     43  C   UNL     1       5.313 -11.025   3.818  1.00  0.00     0.055 A 
ATOM     44  C   UNL     1       3.001 -10.490   3.409  1.00  0.00     0.041 A 
ATOM     45  F   UNL     1       2.387  -9.437   1.408  1.00  0.00    -0.206 F 
ATOM     46  C   UNL     1       3.976 -11.051   4.227  1.00  0.00     0.022 A 
BRANCH  43  47
ATOM     47  S   UNL     1       6.531 -11.865   4.868  1.00  0.00     0.124 S 
ATOM     48  O   UNL     1       6.438 -11.095   6.107  1.00  0.00    -0.237 OA
ATOM     49  O   UNL     1       5.992 -13.221   4.934  1.00  0.00    -0.237 OA
ATOM     50  O   UNL     1       7.785 -11.718   4.138  1.00  0.00    -0.744 OA
ENDBRANCH  43  47
ENDBRANCH  26  40
BRANCH  27  51
ATOM     51  C   UNL     1       7.421  -6.114  -7.118  1.00  0.00     0.023 A 
ATOM     52  C   UNL     1       8.304  -5.019  -7.179  1.00  0.00     0.031 A 
ATOM     53  C   UNL     1       6.802  -6.531  -8.308  1.00  0.00     0.131 A 
ATOM     54  C   UNL     1       8.467  -4.322  -8.383  1.00  0.00     0.055 A 
ATOM     55  C   UNL     1       7.030  -5.881  -9.522  1.00  0.00     0.041 A 
ATOM     56  F   UNL     1       5.944  -7.562  -8.298  1.00  0.00    -0.206 F 
ATOM     57  C   UNL     1       7.848  -4.756  -9.559  1.00  0.00     0.022 A 
BRANCH  54  58
ATOM     58  S   UNL     1       9.358  -2.741  -8.425  1.00  0.00     0.124 S 
ATOM     59  O   UNL     1      10.369  -2.985  -9.450  1.00  0.00    -0.237 OA
ATOM     60  O   UNL     1       8.293  -1.812  -8.798  1.00  0.00    -0.237 OA
ATOM     61  O   UNL     1       9.863  -2.592  -7.065  1.00  0.00    -0.744 OA
ENDBRANCH  54  58
ENDBRANCH  27  51
BRANCH  39  62
ATOM     62  C   UNL     1       7.876 -12.494  -4.133  1.00  0.00     0.023 A 
ATOM     63  C   UNL     1       7.042 -13.625  -4.237  1.00  0.00     0.031 A 
ATOM     64  C   UNL     1       9.264 -12.681  -4.249  1.00  0.00     0.131 A 
ATOM     65  C   UNL     1       7.606 -14.898  -4.388  1.00  0.00     0.055 A 
ATOM     66  C   UNL     1       9.818 -13.945  -4.457  1.00  0.00     0.041 A 
ATOM     67  F   UNL     1      10.103 -11.638  -4.146  1.00  0.00    -0.206 F 
ATOM     68  C   UNL     1       8.990 -15.063  -4.508  1.00  0.00     0.022 A 
BRANCH  65  69
ATOM     69  S   UNL     1       6.579 -16.392  -4.324  1.00  0.00     0.124 S 
ATOM     70  O   UNL     1       6.851 -17.002  -5.624  1.00  0.00    -0.237 OA
ATOM     71  O   UNL     1       7.136 -17.099  -3.175  1.00  0.00    -0.237 OA
ATOM     72  O   UNL     1       5.223 -15.881  -4.151  1.00  0.00    -0.744 OA
ENDBRANCH  65  69
ENDBRANCH  39  62
ENDBRANCH  13  14
ENDBRANCH   6   8
ENDBRANCH   3   4
ENDBRANCH   2   3
ENDBRANCH   1   2
BRANCH   1  73
ATOM     73  C   UNL     1       4.853   3.800   1.960  1.00  0.00     0.002 C 
BRANCH  73  74
ATOM     74  C   UNL     1       6.373   3.755   2.130  1.00  0.00     0.021 C 
BRANCH  74  75
ATOM     75  C   UNL     1       7.133   4.836   1.368  1.00  0.00     0.116 C 
BRANCH  75  76
ATOM     76  N   UNL     1       6.793   6.174   1.829  1.00  0.00    -0.352 N 
ATOM     77  C   UNL     1       7.633   7.181   2.232  1.00  0.00     0.251 C 
ATOM     78  H   UNL     1       5.831   6.385   1.856  1.00  0.00     0.163 HD
ATOM     79  O   UNL     1       7.196   8.205   2.747  1.00  0.00    -0.269 OA
BRANCH  77  80
ATOM     80  C   UNL     1       9.085   7.013   2.046  1.00  0.00     0.041 A 
ATOM     81  C   UNL     1       9.591   6.686   0.783  1.00  0.00     0.015 A 
ATOM     82  C   UNL     1       9.937   7.173   3.145  1.00  0.00     0.043 A 
ATOM     83  C   UNL     1      10.944   6.414   0.642  1.00  0.00     0.017 A 
ATOM     84  C   UNL     1      11.303   6.932   3.003  1.00  0.00     0.079 A 
ATOM     85  C   UNL     1      11.781   6.522   1.759  1.00  0.00     0.066 A 
ATOM     86  N   UNL     1      12.148   7.121   4.104  1.00  0.00    -0.228 NA
ATOM     87  C   UNL     1      13.204   6.199   1.644  1.00  0.00     0.265 A 
ATOM     88  C   UNL     1      13.415   6.867   3.975  1.00  0.00     0.159 A 
ATOM     89  O   UNL     1      13.643   5.809   0.563  1.00  0.00    -0.268 OA
ATOM     90  N   UNL     1      13.977   6.382   2.791  1.00  0.00    -0.266 N 
ATOM     91  C   UNL     1      14.384   7.091   5.106  1.00  0.00     0.085 A 
ATOM     92  C   UNL     1      15.330   6.083   2.698  1.00  0.00     0.109 A 
ATOM     93  C   UNL     1      15.691   6.845   4.939  1.00  0.00     0.038 A 
ATOM     94  Cl  UNL     1      13.780   7.689   6.604  1.00  0.00    -0.080 Cl
ATOM     95  C   UNL     1      16.202   6.321   3.688  1.00  0.00     0.041 A 
BRANCH  95  96
ATOM     96  C   UNL     1      17.660   5.987   3.550  1.00  0.00     0.198 C 
ATOM     97  O   UNL     1      18.410   5.956   4.523  1.00  0.00    -0.288 OA
BRANCH  96  98
ATOM     98  C   UNL     1      18.194   5.543   2.245  1.00  0.00     0.067 A 
ATOM     99  C   UNL     1      18.035   6.318   1.091  1.00  0.00     0.055 A 
ATOM    100  C   UNL     1      18.795   4.281   2.164  1.00  0.00     0.126 A 
ATOM    101  C   UNL     1      18.393   5.776  -0.138  1.00  0.00     0.124 A 
ATOM    102  C   UNL     1      19.138   3.745   0.925  1.00  0.00     0.050 A 
ATOM    103  F   UNL     1      18.200   6.495  -1.251  1.00  0.00    -0.207 F 
ATOM    104  C   UNL     1      18.922   4.492  -0.234  1.00  0.00     0.043 A 
BRANCH 100 105
ATOM    105  O   UNL     1      19.050   3.515   3.267  1.00  0.00    -0.507 OA
ATOM    106  H   UNL     1      18.835   3.837   4.120  1.00  0.00     0.293 HD
ENDBRANCH 100 105
ENDBRANCH  96  98
ENDBRANCH  95  96
ENDBRANCH  77  80
ENDBRANCH  75  76
ENDBRANCH  74  75
ENDBRANCH  73  74
ENDBRANCH   1  73
TORSDOF 19
