REMARK SMILES CC[C@@H](C)[C@@H](NC(N)=O)C(=O)N1CCC[C@H](C(=O)NCCCCCCNC(=O)c2ccc(-c3c4nc(c(-c5cc(S(=O)(=O)[O-])ccc5F)c5ccc([nH]5)c(-c5cc(S(=O)(=O)[O-])ccc5F)c5nc(c(-c6cc(S(=O)(=O)[O-])ccc6F)c6ccc3[nH]6)C=C5)C=C4)cc2)C1
REMARK SMILES IDX 22 1 21 2 20 3 19 4 17 5 18 6 16 8 12 9 13 10 92 11 14 12
REMARK SMILES IDX 15 13 10 14 11 15 5 16 3 17 4 18 2 19 1 20 6 21 7 22 8 24
REMARK SMILES IDX 9 25 23 28 24 29 25 30 26 31 27 32 28 34 29 35 30 36 91 37
REMARK SMILES IDX 31 38 90 39 32 40 33 41 34 42 84 43 35 44 89 45 83 46 85 47
REMARK SMILES IDX 36 48 88 49 82 50 81 51 37 53 69 54 49 55 68 56 50 57 53 58
REMARK SMILES IDX 67 59 86 60 51 61 52 62 66 64 87 65 54 66 38 67 39 68 47 69
REMARK SMILES IDX 40 70 46 71 48 72 45 73 41 74 42 75 43 76 44 77 70 78 71 79
REMARK SMILES IDX 79 80 72 81 78 82 80 83 77 84 73 85 74 86 75 87 76 88 55 89
REMARK SMILES IDX 56 90 64 91 57 92 63 93 65 94 62 95 58 96 59 97 60 98 61 99
REMARK H PARENT 19 7 6 23 8 26 8 27 26 33 85 52 53 63
REMARK Flexibility Score: inf
ROOT
ATOM      1  C   UNL     1       0.279   6.346   6.430  1.00  0.00     0.002 C 
ENDROOT
BRANCH   1   2
ATOM      2  C   UNL     1       1.644   5.663   6.354  1.00  0.00     0.021 C 
BRANCH   2   3
ATOM      3  C   UNL     1       1.802   4.744   5.151  1.00  0.00     0.116 C 
BRANCH   3   4
ATOM      4  N   UNL     1       2.609   5.275   4.079  1.00  0.00    -0.356 N 
ATOM      5  C   UNL     1       3.612   4.688   3.375  1.00  0.00     0.224 C 
ATOM      6  O   UNL     1       3.896   5.211   2.289  1.00  0.00    -0.275 OA
ATOM      7  H   UNL     1       2.402   6.201   3.818  1.00  0.00     0.163 HD
BRANCH   5   8
ATOM      8  C   UNL     1       4.398   3.444   3.829  1.00  0.00     0.098 C 
ATOM      9  N   UNL     1       2.896   1.716   4.811  1.00  0.00    -0.340 N 
ATOM     10  C   UNL     1       3.594   1.718   6.096  1.00  0.00     0.119 C 
ATOM     11  C   UNL     1       3.668   2.115   3.651  1.00  0.00     0.133 C 
ATOM     12  C   UNL     1       4.428   2.974   6.372  1.00  0.00     0.022 C 
ATOM     13  C   UNL     1       5.145   3.555   5.156  1.00  0.00     0.017 C 
BRANCH   9  14
ATOM     14  C   UNL     1       1.531   1.432   4.788  1.00  0.00     0.245 C 
ATOM     15  O   UNL     1       0.753   2.000   5.562  1.00  0.00    -0.272 OA
BRANCH  14  16
ATOM     16  C   UNL     1       0.981   0.333   3.821  1.00  0.00     0.176 C 
BRANCH  16  17
ATOM     17  C   UNL     1       1.094   0.669   2.308  1.00  0.00     0.018 C 
ATOM     18  C   UNL     1       0.525   2.065   1.996  1.00  0.00     0.010 C 
BRANCH  17  19
ATOM     19  C   UNL     1       0.414  -0.374   1.388  1.00  0.00     0.002 C 
ATOM     20  C   UNL     1       0.827  -0.204  -0.074  1.00  0.00     0.004 C 
ENDBRANCH  17  19
ENDBRANCH  16  17
BRANCH  16  21
ATOM     21  N   UNL     1       1.649  -0.940   4.147  1.00  0.00    -0.326 N 
ATOM     22  C   UNL     1       1.703  -1.411   5.429  1.00  0.00     0.312 C 
ATOM     23  H   UNL     1       2.065  -1.463   3.425  1.00  0.00     0.166 HD
ATOM     24  N   UNL     1       2.244  -2.647   5.517  1.00  0.00    -0.352 N 
ATOM     25  O   UNL     1       1.372  -0.810   6.433  1.00  0.00    -0.249 OA
ATOM     26  H   UNL     1       2.510  -3.127   4.700  1.00  0.00     0.161 HD
ATOM     27  H   UNL     1       2.372  -3.067   6.398  1.00  0.00     0.161 HD
ENDBRANCH  16  21
ENDBRANCH  14  16
ENDBRANCH   9  14
ENDBRANCH   5   8
ENDBRANCH   3   4
ENDBRANCH   2   3
ENDBRANCH   1   2
BRANCH   1  28
ATOM     28  C   UNL     1      -0.931   5.401   6.480  1.00  0.00     0.002 C 
BRANCH  28  29
ATOM     29  C   UNL     1      -0.939   4.379   7.621  1.00  0.00     0.021 C 
BRANCH  29  30
ATOM     30  C   UNL     1      -0.816   4.970   9.021  1.00  0.00     0.116 C 
BRANCH  30  31
ATOM     31  N   UNL     1      -1.806   6.008   9.264  1.00  0.00    -0.352 N 
ATOM     32  C   UNL     1      -2.735   6.123  10.266  1.00  0.00     0.251 C 
ATOM     33  H   UNL     1      -1.810   6.742   8.608  1.00  0.00     0.163 HD
ATOM     34  O   UNL     1      -3.634   6.954  10.165  1.00  0.00    -0.269 OA
BRANCH  32  35
ATOM     35  C   UNL     1      -2.658   5.247  11.453  1.00  0.00     0.039 A 
ATOM     36  C   UNL     1      -3.841   4.734  11.989  1.00  0.00     0.014 A 
ATOM     37  C   UNL     1      -1.430   4.957  12.056  1.00  0.00     0.014 A 
ATOM     38  C   UNL     1      -3.787   3.896  13.104  1.00  0.00     0.010 A 
ATOM     39  C   UNL     1      -1.371   4.053  13.112  1.00  0.00     0.010 A 
ATOM     40  C   UNL     1      -2.550   3.526  13.658  1.00  0.00    -0.014 A 
BRANCH  40  41
ATOM     41  C   UNL     1      -2.486   2.599  14.817  1.00  0.00     0.031 A 
ATOM     42  C   UNL     1      -1.913   3.062  16.129  1.00  0.00     0.074 A 
ATOM     43  C   UNL     1      -2.903   1.327  14.670  1.00  0.00     0.049 A 
ATOM     44  N   UNL     1      -1.766   2.399  17.248  1.00  0.00    -0.248 NA
ATOM     45  C   UNL     1      -1.407   4.441  16.178  1.00  0.00     0.031 C 
ATOM     46  C   UNL     1      -3.412   0.749  13.424  1.00  0.00     0.029 A 
ATOM     47  N   UNL     1      -2.962   0.290  15.566  1.00  0.00    -0.354 N 
ATOM     48  C   UNL     1      -1.136   3.274  18.127  1.00  0.00     0.074 A 
ATOM     49  C   UNL     1      -0.866   4.487  17.385  1.00  0.00     0.031 C 
ATOM     50  C   UNL     1      -3.759  -0.528  13.643  1.00  0.00     0.029 A 
ATOM     51  C   UNL     1      -3.455  -0.876  15.027  1.00  0.00     0.049 A 
ATOM     52  H   UNL     1      -2.679   0.372  16.505  1.00  0.00     0.167 HD
ATOM     53  C   UNL     1      -0.835   3.090  19.437  1.00  0.00     0.034 A 
ATOM     54  C   UNL     1      -3.629  -2.092  15.580  1.00  0.00     0.034 A 
ATOM     55  C   UNL     1      -1.118   1.869  20.153  1.00  0.00     0.049 A 
ATOM     56  C   UNL     1      -3.288  -2.281  17.034  1.00  0.00     0.074 A 
ATOM     57  C   UNL     1      -0.933   1.594  21.496  1.00  0.00     0.029 A 
ATOM     58  N   UNL     1      -1.626   0.708  19.579  1.00  0.00    -0.354 N 
ATOM     59  N   UNL     1      -2.776  -1.417  17.881  1.00  0.00    -0.248 NA
ATOM     60  C   UNL     1      -3.562  -3.602  17.612  1.00  0.00     0.031 C 
ATOM     61  C   UNL     1      -1.241   0.246  21.714  1.00  0.00     0.029 A 
ATOM     62  C   UNL     1      -1.714  -0.298  20.530  1.00  0.00     0.049 A 
ATOM     63  H   UNL     1      -1.885   0.614  18.634  1.00  0.00     0.167 HD
ATOM     64  C   UNL     1      -2.687  -2.084  19.099  1.00  0.00     0.074 A 
ATOM     65  C   UNL     1      -3.216  -3.416  18.878  1.00  0.00     0.031 C 
ATOM     66  C   UNL     1      -2.220  -1.633  20.293  1.00  0.00     0.034 A 
BRANCH  53  67
ATOM     67  C   UNL     1      -0.129   4.222  20.154  1.00  0.00     0.023 A 
ATOM     68  C   UNL     1      -0.695   5.506  20.256  1.00  0.00     0.031 A 
ATOM     69  C   UNL     1       1.155   4.031  20.696  1.00  0.00     0.131 A 
ATOM     70  C   UNL     1       0.058   6.567  20.782  1.00  0.00     0.055 A 
ATOM     71  C   UNL     1       1.859   5.069  21.311  1.00  0.00     0.041 A 
ATOM     72  F   UNL     1       1.761   2.837  20.616  1.00  0.00    -0.206 F 
ATOM     73  C   UNL     1       1.321   6.352  21.336  1.00  0.00     0.022 A 
BRANCH  70  74
ATOM     74  S   UNL     1      -0.555   8.260  20.553  1.00  0.00     0.124 S 
ATOM     75  O   UNL     1      -0.725   8.319  19.103  1.00  0.00    -0.237 OA
ATOM     76  O   UNL     1      -1.782   8.260  21.341  1.00  0.00    -0.237 OA
ATOM     77  O   UNL     1       0.526   9.091  21.079  1.00  0.00    -0.744 OA
ENDBRANCH  70  74
ENDBRANCH  53  67
BRANCH  54  78
ATOM     78  C   UNL     1      -4.134  -3.220  14.745  1.00  0.00     0.023 A 
ATOM     79  C   UNL     1      -5.389  -3.804  14.977  1.00  0.00     0.031 A 
ATOM     80  C   UNL     1      -3.358  -3.724  13.685  1.00  0.00     0.131 A 
ATOM     81  C   UNL     1      -5.820  -4.875  14.177  1.00  0.00     0.055 A 
ATOM     82  C   UNL     1      -3.813  -4.752  12.859  1.00  0.00     0.041 A 
ATOM     83  F   UNL     1      -2.151  -3.198  13.418  1.00  0.00    -0.206 F 
ATOM     84  C   UNL     1      -5.048  -5.340  13.109  1.00  0.00     0.022 A 
BRANCH  81  85
ATOM     85  S   UNL     1      -7.384  -5.698  14.585  1.00  0.00     0.124 S 
ATOM     86  O   UNL     1      -7.130  -6.165  15.943  1.00  0.00    -0.237 OA
ATOM     87  O   UNL     1      -8.346  -4.609  14.450  1.00  0.00    -0.237 OA
ATOM     88  O   UNL     1      -7.491  -6.748  13.573  1.00  0.00    -0.744 OA
ENDBRANCH  81  85
ENDBRANCH  54  78
BRANCH  66  89
ATOM     89  C   UNL     1      -2.293  -2.584  21.465  1.00  0.00     0.023 A 
ATOM     90  C   UNL     1      -1.546  -3.775  21.506  1.00  0.00     0.031 A 
ATOM     91  C   UNL     1      -3.130  -2.294  22.558  1.00  0.00     0.131 A 
ATOM     92  C   UNL     1      -1.694  -4.657  22.587  1.00  0.00     0.055 A 
ATOM     93  C   UNL     1      -3.219  -3.140  23.663  1.00  0.00     0.041 A 
ATOM     94  F   UNL     1      -3.873  -1.175  22.572  1.00  0.00    -0.206 F 
ATOM     95  C   UNL     1      -2.509  -4.336  23.676  1.00  0.00     0.022 A 
BRANCH  92  96
ATOM     96  S   UNL     1      -0.890  -6.280  22.506  1.00  0.00     0.124 S 
ATOM     97  O   UNL     1      -1.455  -6.837  21.281  1.00  0.00    -0.237 OA
ATOM     98  O   UNL     1       0.525  -5.927  22.453  1.00  0.00    -0.237 OA
ATOM     99  O   UNL     1      -1.318  -6.938  23.739  1.00  0.00    -0.744 OA
ENDBRANCH  92  96
ENDBRANCH  66  89
ENDBRANCH  40  41
ENDBRANCH  32  35
ENDBRANCH  30  31
ENDBRANCH  29  30
ENDBRANCH  28  29
ENDBRANCH   1  28
TORSDOF 21
