REMARK SMILES C[C@]([NH3+])(C(=O)NCCCCCCNC(=O)c1ccc(-c2c3nc(c(-c4cc(S(=O)(=O)[O-])ccc4F)c4ccc([nH]4)c(-c4cc(S(=O)(=O)[O-])ccc4F)c4nc(c(-c5cc(S(=O)(=O)[O-])ccc5F)c5ccc2[nH]5)C=C4)C=C3)cc1)c1ccc(F)c(Br)c1
REMARK SMILES IDX 10 1 9 2 8 3 7 4 6 5 4 6 5 7 2 9 1 10 79 11 80 12 86 13
REMARK SMILES IDX 81 14 84 15 82 16 85 17 83 18 3 19 11 23 12 24 13 25 14 26
REMARK SMILES IDX 15 28 16 29 17 30 78 31 18 32 77 33 19 34 20 35 21 36 71 37
REMARK SMILES IDX 22 38 76 39 70 40 72 41 23 42 75 43 69 44 68 45 24 47 56 48
REMARK SMILES IDX 36 49 55 50 37 51 40 52 54 53 73 54 38 55 39 56 53 58 74 59
REMARK SMILES IDX 41 60 25 61 26 62 34 63 27 64 33 65 35 66 32 67 28 68 29 69
REMARK SMILES IDX 30 70 31 71 57 72 58 73 66 74 59 75 65 76 67 77 64 78 60 79
REMARK SMILES IDX 61 80 62 81 63 82 42 83 43 84 51 85 44 86 50 87 52 88 49 89
REMARK SMILES IDX 45 90 46 91 47 92 48 93
REMARK H PARENT 6 8 3 20 3 21 3 22 13 27 72 46 40 57
REMARK Flexibility Score: inf
ROOT
ATOM      1  C   UNL     1      -3.502   0.679  -3.707  1.00  0.00     0.002 C 
ENDROOT
BRANCH   1   2
ATOM      2  C   UNL     1      -3.029  -0.406  -2.733  1.00  0.00     0.002 C 
BRANCH   2   3
ATOM      3  C   UNL     1      -1.519  -0.427  -2.472  1.00  0.00     0.021 C 
BRANCH   3   4
ATOM      4  C   UNL     1      -0.957   0.898  -1.963  1.00  0.00     0.116 C 
BRANCH   4   5
ATOM      5  N   UNL     1      -1.437   1.181  -0.626  1.00  0.00    -0.350 N 
ATOM      6  C   UNL     1      -0.808   1.298   0.576  1.00  0.00     0.285 C 
ATOM      7  O   UNL     1      -1.558   1.417   1.552  1.00  0.00    -0.267 OA
ATOM      8  H   UNL     1      -2.411   1.314  -0.577  1.00  0.00     0.163 HD
BRANCH   6   9
ATOM      9  C   UNL     1       0.765   1.275   0.720  1.00  0.00     0.196 C 
ATOM     10  C   UNL     1       1.403   2.383  -0.147  1.00  0.00     0.096 C 
BRANCH   9  11
ATOM     11  C   UNL     1       1.138   1.504   2.209  1.00  0.00     0.023 A 
ATOM     12  C   UNL     1       1.429   0.429   3.075  1.00  0.00     0.014 A 
ATOM     13  C   UNL     1       1.137   2.804   2.760  1.00  0.00     0.029 A 
ATOM     14  C   UNL     1       1.730   0.643   4.422  1.00  0.00     0.041 A 
ATOM     15  C   UNL     1       1.447   3.015   4.106  1.00  0.00     0.054 A 
ATOM     16  C   UNL     1       1.743   1.935   4.929  1.00  0.00     0.137 A 
ATOM     17  Br  UNL     1       1.456   4.778   4.791  1.00  0.00    -0.048 Br
ATOM     18  F   UNL     1       2.040   2.116   6.224  1.00  0.00    -0.206 F 
ENDBRANCH   9  11
BRANCH   9  19
ATOM     19  N   UNL     1       1.286  -0.041   0.267  1.00  0.00    -0.341 N 
ATOM     20  H   UNL     1       0.872  -0.783   0.832  1.00  0.00     0.345 HD
ATOM     21  H   UNL     1       2.300  -0.060   0.371  1.00  0.00     0.345 HD
ATOM     22  H   UNL     1       1.042  -0.184  -0.713  1.00  0.00     0.345 HD
ENDBRANCH   9  19
ENDBRANCH   6   9
ENDBRANCH   4   5
ENDBRANCH   3   4
ENDBRANCH   2   3
ENDBRANCH   1   2
BRANCH   1  23
ATOM     23  C   UNL     1      -2.781   0.693  -5.056  1.00  0.00     0.021 C 
BRANCH  23  24
ATOM     24  C   UNL     1      -2.865  -0.617  -5.831  1.00  0.00     0.116 C 
BRANCH  24  25
ATOM     25  N   UNL     1      -4.235  -0.953  -6.180  1.00  0.00    -0.352 N 
ATOM     26  C   UNL     1      -4.769  -1.229  -7.413  1.00  0.00     0.251 C 
ATOM     27  H   UNL     1      -4.868  -0.988  -5.426  1.00  0.00     0.163 HD
ATOM     28  O   UNL     1      -5.989  -1.272  -7.554  1.00  0.00    -0.269 OA
BRANCH  26  29
ATOM     29  C   UNL     1      -3.872  -1.447  -8.568  1.00  0.00     0.039 A 
ATOM     30  C   UNL     1      -4.173  -0.835  -9.786  1.00  0.00     0.014 A 
ATOM     31  C   UNL     1      -2.733  -2.249  -8.445  1.00  0.00     0.014 A 
ATOM     32  C   UNL     1      -3.297  -0.977 -10.864  1.00  0.00     0.010 A 
ATOM     33  C   UNL     1      -1.823  -2.324  -9.496  1.00  0.00     0.010 A 
ATOM     34  C   UNL     1      -2.096  -1.692 -10.718  1.00  0.00    -0.014 A 
BRANCH  34  35
ATOM     35  C   UNL     1      -1.118  -1.789 -11.833  1.00  0.00     0.031 A 
ATOM     36  C   UNL     1      -0.789  -3.128 -12.434  1.00  0.00     0.074 A 
ATOM     37  C   UNL     1      -0.490  -0.679 -12.269  1.00  0.00     0.049 A 
ATOM     38  N   UNL     1       0.084  -3.428 -13.362  1.00  0.00    -0.248 NA
ATOM     39  C   UNL     1      -1.521  -4.288 -11.902  1.00  0.00     0.031 C 
ATOM     40  C   UNL     1      -0.704   0.672 -11.745  1.00  0.00     0.029 A 
ATOM     41  N   UNL     1       0.456  -0.507 -13.248  1.00  0.00    -0.354 N 
ATOM     42  C   UNL     1       0.009  -4.807 -13.522  1.00  0.00     0.074 A 
ATOM     43  C   UNL     1      -0.942  -5.290 -12.544  1.00  0.00     0.031 C 
ATOM     44  C   UNL     1       0.061   1.536 -12.431  1.00  0.00     0.029 A 
ATOM     45  C   UNL     1       0.861   0.799 -13.404  1.00  0.00     0.049 A 
ATOM     46  H   UNL     1       0.812  -1.249 -13.789  1.00  0.00     0.167 HD
ATOM     47  C   UNL     1       0.654  -5.594 -14.419  1.00  0.00     0.034 A 
ATOM     48  C   UNL     1       1.781   1.340 -14.227  1.00  0.00     0.034 A 
ATOM     49  C   UNL     1       1.600  -5.095 -15.389  1.00  0.00     0.049 A 
ATOM     50  C   UNL     1       2.527   0.437 -15.178  1.00  0.00     0.074 A 
ATOM     51  C   UNL     1       2.284  -5.797 -16.365  1.00  0.00     0.029 A 
ATOM     52  N   UNL     1       2.003  -3.769 -15.500  1.00  0.00    -0.354 N 
ATOM     53  N   UNL     1       2.421  -0.862 -15.340  1.00  0.00    -0.248 NA
ATOM     54  C   UNL     1       3.511   1.075 -16.061  1.00  0.00     0.031 C 
ATOM     55  C   UNL     1       3.155  -4.915 -17.013  1.00  0.00     0.029 A 
ATOM     56  C   UNL     1       2.950  -3.642 -16.505  1.00  0.00     0.049 A 
ATOM     57  H   UNL     1       1.665  -3.029 -14.947  1.00  0.00     0.167 HD
ATOM     58  C   UNL     1       3.299  -1.188 -16.370  1.00  0.00     0.074 A 
ATOM     59  C   UNL     1       3.915   0.051 -16.798  1.00  0.00     0.031 C 
ATOM     60  C   UNL     1       3.567  -2.402 -16.916  1.00  0.00     0.034 A 
BRANCH  47  61
ATOM     61  C   UNL     1       0.372  -7.078 -14.372  1.00  0.00     0.023 A 
ATOM     62  C   UNL     1      -0.915  -7.591 -14.606  1.00  0.00     0.031 A 
ATOM     63  C   UNL     1       1.397  -7.991 -14.066  1.00  0.00     0.131 A 
ATOM     64  C   UNL     1      -1.162  -8.964 -14.454  1.00  0.00     0.055 A 
ATOM     65  C   UNL     1       1.164  -9.367 -14.004  1.00  0.00     0.041 A 
ATOM     66  F   UNL     1       2.642  -7.562 -13.809  1.00  0.00    -0.206 F 
ATOM     67  C   UNL     1      -0.126  -9.859 -14.183  1.00  0.00     0.022 A 
BRANCH  64  68
ATOM     68  S   UNL     1      -2.882  -9.539 -14.462  1.00  0.00     0.124 S 
ATOM     69  O   UNL     1      -3.455  -8.766 -13.362  1.00  0.00    -0.237 OA
ATOM     70  O   UNL     1      -3.330  -9.175 -15.801  1.00  0.00    -0.237 OA
ATOM     71  O   UNL     1      -2.765 -10.974 -14.210  1.00  0.00    -0.744 OA
ENDBRANCH  64  68
ENDBRANCH  47  61
BRANCH  48  72
ATOM     72  C   UNL     1       2.061   2.805 -14.191  1.00  0.00     0.023 A 
ATOM     73  C   UNL     1       1.810   3.617 -15.308  1.00  0.00     0.031 A 
ATOM     74  C   UNL     1       2.624   3.409 -13.052  1.00  0.00     0.131 A 
ATOM     75  C   UNL     1       2.167   4.974 -15.282  1.00  0.00     0.055 A 
ATOM     76  C   UNL     1       2.921   4.772 -13.009  1.00  0.00     0.041 A 
ATOM     77  F   UNL     1       2.882   2.681 -11.954  1.00  0.00    -0.206 F 
ATOM     78  C   UNL     1       2.705   5.561 -14.135  1.00  0.00     0.022 A 
BRANCH  75  79
ATOM     79  S   UNL     1       2.002   5.944 -16.806  1.00  0.00     0.124 S 
ATOM     80  O   UNL     1       2.850   5.194 -17.726  1.00  0.00    -0.237 OA
ATOM     81  O   UNL     1       0.566   5.875 -17.055  1.00  0.00    -0.237 OA
ATOM     82  O   UNL     1       2.505   7.262 -16.425  1.00  0.00    -0.744 OA
ENDBRANCH  75  79
ENDBRANCH  48  72
BRANCH  60  83
ATOM     83  C   UNL     1       4.536  -2.438 -18.075  1.00  0.00     0.023 A 
ATOM     84  C   UNL     1       5.893  -2.102 -17.920  1.00  0.00     0.031 A 
ATOM     85  C   UNL     1       4.091  -2.809 -19.356  1.00  0.00     0.131 A 
ATOM     86  C   UNL     1       6.741  -2.087 -19.037  1.00  0.00     0.055 A 
ATOM     87  C   UNL     1       4.955  -2.859 -20.451  1.00  0.00     0.041 A 
ATOM     88  F   UNL     1       2.805  -3.135 -19.565  1.00  0.00    -0.206 F 
ATOM     89  C   UNL     1       6.286  -2.483 -20.297  1.00  0.00     0.022 A 
BRANCH  86  90
ATOM     90  S   UNL     1       8.426  -1.444 -18.843  1.00  0.00     0.124 S 
ATOM     91  O   UNL     1       8.180  -0.093 -18.349  1.00  0.00    -0.237 OA
ATOM     92  O   UNL     1       9.007  -2.378 -17.883  1.00  0.00    -0.237 OA
ATOM     93  O   UNL     1       8.981  -1.520 -20.193  1.00  0.00    -0.744 OA
ENDBRANCH  86  90
ENDBRANCH  60  83
ENDBRANCH  34  35
ENDBRANCH  26  29
ENDBRANCH  24  25
ENDBRANCH  23  24
ENDBRANCH   1  23
TORSDOF 18
