REMARK SMILES O=C(C[C@@H]1C(=O)O[C@H]2[C@@H]3OC(=O)c4cc(O)c(O)c(O)c4-c4ccccc4C(=O)OC[C@@H]2O[C@@H](OC(=O)c2cc(O)c(O)c(O)c2)[C@@H]3OC(=O)c2cc(O)c(O)c3c2[C@H]1[C@H](O)C(=O)O3)NCCCCCCNC(=O)c1ccc(-c2c3nc(c(-c4cc(S(=O)(=O)[O-])ccc4F)c4ccc([nH]4)c(-c4cc(S(=O)(=O)[O-])ccc4F)c4nc(c(-c5cc(S(=O)(=O)[O-])ccc5F)c5ccc2[nH]5)C=C4)C=C3)cc1
REMARK SMILES IDX 3 1 2 2 1 3 65 4 66 6 67 7 68 8 69 9 70 10 71 11 72 12 73 13
REMARK SMILES IDX 74 15 75 16 76 17 137 18 77 19 136 20 78 21 79 22 80 23
REMARK SMILES IDX 130 24 81 25 135 26 129 27 131 28 82 29 134 30 128 31 127 32
REMARK SMILES IDX 83 34 115 35 95 36 114 37 96 38 99 39 113 40 132 41 97 42
REMARK SMILES IDX 98 43 112 45 133 46 100 47 84 48 85 49 93 50 86 51 92 52
REMARK SMILES IDX 94 53 91 54 87 55 88 56 89 57 90 58 116 59 117 60 125 61
REMARK SMILES IDX 118 62 124 63 126 64 123 65 119 66 120 67 121 68 122 69
REMARK SMILES IDX 101 70 102 71 110 72 103 73 109 74 111 75 108 76 104 77
REMARK SMILES IDX 105 78 106 79 107 80 4 81 59 83 58 84 60 85 51 86 57 87
REMARK SMILES IDX 62 88 52 89 55 90 64 91 63 92 53 93 61 94 49 96 50 97 48 98
REMARK SMILES IDX 47 99 9 100 34 101 8 102 33 103 32 104 10 106 11 107 12 108
REMARK SMILES IDX 13 109 14 110 21 111 15 112 19 113 17 114 22 115 23 116
REMARK SMILES IDX 27 117 24 118 26 119 25 120 28 121 29 122 30 123 31 124
REMARK SMILES IDX 16 126 20 128 18 130 35 132 36 133 37 134 38 135 39 136
REMARK SMILES IDX 46 137 40 138 44 139 42 140 41 141 45 143 43 145 7 147 5 148
REMARK SMILES IDX 6 149 56 151 54 153
REMARK H PARENT 65 5 72 14 131 33 99 44 61 95 16 127 20 129 18 131 41 142
REMARK H PARENT 45 144 43 146 56 152 54 154
REMARK Flexibility Score: 170.00
ROOT
ATOM      1  C   UNL     1       2.432   2.444   1.768  1.00  0.00     0.116 C 
ENDROOT
BRANCH   1   2
ATOM      2  C   UNL     1       3.398   3.146   2.725  1.00  0.00     0.220 C 
ATOM      3  O   UNL     1       3.192   4.302   3.078  1.00  0.00    -0.275 OA
ATOM      4  N   UNL     1       4.449   2.389   3.168  1.00  0.00    -0.356 N 
ATOM      5  H   UNL     1       4.601   1.512   2.749  1.00  0.00     0.163 HD
BRANCH   4   6
ATOM      6  C   UNL     1       5.350   2.811   4.222  1.00  0.00     0.116 C 
BRANCH   6   7
ATOM      7  C   UNL     1       5.094   2.008   5.489  1.00  0.00     0.021 C 
BRANCH   7   8
ATOM      8  C   UNL     1       5.331   0.502   5.309  1.00  0.00     0.002 C 
BRANCH   8   9
ATOM      9  C   UNL     1       6.757   0.112   4.905  1.00  0.00     0.002 C 
BRANCH   9  10
ATOM     10  C   UNL     1       7.849   0.617   5.845  1.00  0.00     0.021 C 
BRANCH  10  11
ATOM     11  C   UNL     1       7.653   0.214   7.298  1.00  0.00     0.116 C 
BRANCH  11  12
ATOM     12  N   UNL     1       7.727  -1.227   7.498  1.00  0.00    -0.352 N 
ATOM     13  C   UNL     1       8.445  -1.924   8.443  1.00  0.00     0.251 C 
ATOM     14  H   UNL     1       7.194  -1.773   6.876  1.00  0.00     0.163 HD
ATOM     15  O   UNL     1       8.536  -3.146   8.379  1.00  0.00    -0.269 OA
BRANCH  13  16
ATOM     16  C   UNL     1       9.144  -1.166   9.503  1.00  0.00     0.039 A 
ATOM     17  C   UNL     1       8.492  -0.117  10.152  1.00  0.00     0.014 A 
ATOM     18  C   UNL     1      10.486  -1.438   9.775  1.00  0.00     0.014 A 
ATOM     19  C   UNL     1       9.234   0.792  10.892  1.00  0.00     0.010 A 
ATOM     20  C   UNL     1      11.201  -0.588  10.623  1.00  0.00     0.010 A 
ATOM     21  C   UNL     1      10.601   0.574  11.133  1.00  0.00    -0.014 A 
BRANCH  21  22
ATOM     22  C   UNL     1      11.375   1.584  11.906  1.00  0.00     0.031 A 
ATOM     23  C   UNL     1      12.551   2.297  11.289  1.00  0.00     0.074 A 
ATOM     24  C   UNL     1      10.979   1.900  13.155  1.00  0.00     0.049 A 
ATOM     25  N   UNL     1      13.317   3.220  11.811  1.00  0.00    -0.248 NA
ATOM     26  C   UNL     1      12.921   1.929   9.912  1.00  0.00     0.031 C 
ATOM     27  C   UNL     1       9.848   1.283  13.851  1.00  0.00     0.029 A 
ATOM     28  N   UNL     1      11.455   2.824  14.051  1.00  0.00    -0.354 N 
ATOM     29  C   UNL     1      14.268   3.526  10.843  1.00  0.00     0.074 A 
ATOM     30  C   UNL     1      14.011   2.659   9.716  1.00  0.00     0.031 C 
ATOM     31  C   UNL     1       9.683   1.882  15.037  1.00  0.00     0.029 A 
ATOM     32  C   UNL     1      10.748   2.862  15.231  1.00  0.00     0.049 A 
ATOM     33  H   UNL     1      12.229   3.404  13.867  1.00  0.00     0.167 HD
ATOM     34  C   UNL     1      15.252   4.456  10.886  1.00  0.00     0.034 A 
ATOM     35  C   UNL     1      10.939   3.583  16.355  1.00  0.00     0.034 A 
ATOM     36  C   UNL     1      15.478   5.328  12.013  1.00  0.00     0.049 A 
ATOM     37  C   UNL     1      12.065   4.580  16.393  1.00  0.00     0.074 A 
ATOM     38  C   UNL     1      16.427   6.328  12.136  1.00  0.00     0.029 A 
ATOM     39  N   UNL     1      14.761   5.313  13.201  1.00  0.00    -0.354 N 
ATOM     40  N   UNL     1      12.919   4.894  15.447  1.00  0.00    -0.248 NA
ATOM     41  C   UNL     1      12.253   5.331  17.641  1.00  0.00     0.031 C 
ATOM     42  C   UNL     1      16.346   6.851  13.425  1.00  0.00     0.029 A 
ATOM     43  C   UNL     1      15.273   6.260  14.074  1.00  0.00     0.049 A 
ATOM     44  H   UNL     1      14.002   4.717  13.396  1.00  0.00     0.167 HD
ATOM     45  C   UNL     1      13.723   5.900  15.975  1.00  0.00     0.074 A 
ATOM     46  C   UNL     1      13.236   6.160  17.313  1.00  0.00     0.031 C 
ATOM     47  C   UNL     1      14.771   6.542  15.399  1.00  0.00     0.034 A 
BRANCH  34  48
ATOM     48  C   UNL     1      16.169   4.615   9.694  1.00  0.00     0.023 A 
ATOM     49  C   UNL     1      17.557   4.440   9.854  1.00  0.00     0.031 A 
ATOM     50  C   UNL     1      15.700   5.092   8.457  1.00  0.00     0.131 A 
ATOM     51  C   UNL     1      18.430   4.796   8.818  1.00  0.00     0.055 A 
ATOM     52  C   UNL     1      16.571   5.389   7.407  1.00  0.00     0.041 A 
ATOM     53  F   UNL     1      14.387   5.282   8.251  1.00  0.00    -0.206 F 
ATOM     54  C   UNL     1      17.944   5.259   7.592  1.00  0.00     0.022 A 
BRANCH  51  55
ATOM     55  S   UNL     1      20.228   4.769   9.056  1.00  0.00     0.124 S 
ATOM     56  O   UNL     1      20.656   3.855   7.999  1.00  0.00    -0.237 OA
ATOM     57  O   UNL     1      20.582   6.170   8.851  1.00  0.00    -0.237 OA
ATOM     58  O   UNL     1      20.395   4.266  10.415  1.00  0.00    -0.744 OA
ENDBRANCH  51  55
ENDBRANCH  34  48
BRANCH  35  59
ATOM     59  C   UNL     1      10.005   3.394  17.505  1.00  0.00     0.023 A 
ATOM     60  C   UNL     1       9.851   2.130  18.106  1.00  0.00     0.031 A 
ATOM     61  C   UNL     1       9.170   4.436  17.940  1.00  0.00     0.131 A 
ATOM     62  C   UNL     1       8.830   1.921  19.040  1.00  0.00     0.055 A 
ATOM     63  C   UNL     1       8.212   4.244  18.937  1.00  0.00     0.041 A 
ATOM     64  F   UNL     1       9.265   5.655  17.388  1.00  0.00    -0.206 F 
ATOM     65  C   UNL     1       8.024   2.975  19.477  1.00  0.00     0.022 A 
BRANCH  62  66
ATOM     66  S   UNL     1       8.416   0.245  19.600  1.00  0.00     0.124 S 
ATOM     67  O   UNL     1       8.579   0.357  21.045  1.00  0.00    -0.237 OA
ATOM     68  O   UNL     1       7.040   0.108  19.128  1.00  0.00    -0.237 OA
ATOM     69  O   UNL     1       9.392  -0.597  18.917  1.00  0.00    -0.744 OA
ENDBRANCH  62  66
ENDBRANCH  35  59
BRANCH  47  70
ATOM     70  C   UNL     1      15.479   7.630  16.177  1.00  0.00     0.023 A 
ATOM     71  C   UNL     1      15.544   8.934  15.644  1.00  0.00     0.031 A 
ATOM     72  C   UNL     1      16.225   7.350  17.334  1.00  0.00     0.131 A 
ATOM     73  C   UNL     1      16.386   9.887  16.229  1.00  0.00     0.055 A 
ATOM     74  C   UNL     1      17.009   8.325  17.954  1.00  0.00     0.041 A 
ATOM     75  F   UNL     1      16.212   6.121  17.874  1.00  0.00    -0.206 F 
ATOM     76  C   UNL     1      17.108   9.594  17.390  1.00  0.00     0.022 A 
BRANCH  73  77
ATOM     77  S   UNL     1      16.667  11.496  15.439  1.00  0.00     0.124 S 
ATOM     78  O   UNL     1      16.219  12.424  16.475  1.00  0.00    -0.237 OA
ATOM     79  O   UNL     1      18.108  11.473  15.202  1.00  0.00    -0.237 OA
ATOM     80  O   UNL     1      15.833  11.451  14.242  1.00  0.00    -0.744 OA
ENDBRANCH  73  77
ENDBRANCH  47  70
ENDBRANCH  21  22
ENDBRANCH  13  16
ENDBRANCH  11  12
ENDBRANCH  10  11
ENDBRANCH   9  10
ENDBRANCH   8   9
ENDBRANCH   7   8
ENDBRANCH   6   7
ENDBRANCH   4   6
ENDBRANCH   1   2
BRANCH   1  81
ATOM     81  C   UNL     1       2.783   2.088  -0.000  1.00  0.00     0.119 CG0
ATOM     82  G   UNL     1       2.030   0.786   0.048  1.00  0.00     0.000 G0
BRANCH  81  83
ATOM     83  C   UNL     1       4.863   2.556  -0.747  1.00  0.00     0.079 C 
ATOM     84  C   UNL     1       5.424   4.085   0.427  1.00  0.00     0.021 A 
ATOM     85  C   UNL     1       6.370   1.875  -0.584  1.00  0.00     0.232 C 
ATOM     86  C   UNL     1       4.497   5.544   0.473  1.00  0.00     0.071 A 
ATOM     87  C   UNL     1       6.514   4.043   1.250  1.00  0.00     0.180 A 
ATOM     88  C   UNL     1       7.000   1.753   0.810  1.00  0.00     0.341 C 
ATOM     89  C   UNL     1       4.837   6.594   1.286  1.00  0.00     0.066 A 
ATOM     90  C   UNL     1       6.770   5.214   2.024  1.00  0.00     0.201 A 
ATOM     91  O   UNL     1       7.313   2.936   1.449  1.00  0.00    -0.420 OA
ATOM     92  O   UNL     1       7.410   0.676   1.241  1.00  0.00    -0.249 OA
ATOM     93  C   UNL     1       5.975   6.410   2.035  1.00  0.00     0.162 A 
BRANCH  85  94
ATOM     94  O   UNL     1       6.504   0.641  -1.302  1.00  0.00    -0.381 OA
ATOM     95  H   UNL     1       5.963  -0.042  -0.875  1.00  0.00     0.211 HD
ENDBRANCH  85  94
BRANCH  86  96
ATOM     96  C   UNL     1       3.021   5.967  -0.476  1.00  0.00     0.339 C 
ATOM     97  O   UNL     1       2.546   7.093  -0.361  1.00  0.00    -0.246 OA
BRANCH  96  98
ATOM     98  O   UNL     1       2.234   5.027  -1.323  1.00  0.00    -0.448 OA
BRANCH  98  99
ATOM     99  C   UNL     1       2.901   3.791  -1.736  1.00  0.00     0.290 C 
ATOM    100  C   UNL     1       2.569   2.461  -2.491  1.00  0.00     0.267 C 
ATOM    101  C   UNL     1       3.603   3.659  -0.329  1.00  0.00     0.357 C 
ATOM    102  C   UNL     1       3.055   1.089  -1.885  1.00  0.00     0.254 C 
ATOM    103  O   UNL     1       4.278   1.935   0.623  1.00  0.00    -0.329 OA
ATOM    104  C   UNL     1       4.174   0.573  -0.773  1.00  0.00     0.205 CG1
ATOM    105  G   UNL     1       3.353  -1.095  -1.224  1.00  0.00     0.000 G1
BRANCH 100 106
ATOM    106  O   UNL     1       2.736   2.468  -3.978  1.00  0.00    -0.450 OA
BRANCH 106 107
ATOM    107  C   UNL     1       3.306   1.400  -4.643  1.00  0.00     0.339 C 
ATOM    108  O   UNL     1       4.477   1.078  -4.506  1.00  0.00    -0.246 OA
BRANCH 107 109
ATOM    109  C   UNL     1       2.365   0.608  -5.520  1.00  0.00     0.075 A 
ATOM    110  C   UNL     1       2.896  -0.244  -6.507  1.00  0.00     0.066 A 
ATOM    111  C   UNL     1       0.967   0.664  -5.389  1.00  0.00     0.043 A 
ATOM    112  C   UNL     1       2.051  -0.838  -7.447  1.00  0.00     0.162 A 
ATOM    113  C   UNL     1       0.157   0.212  -6.448  1.00  0.00     0.170 A 
ATOM    114  C   UNL     1       0.700  -0.539  -7.469  1.00  0.00     0.200 A 
BRANCH 111 115
ATOM    115  C   UNL     1       0.312   1.144  -4.191  1.00  0.00     0.001 A 
ATOM    116  C   UNL     1      -0.155   2.501  -4.267  1.00  0.00     0.010 A 
ATOM    117  C   UNL     1       0.090   0.341  -3.035  1.00  0.00     0.068 A 
ATOM    118  C   UNL     1      -0.865   3.084  -3.232  1.00  0.00     0.001 A 
ATOM    119  C   UNL     1      -0.768   0.937  -2.068  1.00  0.00     0.016 A 
ATOM    120  C   UNL     1      -1.208   2.285  -2.150  1.00  0.00     0.001 A 
BRANCH 117 121
ATOM    121  C   UNL     1       0.822  -1.030  -2.554  1.00  0.00     0.338 C 
ATOM    122  O   UNL     1       0.139  -1.871  -1.980  1.00  0.00    -0.246 OA
BRANCH 121 123
ATOM    123  O   UNL     1       2.241  -1.113  -2.549  1.00  0.00    -0.459 OA
BRANCH 123 124
ATOM    124  C   UNL     1       3.353  -1.095  -1.224  1.00  0.00     0.269 CG1
ATOM    125  G   UNL     1       4.174   0.573  -0.773  1.00  0.00     0.000 G1
ENDBRANCH 123 124
ENDBRANCH 121 123
ENDBRANCH 117 121
ENDBRANCH 111 115
BRANCH 112 126
ATOM    126  O   UNL     1       2.550  -1.704  -8.375  1.00  0.00    -0.504 OA
ATOM    127  H   UNL     1       3.462  -1.917  -8.374  1.00  0.00     0.293 HD
ENDBRANCH 112 126
BRANCH 113 128
ATOM    128  O   UNL     1      -1.190   0.473  -6.550  1.00  0.00    -0.504 OA
ATOM    129  H   UNL     1      -1.677   0.145  -7.280  1.00  0.00     0.293 HD
ENDBRANCH 113 128
BRANCH 114 130
ATOM    130  O   UNL     1      -0.094  -1.005  -8.479  1.00  0.00    -0.502 OA
ATOM    131  H   UNL     1       0.279  -1.515  -9.171  1.00  0.00     0.293 HD
ENDBRANCH 114 130
ENDBRANCH 107 109
ENDBRANCH 106 107
ENDBRANCH 100 106
BRANCH 101 132
ATOM    132  O   UNL     1       4.782   4.639  -1.415  1.00  0.00    -0.428 OA
BRANCH 132 133
ATOM    133  C   UNL     1       5.591   4.685  -2.510  1.00  0.00     0.340 C 
ATOM    134  O   UNL     1       5.756   3.806  -3.334  1.00  0.00    -0.246 OA
BRANCH 133 135
ATOM    135  C   UNL     1       6.233   6.008  -2.610  1.00  0.00     0.067 A 
ATOM    136  C   UNL     1       6.167   6.682  -3.830  1.00  0.00     0.066 A 
ATOM    137  C   UNL     1       6.931   6.563  -1.526  1.00  0.00     0.066 A 
ATOM    138  C   UNL     1       6.762   7.931  -3.934  1.00  0.00     0.162 A 
ATOM    139  C   UNL     1       7.477   7.832  -1.635  1.00  0.00     0.162 A 
ATOM    140  C   UNL     1       7.400   8.509  -2.842  1.00  0.00     0.200 A 
BRANCH 138 141
ATOM    141  O   UNL     1       6.719   8.593  -5.125  1.00  0.00    -0.504 OA
ATOM    142  H   UNL     1       6.289   8.204  -5.862  1.00  0.00     0.293 HD
ENDBRANCH 138 141
BRANCH 139 143
ATOM    143  O   UNL     1       8.102   8.446  -0.589  1.00  0.00    -0.504 OA
ATOM    144  H   UNL     1       8.461   9.305  -0.696  1.00  0.00     0.293 HD
ENDBRANCH 139 143
BRANCH 140 145
ATOM    145  O   UNL     1       7.958   9.751  -2.974  1.00  0.00    -0.502 OA
ATOM    146  H   UNL     1       7.904  10.204  -3.792  1.00  0.00     0.293 HD
ENDBRANCH 140 145
ENDBRANCH 133 135
ENDBRANCH 132 133
ENDBRANCH 101 132
BRANCH 102 147
ATOM    147  O   UNL     1       1.828   0.661  -1.251  1.00  0.00    -0.455 OA
BRANCH 147 148
ATOM    148  C   UNL     1       2.030   0.786   0.048  1.00  0.00     0.310 CG0
ATOM    149  O   UNL     1       1.680   0.022   0.915  1.00  0.00    -0.252 OA
ATOM    150  G   UNL     1       2.783   2.088  -0.000  1.00  0.00     0.000 G0
ENDBRANCH 147 148
ENDBRANCH 102 147
ENDBRANCH  98  99
ENDBRANCH  96  98
ENDBRANCH  86  96
BRANCH  90 151
ATOM    151  O   UNL     1       7.871   5.281   2.853  1.00  0.00    -0.502 OA
ATOM    152  H   UNL     1       8.031   6.054   3.357  1.00  0.00     0.293 HD
ENDBRANCH  90 151
BRANCH  93 153
ATOM    153  O   UNL     1       6.350   7.481   2.804  1.00  0.00    -0.504 OA
ATOM    154  H   UNL     1       5.829   8.260   2.809  1.00  0.00     0.293 HD
ENDBRANCH  93 153
ENDBRANCH  81  83
ENDBRANCH   1  81
TORSDOF 29
