REMARK SMILES C[C@@H](Oc1cncc(C(=O)NCCCCCCNC(=O)c2ccc(-c3c4nc(c(-c5cc(S(=O)(=O)[O-])ccc5F)c5ccc([nH]5)c(-c5cc(S(=O)(=O)[O-])ccc5F)c5nc(c(-c6cc(S(=O)(=O)[O-])ccc6F)c6ccc3[nH]6)C=C5)C=C4)cc2)n1)C(F)(F)F
REMARK SMILES IDX 14 1 13 2 12 3 11 4 9 5 10 6 8 8 4 9 5 10 84 11 6 12 7 13
REMARK SMILES IDX 3 14 2 15 1 16 85 17 86 18 87 19 88 20 15 21 16 22 17 23
REMARK SMILES IDX 18 24 19 25 20 27 21 28 22 29 83 30 23 31 82 32 24 33 25 34
REMARK SMILES IDX 26 35 76 36 27 37 81 38 75 39 77 40 28 41 80 42 74 43 73 44
REMARK SMILES IDX 29 46 61 47 41 48 60 49 42 50 45 51 59 52 78 53 43 54 44 55
REMARK SMILES IDX 58 57 79 58 46 59 30 60 31 61 39 62 32 63 38 64 40 65 37 66
REMARK SMILES IDX 33 67 34 68 35 69 36 70 62 71 63 72 71 73 64 74 70 75 72 76
REMARK SMILES IDX 69 77 65 78 66 79 67 80 68 81 47 82 48 83 56 84 49 85 55 86
REMARK SMILES IDX 57 87 54 88 50 89 51 90 52 91 53 92
REMARK H PARENT 11 7 18 26 77 45 45 56
REMARK Flexibility Score: inf
ROOT
ATOM      1  C   UNL     1       2.545   8.419  -1.807  1.00  0.00     0.002 C 
ENDROOT
BRANCH   1   2
ATOM      2  C   UNL     1       2.163   7.005  -1.350  1.00  0.00     0.021 C 
BRANCH   2   3
ATOM      3  C   UNL     1       2.408   5.927  -2.403  1.00  0.00     0.116 C 
BRANCH   3   4
ATOM      4  N   UNL     1       3.833   5.728  -2.601  1.00  0.00    -0.351 N 
ATOM      5  C   UNL     1       4.657   4.666  -2.329  1.00  0.00     0.271 C 
ATOM      6  O   UNL     1       5.867   4.830  -2.510  1.00  0.00    -0.267 OA
ATOM      7  H   UNL     1       4.293   6.500  -3.004  1.00  0.00     0.163 HD
BRANCH   5   8
ATOM      8  C   UNL     1       4.169   3.328  -1.883  1.00  0.00     0.150 A 
ATOM      9  C   UNL     1       2.500   1.827  -1.418  1.00  0.00     0.233 A 
ATOM     10  C   UNL     1       3.431   0.796  -1.411  1.00  0.00     0.179 A 
ATOM     11  N   UNL     1       2.848   3.107  -1.655  1.00  0.00    -0.205 NA
ATOM     12  N   UNL     1       4.758   1.006  -1.568  1.00  0.00    -0.257 NA
ATOM     13  C   UNL     1       5.101   2.296  -1.817  1.00  0.00     0.145 A 
BRANCH   9  14
ATOM     14  O   UNL     1       1.159   1.557  -1.415  1.00  0.00    -0.464 OA
BRANCH  14  15
ATOM     15  C   UNL     1       0.614   1.355  -0.094  1.00  0.00     0.277 C 
ATOM     16  C   UNL     1       0.781  -0.114   0.304  1.00  0.00     0.063 C 
BRANCH  15  17
ATOM     17  C   UNL     1      -0.880   1.702  -0.115  1.00  0.00     0.425 C 
ATOM     18  F   UNL     1      -1.449   1.438   1.086  1.00  0.00    -0.167 F 
ATOM     19  F   UNL     1      -1.082   3.012  -0.374  1.00  0.00    -0.167 F 
ATOM     20  F   UNL     1      -1.546   0.980  -1.044  1.00  0.00    -0.167 F 
ENDBRANCH  15  17
ENDBRANCH  14  15
ENDBRANCH   9  14
ENDBRANCH   5   8
ENDBRANCH   3   4
ENDBRANCH   2   3
ENDBRANCH   1   2
BRANCH   1  21
ATOM     21  C   UNL     1       1.841   8.900  -3.081  1.00  0.00     0.002 C 
BRANCH  21  22
ATOM     22  C   UNL     1       0.314   8.797  -3.051  1.00  0.00     0.021 C 
BRANCH  22  23
ATOM     23  C   UNL     1      -0.347   9.570  -1.915  1.00  0.00     0.116 C 
BRANCH  23  24
ATOM     24  N   UNL     1      -0.112  11.001  -2.027  1.00  0.00    -0.352 N 
ATOM     25  C   UNL     1      -1.023  12.026  -2.064  1.00  0.00     0.251 C 
ATOM     26  H   UNL     1       0.832  11.271  -2.085  1.00  0.00     0.163 HD
ATOM     27  O   UNL     1      -0.658  13.154  -2.392  1.00  0.00    -0.269 OA
BRANCH  25  28
ATOM     28  C   UNL     1      -2.439  11.764  -1.731  1.00  0.00     0.039 A 
ATOM     29  C   UNL     1      -3.438  12.321  -2.532  1.00  0.00     0.014 A 
ATOM     30  C   UNL     1      -2.780  10.969  -0.633  1.00  0.00     0.014 A 
ATOM     31  C   UNL     1      -4.778  12.034  -2.264  1.00  0.00     0.010 A 
ATOM     32  C   UNL     1      -4.110  10.620  -0.416  1.00  0.00     0.010 A 
ATOM     33  C   UNL     1      -5.125  11.153  -1.226  1.00  0.00    -0.014 A 
BRANCH  33  34
ATOM     34  C   UNL     1      -6.542  10.786  -0.970  1.00  0.00     0.031 A 
ATOM     35  C   UNL     1      -7.191  11.146   0.339  1.00  0.00     0.074 A 
ATOM     36  C   UNL     1      -7.227  10.084  -1.894  1.00  0.00     0.049 A 
ATOM     37  N   UNL     1      -8.389  10.856   0.778  1.00  0.00    -0.248 NA
ATOM     38  C   UNL     1      -6.370  11.906   1.293  1.00  0.00     0.031 C 
ATOM     39  C   UNL     1      -6.693   9.643  -3.184  1.00  0.00     0.029 A 
ATOM     40  N   UNL     1      -8.515   9.610  -1.889  1.00  0.00    -0.354 N 
ATOM     41  C   UNL     1      -8.465  11.395   2.058  1.00  0.00     0.074 A 
ATOM     42  C   UNL     1      -7.164  11.960   2.350  1.00  0.00     0.031 C 
ATOM     43  C   UNL     1      -7.652   8.986  -3.855  1.00  0.00     0.029 A 
ATOM     44  C   UNL     1      -8.851   8.911  -3.026  1.00  0.00     0.049 A 
ATOM     45  H   UNL     1      -9.141   9.757  -1.143  1.00  0.00     0.167 HD
ATOM     46  C   UNL     1      -9.528  11.440   2.900  1.00  0.00     0.034 A 
ATOM     47  C   UNL     1      -9.988   8.267  -3.357  1.00  0.00     0.034 A 
ATOM     48  C   UNL     1     -10.816  10.866   2.592  1.00  0.00     0.049 A 
ATOM     49  C   UNL     1     -11.144   8.288  -2.389  1.00  0.00     0.074 A 
ATOM     50  C   UNL     1     -11.972  10.883   3.353  1.00  0.00     0.029 A 
ATOM     51  N   UNL     1     -11.117  10.158   1.434  1.00  0.00    -0.354 N 
ATOM     52  N   UNL     1     -11.216   8.842  -1.200  1.00  0.00    -0.248 NA
ATOM     53  C   UNL     1     -12.374   7.609  -2.812  1.00  0.00     0.031 C 
ATOM     54  C   UNL     1     -12.944  10.123   2.694  1.00  0.00     0.029 A 
ATOM     55  C   UNL     1     -12.428   9.706   1.477  1.00  0.00     0.049 A 
ATOM     56  H   UNL     1     -10.491  10.000   0.691  1.00  0.00     0.167 HD
ATOM     57  C   UNL     1     -12.510   8.602  -0.747  1.00  0.00     0.074 A 
ATOM     58  C   UNL     1     -13.186   7.869  -1.798  1.00  0.00     0.031 C 
ATOM     59  C   UNL     1     -13.089   8.961   0.428  1.00  0.00     0.034 A 
BRANCH  46  60
ATOM     60  C   UNL     1      -9.322  12.110   4.240  1.00  0.00     0.023 A 
ATOM     61  C   UNL     1      -8.954  13.464   4.337  1.00  0.00     0.031 A 
ATOM     62  C   UNL     1      -9.454  11.381   5.434  1.00  0.00     0.131 A 
ATOM     63  C   UNL     1      -8.642  14.019   5.587  1.00  0.00     0.055 A 
ATOM     64  C   UNL     1      -9.234  11.966   6.684  1.00  0.00     0.041 A 
ATOM     65  F   UNL     1      -9.781  10.079   5.410  1.00  0.00    -0.206 F 
ATOM     66  C   UNL     1      -8.806  13.287   6.765  1.00  0.00     0.022 A 
BRANCH  63  67
ATOM     67  S   UNL     1      -7.852  15.652   5.634  1.00  0.00     0.124 S 
ATOM     68  O   UNL     1      -6.663  15.427   4.815  1.00  0.00    -0.237 OA
ATOM     69  O   UNL     1      -8.875  16.514   5.054  1.00  0.00    -0.237 OA
ATOM     70  O   UNL     1      -7.588  15.864   7.056  1.00  0.00    -0.744 OA
ENDBRANCH  63  67
ENDBRANCH  46  60
BRANCH  47  71
ATOM     71  C   UNL     1     -10.084   7.530  -4.651  1.00  0.00     0.023 A 
ATOM     72  C   UNL     1     -10.993   7.922  -5.646  1.00  0.00     0.031 A 
ATOM     73  C   UNL     1      -9.282   6.402  -4.899  1.00  0.00     0.131 A 
ATOM     74  C   UNL     1     -11.108   7.167  -6.824  1.00  0.00     0.055 A 
ATOM     75  C   UNL     1      -9.359   5.689  -6.096  1.00  0.00     0.041 A 
ATOM     76  F   UNL     1      -8.394   5.985  -3.981  1.00  0.00    -0.206 F 
ATOM     77  C   UNL     1     -10.286   6.063  -7.063  1.00  0.00     0.022 A 
BRANCH  74  78
ATOM     78  S   UNL     1     -12.410   7.599  -8.011  1.00  0.00     0.124 S 
ATOM     79  O   UNL     1     -13.611   7.474  -7.193  1.00  0.00    -0.237 OA
ATOM     80  O   UNL     1     -12.032   8.956  -8.395  1.00  0.00    -0.237 OA
ATOM     81  O   UNL     1     -12.261   6.593  -9.061  1.00  0.00    -0.744 OA
ENDBRANCH  74  78
ENDBRANCH  47  71
BRANCH  59  82
ATOM     82  C   UNL     1     -14.544   8.602   0.617  1.00  0.00     0.023 A 
ATOM     83  C   UNL     1     -14.977   7.267   0.699  1.00  0.00     0.031 A 
ATOM     84  C   UNL     1     -15.515   9.617   0.709  1.00  0.00     0.131 A 
ATOM     85  C   UNL     1     -16.347   6.982   0.808  1.00  0.00     0.055 A 
ATOM     86  C   UNL     1     -16.868   9.328   0.886  1.00  0.00     0.041 A 
ATOM     87  F   UNL     1     -15.162  10.910   0.632  1.00  0.00    -0.206 F 
ATOM     88  C   UNL     1     -17.293   8.004   0.922  1.00  0.00     0.022 A 
BRANCH  85  89
ATOM     89  S   UNL     1     -16.889   5.254   0.694  1.00  0.00     0.124 S 
ATOM     90  O   UNL     1     -16.366   4.858  -0.610  1.00  0.00    -0.237 OA
ATOM     91  O   UNL     1     -16.243   4.646   1.852  1.00  0.00    -0.237 OA
ATOM     92  O   UNL     1     -18.346   5.346   0.775  1.00  0.00    -0.744 OA
ENDBRANCH  85  89
ENDBRANCH  59  82
ENDBRANCH  33  34
ENDBRANCH  25  28
ENDBRANCH  23  24
ENDBRANCH  22  23
ENDBRANCH  21  22
ENDBRANCH   1  21
TORSDOF 19
