REMARK SMILES CCCN(C(=O)Cc1c(C(=O)NCCCCCCNC(=O)c2ccc(-c3c4nc(c(-c5cc(S(=O)(=O)[O-])ccc5F)c5ccc([nH]5)c(-c5cc(S(=O)(=O)[O-])ccc5F)c5nc(c(-c6cc(S(=O)(=O)[O-])ccc6F)c6ccc3[nH]6)C=C5)C=C4)cc2)c(C)cn1CC)c1cccc(Cl)c1
REMARK SMILES IDX 14 1 13 2 12 3 10 4 11 5 9 7 8 8 88 9 85 10 87 11 86 12 7 13
REMARK SMILES IDX 5 14 6 15 4 16 3 17 2 18 1 19 91 20 92 21 97 22 93 23 95 24
REMARK SMILES IDX 94 25 96 26 89 27 90 28 15 29 16 30 17 31 18 32 19 33 20 34
REMARK SMILES IDX 21 36 22 37 23 38 84 39 24 40 83 41 25 42 26 43 27 44 77 45
REMARK SMILES IDX 28 46 82 47 76 48 78 49 29 50 81 51 75 52 74 53 30 55 62 56
REMARK SMILES IDX 42 57 61 58 43 59 46 60 60 61 79 62 44 63 45 64 59 66 80 67
REMARK SMILES IDX 47 68 31 69 32 70 40 71 33 72 39 73 41 74 38 75 34 76 35 77
REMARK SMILES IDX 36 78 37 79 63 80 64 81 72 82 65 83 71 84 73 85 70 86 66 87
REMARK SMILES IDX 67 88 68 89 69 90 48 91 49 92 57 93 50 94 56 95 58 96 55 97
REMARK SMILES IDX 51 98 52 99 53 100 54 101
REMARK H PARENT 12 6 19 35 78 54 46 65
REMARK Flexibility Score: inf
ROOT
ATOM      1  C   UNL     1      -0.416  -8.047   0.998  1.00  0.00     0.021 C 
ENDROOT
BRANCH   1   2
ATOM      2  C   UNL     1      -1.477  -7.405   1.879  1.00  0.00     0.116 C 
BRANCH   2   3
ATOM      3  N   UNL     1      -0.931  -6.590   2.917  1.00  0.00    -0.352 N 
ATOM      4  C   UNL     1      -1.061  -5.274   3.253  1.00  0.00     0.253 C 
ATOM      5  O   UNL     1      -0.575  -5.033   4.366  1.00  0.00    -0.269 OA
ATOM      6  H   UNL     1      -0.330  -7.084   3.520  1.00  0.00     0.163 HD
BRANCH   4   7
ATOM      7  C   UNL     1      -1.709  -4.195   2.449  1.00  0.00     0.064 A 
ATOM      8  C   UNL     1      -1.585  -2.844   2.884  1.00  0.00     0.040 A 
ATOM      9  N   UNL     1      -2.446  -2.067   2.141  1.00  0.00    -0.350 N 
ATOM     10  C   UNL     1      -2.497  -4.114   1.226  1.00  0.00    -0.020 A 
ATOM     11  C   UNL     1      -2.897  -2.801   1.091  1.00  0.00     0.090 A 
ATOM     12  C   UNL     1      -2.941  -5.088   0.190  1.00  0.00     0.047 C 
BRANCH   8  13
ATOM     13  C   UNL     1      -0.715  -2.323   4.020  1.00  0.00     0.155 C 
BRANCH  13  14
ATOM     14  C   UNL     1      -0.274  -0.875   3.900  1.00  0.00     0.232 C 
ATOM     15  O   UNL     1      -0.654  -0.076   4.766  1.00  0.00    -0.274 OA
BRANCH  14  16
ATOM     16  N   UNL     1       0.490  -0.490   2.787  1.00  0.00    -0.312 N 
BRANCH  16  17
ATOM     17  C   UNL     1       1.204  -1.443   1.901  1.00  0.00     0.125 C 
BRANCH  17  18
ATOM     18  C   UNL     1       0.797  -1.457   0.423  1.00  0.00     0.019 C 
ATOM     19  C   UNL     1       1.739  -0.644  -0.461  1.00  0.00     0.006 C 
ENDBRANCH  17  18
ENDBRANCH  16  17
BRANCH  16  20
ATOM     20  C   UNL     1       0.737   0.906   2.598  1.00  0.00     0.045 A 
ATOM     21  C   UNL     1       1.319   1.671   3.615  1.00  0.00     0.026 A 
ATOM     22  C   UNL     1       0.324   1.548   1.426  1.00  0.00     0.046 A 
ATOM     23  C   UNL     1       1.540   3.040   3.437  1.00  0.00     0.004 A 
ATOM     24  C   UNL     1       0.555   2.910   1.246  1.00  0.00     0.043 A 
ATOM     25  C   UNL     1       1.171   3.658   2.243  1.00  0.00     0.020 A 
ATOM     26  Cl  UNL     1       0.058   3.670  -0.216  1.00  0.00    -0.084 Cl
ENDBRANCH  16  20
ENDBRANCH  14  16
ENDBRANCH  13  14
ENDBRANCH   8  13
BRANCH   9  27
ATOM     27  C   UNL     1      -2.856  -0.683   2.313  1.00  0.00     0.118 C 
ATOM     28  C   UNL     1      -3.682  -0.438   3.559  1.00  0.00     0.027 C 
ENDBRANCH   9  27
ENDBRANCH   4   7
ENDBRANCH   2   3
ENDBRANCH   1   2
BRANCH   1  29
ATOM     29  C   UNL     1       0.050  -9.415   1.500  1.00  0.00     0.002 C 
BRANCH  29  30
ATOM     30  C   UNL     1      -1.067 -10.425   1.817  1.00  0.00     0.002 C 
BRANCH  30  31
ATOM     31  C   UNL     1      -2.162 -10.598   0.752  1.00  0.00     0.021 C 
BRANCH  31  32
ATOM     32  C   UNL     1      -1.651 -11.148  -0.570  1.00  0.00     0.116 C 
BRANCH  32  33
ATOM     33  N   UNL     1      -1.085 -12.485  -0.427  1.00  0.00    -0.352 N 
ATOM     34  C   UNL     1      -0.457 -13.261  -1.382  1.00  0.00     0.251 C 
ATOM     35  H   UNL     1      -1.160 -12.887   0.468  1.00  0.00     0.163 HD
ATOM     36  O   UNL     1      -0.390 -14.473  -1.238  1.00  0.00    -0.269 OA
BRANCH  34  37
ATOM     37  C   UNL     1       0.118 -12.602  -2.572  1.00  0.00     0.039 A 
ATOM     38  C   UNL     1       0.055 -13.200  -3.831  1.00  0.00     0.014 A 
ATOM     39  C   UNL     1       0.717 -11.352  -2.417  1.00  0.00     0.014 A 
ATOM     40  C   UNL     1       0.523 -12.487  -4.935  1.00  0.00     0.010 A 
ATOM     41  C   UNL     1       1.027 -10.589  -3.517  1.00  0.00     0.010 A 
ATOM     42  C   UNL     1       0.981 -11.164  -4.777  1.00  0.00    -0.014 A 
BRANCH  42  43
ATOM     43  C   UNL     1       1.271 -10.323  -5.938  1.00  0.00     0.031 A 
ATOM     44  C   UNL     1       0.183 -10.329  -6.948  1.00  0.00     0.074 A 
ATOM     45  C   UNL     1       2.335  -9.494  -6.056  1.00  0.00     0.049 A 
ATOM     46  N   UNL     1       0.172 -11.000  -8.049  1.00  0.00    -0.248 NA
ATOM     47  C   UNL     1      -1.109  -9.705  -6.623  1.00  0.00     0.031 C 
ATOM     48  C   UNL     1       3.370  -9.191  -5.061  1.00  0.00     0.029 A 
ATOM     49  N   UNL     1       2.684  -8.682  -7.097  1.00  0.00    -0.354 N 
ATOM     50  C   UNL     1      -1.014 -10.670  -8.689  1.00  0.00     0.074 A 
ATOM     51  C   UNL     1      -1.843 -10.058  -7.684  1.00  0.00     0.031 C 
ATOM     52  C   UNL     1       4.101  -8.125  -5.463  1.00  0.00     0.029 A 
ATOM     53  C   UNL     1       3.710  -7.775  -6.818  1.00  0.00     0.049 A 
ATOM     54  H   UNL     1       2.247  -8.733  -7.977  1.00  0.00     0.167 HD
ATOM     55  C   UNL     1      -1.093 -10.709 -10.047  1.00  0.00     0.034 A 
ATOM     56  C   UNL     1       4.241  -6.834  -7.649  1.00  0.00     0.034 A 
ATOM     57  C   UNL     1       0.055 -11.394 -10.603  1.00  0.00     0.049 A 
ATOM     58  C   UNL     1       3.984  -7.310  -9.027  1.00  0.00     0.074 A 
ATOM     59  C   UNL     1       0.566 -12.673 -10.521  1.00  0.00     0.029 A 
ATOM     60  N   UNL     1       1.089 -10.601 -11.048  1.00  0.00    -0.354 N 
ATOM     61  N   UNL     1       4.527  -8.389  -9.516  1.00  0.00    -0.248 NA
ATOM     62  C   UNL     1       2.771  -6.871  -9.697  1.00  0.00     0.031 C 
ATOM     63  C   UNL     1       1.982 -12.505 -10.476  1.00  0.00     0.029 A 
ATOM     64  C   UNL     1       2.275 -11.146 -10.622  1.00  0.00     0.049 A 
ATOM     65  H   UNL     1       0.994  -9.780 -11.583  1.00  0.00     0.167 HD
ATOM     66  C   UNL     1       3.509  -9.011 -10.219  1.00  0.00     0.074 A 
ATOM     67  C   UNL     1       2.494  -7.974 -10.400  1.00  0.00     0.031 C 
ATOM     68  C   UNL     1       3.472 -10.372 -10.336  1.00  0.00     0.034 A 
BRANCH  55  69
ATOM     69  C   UNL     1      -1.954  -9.807 -10.901  1.00  0.00     0.023 A 
ATOM     70  C   UNL     1      -1.915 -10.015 -12.294  1.00  0.00     0.031 A 
ATOM     71  C   UNL     1      -2.553  -8.601 -10.475  1.00  0.00     0.131 A 
ATOM     72  C   UNL     1      -2.353  -9.022 -13.186  1.00  0.00     0.055 A 
ATOM     73  C   UNL     1      -3.047  -7.644 -11.366  1.00  0.00     0.041 A 
ATOM     74  F   UNL     1      -2.606  -8.233  -9.190  1.00  0.00    -0.206 F 
ATOM     75  C   UNL     1      -2.920  -7.835 -12.731  1.00  0.00     0.022 A 
BRANCH  72  76
ATOM     76  S   UNL     1      -2.008  -9.238 -14.951  1.00  0.00     0.124 S 
ATOM     77  O   UNL     1      -0.556  -9.384 -14.952  1.00  0.00    -0.237 OA
ATOM     78  O   UNL     1      -2.778 -10.437 -15.264  1.00  0.00    -0.237 OA
ATOM     79  O   UNL     1      -2.511  -8.002 -15.547  1.00  0.00    -0.744 OA
ENDBRANCH  72  76
ENDBRANCH  55  69
BRANCH  56  80
ATOM     80  C   UNL     1       4.656  -5.434  -7.341  1.00  0.00     0.023 A 
ATOM     81  C   UNL     1       5.483  -4.662  -8.193  1.00  0.00     0.031 A 
ATOM     82  C   UNL     1       3.986  -4.737  -6.313  1.00  0.00     0.131 A 
ATOM     83  C   UNL     1       5.596  -3.260  -8.006  1.00  0.00     0.055 A 
ATOM     84  C   UNL     1       4.093  -3.353  -6.141  1.00  0.00     0.041 A 
ATOM     85  F   UNL     1       3.127  -5.367  -5.496  1.00  0.00    -0.206 F 
ATOM     86  C   UNL     1       4.890  -2.607  -6.994  1.00  0.00     0.022 A 
BRANCH  83  87
ATOM     87  S   UNL     1       6.601  -2.235  -9.138  1.00  0.00     0.124 S 
ATOM     88  O   UNL     1       7.957  -2.682  -8.844  1.00  0.00    -0.237 OA
ATOM     89  O   UNL     1       6.066  -2.593 -10.447  1.00  0.00    -0.237 OA
ATOM     90  O   UNL     1       6.304  -0.865  -8.714  1.00  0.00    -0.744 OA
ENDBRANCH  83  87
ENDBRANCH  56  80
BRANCH  68  91
ATOM     91  C   UNL     1       4.735 -11.145  -9.994  1.00  0.00     0.023 A 
ATOM     92  C   UNL     1       5.396 -11.133  -8.743  1.00  0.00     0.031 A 
ATOM     93  C   UNL     1       5.240 -12.003 -10.987  1.00  0.00     0.131 A 
ATOM     94  C   UNL     1       6.527 -11.951  -8.535  1.00  0.00     0.055 A 
ATOM     95  C   UNL     1       6.340 -12.829 -10.769  1.00  0.00     0.041 A 
ATOM     96  F   UNL     1       4.648 -12.072 -12.191  1.00  0.00    -0.206 F 
ATOM     97  C   UNL     1       6.994 -12.801  -9.543  1.00  0.00     0.022 A 
BRANCH  94  98
ATOM     98  S   UNL     1       7.441 -11.904  -6.956  1.00  0.00     0.124 S 
ATOM     99  O   UNL     1       7.635 -10.479  -6.715  1.00  0.00    -0.237 OA
ATOM    100  O   UNL     1       6.530 -12.587  -6.042  1.00  0.00    -0.237 OA
ATOM    101  O   UNL     1       8.670 -12.643  -7.252  1.00  0.00    -0.744 OA
ENDBRANCH  94  98
ENDBRANCH  68  91
ENDBRANCH  42  43
ENDBRANCH  34  37
ENDBRANCH  32  33
ENDBRANCH  31  32
ENDBRANCH  30  31
ENDBRANCH  29  30
ENDBRANCH   1  29
TORSDOF 23
