REMARK SMILES C[C@](NC(=O)C[C@@H]1CCCCO1)(C(=O)NCCCCCCNC(=O)c1ccc(-c2c3nc(c(-c4cc(S(=O)(=O)[O-])ccc4F)c4ccc([nH]4)c(-c4cc(S(=O)(=O)[O-])ccc4F)c4nc(c(-c5cc(S(=O)(=O)[O-])ccc5F)c5ccc2[nH]5)C=C4)C=C3)cc1)c1ccccc1
REMARK SMILES IDX 18 1 17 2 16 3 15 4 13 5 14 6 2 8 1 9 88 10 89 11 93 12
REMARK SMILES IDX 90 13 92 14 91 15 3 16 4 17 5 19 6 20 7 21 8 22 12 23 9 24
REMARK SMILES IDX 11 25 10 26 19 27 20 28 21 29 22 30 23 31 24 33 25 34 26 35
REMARK SMILES IDX 87 36 27 37 86 38 28 39 29 40 30 41 80 42 31 43 85 44 79 45
REMARK SMILES IDX 81 46 32 47 84 48 78 49 77 50 33 52 65 53 45 54 64 55 46 56
REMARK SMILES IDX 49 57 63 58 82 59 47 60 48 61 62 63 83 64 50 65 34 66 35 67
REMARK SMILES IDX 43 68 36 69 42 70 44 71 41 72 37 73 38 74 39 75 40 76 66 77
REMARK SMILES IDX 67 78 75 79 68 80 74 81 76 82 73 83 69 84 70 85 71 86 72 87
REMARK SMILES IDX 51 88 52 89 60 90 53 91 59 92 61 93 58 94 54 95 55 96 56 97
REMARK SMILES IDX 57 98
REMARK H PARENT 15 7 3 18 22 32 81 51 49 62
REMARK Flexibility Score: inf
ROOT
ATOM      1  C   UNL     1      -2.974   2.490   1.427  1.00  0.00     0.002 C 
ENDROOT
BRANCH   1   2
ATOM      2  C   UNL     1      -1.468   2.261   1.235  1.00  0.00     0.021 C 
BRANCH   2   3
ATOM      3  C   UNL     1      -0.940   1.005   1.923  1.00  0.00     0.116 C 
BRANCH   3   4
ATOM      4  N   UNL     1      -1.664  -0.170   1.460  1.00  0.00    -0.354 N 
ATOM      5  C   UNL     1      -1.278  -1.354   0.902  1.00  0.00     0.250 C 
ATOM      6  O   UNL     1      -2.194  -2.157   0.697  1.00  0.00    -0.272 OA
ATOM      7  H   UNL     1      -2.639  -0.094   1.572  1.00  0.00     0.163 HD
BRANCH   5   8
ATOM      8  C   UNL     1       0.243  -1.702   0.657  1.00  0.00     0.141 C 
ATOM      9  C   UNL     1       0.940  -1.675   2.053  1.00  0.00     0.051 C 
BRANCH   8  10
ATOM     10  C   UNL     1       0.321  -3.068  -0.050  1.00  0.00    -0.013 A 
ATOM     11  C   UNL     1       0.253  -4.270   0.680  1.00  0.00     0.007 A 
ATOM     12  C   UNL     1       0.424  -3.177  -1.447  1.00  0.00     0.007 A 
ATOM     13  C   UNL     1       0.469  -5.505   0.069  1.00  0.00     0.000 A 
ATOM     14  C   UNL     1       0.673  -4.408  -2.059  1.00  0.00     0.000 A 
ATOM     15  C   UNL     1       0.724  -5.569  -1.295  1.00  0.00     0.000 A 
ENDBRANCH   8  10
BRANCH   8  16
ATOM     16  N   UNL     1       0.820  -0.595  -0.162  1.00  0.00    -0.338 N 
ATOM     17  C   UNL     1       2.046  -0.331  -0.678  1.00  0.00     0.223 C 
ATOM     18  H   UNL     1       0.159   0.102  -0.376  1.00  0.00     0.164 HD
ATOM     19  O   UNL     1       2.279   0.859  -0.923  1.00  0.00    -0.275 OA
BRANCH  17  20
ATOM     20  C   UNL     1       3.043  -1.384  -1.129  1.00  0.00     0.132 C 
BRANCH  20  21
ATOM     21  C   UNL     1       3.602  -2.368  -0.104  1.00  0.00     0.127 C 
ATOM     22  C   UNL     1       4.852  -1.865   0.621  1.00  0.00     0.033 C 
ATOM     23  O   UNL     1       3.859  -3.651  -0.697  1.00  0.00    -0.378 OA
ATOM     24  C   UNL     1       6.092  -1.902  -0.268  1.00  0.00     0.005 C 
ATOM     25  C   UNL     1       4.937  -3.670  -1.626  1.00  0.00     0.160 C 
ATOM     26  C   UNL     1       6.234  -3.259  -0.949  1.00  0.00     0.029 C 
ENDBRANCH  20  21
ENDBRANCH  17  20
ENDBRANCH   8  16
ENDBRANCH   5   8
ENDBRANCH   3   4
ENDBRANCH   2   3
ENDBRANCH   1   2
BRANCH   1  27
ATOM     27  C   UNL     1      -3.444   2.501   2.885  1.00  0.00     0.002 C 
BRANCH  27  28
ATOM     28  C   UNL     1      -2.743   3.530   3.772  1.00  0.00     0.021 C 
BRANCH  28  29
ATOM     29  C   UNL     1      -2.849   4.963   3.267  1.00  0.00     0.116 C 
BRANCH  29  30
ATOM     30  N   UNL     1      -4.228   5.419   3.214  1.00  0.00    -0.352 N 
ATOM     31  C   UNL     1      -4.768   6.579   3.713  1.00  0.00     0.251 C 
ATOM     32  H   UNL     1      -4.859   4.815   2.760  1.00  0.00     0.163 HD
ATOM     33  O   UNL     1      -5.983   6.712   3.774  1.00  0.00    -0.269 OA
BRANCH  31  34
ATOM     34  C   UNL     1      -3.865   7.646   4.195  1.00  0.00     0.039 A 
ATOM     35  C   UNL     1      -4.153   8.283   5.403  1.00  0.00     0.014 A 
ATOM     36  C   UNL     1      -2.733   8.010   3.459  1.00  0.00     0.014 A 
ATOM     37  C   UNL     1      -3.279   9.254   5.895  1.00  0.00     0.010 A 
ATOM     38  C   UNL     1      -1.822   8.916   3.991  1.00  0.00     0.010 A 
ATOM     39  C   UNL     1      -2.091   9.559   5.208  1.00  0.00    -0.014 A 
BRANCH  39  40
ATOM     40  C   UNL     1      -1.143  10.581   5.724  1.00  0.00     0.031 A 
ATOM     41  C   UNL     1      -0.876  11.825   4.916  1.00  0.00     0.074 A 
ATOM     42  C   UNL     1      -0.498  10.376   6.890  1.00  0.00     0.049 A 
ATOM     43  N   UNL     1      -0.027  12.793   5.144  1.00  0.00    -0.248 NA
ATOM     44  C   UNL     1      -1.649  11.986   3.674  1.00  0.00     0.031 C 
ATOM     45  C   UNL     1      -0.653   9.198   7.747  1.00  0.00     0.029 A 
ATOM     46  N   UNL     1       0.423  11.147   7.555  1.00  0.00    -0.354 N 
ATOM     47  C   UNL     1      -0.164  13.675   4.077  1.00  0.00     0.074 A 
ATOM     48  C   UNL     1      -1.121  13.088   3.165  1.00  0.00     0.031 C 
ATOM     49  C   UNL     1       0.126   9.337   8.832  1.00  0.00     0.029 A 
ATOM     50  C   UNL     1       0.877  10.584   8.726  1.00  0.00     0.049 A 
ATOM     51  H   UNL     1       0.731  12.022   7.224  1.00  0.00     0.167 HD
ATOM     52  C   UNL     1       0.428  14.880   3.891  1.00  0.00     0.034 A 
ATOM     53  C   UNL     1       1.805  11.016   9.604  1.00  0.00     0.034 A 
ATOM     54  C   UNL     1       1.374  15.459   4.812  1.00  0.00     0.049 A 
ATOM     55  C   UNL     1       2.486  12.341   9.348  1.00  0.00     0.074 A 
ATOM     56  C   UNL     1       2.023  16.678   4.728  1.00  0.00     0.029 A 
ATOM     57  N   UNL     1       1.805  14.861   5.989  1.00  0.00    -0.354 N 
ATOM     58  N   UNL     1       2.322  13.174   8.345  1.00  0.00    -0.248 NA
ATOM     59  C   UNL     1       3.461  12.792  10.349  1.00  0.00     0.031 C 
ATOM     60  C   UNL     1       2.893  16.789   5.816  1.00  0.00     0.029 A 
ATOM     61  C   UNL     1       2.723  15.679   6.628  1.00  0.00     0.049 A 
ATOM     62  H   UNL     1       1.503  13.985   6.321  1.00  0.00     0.167 HD
ATOM     63  C   UNL     1       3.140  14.267   8.624  1.00  0.00     0.074 A 
ATOM     64  C   UNL     1       3.781  13.993   9.893  1.00  0.00     0.031 C 
ATOM     65  C   UNL     1       3.343  15.398   7.901  1.00  0.00     0.034 A 
BRANCH  52  66
ATOM     66  C   UNL     1       0.072  15.647   2.641  1.00  0.00     0.023 A 
ATOM     67  C   UNL     1      -1.237  16.108   2.411  1.00  0.00     0.031 A 
ATOM     68  C   UNL     1       1.048  15.925   1.668  1.00  0.00     0.131 A 
ATOM     69  C   UNL     1      -1.547  16.768   1.214  1.00  0.00     0.055 A 
ATOM     70  C   UNL     1       0.750  16.654   0.515  1.00  0.00     0.041 A 
ATOM     71  F   UNL     1       2.309  15.491   1.821  1.00  0.00    -0.206 F 
ATOM     72  C   UNL     1      -0.557  17.071   0.277  1.00  0.00     0.022 A 
BRANCH  69  73
ATOM     73  S   UNL     1      -3.287  17.118   0.844  1.00  0.00     0.124 S 
ATOM     74  O   UNL     1      -3.858  15.774   0.821  1.00  0.00    -0.237 OA
ATOM     75  O   UNL     1      -3.686  17.962   1.964  1.00  0.00    -0.237 OA
ATOM     76  O   UNL     1      -3.233  17.787  -0.455  1.00  0.00    -0.744 OA
ENDBRANCH  69  73
ENDBRANCH  52  66
BRANCH  53  77
ATOM     77  C   UNL     1       2.176  10.194  10.796  1.00  0.00     0.023 A 
ATOM     78  C   UNL     1       2.017  10.693  12.099  1.00  0.00     0.031 A 
ATOM     79  C   UNL     1       2.781   8.933  10.647  1.00  0.00     0.131 A 
ATOM     80  C   UNL     1       2.530   9.976  13.191  1.00  0.00     0.055 A 
ATOM     81  C   UNL     1       3.222   8.189  11.743  1.00  0.00     0.041 A 
ATOM     82  F   UNL     1       2.958   8.403   9.426  1.00  0.00    -0.206 F 
ATOM     83  C   UNL     1       3.118   8.721  13.024  1.00  0.00     0.022 A 
BRANCH  80  84
ATOM     84  S   UNL     1       2.553  10.779  14.819  1.00  0.00     0.124 S 
ATOM     85  O   UNL     1       3.266  12.017  14.527  1.00  0.00    -0.237 OA
ATOM     86  O   UNL     1       1.129  10.910  15.110  1.00  0.00    -0.237 OA
ATOM     87  O   UNL     1       3.274   9.824  15.658  1.00  0.00    -0.744 OA
ENDBRANCH  80  84
ENDBRANCH  53  77
BRANCH  65  88
ATOM     88  C   UNL     1       4.236  16.455   8.505  1.00  0.00     0.023 A 
ATOM     89  C   UNL     1       5.607  16.238   8.727  1.00  0.00     0.031 A 
ATOM     90  C   UNL     1       3.697  17.701   8.873  1.00  0.00     0.131 A 
ATOM     91  C   UNL     1       6.377  17.226   9.358  1.00  0.00     0.055 A 
ATOM     92  C   UNL     1       4.483  18.707   9.435  1.00  0.00     0.041 A 
ATOM     93  F   UNL     1       2.393  17.964   8.686  1.00  0.00    -0.206 F 
ATOM     94  C   UNL     1       5.829  18.466   9.696  1.00  0.00     0.022 A 
BRANCH  91  95
ATOM     95  S   UNL     1       8.083  16.831   9.830  1.00  0.00     0.124 S 
ATOM     96  O   UNL     1       7.899  15.660  10.681  1.00  0.00    -0.237 OA
ATOM     97  O   UNL     1       8.715  16.585   8.537  1.00  0.00    -0.237 OA
ATOM     98  O   UNL     1       8.536  18.036  10.521  1.00  0.00    -0.744 OA
ENDBRANCH  91  95
ENDBRANCH  65  88
ENDBRANCH  39  40
ENDBRANCH  31  34
ENDBRANCH  29  30
ENDBRANCH  28  29
ENDBRANCH  27  28
ENDBRANCH   1  27
TORSDOF 20
