REMARK SMILES CC1=C(C(=O)Nc2ccccc2)[C@@H](c2ccc(C(=O)NCCCCCCNC(=O)c3ccc(-c4c5nc(c(-c6cc(S(=O)(=O)[O-])ccc6F)c6ccc([nH]6)c(-c6cc(S(=O)(=O)[O-])ccc6F)c6nc(c(-c7cc(S(=O)(=O)[O-])ccc7F)c7ccc4[nH]7)C=C6)C=C5)cc3)cc2)n2ncnc2N1
REMARK SMILES IDX 23 1 22 2 21 3 20 4 18 5 19 6 17 8 14 9 15 10 94 11 16 12
REMARK SMILES IDX 93 13 13 14 1 15 2 16 3 17 100 18 99 19 95 21 98 22 96 23
REMARK SMILES IDX 97 24 4 25 5 26 6 27 7 29 8 30 12 31 9 32 11 33 10 34 24 35
REMARK SMILES IDX 25 36 26 37 27 38 28 39 29 41 30 42 31 43 92 44 32 45 91 46
REMARK SMILES IDX 33 47 34 48 35 49 85 50 36 51 90 52 84 53 86 54 37 55 89 56
REMARK SMILES IDX 83 57 82 58 38 60 70 61 50 62 69 63 51 64 54 65 68 66 87 67
REMARK SMILES IDX 52 68 53 69 67 71 88 72 55 73 39 74 40 75 48 76 41 77 47 78
REMARK SMILES IDX 49 79 46 80 42 81 43 82 44 83 45 84 71 85 72 86 80 87 73 88
REMARK SMILES IDX 79 89 81 90 78 91 74 92 75 93 76 94 77 95 56 96 57 97 65 98
REMARK SMILES IDX 58 99 64 100 66 101 63 102 59 103 60 104 61 105 62 106
REMARK H PARENT 20 7 100 20 6 28 27 40 86 59 54 70
REMARK Flexibility Score: inf
ROOT
ATOM      1  C   UNL     1       6.486   9.223  -3.451  1.00  0.00     0.002 C 
ENDROOT
BRANCH   1   2
ATOM      2  C   UNL     1       5.703   8.303  -2.506  1.00  0.00     0.021 C 
BRANCH   2   3
ATOM      3  C   UNL     1       4.191   8.533  -2.569  1.00  0.00     0.116 C 
BRANCH   3   4
ATOM      4  N   UNL     1       3.635   7.864  -3.732  1.00  0.00    -0.352 N 
ATOM      5  C   UNL     1       2.927   6.700  -3.881  1.00  0.00     0.251 C 
ATOM      6  O   UNL     1       2.580   6.380  -5.019  1.00  0.00    -0.269 OA
ATOM      7  H   UNL     1       3.800   8.339  -4.579  1.00  0.00     0.163 HD
BRANCH   5   8
ATOM      8  C   UNL     1       2.496   5.860  -2.730  1.00  0.00     0.039 A 
ATOM      9  C   UNL     1       1.421   4.395  -0.576  1.00  0.00    -0.019 A 
ATOM     10  C   UNL     1       0.797   4.361  -1.827  1.00  0.00     0.007 A 
ATOM     11  C   UNL     1       2.626   5.102  -0.442  1.00  0.00     0.007 A 
ATOM     12  C   UNL     1       1.325   5.102  -2.889  1.00  0.00     0.014 A 
ATOM     13  C   UNL     1       3.182   5.782  -1.521  1.00  0.00     0.014 A 
BRANCH   9  14
ATOM     14  C   UNL     1       0.863   3.680   0.646  1.00  0.00     0.179 C 
ATOM     15  C   UNL     1       0.110  -0.091   1.435  1.00  0.00     0.065 C 
ATOM     16  C   UNL     1       0.013   1.358   1.035  1.00  0.00     0.026 C 
ATOM     17  C   UNL     1       1.043   2.151   0.636  1.00  0.00     0.065 C 
ATOM     18  N   UNL     1      -1.256   1.896   1.233  1.00  0.00    -0.328 N 
ATOM     19  C   UNL     1      -1.531   3.208   1.186  1.00  0.00     0.226 A 
ATOM     20  H   UNL     1      -1.998   1.275   1.418  1.00  0.00     0.169 HD
ATOM     21  N   UNL     1      -0.526   4.086   0.899  1.00  0.00    -0.219 N 
ATOM     22  N   UNL     1      -2.637   3.864   1.427  1.00  0.00    -0.200 NA
ATOM     23  N   UNL     1      -0.949   5.364   1.026  1.00  0.00    -0.157 NA
ATOM     24  C   UNL     1      -2.238   5.171   1.322  1.00  0.00     0.248 A 
BRANCH  17  25
ATOM     25  C   UNL     1       2.476   1.771   0.429  1.00  0.00     0.255 C 
ATOM     26  O   UNL     1       3.341   2.480   0.954  1.00  0.00    -0.269 OA
ATOM     27  N   UNL     1       2.911   0.694  -0.284  1.00  0.00    -0.322 N 
ATOM     28  H   UNL     1       3.883   0.680  -0.442  1.00  0.00     0.170 HD
BRANCH  27  29
ATOM     29  C   UNL     1       2.225  -0.393  -0.829  1.00  0.00     0.041 A 
ATOM     30  C   UNL     1       2.681  -1.657  -0.433  1.00  0.00     0.026 A 
ATOM     31  C   UNL     1       1.087  -0.279  -1.624  1.00  0.00     0.026 A 
ATOM     32  C   UNL     1       1.911  -2.789  -0.688  1.00  0.00     0.002 A 
ATOM     33  C   UNL     1       0.346  -1.427  -1.928  1.00  0.00     0.002 A 
ATOM     34  C   UNL     1       0.734  -2.671  -1.422  1.00  0.00     0.000 A 
ENDBRANCH  27  29
ENDBRANCH  17  25
ENDBRANCH   9  14
ENDBRANCH   5   8
ENDBRANCH   3   4
ENDBRANCH   2   3
ENDBRANCH   1   2
BRANCH   1  35
ATOM     35  C   UNL     1       6.291  10.727  -3.199  1.00  0.00     0.002 C 
BRANCH  35  36
ATOM     36  C   UNL     1       6.516  11.188  -1.752  1.00  0.00     0.021 C 
BRANCH  36  37
ATOM     37  C   UNL     1       7.963  11.049  -1.300  1.00  0.00     0.116 C 
BRANCH  37  38
ATOM     38  N   UNL     1       8.833  11.976  -2.015  1.00  0.00    -0.352 N 
ATOM     39  C   UNL     1      10.183  12.173  -1.859  1.00  0.00     0.251 C 
ATOM     40  H   UNL     1       8.395  12.534  -2.698  1.00  0.00     0.163 HD
ATOM     41  O   UNL     1      10.686  13.242  -2.217  1.00  0.00    -0.269 OA
BRANCH  39  42
ATOM     42  C   UNL     1      11.017  11.111  -1.267  1.00  0.00     0.039 A 
ATOM     43  C   UNL     1      12.088  11.437  -0.432  1.00  0.00     0.014 A 
ATOM     44  C   UNL     1      10.742   9.775  -1.572  1.00  0.00     0.014 A 
ATOM     45  C   UNL     1      12.831  10.409   0.144  1.00  0.00     0.010 A 
ATOM     46  C   UNL     1      11.412   8.757  -0.925  1.00  0.00     0.010 A 
ATOM     47  C   UNL     1      12.476   9.067  -0.089  1.00  0.00    -0.014 A 
BRANCH  47  48
ATOM     48  C   UNL     1      13.090   7.998   0.701  1.00  0.00     0.031 A 
ATOM     49  C   UNL     1      12.951   8.218   2.164  1.00  0.00     0.074 A 
ATOM     50  C   UNL     1      13.576   6.837   0.209  1.00  0.00     0.049 A 
ATOM     51  N   UNL     1      13.868   8.630   2.974  1.00  0.00    -0.248 NA
ATOM     52  C   UNL     1      11.607   8.192   2.763  1.00  0.00     0.031 C 
ATOM     53  C   UNL     1      13.534   6.345  -1.169  1.00  0.00     0.029 A 
ATOM     54  N   UNL     1      14.161   5.797   0.874  1.00  0.00    -0.354 N 
ATOM     55  C   UNL     1      13.288   8.643   4.237  1.00  0.00     0.074 A 
ATOM     56  C   UNL     1      11.870   8.601   4.007  1.00  0.00     0.031 C 
ATOM     57  C   UNL     1      13.874   5.034  -1.199  1.00  0.00     0.029 A 
ATOM     58  C   UNL     1      14.310   4.625   0.128  1.00  0.00     0.049 A 
ATOM     59  H   UNL     1      14.454   5.867   1.811  1.00  0.00     0.167 HD
ATOM     60  C   UNL     1      14.050   8.418   5.344  1.00  0.00     0.034 A 
ATOM     61  C   UNL     1      14.763   3.411   0.560  1.00  0.00     0.034 A 
ATOM     62  C   UNL     1      15.459   8.542   5.018  1.00  0.00     0.049 A 
ATOM     63  C   UNL     1      15.579   3.677   1.771  1.00  0.00     0.074 A 
ATOM     64  C   UNL     1      16.242   9.550   4.485  1.00  0.00     0.029 A 
ATOM     65  N   UNL     1      16.184   7.381   4.839  1.00  0.00    -0.354 N 
ATOM     66  N   UNL     1      16.702   4.341   1.738  1.00  0.00    -0.248 NA
ATOM     67  C   UNL     1      14.908   3.659   3.061  1.00  0.00     0.031 C 
ATOM     68  C   UNL     1      17.120   8.888   3.575  1.00  0.00     0.029 A 
ATOM     69  C   UNL     1      16.912   7.511   3.683  1.00  0.00     0.049 A 
ATOM     70  H   UNL     1      16.180   6.598   5.436  1.00  0.00     0.167 HD
ATOM     71  C   UNL     1      16.646   5.187   2.833  1.00  0.00     0.074 A 
ATOM     72  C   UNL     1      15.564   4.656   3.664  1.00  0.00     0.031 C 
ATOM     73  C   UNL     1      17.280   6.398   2.825  1.00  0.00     0.034 A 
BRANCH  60  74
ATOM     74  C   UNL     1      13.584   7.683   6.588  1.00  0.00     0.023 A 
ATOM     75  C   UNL     1      14.571   7.400   7.554  1.00  0.00     0.031 A 
ATOM     76  C   UNL     1      12.361   6.998   6.755  1.00  0.00     0.131 A 
ATOM     77  C   UNL     1      14.392   6.377   8.498  1.00  0.00     0.055 A 
ATOM     78  C   UNL     1      12.163   6.026   7.742  1.00  0.00     0.041 A 
ATOM     79  F   UNL     1      11.312   7.164   5.944  1.00  0.00    -0.206 F 
ATOM     80  C   UNL     1      13.195   5.678   8.594  1.00  0.00     0.022 A 
BRANCH  77  81
ATOM     81  S   UNL     1      15.833   5.849   9.457  1.00  0.00     0.124 S 
ATOM     82  O   UNL     1      16.773   5.510   8.394  1.00  0.00    -0.237 OA
ATOM     83  O   UNL     1      16.135   7.049  10.229  1.00  0.00    -0.237 OA
ATOM     84  O   UNL     1      15.326   4.719  10.231  1.00  0.00    -0.744 OA
ENDBRANCH  77  81
ENDBRANCH  60  74
BRANCH  61  85
ATOM     85  C   UNL     1      14.293   2.041   0.184  1.00  0.00     0.023 A 
ATOM     86  C   UNL     1      15.020   0.855   0.466  1.00  0.00     0.031 A 
ATOM     87  C   UNL     1      12.955   1.867  -0.231  1.00  0.00     0.131 A 
ATOM     88  C   UNL     1      14.401  -0.417   0.337  1.00  0.00     0.055 A 
ATOM     89  C   UNL     1      12.349   0.612  -0.348  1.00  0.00     0.041 A 
ATOM     90  F   UNL     1      12.155   2.923  -0.450  1.00  0.00    -0.206 F 
ATOM     91  C   UNL     1      13.066  -0.535  -0.054  1.00  0.00     0.022 A 
BRANCH  88  92
ATOM     92  S   UNL     1      15.293  -1.958   0.759  1.00  0.00     0.124 S 
ATOM     93  O   UNL     1      16.294  -2.040  -0.298  1.00  0.00    -0.237 OA
ATOM     94  O   UNL     1      15.787  -1.681   2.103  1.00  0.00    -0.237 OA
ATOM     95  O   UNL     1      14.252  -2.986   0.695  1.00  0.00    -0.744 OA
ENDBRANCH  88  92
ENDBRANCH  61  85
BRANCH  73  96
ATOM     96  C   UNL     1      18.314   6.675   1.748  1.00  0.00     0.023 A 
ATOM     97  C   UNL     1      18.091   6.610   0.352  1.00  0.00     0.031 A 
ATOM     98  C   UNL     1      19.568   7.140   2.184  1.00  0.00     0.131 A 
ATOM     99  C   UNL     1      19.112   6.997  -0.543  1.00  0.00     0.055 A 
ATOM    100  C   UNL     1      20.562   7.548   1.298  1.00  0.00     0.041 A 
ATOM    101  F   UNL     1      19.838   7.240   3.496  1.00  0.00    -0.206 F 
ATOM    102  C   UNL     1      20.340   7.473  -0.070  1.00  0.00     0.022 A 
BRANCH  99 103
ATOM    103  S   UNL     1      18.881   6.866  -2.347  1.00  0.00     0.124 S 
ATOM    104  O   UNL     1      18.315   5.534  -2.525  1.00  0.00    -0.237 OA
ATOM    105  O   UNL     1      17.987   7.985  -2.635  1.00  0.00    -0.237 OA
ATOM    106  O   UNL     1      20.238   7.025  -2.876  1.00  0.00    -0.744 OA
ENDBRANCH  99 103
ENDBRANCH  73  96
ENDBRANCH  47  48
ENDBRANCH  39  42
ENDBRANCH  37  38
ENDBRANCH  36  37
ENDBRANCH  35  36
ENDBRANCH   1  35
TORSDOF 19
