REMARK SMILES CC[C@@H](C(=O)NCCCCCCNC(=O)c1ccc(-c2c3nc(c(-c4cc(S(=O)(=O)[O-])ccc4F)c4ccc([nH]4)c(-c4cc(S(=O)(=O)[O-])ccc4F)c4nc(c(-c5cc(S(=O)(=O)[O-])ccc5F)c5ccc2[nH]5)C=C4)C=C3)cc1)n1c(SCc2cccc(C(F)(F)F)c2)nc2ccncc21
REMARK SMILES IDX 8 1 7 2 6 3 4 4 5 5 3 7 2 8 1 9 79 10 80 11 99 12 93 13
REMARK SMILES IDX 94 14 98 15 95 16 97 17 96 18 81 19 82 20 83 21 84 22 92 23
REMARK SMILES IDX 85 24 87 25 86 26 88 27 89 28 90 29 91 30 9 31 10 32 11 33
REMARK SMILES IDX 12 34 13 35 14 36 15 38 16 39 17 40 78 41 18 42 77 43 19 44
REMARK SMILES IDX 20 45 21 46 71 47 22 48 76 49 70 50 72 51 23 52 75 53 69 54
REMARK SMILES IDX 68 55 24 57 56 58 36 59 55 60 37 61 40 62 54 63 73 64 38 65
REMARK SMILES IDX 39 66 53 68 74 69 41 70 25 71 26 72 34 73 27 74 33 75 35 76
REMARK SMILES IDX 32 77 28 78 29 79 30 80 31 81 57 82 58 83 66 84 59 85 65 86
REMARK SMILES IDX 67 87 64 88 60 89 61 90 62 91 63 92 42 93 43 94 51 95 44 96
REMARK SMILES IDX 50 97 52 98 49 99 45 100 46 101 47 102 48 103
REMARK H PARENT 6 6 13 37 72 56 40 67
REMARK Flexibility Score: inf
ROOT
ATOM      1  C   UNL     1       1.142  -2.267  -0.833  1.00  0.00     0.021 C 
ENDROOT
BRANCH   1   2
ATOM      2  C   UNL     1       1.907  -1.110  -1.486  1.00  0.00     0.116 C 
BRANCH   2   3
ATOM      3  N   UNL     1       1.007  -0.348  -2.329  1.00  0.00    -0.354 N 
ATOM      4  C   UNL     1       0.091   0.530  -1.803  1.00  0.00     0.243 C 
ATOM      5  O   UNL     1      -1.087   0.198  -1.716  1.00  0.00    -0.273 OA
ATOM      6  H   UNL     1       1.054  -0.462  -3.305  1.00  0.00     0.163 HD
BRANCH   4   7
ATOM      7  C   UNL     1       0.622   1.878  -1.376  1.00  0.00     0.178 C 
BRANCH   7   8
ATOM      8  C   UNL     1       0.310   2.149   0.112  1.00  0.00     0.032 C 
ATOM      9  C   UNL     1       0.774   1.054   1.065  1.00  0.00     0.006 C 
ENDBRANCH   7   8
BRANCH   7  10
ATOM     10  N   UNL     1       0.132   2.995  -2.225  1.00  0.00    -0.305 N 
ATOM     11  C   UNL     1      -1.174   3.317  -2.561  1.00  0.00     0.170 A 
ATOM     12  C   UNL     1       0.808   4.222  -2.201  1.00  0.00     0.088 A 
ATOM     13  N   UNL     1      -1.420   4.575  -2.247  1.00  0.00    -0.222 NA
ATOM     14  C   UNL     1      -0.204   5.168  -2.113  1.00  0.00     0.093 A 
ATOM     15  C   UNL     1       2.144   4.596  -2.149  1.00  0.00     0.139 A 
ATOM     16  C   UNL     1       0.098   6.516  -1.947  1.00  0.00     0.051 A 
ATOM     17  N   UNL     1       2.444   5.914  -2.033  1.00  0.00    -0.262 NA
ATOM     18  C   UNL     1       1.445   6.823  -1.934  1.00  0.00     0.113 A 
BRANCH  11  19
ATOM     19  S   UNL     1      -2.334   2.572  -3.604  1.00  0.00    -0.083 SA
BRANCH  19  20
ATOM     20  C   UNL     1      -1.906   1.057  -4.425  1.00  0.00     0.113 C 
BRANCH  20  21
ATOM     21  C   UNL     1      -0.537   0.727  -4.963  1.00  0.00    -0.037 A 
ATOM     22  C   UNL     1      -0.294  -0.624  -5.297  1.00  0.00     0.004 A 
ATOM     23  C   UNL     1       0.501   1.645  -5.134  1.00  0.00     0.017 A 
ATOM     24  C   UNL     1       0.978  -1.062  -5.665  1.00  0.00     0.001 A 
ATOM     25  C   UNL     1       1.799   1.210  -5.459  1.00  0.00     0.056 A 
ATOM     26  C   UNL     1       2.028  -0.152  -5.714  1.00  0.00     0.013 A 
BRANCH  25  27
ATOM     27  C   UNL     1       2.960   2.174  -5.456  1.00  0.00     0.416 C 
ATOM     28  F   UNL     1       3.831   1.913  -4.440  1.00  0.00    -0.166 F 
ATOM     29  F   UNL     1       3.690   2.129  -6.603  1.00  0.00    -0.166 F 
ATOM     30  F   UNL     1       2.587   3.472  -5.295  1.00  0.00    -0.166 F 
ENDBRANCH  25  27
ENDBRANCH  20  21
ENDBRANCH  19  20
ENDBRANCH  11  19
ENDBRANCH   7  10
ENDBRANCH   4   7
ENDBRANCH   2   3
ENDBRANCH   1   2
BRANCH   1  31
ATOM     31  C   UNL     1       0.728  -3.373  -1.819  1.00  0.00     0.002 C 
BRANCH  31  32
ATOM     32  C   UNL     1       1.893  -4.157  -2.430  1.00  0.00     0.002 C 
BRANCH  32  33
ATOM     33  C   UNL     1       2.880  -4.728  -1.411  1.00  0.00     0.021 C 
BRANCH  33  34
ATOM     34  C   UNL     1       2.242  -5.596  -0.331  1.00  0.00     0.116 C 
BRANCH  34  35
ATOM     35  N   UNL     1       1.681  -6.818  -0.881  1.00  0.00    -0.352 N 
ATOM     36  C   UNL     1       1.966  -8.118  -0.546  1.00  0.00     0.251 C 
ATOM     37  H   UNL     1       1.007  -6.698  -1.588  1.00  0.00     0.163 HD
ATOM     38  O   UNL     1       1.575  -9.035  -1.268  1.00  0.00    -0.269 OA
BRANCH  36  39
ATOM     39  C   UNL     1       2.764  -8.405   0.665  1.00  0.00     0.039 A 
ATOM     40  C   UNL     1       3.804  -9.332   0.589  1.00  0.00     0.014 A 
ATOM     41  C   UNL     1       2.491  -7.750   1.871  1.00  0.00     0.014 A 
ATOM     42  C   UNL     1       4.607  -9.561   1.709  1.00  0.00     0.010 A 
ATOM     43  C   UNL     1       3.340  -7.922   2.960  1.00  0.00     0.010 A 
ATOM     44  C   UNL     1       4.404  -8.834   2.894  1.00  0.00    -0.014 A 
BRANCH  44  45
ATOM     45  C   UNL     1       5.293  -9.022   4.072  1.00  0.00     0.031 A 
ATOM     46  C   UNL     1       4.733  -9.552   5.364  1.00  0.00     0.074 A 
ATOM     47  C   UNL     1       6.591  -8.667   3.992  1.00  0.00     0.049 A 
ATOM     48  N   UNL     1       5.333  -9.736   6.513  1.00  0.00    -0.248 NA
ATOM     49  C   UNL     1       3.303  -9.892   5.373  1.00  0.00     0.031 C 
ATOM     50  C   UNL     1       7.239  -8.102   2.806  1.00  0.00     0.029 A 
ATOM     51  N   UNL     1       7.597  -8.721   4.923  1.00  0.00    -0.354 N 
ATOM     52  C   UNL     1       4.352 -10.201   7.383  1.00  0.00     0.074 A 
ATOM     53  C   UNL     1       3.107 -10.206   6.644  1.00  0.00     0.031 C 
ATOM     54  C   UNL     1       8.537  -7.890   3.073  1.00  0.00     0.029 A 
ATOM     55  C   UNL     1       8.806  -8.253   4.461  1.00  0.00     0.049 A 
ATOM     56  H   UNL     1       7.466  -9.062   5.838  1.00  0.00     0.167 HD
ATOM     57  C   UNL     1       4.483 -10.608   8.671  1.00  0.00     0.034 A 
ATOM     58  C   UNL     1       9.993  -8.119   5.086  1.00  0.00     0.034 A 
ATOM     59  C   UNL     1       5.735 -10.602   9.388  1.00  0.00     0.049 A 
ATOM     60  C   UNL     1      10.109  -8.550   6.526  1.00  0.00     0.074 A 
ATOM     61  C   UNL     1       5.994 -11.046  10.674  1.00  0.00     0.029 A 
ATOM     62  N   UNL     1       6.938 -10.114   8.890  1.00  0.00    -0.354 N 
ATOM     63  N   UNL     1       9.185  -9.044   7.318  1.00  0.00    -0.248 NA
ATOM     64  C   UNL     1      11.430  -8.418   7.152  1.00  0.00     0.031 C 
ATOM     65  C   UNL     1       7.327 -10.752  10.980  1.00  0.00     0.029 A 
ATOM     66  C   UNL     1       7.929 -10.210   9.856  1.00  0.00     0.049 A 
ATOM     67  H   UNL     1       7.067  -9.753   7.984  1.00  0.00     0.167 HD
ATOM     68  C   UNL     1       9.823  -9.309   8.527  1.00  0.00     0.074 A 
ATOM     69  C   UNL     1      11.212  -8.937   8.351  1.00  0.00     0.031 C 
ATOM     70  C   UNL     1       9.309  -9.820   9.676  1.00  0.00     0.034 A 
BRANCH  57  71
ATOM     71  C   UNL     1       3.232 -11.062   9.388  1.00  0.00     0.023 A 
ATOM     72  C   UNL     1       2.479 -12.164   8.942  1.00  0.00     0.031 A 
ATOM     73  C   UNL     1       2.765 -10.366  10.518  1.00  0.00     0.131 A 
ATOM     74  C   UNL     1       1.263 -12.482   9.565  1.00  0.00     0.055 A 
ATOM     75  C   UNL     1       1.601 -10.745  11.190  1.00  0.00     0.041 A 
ATOM     76  F   UNL     1       3.426  -9.293  10.980  1.00  0.00    -0.206 F 
ATOM     77  C   UNL     1       0.833 -11.798  10.704  1.00  0.00     0.022 A 
BRANCH  74  78
ATOM     78  S   UNL     1       0.175 -13.695   8.769  1.00  0.00     0.124 S 
ATOM     79  O   UNL     1      -0.021 -13.095   7.451  1.00  0.00    -0.237 OA
ATOM     80  O   UNL     1       0.978 -14.912   8.804  1.00  0.00    -0.237 OA
ATOM     81  O   UNL     1      -1.012 -13.704   9.622  1.00  0.00    -0.744 OA
ENDBRANCH  74  78
ENDBRANCH  57  71
BRANCH  58  82
ATOM     82  C   UNL     1      11.163  -7.540   4.364  1.00  0.00     0.023 A 
ATOM     83  C   UNL     1      12.317  -8.302   4.121  1.00  0.00     0.031 A 
ATOM     84  C   UNL     1      11.158  -6.200   3.936  1.00  0.00     0.131 A 
ATOM     85  C   UNL     1      13.432  -7.708   3.509  1.00  0.00     0.055 A 
ATOM     86  C   UNL     1      12.248  -5.630   3.277  1.00  0.00     0.041 A 
ATOM     87  F   UNL     1      10.079  -5.426   4.139  1.00  0.00    -0.206 F 
ATOM     88  C   UNL     1      13.400  -6.382   3.072  1.00  0.00     0.022 A 
BRANCH  85  89
ATOM     89  S   UNL     1      14.963  -8.672   3.368  1.00  0.00     0.124 S 
ATOM     90  O   UNL     1      15.240  -8.993   4.763  1.00  0.00    -0.237 OA
ATOM     91  O   UNL     1      14.543  -9.785   2.523  1.00  0.00    -0.237 OA
ATOM     92  O   UNL     1      15.896  -7.737   2.744  1.00  0.00    -0.744 OA
ENDBRANCH  85  89
ENDBRANCH  58  82
BRANCH  70  93
ATOM     93  C   UNL     1      10.271 -10.045  10.819  1.00  0.00     0.023 A 
ATOM     94  C   UNL     1      10.924  -8.979  11.462  1.00  0.00     0.031 A 
ATOM     95  C   UNL     1      10.548 -11.351  11.262  1.00  0.00     0.131 A 
ATOM     96  C   UNL     1      11.866  -9.241  12.469  1.00  0.00     0.055 A 
ATOM     97  C   UNL     1      11.434 -11.601  12.311  1.00  0.00     0.041 A 
ATOM     98  F   UNL     1       9.959 -12.410  10.682  1.00  0.00    -0.206 F 
ATOM     99  C   UNL     1      12.110 -10.543  12.911  1.00  0.00     0.022 A 
BRANCH  96 100
ATOM    100  S   UNL     1      12.850  -7.863  13.120  1.00  0.00     0.124 S 
ATOM    101  O   UNL     1      13.484  -7.347  11.911  1.00  0.00    -0.237 OA
ATOM    102  O   UNL     1      11.831  -7.008  13.720  1.00  0.00    -0.237 OA
ATOM    103  O   UNL     1      13.756  -8.507  14.069  1.00  0.00    -0.744 OA
ENDBRANCH  96 100
ENDBRANCH  70  93
ENDBRANCH  44  45
ENDBRANCH  36  39
ENDBRANCH  34  35
ENDBRANCH  33  34
ENDBRANCH  32  33
ENDBRANCH  31  32
ENDBRANCH   1  31
TORSDOF 22
