REMARK SMILES COc1cc(/C=C2/SC(=O)N(c3ccc(O)cc3C)C2=O)ccc1OCC(=O)NCCCCCCNC(=O)c1ccc(-c2c3nc(c(-c4cc(S(=O)(=O)[O-])ccc4F)c4ccc([nH]4)c(-c4cc(S(=O)(=O)[O-])ccc4F)c4nc(c(-c5cc(S(=O)(=O)[O-])ccc5F)c5ccc2[nH]5)C=C4)C=C3)cc1
REMARK SMILES IDX 31 1 30 2 29 3 27 4 28 5 26 7 25 8 24 9 3 10 4 11 5 12 23 13
REMARK SMILES IDX 22 14 2 15 1 16 6 17 7 18 8 19 20 20 9 21 11 22 21 23 10 24
REMARK SMILES IDX 12 25 13 26 18 27 14 28 17 29 19 30 15 31 16 32 32 34 33 35
REMARK SMILES IDX 34 36 35 37 36 38 37 39 38 41 39 42 40 43 101 44 41 45
REMARK SMILES IDX 100 46 42 47 43 48 44 49 94 50 45 51 99 52 93 53 95 54 46 55
REMARK SMILES IDX 98 56 92 57 91 58 47 60 79 61 59 62 78 63 60 64 63 65 77 66
REMARK SMILES IDX 96 67 61 68 62 69 76 71 97 72 64 73 48 74 49 75 57 76 50 77
REMARK SMILES IDX 56 78 58 79 55 80 51 81 52 82 53 83 54 84 80 85 81 86 89 87
REMARK SMILES IDX 82 88 88 89 90 90 87 91 83 92 84 93 85 94 86 95 65 96 66 97
REMARK SMILES IDX 74 98 67 99 73 100 75 101 72 102 68 103 69 104 70 105 71 106
REMARK H PARENT 29 6 16 33 36 40 95 59 63 70
REMARK Flexibility Score: inf
ROOT
ATOM      1  C   UNL     1       2.933   2.889   2.758  1.00  0.00     0.021 C 
ENDROOT
BRANCH   1   2
ATOM      2  C   UNL     1       3.544   1.533   2.409  1.00  0.00     0.116 C 
BRANCH   2   3
ATOM      3  N   UNL     1       2.539   0.523   2.141  1.00  0.00    -0.353 N 
ATOM      4  C   UNL     1       2.320  -0.185   0.995  1.00  0.00     0.257 C 
ATOM      5  O   UNL     1       1.509  -1.113   1.033  1.00  0.00    -0.271 OA
ATOM      6  H   UNL     1       1.930   0.321   2.888  1.00  0.00     0.163 HD
BRANCH   4   7
ATOM      7  C   UNL     1       3.133   0.136  -0.263  1.00  0.00     0.329 C 
BRANCH   7   8
ATOM      8  O   UNL     1       3.281   1.503  -0.591  1.00  0.00    -0.480 OA
BRANCH   8   9
ATOM      9  C   UNL     1       2.213   2.241  -1.009  1.00  0.00     0.161 A 
ATOM     10  C   UNL     1       0.997   1.800  -1.542  1.00  0.00     0.161 A 
ATOM     11  C   UNL     1       0.089   2.730  -2.074  1.00  0.00     0.058 A 
ATOM     12  C   UNL     1       0.379   4.099  -2.046  1.00  0.00    -0.020 A 
ATOM     13  C   UNL     1       2.454   3.619  -0.920  1.00  0.00     0.051 A 
ATOM     14  C   UNL     1       1.538   4.547  -1.411  1.00  0.00     0.012 A 
BRANCH  10  15
ATOM     15  O   UNL     1       0.745   0.465  -1.708  1.00  0.00    -0.493 OA
ATOM     16  C   UNL     1      -0.430   0.048  -1.012  1.00  0.00     0.278 C 
ENDBRANCH  10  15
BRANCH  12  17
ATOM     17  C   UNL     1      -0.379   5.033  -2.885  1.00  0.00     0.029 C 
ATOM     18  C   UNL     1       0.023   5.342  -4.130  1.00  0.00     0.083 C 
ATOM     19  S   UNL     1      -0.764   6.494  -5.136  1.00  0.00    -0.022 SA
ATOM     20  C   UNL     1       1.222   4.792  -4.836  1.00  0.00     0.272 C 
ATOM     21  C   UNL     1       0.440   6.335  -6.416  1.00  0.00     0.298 C 
ATOM     22  N   UNL     1       1.413   5.441  -6.043  1.00  0.00    -0.236 N 
ATOM     23  O   UNL     1       1.931   3.907  -4.379  1.00  0.00    -0.268 OA
ATOM     24  O   UNL     1       0.310   6.930  -7.478  1.00  0.00    -0.260 OA
BRANCH  22  25
ATOM     25  C   UNL     1       2.535   5.119  -6.862  1.00  0.00     0.056 A 
ATOM     26  C   UNL     1       2.852   3.759  -7.059  1.00  0.00     0.031 A 
ATOM     27  C   UNL     1       3.384   6.100  -7.419  1.00  0.00    -0.023 A 
ATOM     28  C   UNL     1       3.967   3.369  -7.798  1.00  0.00     0.048 A 
ATOM     29  C   UNL     1       4.501   5.687  -8.177  1.00  0.00     0.051 A 
ATOM     30  C   UNL     1       3.232   7.581  -7.197  1.00  0.00     0.047 C 
ATOM     31  C   UNL     1       4.785   4.336  -8.350  1.00  0.00     0.115 A 
BRANCH  31  32
ATOM     32  O   UNL     1       5.881   3.920  -9.044  1.00  0.00    -0.508 OA
ATOM     33  H   UNL     1       6.051   3.004  -9.146  1.00  0.00     0.293 HD
ENDBRANCH  31  32
ENDBRANCH  22  25
ENDBRANCH  12  17
ENDBRANCH   8   9
ENDBRANCH   7   8
ENDBRANCH   4   7
ENDBRANCH   2   3
ENDBRANCH   1   2
BRANCH   1  34
ATOM     34  C   UNL     1       1.978   2.897   3.958  1.00  0.00     0.002 C 
BRANCH  34  35
ATOM     35  C   UNL     1       2.491   2.220   5.231  1.00  0.00     0.002 C 
BRANCH  35  36
ATOM     36  C   UNL     1       3.864   2.679   5.723  1.00  0.00     0.021 C 
BRANCH  36  37
ATOM     37  C   UNL     1       3.998   4.175   5.976  1.00  0.00     0.116 C 
BRANCH  37  38
ATOM     38  N   UNL     1       3.153   4.630   7.065  1.00  0.00    -0.352 N 
ATOM     39  C   UNL     1       3.496   5.359   8.179  1.00  0.00     0.251 C 
ATOM     40  H   UNL     1       2.203   4.383   6.997  1.00  0.00     0.163 HD
ATOM     41  O   UNL     1       2.681   5.507   9.085  1.00  0.00    -0.269 OA
BRANCH  39  42
ATOM     42  C   UNL     1       4.856   5.934   8.295  1.00  0.00     0.039 A 
ATOM     43  C   UNL     1       5.546   5.798   9.502  1.00  0.00     0.014 A 
ATOM     44  C   UNL     1       5.452   6.600   7.220  1.00  0.00     0.014 A 
ATOM     45  C   UNL     1       6.856   6.274   9.610  1.00  0.00     0.010 A 
ATOM     46  C   UNL     1       6.781   7.010   7.306  1.00  0.00     0.010 A 
ATOM     47  C   UNL     1       7.496   6.854   8.504  1.00  0.00    -0.014 A 
BRANCH  47  48
ATOM     48  C   UNL     1       8.908   7.314   8.583  1.00  0.00     0.031 A 
ATOM     49  C   UNL     1       9.234   8.775   8.427  1.00  0.00     0.074 A 
ATOM     50  C   UNL     1       9.899   6.412   8.734  1.00  0.00     0.049 A 
ATOM     51  N   UNL     1      10.402   9.364   8.386  1.00  0.00    -0.248 NA
ATOM     52  C   UNL     1       8.094   9.689   8.266  1.00  0.00     0.031 C 
ATOM     53  C   UNL     1       9.712   4.965   8.857  1.00  0.00     0.029 A 
ATOM     54  N   UNL     1      11.260   6.576   8.799  1.00  0.00    -0.354 N 
ATOM     55  C   UNL     1      10.138  10.715   8.181  1.00  0.00     0.074 A 
ATOM     56  C   UNL     1       8.703  10.844   8.045  1.00  0.00     0.031 C 
ATOM     57  C   UNL     1      10.911   4.378   9.004  1.00  0.00     0.029 A 
ATOM     58  C   UNL     1      11.954   5.397   8.942  1.00  0.00     0.049 A 
ATOM     59  H   UNL     1      11.699   7.456   8.748  1.00  0.00     0.167 HD
ATOM     60  C   UNL     1      11.010  11.754   8.135  1.00  0.00     0.034 A 
ATOM     61  C   UNL     1      13.280   5.161   9.003  1.00  0.00     0.034 A 
ATOM     62  C   UNL     1      12.438  11.610   8.286  1.00  0.00     0.049 A 
ATOM     63  C   UNL     1      14.232   6.329   8.928  1.00  0.00     0.074 A 
ATOM     64  C   UNL     1      13.407  12.598   8.310  1.00  0.00     0.029 A 
ATOM     65  N   UNL     1      13.104  10.399   8.434  1.00  0.00    -0.354 N 
ATOM     66  N   UNL     1      13.963   7.606   8.782  1.00  0.00    -0.248 NA
ATOM     67  C   UNL     1      15.664   6.023   9.037  1.00  0.00     0.031 C 
ATOM     68  C   UNL     1      14.661  11.982   8.406  1.00  0.00     0.029 A 
ATOM     69  C   UNL     1      14.472  10.614   8.518  1.00  0.00     0.049 A 
ATOM     70  H   UNL     1      12.669   9.517   8.472  1.00  0.00     0.167 HD
ATOM     71  C   UNL     1      15.193   8.257   8.813  1.00  0.00     0.074 A 
ATOM     72  C   UNL     1      16.200   7.234   9.006  1.00  0.00     0.031 C 
ATOM     73  C   UNL     1      15.466   9.582   8.699  1.00  0.00     0.034 A 
BRANCH  60  74
ATOM     74  C   UNL     1      10.437  13.129   7.885  1.00  0.00     0.023 A 
ATOM     75  C   UNL     1       9.540  13.730   8.786  1.00  0.00     0.031 A 
ATOM     76  C   UNL     1      10.767  13.838   6.716  1.00  0.00     0.131 A 
ATOM     77  C   UNL     1       8.942  14.958   8.466  1.00  0.00     0.055 A 
ATOM     78  C   UNL     1      10.234  15.100   6.445  1.00  0.00     0.041 A 
ATOM     79  F   UNL     1      11.602  13.309   5.808  1.00  0.00    -0.206 F 
ATOM     80  C   UNL     1       9.302  15.660   7.314  1.00  0.00     0.022 A 
BRANCH  77  81
ATOM     81  S   UNL     1       7.577  15.552   9.503  1.00  0.00     0.124 S 
ATOM     82  O   UNL     1       6.619  14.456   9.383  1.00  0.00    -0.237 OA
ATOM     83  O   UNL     1       8.214  15.705  10.806  1.00  0.00    -0.237 OA
ATOM     84  O   UNL     1       7.171  16.798   8.855  1.00  0.00    -0.744 OA
ENDBRANCH  77  81
ENDBRANCH  60  74
BRANCH  61  85
ATOM     85  C   UNL     1      13.796   3.768   9.133  1.00  0.00     0.023 A 
ATOM     86  C   UNL     1      14.493   3.360  10.281  1.00  0.00     0.031 A 
ATOM     87  C   UNL     1      13.636   2.836   8.093  1.00  0.00     0.131 A 
ATOM     88  C   UNL     1      15.047   2.072  10.343  1.00  0.00     0.055 A 
ATOM     89  C   UNL     1      14.144   1.539   8.180  1.00  0.00     0.041 A 
ATOM     90  F   UNL     1      12.972   3.173   6.975  1.00  0.00    -0.206 F 
ATOM     91  C   UNL     1      14.866   1.155   9.306  1.00  0.00     0.022 A 
BRANCH  88  92
ATOM     92  S   UNL     1      16.082   1.640  11.768  1.00  0.00     0.124 S 
ATOM     93  O   UNL     1      17.120   2.663  11.703  1.00  0.00    -0.237 OA
ATOM     94  O   UNL     1      15.137   1.753  12.874  1.00  0.00    -0.237 OA
ATOM     95  O   UNL     1      16.525   0.280  11.466  1.00  0.00    -0.744 OA
ENDBRANCH  88  92
ENDBRANCH  61  85
BRANCH  73  96
ATOM     96  C   UNL     1      16.911   9.997   8.827  1.00  0.00     0.023 A 
ATOM     97  C   UNL     1      17.871   9.646   7.861  1.00  0.00     0.031 A 
ATOM     98  C   UNL     1      17.335  10.743   9.941  1.00  0.00     0.131 A 
ATOM     99  C   UNL     1      19.216   9.994   8.055  1.00  0.00     0.055 A 
ATOM    100  C   UNL     1      18.665  11.137  10.098  1.00  0.00     0.041 A 
ATOM    101  F   UNL     1      16.462  11.104  10.894  1.00  0.00    -0.206 F 
ATOM    102  C   UNL     1      19.616  10.751   9.159  1.00  0.00     0.022 A 
BRANCH  99 103
ATOM    103  S   UNL     1      20.455   9.367   6.887  1.00  0.00     0.124 S 
ATOM    104  O   UNL     1      20.277   7.923   7.001  1.00  0.00    -0.237 OA
ATOM    105  O   UNL     1      20.026   9.964   5.626  1.00  0.00    -0.237 OA
ATOM    106  O   UNL     1      21.717   9.881   7.417  1.00  0.00    -0.744 OA
ENDBRANCH  99 103
ENDBRANCH  73  96
ENDBRANCH  47  48
ENDBRANCH  39  42
ENDBRANCH  37  38
ENDBRANCH  36  37
ENDBRANCH  35  36
ENDBRANCH  34  35
ENDBRANCH   1  34
TORSDOF 22
