REMARK SMILES Cc1c(Cl)cc2c(c1C)O[C@@H](C(F)(F)F)C(C(=O)NCCCCCCNC(=O)c1ccc(-c3c4nc(c(-c5cc(S(=O)(=O)[O-])ccc5F)c5ccc([nH]5)c(-c5cc(S(=O)(=O)[O-])ccc5F)c5nc(c(-c6cc(S(=O)(=O)[O-])ccc6F)c6ccc3[nH]6)C=C5)C=C4)cc1)=C2
REMARK SMILES IDX 23 1 22 2 21 3 20 4 19 5 17 6 18 7 16 9 1 10 2 11 3 12 8 13
REMARK SMILES IDX 4 14 5 15 7 16 9 17 6 18 10 19 92 20 11 21 12 22 13 23 14 24
REMARK SMILES IDX 15 25 24 26 25 27 26 28 27 29 28 31 29 32 30 33 91 34 31 35
REMARK SMILES IDX 90 36 32 37 33 38 34 39 84 40 35 41 89 42 83 43 85 44 36 45
REMARK SMILES IDX 88 46 82 47 81 48 37 50 69 51 49 52 68 53 50 54 53 55 67 56
REMARK SMILES IDX 86 57 51 58 52 59 66 61 87 62 54 63 38 64 39 65 47 66 40 67
REMARK SMILES IDX 46 68 48 69 45 70 41 71 42 72 43 73 44 74 70 75 71 76 79 77
REMARK SMILES IDX 72 78 78 79 80 80 77 81 73 82 74 83 75 84 76 85 55 86 56 87
REMARK SMILES IDX 64 88 57 89 63 90 65 91 62 92 58 93 59 94 60 95 61 96
REMARK H PARENT 19 8 26 30 85 49 53 60
REMARK Flexibility Score: inf
ROOT
ATOM      1  C   UNL     1      -6.210   7.731   6.054  1.00  0.00     0.002 C 
ENDROOT
BRANCH   1   2
ATOM      2  C   UNL     1      -4.698   7.645   6.297  1.00  0.00     0.002 C 
BRANCH   2   3
ATOM      3  C   UNL     1      -4.028   6.385   5.746  1.00  0.00     0.021 C 
BRANCH   3   4
ATOM      4  C   UNL     1      -4.194   6.213   4.239  1.00  0.00     0.116 C 
BRANCH   4   5
ATOM      5  N   UNL     1      -3.165   6.924   3.500  1.00  0.00    -0.352 N 
ATOM      6  C   UNL     1      -2.110   6.617   2.708  1.00  0.00     0.251 C 
ATOM      7  O   UNL     1      -1.494   7.586   2.252  1.00  0.00    -0.270 OA
ATOM      8  H   UNL     1      -3.260   7.899   3.603  1.00  0.00     0.163 HD
BRANCH   6   9
ATOM      9  C   UNL     1      -1.664   5.234   2.361  1.00  0.00     0.067 C 
ATOM     10  C   UNL     1       1.192  -0.144  -0.042  1.00  0.00     0.046 C 
ATOM     11  C   UNL     1       0.704   1.226   0.354  1.00  0.00    -0.026 A 
ATOM     12  C   UNL     1       1.355   2.388  -0.116  1.00  0.00     0.045 A 
ATOM     13  C   UNL     1      -0.455   1.381   1.148  1.00  0.00    -0.004 A 
ATOM     14  Cl  UNL     1       2.723   2.307  -1.175  1.00  0.00    -0.084 Cl
ATOM     15  C   UNL     1       0.911   3.668   0.237  1.00  0.00     0.032 A 
ATOM     16  C   UNL     1      -0.866   2.679   1.510  1.00  0.00     0.131 A 
ATOM     17  C   UNL     1      -1.268   0.220   1.670  1.00  0.00     0.049 C 
ATOM     18  C   UNL     1      -0.199   3.818   1.063  1.00  0.00     0.019 A 
ATOM     19  O   UNL     1      -1.988   2.764   2.285  1.00  0.00    -0.475 OA
ATOM     20  C   UNL     1      -0.701   5.139   1.426  1.00  0.00     0.025 C 
ATOM     21  C   UNL     1      -2.191   3.993   3.019  1.00  0.00     0.314 C 
BRANCH  21  22
ATOM     22  C   UNL     1      -1.701   3.821   4.467  1.00  0.00     0.429 C 
ATOM     23  F   UNL     1      -1.376   4.997   5.052  1.00  0.00    -0.167 F 
ATOM     24  F   UNL     1      -2.670   3.261   5.232  1.00  0.00    -0.167 F 
ATOM     25  F   UNL     1      -0.607   3.031   4.556  1.00  0.00    -0.167 F 
ENDBRANCH  21  22
ENDBRANCH   6   9
ENDBRANCH   4   5
ENDBRANCH   3   4
ENDBRANCH   2   3
ENDBRANCH   1   2
BRANCH   1  26
ATOM     26  C   UNL     1      -7.005   6.489   6.464  1.00  0.00     0.021 C 
BRANCH  26  27
ATOM     27  C   UNL     1      -6.821   6.083   7.923  1.00  0.00     0.116 C 
BRANCH  27  28
ATOM     28  N   UNL     1      -7.257   7.134   8.826  1.00  0.00    -0.352 N 
ATOM     29  C   UNL     1      -8.326   7.144   9.683  1.00  0.00     0.251 C 
ATOM     30  H   UNL     1      -6.709   7.952   8.821  1.00  0.00     0.163 HD
ATOM     31  O   UNL     1      -8.715   8.205  10.168  1.00  0.00    -0.269 OA
BRANCH  29  32
ATOM     32  C   UNL     1      -9.009   5.876  10.005  1.00  0.00     0.039 A 
ATOM     33  C   UNL     1     -10.403   5.828   9.985  1.00  0.00     0.014 A 
ATOM     34  C   UNL     1      -8.265   4.736  10.330  1.00  0.00     0.014 A 
ATOM     35  C   UNL     1     -11.052   4.621  10.246  1.00  0.00     0.010 A 
ATOM     36  C   UNL     1      -8.910   3.518  10.514  1.00  0.00     0.010 A 
ATOM     37  C   UNL     1     -10.310   3.452  10.489  1.00  0.00    -0.014 A 
BRANCH  37  38
ATOM     38  C   UNL     1     -10.990   2.162  10.763  1.00  0.00     0.031 A 
ATOM     39  C   UNL     1     -10.860   1.526  12.120  1.00  0.00     0.074 A 
ATOM     40  C   UNL     1     -11.707   1.563   9.793  1.00  0.00     0.049 A 
ATOM     41  N   UNL     1     -11.349   0.392  12.548  1.00  0.00    -0.248 NA
ATOM     42  C   UNL     1     -10.058   2.250  13.120  1.00  0.00     0.031 C 
ATOM     43  C   UNL     1     -11.889   2.081   8.435  1.00  0.00     0.029 A 
ATOM     44  N   UNL     1     -12.426   0.395   9.800  1.00  0.00    -0.354 N 
ATOM     45  C   UNL     1     -10.921   0.269  13.865  1.00  0.00     0.074 A 
ATOM     46  C   UNL     1     -10.075   1.409  14.143  1.00  0.00     0.031 C 
ATOM     47  C   UNL     1     -12.706   1.258   7.757  1.00  0.00     0.029 A 
ATOM     48  C   UNL     1     -13.068   0.132   8.612  1.00  0.00     0.049 A 
ATOM     49  H   UNL     1     -12.478  -0.200  10.583  1.00  0.00     0.167 HD
ATOM     50  C   UNL     1     -11.233  -0.688  14.770  1.00  0.00     0.034 A 
ATOM     51  C   UNL     1     -13.857  -0.900   8.254  1.00  0.00     0.034 A 
ATOM     52  C   UNL     1     -12.093  -1.807  14.488  1.00  0.00     0.049 A 
ATOM     53  C   UNL     1     -14.138  -1.986   9.260  1.00  0.00     0.074 A 
ATOM     54  C   UNL     1     -12.501  -2.814  15.344  1.00  0.00     0.029 A 
ATOM     55  N   UNL     1     -12.677  -2.068  13.256  1.00  0.00    -0.354 N 
ATOM     56  N   UNL     1     -13.737  -2.076  10.507  1.00  0.00    -0.248 NA
ATOM     57  C   UNL     1     -14.971  -3.110   8.811  1.00  0.00     0.031 C 
ATOM     58  C   UNL     1     -13.279  -3.717  14.615  1.00  0.00     0.029 A 
ATOM     59  C   UNL     1     -13.413  -3.239  13.321  1.00  0.00     0.049 A 
ATOM     60  H   UNL     1     -12.583  -1.503  12.455  1.00  0.00     0.167 HD
ATOM     61  C   UNL     1     -14.282  -3.259  10.995  1.00  0.00     0.074 A 
ATOM     62  C   UNL     1     -15.052  -3.841   9.915  1.00  0.00     0.031 C 
ATOM     63  C   UNL     1     -14.158  -3.813  12.227  1.00  0.00     0.034 A 
BRANCH  50  64
ATOM     64  C   UNL     1     -10.640  -0.566  16.149  1.00  0.00     0.023 A 
ATOM     65  C   UNL     1     -11.014   0.475  17.015  1.00  0.00     0.031 A 
ATOM     66  C   UNL     1      -9.708  -1.511  16.611  1.00  0.00     0.131 A 
ATOM     67  C   UNL     1     -10.427   0.573  18.285  1.00  0.00     0.055 A 
ATOM     68  C   UNL     1      -9.175  -1.445  17.900  1.00  0.00     0.041 A 
ATOM     69  F   UNL     1      -9.301  -2.514  15.817  1.00  0.00    -0.206 F 
ATOM     70  C   UNL     1      -9.528  -0.395  18.742  1.00  0.00     0.022 A 
BRANCH  67  71
ATOM     71  S   UNL     1     -10.792   2.029  19.300  1.00  0.00     0.124 S 
ATOM     72  O   UNL     1     -10.223   3.103  18.489  1.00  0.00    -0.237 OA
ATOM     73  O   UNL     1     -12.247   1.997  19.389  1.00  0.00    -0.237 OA
ATOM     74  O   UNL     1     -10.085   1.759  20.551  1.00  0.00    -0.744 OA
ENDBRANCH  67  71
ENDBRANCH  50  64
BRANCH  51  75
ATOM     75  C   UNL     1     -14.436  -0.958   6.882  1.00  0.00     0.023 A 
ATOM     76  C   UNL     1     -15.818  -0.828   6.678  1.00  0.00     0.031 A 
ATOM     77  C   UNL     1     -13.615  -1.147   5.756  1.00  0.00     0.131 A 
ATOM     78  C   UNL     1     -16.343  -0.910   5.379  1.00  0.00     0.055 A 
ATOM     79  C   UNL     1     -14.137  -1.187   4.462  1.00  0.00     0.041 A 
ATOM     80  F   UNL     1     -12.286  -1.270   5.898  1.00  0.00    -0.206 F 
ATOM     81  C   UNL     1     -15.511  -1.075   4.269  1.00  0.00     0.022 A 
BRANCH  78  82
ATOM     82  S   UNL     1     -18.142  -0.830   5.159  1.00  0.00     0.124 S 
ATOM     83  O   UNL     1     -18.580  -2.028   5.865  1.00  0.00    -0.237 OA
ATOM     84  O   UNL     1     -18.469   0.445   5.789  1.00  0.00    -0.237 OA
ATOM     85  O   UNL     1     -18.308  -0.864   3.707  1.00  0.00    -0.744 OA
ENDBRANCH  78  82
ENDBRANCH  51  75
BRANCH  63  86
ATOM     86  C   UNL     1     -14.871  -5.115  12.479  1.00  0.00     0.023 A 
ATOM     87  C   UNL     1     -14.431  -6.311  11.889  1.00  0.00     0.031 A 
ATOM     88  C   UNL     1     -15.962  -5.170  13.364  1.00  0.00     0.131 A 
ATOM     89  C   UNL     1     -15.094  -7.513  12.173  1.00  0.00     0.055 A 
ATOM     90  C   UNL     1     -16.587  -6.376  13.681  1.00  0.00     0.041 A 
ATOM     91  F   UNL     1     -16.417  -4.054  13.957  1.00  0.00    -0.206 F 
ATOM     92  C   UNL     1     -16.157  -7.556  13.081  1.00  0.00     0.022 A 
BRANCH  89  93
ATOM     93  S   UNL     1     -14.568  -9.020  11.315  1.00  0.00     0.124 S 
ATOM     94  O   UNL     1     -14.879  -8.700   9.925  1.00  0.00    -0.237 OA
ATOM     95  O   UNL     1     -13.150  -9.096  11.649  1.00  0.00    -0.237 OA
ATOM     96  O   UNL     1     -15.400 -10.063  11.913  1.00  0.00    -0.744 OA
ENDBRANCH  89  93
ENDBRANCH  63  86
ENDBRANCH  37  38
ENDBRANCH  29  32
ENDBRANCH  27  28
ENDBRANCH  26  27
ENDBRANCH   1  26
TORSDOF 17
