REMARK SMILES CS(=O)(=O)Nc1ccc(-c2cc(Cl)cc3c2O[C@H](C(F)(F)F)C(C(=O)NCCCCCCNC(=O)c2ccc(-c4c5nc(c(-c6cc(S(=O)(=O)[O-])ccc6F)c6ccc([nH]6)c(-c6cc(S(=O)(=O)[O-])ccc6F)c6nc(c(-c7cc(S(=O)(=O)[O-])ccc7F)c7ccc4[nH]7)C=C6)C=C5)cc2)=C3)cc1
REMARK SMILES IDX 29 1 28 2 27 3 26 4 24 5 25 6 23 8 10 9 11 10 16 11 12 12
REMARK SMILES IDX 15 13 17 14 13 15 14 16 99 17 18 18 9 19 6 20 7 21 101 22
REMARK SMILES IDX 8 23 100 24 5 25 2 27 1 28 3 29 4 30 19 31 20 32 21 33 22 34
REMARK SMILES IDX 30 35 31 36 32 37 33 38 34 39 35 41 36 42 37 43 98 44 38 45
REMARK SMILES IDX 97 46 39 47 40 48 41 49 91 50 42 51 96 52 90 53 92 54 43 55
REMARK SMILES IDX 95 56 89 57 88 58 44 60 76 61 56 62 75 63 57 64 60 65 74 66
REMARK SMILES IDX 93 67 58 68 59 69 73 71 94 72 61 73 45 74 46 75 54 76 47 77
REMARK SMILES IDX 53 78 55 79 52 80 48 81 49 82 50 83 51 84 77 85 78 86 86 87
REMARK SMILES IDX 79 88 85 89 87 90 84 91 80 92 81 93 82 94 83 95 62 96 63 97
REMARK SMILES IDX 71 98 64 99 70 100 72 101 69 102 65 103 66 104 67 105 68 106
REMARK H PARENT 26 7 5 26 33 40 92 59 60 70
REMARK Flexibility Score: inf
ROOT
ATOM      1  C   UNL     1      11.068  11.546  -1.699  1.00  0.00     0.002 C 
ENDROOT
BRANCH   1   2
ATOM      2  C   UNL     1      11.263  10.137  -2.285  1.00  0.00     0.021 C 
BRANCH   2   3
ATOM      3  C   UNL     1      10.899   8.989  -1.331  1.00  0.00     0.116 C 
BRANCH   3   4
ATOM      4  N   UNL     1       9.508   9.100  -0.941  1.00  0.00    -0.352 N 
ATOM      5  C   UNL     1       8.546   8.179  -1.197  1.00  0.00     0.251 C 
ATOM      6  O   UNL     1       7.477   8.526  -1.685  1.00  0.00    -0.270 OA
ATOM      7  H   UNL     1       9.239   9.909  -0.450  1.00  0.00     0.163 HD
BRANCH   5   8
ATOM      8  C   UNL     1       8.800   6.798  -0.690  1.00  0.00     0.067 C 
ATOM      9  C   UNL     1       5.191   5.130  -1.530  1.00  0.00     0.026 A 
ATOM     10  C   UNL     1       4.209   6.072  -1.113  1.00  0.00     0.033 A 
ATOM     11  C   UNL     1       6.500   5.364  -1.075  1.00  0.00     0.135 A 
ATOM     12  C   UNL     1       4.466   7.066  -0.172  1.00  0.00     0.042 A 
ATOM     13  C   UNL     1       6.710   6.296  -0.026  1.00  0.00     0.019 A 
ATOM     14  O   UNL     1       7.622   4.777  -1.646  1.00  0.00    -0.475 OA
ATOM     15  Cl  UNL     1       3.230   8.184   0.248  1.00  0.00    -0.084 Cl
ATOM     16  C   UNL     1       5.701   7.134   0.438  1.00  0.00     0.032 A 
ATOM     17  C   UNL     1       8.099   6.523   0.428  1.00  0.00     0.025 C 
ATOM     18  C   UNL     1       8.793   5.706  -1.749  1.00  0.00     0.314 C 
BRANCH   9  19
ATOM     19  C   UNL     1       4.639   3.916  -2.197  1.00  0.00    -0.014 A 
ATOM     20  C   UNL     1       2.636   1.917  -2.534  1.00  0.00     0.048 A 
ATOM     21  C   UNL     1       2.628   3.076  -3.313  1.00  0.00     0.027 A 
ATOM     22  C   UNL     1       3.740   1.680  -1.718  1.00  0.00     0.027 A 
ATOM     23  C   UNL     1       3.633   4.046  -3.174  1.00  0.00     0.011 A 
ATOM     24  C   UNL     1       4.737   2.667  -1.556  1.00  0.00     0.011 A 
BRANCH  20  25
ATOM     25  N   UNL     1       1.419   1.175  -2.496  1.00  0.00    -0.284 N 
ATOM     26  H   UNL     1       0.674   1.536  -3.030  1.00  0.00     0.180 HD
BRANCH  25  27
ATOM     27  S   UNL     1       1.106  -0.224  -1.659  1.00  0.00     0.229 S 
ATOM     28  C   UNL     1       1.070   0.291   0.050  1.00  0.00     0.183 C 
ATOM     29  O   UNL     1       2.191  -1.162  -1.849  1.00  0.00    -0.207 OA
ATOM     30  O   UNL     1      -0.251  -0.578  -2.019  1.00  0.00    -0.207 OA
ENDBRANCH  25  27
ENDBRANCH  20  25
ENDBRANCH   9  19
BRANCH  18  31
ATOM     31  C   UNL     1      10.140   4.954  -1.661  1.00  0.00     0.429 C 
ATOM     32  F   UNL     1      10.005   3.707  -1.156  1.00  0.00    -0.167 F 
ATOM     33  F   UNL     1      10.721   4.845  -2.879  1.00  0.00    -0.167 F 
ATOM     34  F   UNL     1      11.040   5.595  -0.869  1.00  0.00    -0.167 F 
ENDBRANCH  18  31
ENDBRANCH   5   8
ENDBRANCH   3   4
ENDBRANCH   2   3
ENDBRANCH   1   2
BRANCH   1  35
ATOM     35  C   UNL     1      11.805  11.804  -0.383  1.00  0.00     0.002 C 
BRANCH  35  36
ATOM     36  C   UNL     1      13.320  11.621  -0.461  1.00  0.00     0.021 C 
BRANCH  36  37
ATOM     37  C   UNL     1      14.005  12.460  -1.534  1.00  0.00     0.116 C 
BRANCH  37  38
ATOM     38  N   UNL     1      13.819  13.887  -1.322  1.00  0.00    -0.352 N 
ATOM     39  C   UNL     1      14.760  14.887  -1.328  1.00  0.00     0.251 C 
ATOM     40  H   UNL     1      12.894  14.175  -1.151  1.00  0.00     0.163 HD
ATOM     41  O   UNL     1      14.459  16.015  -0.949  1.00  0.00    -0.269 OA
BRANCH  39  42
ATOM     42  C   UNL     1      16.140  14.583  -1.763  1.00  0.00     0.039 A 
ATOM     43  C   UNL     1      17.209  15.037  -0.988  1.00  0.00     0.014 A 
ATOM     44  C   UNL     1      16.376  13.832  -2.919  1.00  0.00     0.014 A 
ATOM     45  C   UNL     1      18.513  14.682  -1.338  1.00  0.00     0.010 A 
ATOM     46  C   UNL     1      17.669  13.415  -3.221  1.00  0.00     0.010 A 
ATOM     47  C   UNL     1      18.752  13.836  -2.434  1.00  0.00    -0.014 A 
BRANCH  47  48
ATOM     48  C   UNL     1      20.128  13.385  -2.771  1.00  0.00     0.031 A 
ATOM     49  C   UNL     1      20.746  13.771  -4.088  1.00  0.00     0.074 A 
ATOM     50  C   UNL     1      20.798  12.587  -1.916  1.00  0.00     0.049 A 
ATOM     51  N   UNL     1      21.898  13.418  -4.596  1.00  0.00    -0.248 NA
ATOM     52  C   UNL     1      19.949  14.649  -4.958  1.00  0.00     0.031 C 
ATOM     53  C   UNL     1      20.288  12.115  -0.626  1.00  0.00     0.029 A 
ATOM     54  N   UNL     1      22.047  12.024  -2.001  1.00  0.00    -0.354 N 
ATOM     55  C   UNL     1      21.965  14.028  -5.844  1.00  0.00     0.074 A 
ATOM     56  C   UNL     1      20.706  14.713  -6.043  1.00  0.00     0.031 C 
ATOM     57  C   UNL     1      21.222  11.354  -0.035  1.00  0.00     0.029 A 
ATOM     58  C   UNL     1      22.377  11.238  -0.920  1.00  0.00     0.049 A 
ATOM     59  H   UNL     1      22.651  12.168  -2.765  1.00  0.00     0.167 HD
ATOM     60  C   UNL     1      22.993  14.040  -6.729  1.00  0.00     0.034 A 
ATOM     61  C   UNL     1      23.474  10.493  -0.677  1.00  0.00     0.034 A 
ATOM     62  C   UNL     1      24.243  13.352  -6.515  1.00  0.00     0.049 A 
ATOM     63  C   UNL     1      24.586  10.486  -1.698  1.00  0.00     0.074 A 
ATOM     64  C   UNL     1      25.362  13.324  -7.329  1.00  0.00     0.029 A 
ATOM     65  N   UNL     1      24.540  12.564  -5.409  1.00  0.00    -0.354 N 
ATOM     66  N   UNL     1      24.650  11.105  -2.854  1.00  0.00    -0.248 NA
ATOM     67  C   UNL     1      25.778   9.691  -1.374  1.00  0.00     0.031 C 
ATOM     68  C   UNL     1      26.303  12.464  -6.754  1.00  0.00     0.029 A 
ATOM     69  C   UNL     1      25.810  12.023  -5.537  1.00  0.00     0.049 A 
ATOM     70  H   UNL     1      23.936  12.413  -4.646  1.00  0.00     0.167 HD
ATOM     71  C   UNL     1      25.903  10.798  -3.380  1.00  0.00     0.074 A 
ATOM     72  C   UNL     1      26.566   9.957  -2.405  1.00  0.00     0.031 C 
ATOM     73  C   UNL     1      26.457  11.179  -4.559  1.00  0.00     0.034 A 
BRANCH  60  74
ATOM     74  C   UNL     1      22.795  14.807  -8.015  1.00  0.00     0.023 A 
ATOM     75  C   UNL     1      22.578  16.196  -8.018  1.00  0.00     0.031 A 
ATOM     76  C   UNL     1      22.807  14.143  -9.255  1.00  0.00     0.131 A 
ATOM     77  C   UNL     1      22.310  16.863  -9.222  1.00  0.00     0.055 A 
ATOM     78  C   UNL     1      22.625  14.827 -10.459  1.00  0.00     0.041 A 
ATOM     79  F   UNL     1      22.987  12.814  -9.317  1.00  0.00    -0.206 F 
ATOM     80  C   UNL     1      22.360  16.193 -10.446  1.00  0.00     0.022 A 
BRANCH  77  81
ATOM     81  S   UNL     1      21.754  18.588  -9.151  1.00  0.00     0.124 S 
ATOM     82  O   UNL     1      20.545  18.473  -8.338  1.00  0.00    -0.237 OA
ATOM     83  O   UNL     1      22.885  19.259  -8.523  1.00  0.00    -0.237 OA
ATOM     84  O   UNL     1      21.523  18.931 -10.553  1.00  0.00    -0.744 OA
ENDBRANCH  77  81
ENDBRANCH  60  74
BRANCH  61  85
ATOM     85  C   UNL     1      23.573   9.670   0.564  1.00  0.00     0.023 A 
ATOM     86  C   UNL     1      24.581   9.904   1.514  1.00  0.00     0.031 A 
ATOM     87  C   UNL     1      22.693   8.596   0.791  1.00  0.00     0.131 A 
ATOM     88  C   UNL     1      24.720   9.042   2.614  1.00  0.00     0.055 A 
ATOM     89  C   UNL     1      22.796   7.782   1.920  1.00  0.00     0.041 A 
ATOM     90  F   UNL     1      21.710   8.327  -0.083  1.00  0.00    -0.206 F 
ATOM     91  C   UNL     1      23.825   7.992   2.831  1.00  0.00     0.022 A 
BRANCH  88  92
ATOM     92  S   UNL     1      26.159   9.245   3.699  1.00  0.00     0.124 S 
ATOM     93  O   UNL     1      27.262   9.130   2.752  1.00  0.00    -0.237 OA
ATOM     94  O   UNL     1      25.930  10.573   4.259  1.00  0.00    -0.237 OA
ATOM     95  O   UNL     1      26.029   8.140   4.646  1.00  0.00    -0.744 OA
ENDBRANCH  88  92
ENDBRANCH  61  85
BRANCH  73  96
ATOM     96  C   UNL     1      27.871  10.725  -4.834  1.00  0.00     0.023 A 
ATOM     97  C   UNL     1      28.195   9.369  -5.011  1.00  0.00     0.031 A 
ATOM     98  C   UNL     1      28.912  11.668  -4.911  1.00  0.00     0.131 A 
ATOM     99  C   UNL     1      29.533   8.989  -5.198  1.00  0.00     0.055 A 
ATOM    100  C   UNL     1      30.231  11.290  -5.164  1.00  0.00     0.041 A 
ATOM    101  F   UNL     1      28.663  12.977  -4.745  1.00  0.00    -0.206 F 
ATOM    102  C   UNL     1      30.550   9.942  -5.295  1.00  0.00     0.022 A 
BRANCH  99 103
ATOM    103  S   UNL     1      29.942   7.221  -5.212  1.00  0.00     0.124 S 
ATOM    104  O   UNL     1      29.448   6.786  -3.910  1.00  0.00    -0.237 OA
ATOM    105  O   UNL     1      29.197   6.738  -6.370  1.00  0.00    -0.237 OA
ATOM    106  O   UNL     1      31.396   7.207  -5.361  1.00  0.00    -0.744 OA
ENDBRANCH  99 103
ENDBRANCH  73  96
ENDBRANCH  47  48
ENDBRANCH  39  42
ENDBRANCH  37  38
ENDBRANCH  36  37
ENDBRANCH  35  36
ENDBRANCH   1  35
TORSDOF 20
