REMARK SMILES O=C(NCCCCCCNC(=O)[C@H]1[C@H]2CC[C@H](C2)[C@@H]1C(=O)Nc1sc2c(c1C(=O)NC1CCCCC1)CCCC2)c1ccc(-c2c3nc(c(-c4cc(S(=O)(=O)[O-])ccc4F)c4ccc([nH]4)c(-c4cc(S(=O)(=O)[O-])ccc4F)c4nc(c(-c5cc(S(=O)(=O)[O-])ccc5F)c5ccc2[nH]5)C=C4)C=C3)cc1
REMARK SMILES IDX 7 1 6 2 5 3 4 4 3 5 1 6 2 7 41 9 42 10 103 11 43 12 102 13
REMARK SMILES IDX 44 14 45 15 46 16 96 17 47 18 101 19 95 20 97 21 48 22
REMARK SMILES IDX 100 23 94 24 93 25 49 27 81 28 61 29 80 30 62 31 65 32 79 33
REMARK SMILES IDX 98 34 63 35 64 36 78 38 99 39 66 40 50 41 51 42 59 43 52 44
REMARK SMILES IDX 58 45 60 46 57 47 53 48 54 49 55 50 56 51 82 52 83 53 91 54
REMARK SMILES IDX 84 55 90 56 92 57 89 58 85 59 86 60 87 61 88 62 67 63 68 64
REMARK SMILES IDX 76 65 69 66 75 67 77 68 74 69 70 70 71 71 72 72 73 73 8 74
REMARK SMILES IDX 9 75 10 76 11 77 12 79 13 80 14 81 19 82 15 83 18 84 17 85
REMARK SMILES IDX 16 86 20 87 21 88 22 89 23 91 24 92 27 93 25 94 26 95 40 96
REMARK SMILES IDX 37 97 39 98 38 99 28 100 29 101 30 102 31 104 32 105 36 106
REMARK SMILES IDX 33 107 35 108 34 109
REMARK H PARENT 3 8 97 26 65 37 10 78 22 90 30 103
REMARK Flexibility Score: inf
ROOT
ATOM      1  C   UNL     1       6.579   8.666  -2.200  1.00  0.00     0.002 C 
ENDROOT
BRANCH   1   2
ATOM      2  C   UNL     1       7.192  10.065  -2.326  1.00  0.00     0.002 C 
BRANCH   2   3
ATOM      3  C   UNL     1       6.587  10.931  -3.431  1.00  0.00     0.021 C 
BRANCH   3   4
ATOM      4  C   UNL     1       5.084  11.127  -3.313  1.00  0.00     0.116 C 
BRANCH   4   5
ATOM      5  N   UNL     1       4.715  11.863  -2.115  1.00  0.00    -0.352 N 
ATOM      6  O   UNL     1       3.806  13.571  -0.951  1.00  0.00    -0.269 OA
ATOM      7  C   UNL     1       3.887  12.958  -2.002  1.00  0.00     0.251 C 
ATOM      8  H   UNL     1       5.107  11.535  -1.273  1.00  0.00     0.163 HD
BRANCH   7   9
ATOM      9  C   UNL     1       3.115  13.385  -3.190  1.00  0.00     0.039 A 
ATOM     10  C   UNL     1       2.451  12.434  -3.967  1.00  0.00     0.014 A 
ATOM     11  C   UNL     1       3.080  14.736  -3.543  1.00  0.00     0.014 A 
ATOM     12  C   UNL     1       1.883  12.811  -5.174  1.00  0.00     0.010 A 
ATOM     13  C   UNL     1       2.411  15.129  -4.707  1.00  0.00     0.010 A 
ATOM     14  C   UNL     1       1.826  14.166  -5.544  1.00  0.00    -0.014 A 
BRANCH  14  15
ATOM     15  C   UNL     1       1.064  14.531  -6.765  1.00  0.00     0.031 A 
ATOM     16  C   UNL     1       1.734  15.152  -7.957  1.00  0.00     0.074 A 
ATOM     17  C   UNL     1      -0.250  14.226  -6.799  1.00  0.00     0.049 A 
ATOM     18  N   UNL     1       1.214  15.472  -9.115  1.00  0.00    -0.248 NA
ATOM     19  C   UNL     1       3.166  15.463  -7.837  1.00  0.00     0.031 C 
ATOM     20  C   UNL     1      -1.001  13.635  -5.686  1.00  0.00     0.029 A 
ATOM     21  N   UNL     1      -1.177  14.333  -7.801  1.00  0.00    -0.354 N 
ATOM     22  C   UNL     1       2.248  16.026  -9.862  1.00  0.00     0.074 A 
ATOM     23  C   UNL     1       3.419  16.031  -9.009  1.00  0.00     0.031 C 
ATOM     24  C   UNL     1      -2.251  13.372  -6.088  1.00  0.00     0.029 A 
ATOM     25  C   UNL     1      -2.418  13.851  -7.454  1.00  0.00     0.049 A 
ATOM     26  H   UNL     1      -0.976  14.718  -8.685  1.00  0.00     0.167 HD
ATOM     27  C   UNL     1       2.219  16.477 -11.141  1.00  0.00     0.034 A 
ATOM     28  C   UNL     1      -3.572  13.818  -8.146  1.00  0.00     0.034 A 
ATOM     29  C   UNL     1       1.036  16.471 -11.971  1.00  0.00     0.049 A 
ATOM     30  C   UNL     1      -3.577  14.353  -9.551  1.00  0.00     0.074 A 
ATOM     31  C   UNL     1       0.897  16.902 -13.280  1.00  0.00     0.029 A 
ATOM     32  N   UNL     1      -0.216  16.016 -11.573  1.00  0.00    -0.354 N 
ATOM     33  N   UNL     1      -2.582  14.861 -10.243  1.00  0.00    -0.248 NA
ATOM     34  C   UNL     1      -4.854  14.304 -10.270  1.00  0.00     0.031 C 
ATOM     35  C   UNL     1      -0.445  16.764 -13.651  1.00  0.00     0.029 A 
ATOM     36  C   UNL     1      -1.133  16.177 -12.603  1.00  0.00     0.049 A 
ATOM     37  H   UNL     1      -0.422  15.635 -10.690  1.00  0.00     0.167 HD
ATOM     38  C   UNL     1      -3.117  15.185 -11.486  1.00  0.00     0.074 A 
ATOM     39  C   UNL     1      -4.506  14.771 -11.459  1.00  0.00     0.031 C 
ATOM     40  C   UNL     1      -2.521  15.781 -12.549  1.00  0.00     0.034 A 
BRANCH  27  41
ATOM     41  C   UNL     1       3.498  17.042 -11.713  1.00  0.00     0.023 A 
ATOM     42  C   UNL     1       4.629  16.235 -11.925  1.00  0.00     0.031 A 
ATOM     43  C   UNL     1       3.585  18.402 -12.060  1.00  0.00     0.131 A 
ATOM     44  C   UNL     1       5.813  16.803 -12.421  1.00  0.00     0.055 A 
ATOM     45  C   UNL     1       4.744  18.947 -12.618  1.00  0.00     0.041 A 
ATOM     46  F   UNL     1       2.544  19.226 -11.862  1.00  0.00    -0.206 F 
ATOM     47  C   UNL     1       5.870  18.149 -12.793  1.00  0.00     0.022 A 
BRANCH  44  48
ATOM     48  S   UNL     1       7.310  15.780 -12.473  1.00  0.00     0.124 S 
ATOM     49  O   UNL     1       7.478  15.430 -11.064  1.00  0.00    -0.237 OA
ATOM     50  O   UNL     1       6.918  14.688 -13.356  1.00  0.00    -0.237 OA
ATOM     51  O   UNL     1       8.326  16.683 -13.009  1.00  0.00    -0.744 OA
ENDBRANCH  44  48
ENDBRANCH  27  41
BRANCH  28  52
ATOM     52  C   UNL     1      -4.819  13.307  -7.509  1.00  0.00     0.023 A 
ATOM     53  C   UNL     1      -5.504  12.200  -8.034  1.00  0.00     0.031 A 
ATOM     54  C   UNL     1      -5.372  13.951  -6.387  1.00  0.00     0.131 A 
ATOM     55  C   UNL     1      -6.728  11.806  -7.472  1.00  0.00     0.055 A 
ATOM     56  C   UNL     1      -6.554  13.514  -5.790  1.00  0.00     0.041 A 
ATOM     57  F   UNL     1      -4.758  15.014  -5.842  1.00  0.00    -0.206 F 
ATOM     58  C   UNL     1      -7.249  12.445  -6.345  1.00  0.00     0.022 A 
BRANCH  55  59
ATOM     59  S   UNL     1      -7.687  10.515  -8.309  1.00  0.00     0.124 S 
ATOM     60  O   UNL     1      -7.791  11.052  -9.662  1.00  0.00    -0.237 OA
ATOM     61  O   UNL     1      -6.826   9.348  -8.147  1.00  0.00    -0.237 OA
ATOM     62  O   UNL     1      -8.937  10.478  -7.554  1.00  0.00    -0.744 OA
ENDBRANCH  55  59
ENDBRANCH  28  52
BRANCH  40  63
ATOM     63  C   UNL     1      -3.384  15.992 -13.769  1.00  0.00     0.023 A 
ATOM     64  C   UNL     1      -4.495  16.854 -13.741  1.00  0.00     0.031 A 
ATOM     65  C   UNL     1      -3.130  15.279 -14.953  1.00  0.00     0.131 A 
ATOM     66  C   UNL     1      -5.357  16.918 -14.844  1.00  0.00     0.055 A 
ATOM     67  C   UNL     1      -3.952  15.402 -16.074  1.00  0.00     0.041 A 
ATOM     68  F   UNL     1      -2.085  14.440 -15.036  1.00  0.00    -0.206 F 
ATOM     69  C   UNL     1      -5.084  16.210 -16.017  1.00  0.00     0.022 A 
BRANCH  66  70
ATOM     70  S   UNL     1      -6.910  17.840 -14.678  1.00  0.00     0.124 S 
ATOM     71  O   UNL     1      -7.530  17.183 -13.531  1.00  0.00    -0.237 OA
ATOM     72  O   UNL     1      -6.440  19.203 -14.454  1.00  0.00    -0.237 OA
ATOM     73  O   UNL     1      -7.580  17.617 -15.958  1.00  0.00    -0.744 OA
ENDBRANCH  66  70
ENDBRANCH  40  63
ENDBRANCH  14  15
ENDBRANCH   7   9
ENDBRANCH   4   5
ENDBRANCH   3   4
ENDBRANCH   2   3
ENDBRANCH   1   2
BRANCH   1  74
ATOM     74  C   UNL     1       6.541   7.863  -3.504  1.00  0.00     0.021 C 
BRANCH  74  75
ATOM     75  C   UNL     1       7.914   7.693  -4.145  1.00  0.00     0.116 C 
BRANCH  75  76
ATOM     76  N   UNL     1       8.730   6.798  -3.343  1.00  0.00    -0.356 N 
ATOM     77  C   UNL     1       9.219   5.567  -3.675  1.00  0.00     0.224 C 
ATOM     78  H   UNL     1       8.960   7.122  -2.442  1.00  0.00     0.163 HD
ATOM     79  O   UNL     1       9.733   4.872  -2.804  1.00  0.00    -0.275 OA
BRANCH  77  80
ATOM     80  C   UNL     1       9.188   5.192  -5.140  1.00  0.00     0.094 C 
ATOM     81  C   UNL     1      10.332   5.954  -5.870  1.00  0.00     0.002 C 
ATOM     82  C   UNL     1       9.469   3.716  -5.483  1.00  0.00     0.094 C 
ATOM     83  C   UNL     1      11.730   5.561  -5.356  1.00  0.00     0.005 C 
ATOM     84  C   UNL     1      10.322   5.236  -7.200  1.00  0.00     0.009 C 
ATOM     85  C   UNL     1      10.551   3.848  -6.577  1.00  0.00     0.002 C 
ATOM     86  C   UNL     1      11.896   4.119  -5.862  1.00  0.00     0.005 C 
BRANCH  82  87
ATOM     87  C   UNL     1       8.182   2.879  -5.697  1.00  0.00     0.229 C 
ATOM     88  O   UNL     1       7.940   1.973  -4.885  1.00  0.00    -0.274 OA
ATOM     89  N   UNL     1       7.186   3.177  -6.581  1.00  0.00    -0.317 N 
ATOM     90  H   UNL     1       6.288   2.884  -6.304  1.00  0.00     0.170 HD
BRANCH  89  91
ATOM     91  C   UNL     1       7.232   3.821  -7.795  1.00  0.00     0.108 A 
ATOM     92  S   UNL     1       8.374   3.262  -8.922  1.00  0.00    -0.122 S 
ATOM     93  C   UNL     1       6.299   4.697  -8.365  1.00  0.00     0.078 A 
ATOM     94  C   UNL     1       8.108   4.643  -9.861  1.00  0.00     0.011 A 
ATOM     95  C   UNL     1       6.860   5.202  -9.620  1.00  0.00    -0.019 A 
ATOM     96  C   UNL     1       9.130   5.138 -10.835  1.00  0.00     0.047 C 
ATOM     97  C   UNL     1       6.345   6.249 -10.569  1.00  0.00     0.037 C 
ATOM     98  C   UNL     1       8.763   6.563 -11.259  1.00  0.00     0.006 C 
ATOM     99  C   UNL     1       7.305   6.585 -11.725  1.00  0.00     0.005 C 
BRANCH  93 100
ATOM    100  C   UNL     1       5.048   4.944  -7.620  1.00  0.00     0.254 C 
ATOM    101  O   UNL     1       4.565   4.036  -6.932  1.00  0.00    -0.269 OA
ATOM    102  N   UNL     1       4.381   6.137  -7.529  1.00  0.00    -0.349 N 
ATOM    103  H   UNL     1       3.626   6.097  -6.898  1.00  0.00     0.164 HD
BRANCH 102 104
ATOM    104  C   UNL     1       4.522   7.448  -8.141  1.00  0.00     0.082 C 
ATOM    105  C   UNL     1       3.322   8.352  -7.806  1.00  0.00     0.025 C 
ATOM    106  C   UNL     1       5.805   8.175  -7.716  1.00  0.00     0.025 C 
ATOM    107  C   UNL     1       3.422   9.685  -8.551  1.00  0.00     0.002 C 
ATOM    108  C   UNL     1       5.954   9.491  -8.483  1.00  0.00     0.002 C 
ATOM    109  C   UNL     1       4.745  10.401  -8.286  1.00  0.00     0.000 C 
ENDBRANCH 102 104
ENDBRANCH  93 100
ENDBRANCH  89  91
ENDBRANCH  82  87
ENDBRANCH  77  80
ENDBRANCH  75  76
ENDBRANCH  74  75
ENDBRANCH   1  74
TORSDOF 20
