REMARK SMILES NS(=O)(=O)c1ccc(C#Cc2cc(Cl)cc3c2O[C@H](C(F)(F)F)C(C(=O)NCCCCCCNC(=O)c2ccc(-c4c5nc(c(-c6cc(S(=O)(=O)[O-])ccc6F)c6ccc([nH]6)c(-c6cc(S(=O)(=O)[O-])ccc6F)c6nc(c(-c7cc(S(=O)(=O)[O-])ccc7F)c7ccc4[nH]7)C=C6)C=C5)cc2)=C3)cc1
REMARK SMILES IDX 30 1 29 2 28 3 27 4 25 5 26 6 24 8 11 9 12 10 17 11 13 12
REMARK SMILES IDX 16 13 18 14 14 15 15 16 100 17 19 18 10 19 9 20 8 21 5 22
REMARK SMILES IDX 6 23 102 24 7 25 101 26 2 27 3 28 4 29 1 30 20 33 21 34
REMARK SMILES IDX 22 35 23 36 31 37 32 38 33 39 34 40 35 41 36 43 37 44 38 45
REMARK SMILES IDX 99 46 39 47 98 48 40 49 41 50 42 51 92 52 43 53 97 54 91 55
REMARK SMILES IDX 93 56 44 57 96 58 90 59 89 60 45 62 77 63 57 64 76 65 58 66
REMARK SMILES IDX 61 67 75 68 94 69 59 70 60 71 74 73 95 74 62 75 46 76 47 77
REMARK SMILES IDX 55 78 48 79 54 80 56 81 53 82 49 83 50 84 51 85 52 86 78 87
REMARK SMILES IDX 79 88 87 89 80 90 86 91 88 92 85 93 81 94 82 95 83 96 84 97
REMARK SMILES IDX 63 98 64 99 72 100 65 101 71 102 73 103 70 104 66 105 67 106
REMARK SMILES IDX 68 107 69 108
REMARK H PARENT 27 7 1 31 1 32 34 42 93 61 61 72
REMARK Flexibility Score: inf
ROOT
ATOM      1  C   UNL     1      -1.438  14.204   1.643  1.00  0.00     0.002 C 
ENDROOT
BRANCH   1   2
ATOM      2  C   UNL     1      -0.927  12.882   2.220  1.00  0.00     0.021 C 
BRANCH   2   3
ATOM      3  C   UNL     1       0.594  12.791   2.224  1.00  0.00     0.116 C 
BRANCH   3   4
ATOM      4  N   UNL     1       1.163  13.392   3.419  1.00  0.00    -0.352 N 
ATOM      5  C   UNL     1       1.913  12.987   4.471  1.00  0.00     0.251 C 
ATOM      6  O   UNL     1       2.211  13.865   5.287  1.00  0.00    -0.270 OA
ATOM      7  H   UNL     1       0.945  14.350   3.480  1.00  0.00     0.163 HD
BRANCH   5   8
ATOM      8  C   UNL     1       2.376  11.586   4.695  1.00  0.00     0.067 C 
ATOM      9  C   UNL     1       3.397   7.600   5.560  1.00  0.00     0.069 A 
ATOM     10  C   UNL     1       4.183   7.311   6.673  1.00  0.00     0.041 A 
ATOM     11  C   UNL     1       3.054   8.931   5.287  1.00  0.00     0.143 A 
ATOM     12  C   UNL     1       4.596   8.349   7.510  1.00  0.00     0.043 A 
ATOM     13  C   UNL     1       3.449   9.970   6.135  1.00  0.00     0.020 A 
ATOM     14  O   UNL     1       2.275   9.151   4.189  1.00  0.00    -0.474 OA
ATOM     15  Cl  UNL     1       5.557   7.991   8.894  1.00  0.00    -0.084 Cl
ATOM     16  C   UNL     1       4.229   9.673   7.254  1.00  0.00     0.032 A 
ATOM     17  C   UNL     1       2.987  11.330   5.867  1.00  0.00     0.025 C 
ATOM     18  C   UNL     1       2.219  10.498   3.676  1.00  0.00     0.314 C 
BRANCH   9  19
ATOM     19  C   UNL     1       2.927   6.550   4.703  1.00  0.00    -0.058 C 
ATOM     20  C   UNL     1       2.486   5.734   3.936  1.00  0.00    -0.062 C 
BRANCH  20  21
ATOM     21  C   UNL     1       1.965   4.796   2.990  1.00  0.00     0.025 A 
ATOM     22  C   UNL     1       1.055   2.969   1.086  1.00  0.00     0.082 A 
ATOM     23  C   UNL     1       0.634   4.303   1.026  1.00  0.00     0.023 A 
ATOM     24  C   UNL     1       1.906   2.538   2.105  1.00  0.00     0.023 A 
ATOM     25  C   UNL     1       1.091   5.216   1.981  1.00  0.00     0.018 A 
ATOM     26  C   UNL     1       2.360   3.457   3.056  1.00  0.00     0.018 A 
BRANCH  22  27
ATOM     27  S   UNL     1       0.527   1.881  -0.206  1.00  0.00     0.238 S 
ATOM     28  O   UNL     1       1.131   2.331  -1.434  1.00  0.00    -0.207 OA
ATOM     29  O   UNL     1      -0.888   1.650  -0.042  1.00  0.00    -0.207 OA
BRANCH  27  30
ATOM     30  N   UNL     1       1.264   0.404   0.136  1.00  0.00    -0.225 NA
ATOM     31  H   UNL     1       1.002  -0.279  -0.575  1.00  0.00     0.137 HD
ATOM     32  H   UNL     1       0.959   0.075   1.052  1.00  0.00     0.137 HD
ENDBRANCH  27  30
ENDBRANCH  22  27
ENDBRANCH  20  21
ENDBRANCH   9  19
BRANCH  18  33
ATOM     33  C   UNL     1       3.204  10.654   2.501  1.00  0.00     0.429 C 
ATOM     34  F   UNL     1       2.810   9.905   1.444  1.00  0.00    -0.167 F 
ATOM     35  F   UNL     1       3.285  11.931   2.058  1.00  0.00    -0.167 F 
ATOM     36  F   UNL     1       4.460  10.275   2.831  1.00  0.00    -0.167 F 
ENDBRANCH  18  33
ENDBRANCH   5   8
ENDBRANCH   3   4
ENDBRANCH   2   3
ENDBRANCH   1   2
BRANCH   1  37
ATOM     37  C   UNL     1      -0.931  14.522   0.229  1.00  0.00     0.002 C 
BRANCH  37  38
ATOM     38  C   UNL     1      -1.111  13.390  -0.784  1.00  0.00     0.021 C 
BRANCH  38  39
ATOM     39  C   UNL     1      -2.557  12.949  -0.953  1.00  0.00     0.116 C 
BRANCH  39  40
ATOM     40  N   UNL     1      -3.400  14.031  -1.442  1.00  0.00    -0.352 N 
ATOM     41  C   UNL     1      -4.138  14.091  -2.600  1.00  0.00     0.251 C 
ATOM     42  H   UNL     1      -3.446  14.828  -0.866  1.00  0.00     0.163 HD
ATOM     43  O   UNL     1      -4.624  15.151  -2.975  1.00  0.00    -0.269 OA
BRANCH  41  44
ATOM     44  C   UNL     1      -4.293  12.856  -3.392  1.00  0.00     0.039 A 
ATOM     45  C   UNL     1      -4.630  11.663  -2.749  1.00  0.00     0.014 A 
ATOM     46  C   UNL     1      -3.997  12.874  -4.755  1.00  0.00     0.014 A 
ATOM     47  C   UNL     1      -4.471  10.461  -3.422  1.00  0.00     0.010 A 
ATOM     48  C   UNL     1      -3.946  11.669  -5.456  1.00  0.00     0.010 A 
ATOM     49  C   UNL     1      -4.126  10.449  -4.783  1.00  0.00    -0.014 A 
BRANCH  49  50
ATOM     50  C   UNL     1      -3.965   9.155  -5.493  1.00  0.00     0.031 A 
ATOM     51  C   UNL     1      -2.645   8.773  -6.105  1.00  0.00     0.074 A 
ATOM     52  C   UNL     1      -5.018   8.319  -5.569  1.00  0.00     0.049 A 
ATOM     53  N   UNL     1      -2.345   7.717  -6.815  1.00  0.00    -0.248 NA
ATOM     54  C   UNL     1      -1.514   9.694  -5.900  1.00  0.00     0.031 C 
ATOM     55  C   UNL     1      -6.335   8.580  -4.986  1.00  0.00     0.029 A 
ATOM     56  N   UNL     1      -5.154   7.087  -6.157  1.00  0.00    -0.354 N 
ATOM     57  C   UNL     1      -1.006   7.855  -7.163  1.00  0.00     0.074 A 
ATOM     58  C   UNL     1      -0.557   9.114  -6.612  1.00  0.00     0.031 C 
ATOM     59  C   UNL     1      -7.133   7.531  -5.215  1.00  0.00     0.029 A 
ATOM     60  C   UNL     1      -6.421   6.563  -6.043  1.00  0.00     0.049 A 
ATOM     61  H   UNL     1      -4.417   6.623  -6.616  1.00  0.00     0.167 HD
ATOM     62  C   UNL     1      -0.228   6.999  -7.867  1.00  0.00     0.034 A 
ATOM     63  C   UNL     1      -6.967   5.450  -6.575  1.00  0.00     0.034 A 
ATOM     64  C   UNL     1      -0.698   5.738  -8.384  1.00  0.00     0.049 A 
ATOM     65  C   UNL     1      -6.096   4.544  -7.402  1.00  0.00     0.074 A 
ATOM     66  C   UNL     1       0.022   4.783  -9.079  1.00  0.00     0.029 A 
ATOM     67  N   UNL     1      -1.993   5.252  -8.266  1.00  0.00    -0.354 N 
ATOM     68  N   UNL     1      -4.822   4.668  -7.689  1.00  0.00    -0.248 NA
ATOM     69  C   UNL     1      -6.724   3.345  -7.973  1.00  0.00     0.031 C 
ATOM     70  C   UNL     1      -0.854   3.771  -9.463  1.00  0.00     0.029 A 
ATOM     71  C   UNL     1      -2.099   4.031  -8.912  1.00  0.00     0.049 A 
ATOM     72  H   UNL     1      -2.727   5.707  -7.793  1.00  0.00     0.167 HD
ATOM     73  C   UNL     1      -4.487   3.548  -8.443  1.00  0.00     0.074 A 
ATOM     74  C   UNL     1      -5.690   2.750  -8.555  1.00  0.00     0.031 C 
ATOM     75  C   UNL     1      -3.291   3.218  -8.992  1.00  0.00     0.034 A 
BRANCH  62  76
ATOM     76  C   UNL     1       1.216   7.359  -8.135  1.00  0.00     0.023 A 
ATOM     77  C   UNL     1       1.673   7.460  -9.464  1.00  0.00     0.031 A 
ATOM     78  C   UNL     1       2.166   7.430  -7.102  1.00  0.00     0.131 A 
ATOM     79  C   UNL     1       3.045   7.563  -9.726  1.00  0.00     0.055 A 
ATOM     80  C   UNL     1       3.528   7.589  -7.366  1.00  0.00     0.041 A 
ATOM     81  F   UNL     1       1.786   7.338  -5.817  1.00  0.00    -0.206 F 
ATOM     82  C   UNL     1       3.974   7.637  -8.684  1.00  0.00     0.022 A 
BRANCH  79  83
ATOM     83  S   UNL     1       3.683   7.505 -11.423  1.00  0.00     0.124 S 
ATOM     84  O   UNL     1       4.395   8.778 -11.519  1.00  0.00    -0.237 OA
ATOM     85  O   UNL     1       4.531   6.317 -11.390  1.00  0.00    -0.237 OA
ATOM     86  O   UNL     1       2.483   7.403 -12.247  1.00  0.00    -0.744 OA
ENDBRANCH  79  83
ENDBRANCH  62  76
BRANCH  63  87
ATOM     87  C   UNL     1      -8.402   5.149  -6.297  1.00  0.00     0.023 A 
ATOM     88  C   UNL     1      -9.413   6.059  -6.664  1.00  0.00     0.031 A 
ATOM     89  C   UNL     1      -8.771   4.022  -5.545  1.00  0.00     0.131 A 
ATOM     90  C   UNL     1     -10.721   5.873  -6.201  1.00  0.00     0.055 A 
ATOM     91  C   UNL     1     -10.094   3.796  -5.160  1.00  0.00     0.041 A 
ATOM     92  F   UNL     1      -7.843   3.134  -5.158  1.00  0.00    -0.206 F 
ATOM     93  C   UNL     1     -11.073   4.736  -5.469  1.00  0.00     0.022 A 
BRANCH  90  94
ATOM     94  S   UNL     1     -11.967   7.178  -6.395  1.00  0.00     0.124 S 
ATOM     95  O   UNL     1     -13.015   6.492  -7.144  1.00  0.00    -0.237 OA
ATOM     96  O   UNL     1     -12.287   7.492  -5.004  1.00  0.00    -0.237 OA
ATOM     97  O   UNL     1     -11.258   8.229  -7.119  1.00  0.00    -0.744 OA
ENDBRANCH  90  94
ENDBRANCH  63  87
BRANCH  75  98
ATOM     98  C   UNL     1      -3.164   1.918  -9.750  1.00  0.00     0.023 A 
ATOM     99  C   UNL     1      -2.235   0.951  -9.315  1.00  0.00     0.031 A 
ATOM    100  C   UNL     1      -3.792   1.724 -10.992  1.00  0.00     0.131 A 
ATOM    101  C   UNL     1      -1.904  -0.123 -10.149  1.00  0.00     0.055 A 
ATOM    102  C   UNL     1      -3.507   0.616 -11.790  1.00  0.00     0.041 A 
ATOM    103  F   UNL     1      -4.677   2.621 -11.457  1.00  0.00    -0.206 F 
ATOM    104  C   UNL     1      -2.542  -0.302 -11.380  1.00  0.00     0.022 A 
BRANCH 101 105
ATOM    105  S   UNL     1      -0.548  -1.252  -9.724  1.00  0.00     0.124 S 
ATOM    106  O   UNL     1      -1.224  -2.548  -9.717  1.00  0.00    -0.237 OA
ATOM    107  O   UNL     1       0.383  -1.041 -10.829  1.00  0.00    -0.237 OA
ATOM    108  O   UNL     1      -0.093  -0.784  -8.419  1.00  0.00    -0.744 OA
ENDBRANCH 101 105
ENDBRANCH  75  98
ENDBRANCH  49  50
ENDBRANCH  41  44
ENDBRANCH  39  40
ENDBRANCH  38  39
ENDBRANCH  37  38
ENDBRANCH   1  37
TORSDOF 21
