REMARK SMILES Cc1ccc(C(=O)NC2CC2)cc1NC(=O)[C@@H]1[C@@H](C(=O)NCCCCCCNC(=O)c2ccc(-c3c4nc(c(-c5cc(S(=O)(=O)[O-])ccc5F)c5ccc([nH]5)c(-c5cc(S(=O)(=O)[O-])ccc5F)c5nc(c(-c6cc(S(=O)(=O)[O-])ccc6F)c6ccc3[nH]6)C=C5)C=C4)cc2)[C@H]2C=C[C@@H]1C2
REMARK SMILES IDX 24 1 23 2 22 3 21 4 19 5 20 6 18 8 17 9 97 10 94 11 96 12
REMARK SMILES IDX 98 13 95 14 15 15 14 16 16 18 13 19 1 20 2 21 3 22 4 23
REMARK SMILES IDX 12 24 5 25 6 26 7 27 8 28 9 30 10 31 11 32 25 33 26 34 27 35
REMARK SMILES IDX 28 36 29 37 30 39 31 40 32 41 93 42 33 43 92 44 34 45 35 46
REMARK SMILES IDX 36 47 86 48 37 49 91 50 85 51 87 52 38 53 90 54 84 55 83 56
REMARK SMILES IDX 39 58 71 59 51 60 70 61 52 62 55 63 69 64 88 65 53 66 54 67
REMARK SMILES IDX 68 69 89 70 56 71 40 72 41 73 49 74 42 75 48 76 50 77 47 78
REMARK SMILES IDX 43 79 44 80 45 81 46 82 72 83 73 84 81 85 74 86 80 87 82 88
REMARK SMILES IDX 79 89 75 90 76 91 77 92 78 93 57 94 58 95 66 96 59 97 65 98
REMARK SMILES IDX 67 99 64 100 60 101 61 102 62 103 63 104
REMARK H PARENT 21 7 14 17 8 29 28 38 87 57 55 68
REMARK Flexibility Score: inf
ROOT
ATOM      1  C   UNL     1      -4.925   9.232  -0.967  1.00  0.00     0.002 C 
ENDROOT
BRANCH   1   2
ATOM      2  C   UNL     1      -3.827   9.104   0.097  1.00  0.00     0.021 C 
BRANCH   2   3
ATOM      3  C   UNL     1      -3.491   7.696   0.583  1.00  0.00     0.116 C 
BRANCH   3   4
ATOM      4  N   UNL     1      -3.000   6.833  -0.466  1.00  0.00    -0.356 N 
ATOM      5  C   UNL     1      -2.124   5.801  -0.443  1.00  0.00     0.224 C 
ATOM      6  O   UNL     1      -1.913   5.237  -1.524  1.00  0.00    -0.275 OA
ATOM      7  H   UNL     1      -3.369   7.030  -1.357  1.00  0.00     0.163 HD
BRANCH   5   8
ATOM      8  C   UNL     1      -1.326   5.388   0.794  1.00  0.00     0.098 C 
ATOM      9  C   UNL     1      -0.940   3.859   0.653  1.00  0.00     0.099 C 
ATOM     10  C   UNL     1      -1.265   3.281   2.054  1.00  0.00     0.025 C 
ATOM     11  C   UNL     1      -1.972   5.401   2.198  1.00  0.00     0.025 C 
ATOM     12  C   UNL     1      -2.771   3.244   2.195  1.00  0.00    -0.027 C 
ATOM     13  C   UNL     1      -1.000   4.483   2.958  1.00  0.00     0.017 C 
ATOM     14  C   UNL     1      -3.196   4.514   2.246  1.00  0.00    -0.027 C 
BRANCH   9  15
ATOM     15  C   UNL     1       0.494   3.587   0.239  1.00  0.00     0.228 C 
ATOM     16  N   UNL     1       0.921   2.326  -0.102  1.00  0.00    -0.326 N 
ATOM     17  H   UNL     1       1.880   2.286  -0.321  1.00  0.00     0.169 HD
ATOM     18  O   UNL     1       1.355   4.469   0.290  1.00  0.00    -0.274 OA
BRANCH  16  19
ATOM     19  C   UNL     1       0.271   1.076  -0.204  1.00  0.00     0.044 A 
ATOM     20  C   UNL     1       2.494  -0.147   0.279  1.00  0.00     0.046 C 
ATOM     21  C   UNL     1       1.004  -0.099   0.056  1.00  0.00    -0.027 A 
ATOM     22  C   UNL     1       0.326  -1.329   0.085  1.00  0.00     0.006 A 
ATOM     23  C   UNL     1      -1.050  -1.397  -0.139  1.00  0.00     0.014 A 
ATOM     24  C   UNL     1      -1.082   0.955  -0.567  1.00  0.00     0.040 A 
ATOM     25  C   UNL     1      -1.781  -0.254  -0.483  1.00  0.00     0.041 A 
BRANCH  25  26
ATOM     26  C   UNL     1      -3.250  -0.447  -0.734  1.00  0.00     0.251 C 
ATOM     27  O   UNL     1      -3.704  -1.595  -0.711  1.00  0.00    -0.269 OA
ATOM     28  N   UNL     1      -4.152   0.572  -0.954  1.00  0.00    -0.349 N 
ATOM     29  H   UNL     1      -5.083   0.270  -1.065  1.00  0.00     0.164 HD
BRANCH  28  30
ATOM     30  C   UNL     1      -3.982   1.976  -1.050  1.00  0.00     0.082 C 
ATOM     31  C   UNL     1      -3.902   2.626  -2.403  1.00  0.00     0.027 C 
ATOM     32  C   UNL     1      -5.079   2.891  -1.515  1.00  0.00     0.027 C 
ENDBRANCH  28  30
ENDBRANCH  25  26
ENDBRANCH  16  19
ENDBRANCH   9  15
ENDBRANCH   5   8
ENDBRANCH   3   4
ENDBRANCH   2   3
ENDBRANCH   1   2
BRANCH   1  33
ATOM     33  C   UNL     1      -6.306   8.643  -0.646  1.00  0.00     0.002 C 
BRANCH  33  34
ATOM     34  C   UNL     1      -6.912   8.998   0.710  1.00  0.00     0.021 C 
BRANCH  34  35
ATOM     35  C   UNL     1      -6.988  10.486   1.029  1.00  0.00     0.116 C 
BRANCH  35  36
ATOM     36  N   UNL     1      -8.255  11.137   0.738  1.00  0.00    -0.352 N 
ATOM     37  C   UNL     1      -8.604  12.471   0.927  1.00  0.00     0.251 C 
ATOM     38  H   UNL     1      -8.957  10.560   0.357  1.00  0.00     0.163 HD
ATOM     39  O   UNL     1      -9.724  12.872   0.697  1.00  0.00    -0.269 OA
BRANCH  37  40
ATOM     40  C   UNL     1      -7.531  13.438   1.302  1.00  0.00     0.039 A 
ATOM     41  C   UNL     1      -7.387  14.581   0.507  1.00  0.00     0.014 A 
ATOM     42  C   UNL     1      -6.562  13.123   2.251  1.00  0.00     0.014 A 
ATOM     43  C   UNL     1      -6.166  15.254   0.490  1.00  0.00     0.010 A 
ATOM     44  C   UNL     1      -5.319  13.724   2.166  1.00  0.00     0.010 A 
ATOM     45  C   UNL     1      -5.101  14.744   1.238  1.00  0.00    -0.014 A 
BRANCH  45  46
ATOM     46  C   UNL     1      -3.717  15.149   1.015  1.00  0.00     0.031 A 
ATOM     47  C   UNL     1      -3.060  16.111   1.926  1.00  0.00     0.074 A 
ATOM     48  C   UNL     1      -3.018  14.688  -0.049  1.00  0.00     0.049 A 
ATOM     49  N   UNL     1      -2.250  17.036   1.529  1.00  0.00    -0.248 NA
ATOM     50  C   UNL     1      -3.280  16.113   3.368  1.00  0.00     0.031 C 
ATOM     51  C   UNL     1      -1.601  14.921  -0.323  1.00  0.00     0.029 A 
ATOM     52  N   UNL     1      -3.482  14.093  -1.221  1.00  0.00    -0.354 N 
ATOM     53  C   UNL     1      -1.625  17.538   2.646  1.00  0.00     0.074 A 
ATOM     54  C   UNL     1      -2.364  17.002   3.768  1.00  0.00     0.031 C 
ATOM     55  C   UNL     1      -1.397  14.803  -1.644  1.00  0.00     0.029 A 
ATOM     56  C   UNL     1      -2.698  14.612  -2.261  1.00  0.00     0.049 A 
ATOM     57  H   UNL     1      -4.213  13.440  -1.302  1.00  0.00     0.167 HD
ATOM     58  C   UNL     1      -0.448  18.216   2.531  1.00  0.00     0.034 A 
ATOM     59  C   UNL     1      -3.178  15.311  -3.330  1.00  0.00     0.034 A 
ATOM     60  C   UNL     1       0.043  18.233   1.157  1.00  0.00     0.049 A 
ATOM     61  C   UNL     1      -2.497  16.650  -3.527  1.00  0.00     0.074 A 
ATOM     62  C   UNL     1       1.011  17.481   0.511  1.00  0.00     0.029 A 
ATOM     63  N   UNL     1      -0.638  18.931   0.170  1.00  0.00    -0.354 N 
ATOM     64  N   UNL     1      -1.799  17.252  -2.606  1.00  0.00    -0.248 NA
ATOM     65  C   UNL     1      -2.589  17.437  -4.752  1.00  0.00     0.031 C 
ATOM     66  C   UNL     1       0.915  17.737  -0.877  1.00  0.00     0.029 A 
ATOM     67  C   UNL     1      -0.104  18.652  -1.074  1.00  0.00     0.049 A 
ATOM     68  H   UNL     1      -1.395  19.539   0.333  1.00  0.00     0.167 HD
ATOM     69  C   UNL     1      -1.358  18.470  -3.071  1.00  0.00     0.074 A 
ATOM     70  C   UNL     1      -1.876  18.531  -4.426  1.00  0.00     0.031 C 
ATOM     71  C   UNL     1      -0.615  19.302  -2.275  1.00  0.00     0.034 A 
BRANCH  58  72
ATOM     72  C   UNL     1       0.429  18.581   3.707  1.00  0.00     0.023 A 
ATOM     73  C   UNL     1       1.831  18.597   3.550  1.00  0.00     0.031 A 
ATOM     74  C   UNL     1      -0.041  18.913   4.991  1.00  0.00     0.131 A 
ATOM     75  C   UNL     1       2.693  18.809   4.638  1.00  0.00     0.055 A 
ATOM     76  C   UNL     1       0.816  19.080   6.089  1.00  0.00     0.041 A 
ATOM     77  F   UNL     1      -1.346  19.121   5.225  1.00  0.00    -0.206 F 
ATOM     78  C   UNL     1       2.192  19.011   5.920  1.00  0.00     0.022 A 
BRANCH  75  79
ATOM     79  S   UNL     1       4.484  18.814   4.347  1.00  0.00     0.124 S 
ATOM     80  O   UNL     1       4.708  17.490   3.775  1.00  0.00    -0.237 OA
ATOM     81  O   UNL     1       4.647  19.945   3.442  1.00  0.00    -0.237 OA
ATOM     82  O   UNL     1       5.043  19.009   5.684  1.00  0.00    -0.744 OA
ENDBRANCH  75  79
ENDBRANCH  58  72
BRANCH  59  83
ATOM     83  C   UNL     1      -4.597  15.029  -3.669  1.00  0.00     0.023 A 
ATOM     84  C   UNL     1      -4.925  13.720  -4.075  1.00  0.00     0.031 A 
ATOM     85  C   UNL     1      -5.633  15.867  -3.234  1.00  0.00     0.131 A 
ATOM     86  C   UNL     1      -6.227  13.233  -3.891  1.00  0.00     0.055 A 
ATOM     87  C   UNL     1      -6.941  15.391  -3.096  1.00  0.00     0.041 A 
ATOM     88  F   UNL     1      -5.372  17.111  -2.807  1.00  0.00    -0.206 F 
ATOM     89  C   UNL     1      -7.233  14.057  -3.381  1.00  0.00     0.022 A 
BRANCH  86  90
ATOM     90  S   UNL     1      -6.549  11.454  -4.078  1.00  0.00     0.124 S 
ATOM     91  O   UNL     1      -7.108  11.385  -5.423  1.00  0.00    -0.237 OA
ATOM     92  O   UNL     1      -5.228  10.855  -3.911  1.00  0.00    -0.237 OA
ATOM     93  O   UNL     1      -7.482  11.177  -2.988  1.00  0.00    -0.744 OA
ENDBRANCH  86  90
ENDBRANCH  59  83
BRANCH  71  94
ATOM     94  C   UNL     1      -0.200  20.742  -2.547  1.00  0.00     0.023 A 
ATOM     95  C   UNL     1      -0.571  21.470  -3.686  1.00  0.00     0.031 A 
ATOM     96  C   UNL     1       0.585  21.466  -1.608  1.00  0.00     0.131 A 
ATOM     97  C   UNL     1      -0.146  22.801  -3.884  1.00  0.00     0.055 A 
ATOM     98  C   UNL     1       0.968  22.801  -1.782  1.00  0.00     0.041 A 
ATOM     99  F   UNL     1       1.008  20.919  -0.459  1.00  0.00    -0.206 F 
ATOM    100  C   UNL     1       0.610  23.477  -2.933  1.00  0.00     0.022 A 
BRANCH  97 101
ATOM    101  S   UNL     1      -0.583  23.618  -5.442  1.00  0.00     0.124 S 
ATOM    102  O   UNL     1       0.092  22.775  -6.425  1.00  0.00    -0.237 OA
ATOM    103  O   UNL     1      -2.040  23.538  -5.436  1.00  0.00    -0.237 OA
ATOM    104  O   UNL     1      -0.034  24.964  -5.294  1.00  0.00    -0.744 OA
ENDBRANCH  97 101
ENDBRANCH  71  94
ENDBRANCH  45  46
ENDBRANCH  37  40
ENDBRANCH  35  36
ENDBRANCH  34  35
ENDBRANCH  33  34
ENDBRANCH   1  33
TORSDOF 20
