REMARK SMILES CN(C)Nc1ncnc(Nc2ccc(C(=O)NCCCCCCNC(=O)c3ccc(-c4c5nc(c(-c6cc(S(=O)(=O)[O-])ccc6F)c6ccc([nH]6)c(-c6cc(S(=O)(=O)[O-])ccc6F)c6nc(c(-c7cc(S(=O)(=O)[O-])ccc7F)c7ccc4[nH]7)C=C6)C=C5)cc3)cc2)c1[N+](=O)[O-]
REMARK SMILES IDX 20 1 19 2 18 3 17 4 15 5 16 6 14 8 11 9 12 10 91 11 13 12
REMARK SMILES IDX 90 13 10 14 9 16 5 17 6 18 92 19 7 20 8 21 4 22 2 24 1 25
REMARK SMILES IDX 3 26 93 27 94 28 95 29 21 30 22 31 23 32 24 33 25 34 26 36
REMARK SMILES IDX 27 37 28 38 89 39 29 40 88 41 30 42 31 43 32 44 82 45 33 46
REMARK SMILES IDX 87 47 81 48 83 49 34 50 86 51 80 52 79 53 35 55 67 56 47 57
REMARK SMILES IDX 66 58 48 59 51 60 65 61 84 62 49 63 50 64 64 66 85 67 52 68
REMARK SMILES IDX 36 69 37 70 45 71 38 72 44 73 46 74 43 75 39 76 40 77 41 78
REMARK SMILES IDX 42 79 68 80 69 81 77 82 70 83 76 84 78 85 75 86 71 87 72 88
REMARK SMILES IDX 73 89 74 90 53 91 54 92 62 93 55 94 61 95 63 96 60 97 56 98
REMARK SMILES IDX 57 99 58 100 59 101
REMARK H PARENT 17 7 10 15 4 23 24 35 83 54 51 65
REMARK Flexibility Score: inf
ROOT
ATOM      1  C   UNL     1       6.349 -10.570  -1.406  1.00  0.00     0.002 C 
ENDROOT
BRANCH   1   2
ATOM      2  C   UNL     1       5.749  -9.177  -1.164  1.00  0.00     0.021 C 
BRANCH   2   3
ATOM      3  C   UNL     1       6.162  -8.578   0.182  1.00  0.00     0.116 C 
BRANCH   3   4
ATOM      4  N   UNL     1       7.525  -8.087   0.092  1.00  0.00    -0.352 N 
ATOM      5  C   UNL     1       8.057  -6.832  -0.041  1.00  0.00     0.251 C 
ATOM      6  O   UNL     1       9.280  -6.743  -0.162  1.00  0.00    -0.269 OA
ATOM      7  H   UNL     1       8.203  -8.799   0.137  1.00  0.00     0.163 HD
BRANCH   5   8
ATOM      8  C   UNL     1       7.247  -5.586   0.043  1.00  0.00     0.039 A 
ATOM      9  C   UNL     1       5.825  -3.200   0.533  1.00  0.00     0.040 A 
ATOM     10  C   UNL     1       7.194  -3.264   0.782  1.00  0.00     0.027 A 
ATOM     11  C   UNL     1       5.204  -4.291  -0.088  1.00  0.00     0.027 A 
ATOM     12  C   UNL     1       7.893  -4.454   0.564  1.00  0.00     0.016 A 
ATOM     13  C   UNL     1       5.916  -5.466  -0.357  1.00  0.00     0.016 A 
BRANCH   9  14
ATOM     14  N   UNL     1       5.122  -2.009   0.797  1.00  0.00    -0.334 N 
ATOM     15  H   UNL     1       5.489  -1.174   0.427  1.00  0.00     0.168 HD
BRANCH  14  16
ATOM     16  C   UNL     1       3.934  -1.921   1.552  1.00  0.00     0.215 A 
ATOM     17  C   UNL     1       1.949  -0.833   2.274  1.00  0.00     0.225 A 
ATOM     18  N   UNL     1       1.657  -1.879   3.075  1.00  0.00    -0.212 NA
ATOM     19  C   UNL     1       3.138  -0.787   1.575  1.00  0.00     0.354 A 
ATOM     20  C   UNL     1       2.508  -2.905   3.069  1.00  0.00     0.227 A 
ATOM     21  N   UNL     1       3.610  -2.986   2.321  1.00  0.00    -0.212 NA
BRANCH  17  22
ATOM     22  N   UNL     1       0.879   0.060   2.166  1.00  0.00    -0.298 N 
ATOM     23  H   UNL     1       0.403   0.296   2.994  1.00  0.00     0.184 HD
BRANCH  22  24
ATOM     24  N   UNL     1       0.422   0.657   0.957  1.00  0.00    -0.228 NA
ATOM     25  C   UNL     1       0.385  -0.302  -0.163  1.00  0.00     0.130 C 
ATOM     26  C   UNL     1      -0.969   1.094   1.204  1.00  0.00     0.130 C 
ENDBRANCH  22  24
ENDBRANCH  17  22
BRANCH  19  27
ATOM     27  N   UNL     1       3.572   0.414   0.926  1.00  0.00     0.070 N 
ATOM     28  O   UNL     1       3.953   0.312  -0.253  1.00  0.00    -0.258 OA
ATOM     29  O   UNL     1       3.654   1.444   1.610  1.00  0.00    -0.258 OA
ENDBRANCH  19  27
ENDBRANCH  14  16
ENDBRANCH   9  14
ENDBRANCH   5   8
ENDBRANCH   3   4
ENDBRANCH   2   3
ENDBRANCH   1   2
BRANCH   1  30
ATOM     30  C   UNL     1       5.884 -11.645  -0.415  1.00  0.00     0.002 C 
BRANCH  30  31
ATOM     31  C   UNL     1       4.366 -11.821  -0.330  1.00  0.00     0.021 C 
BRANCH  31  32
ATOM     32  C   UNL     1       3.716 -12.244  -1.643  1.00  0.00     0.116 C 
BRANCH  32  33
ATOM     33  N   UNL     1       4.168 -13.562  -2.058  1.00  0.00    -0.352 N 
ATOM     34  C   UNL     1       3.428 -14.692  -2.304  1.00  0.00     0.251 C 
ATOM     35  H   UNL     1       5.140 -13.658  -2.180  1.00  0.00     0.163 HD
ATOM     36  O   UNL     1       3.985 -15.781  -2.384  1.00  0.00    -0.269 OA
BRANCH  34  37
ATOM     37  C   UNL     1       1.961 -14.585  -2.458  1.00  0.00     0.039 A 
ATOM     38  C   UNL     1       1.141 -15.527  -1.833  1.00  0.00     0.014 A 
ATOM     39  C   UNL     1       1.399 -13.559  -3.223  1.00  0.00     0.014 A 
ATOM     40  C   UNL     1      -0.246 -15.408  -1.934  1.00  0.00     0.010 A 
ATOM     41  C   UNL     1       0.017 -13.399  -3.260  1.00  0.00     0.010 A 
ATOM     42  C   UNL     1      -0.821 -14.326  -2.620  1.00  0.00    -0.014 A 
BRANCH  42  43
ATOM     43  C   UNL     1      -2.295 -14.152  -2.689  1.00  0.00     0.031 A 
ATOM     44  C   UNL     1      -2.999 -14.214  -4.017  1.00  0.00     0.074 A 
ATOM     45  C   UNL     1      -2.988 -13.886  -1.564  1.00  0.00     0.049 A 
ATOM     46  N   UNL     1      -4.262 -14.013  -4.295  1.00  0.00    -0.248 NA
ATOM     47  C   UNL     1      -2.167 -14.512  -5.192  1.00  0.00     0.031 C 
ATOM     48  C   UNL     1      -2.408 -13.768  -0.224  1.00  0.00     0.029 A 
ATOM     49  N   UNL     1      -4.327 -13.659  -1.365  1.00  0.00    -0.354 N 
ATOM     50  C   UNL     1      -4.375 -14.154  -5.674  1.00  0.00     0.074 A 
ATOM     51  C   UNL     1      -3.040 -14.389  -6.181  1.00  0.00     0.031 C 
ATOM     52  C   UNL     1      -3.388 -13.516   0.659  1.00  0.00     0.029 A 
ATOM     53  C   UNL     1      -4.656 -13.402  -0.053  1.00  0.00     0.049 A 
ATOM     54  H   UNL     1      -4.990 -13.678  -2.092  1.00  0.00     0.167 HD
ATOM     55  C   UNL     1      -5.492 -14.114  -6.442  1.00  0.00     0.034 A 
ATOM     56  C   UNL     1      -5.842 -13.094   0.508  1.00  0.00     0.034 A 
ATOM     57  C   UNL     1      -6.816 -13.886  -5.918  1.00  0.00     0.049 A 
ATOM     58  C   UNL     1      -7.065 -13.020  -0.373  1.00  0.00     0.074 A 
ATOM     59  C   UNL     1      -8.021 -13.869  -6.598  1.00  0.00     0.029 A 
ATOM     60  N   UNL     1      -7.111 -13.626  -4.585  1.00  0.00    -0.354 N 
ATOM     61  N   UNL     1      -7.161 -13.200  -1.670  1.00  0.00    -0.248 NA
ATOM     62  C   UNL     1      -8.340 -12.714   0.287  1.00  0.00     0.031 C 
ATOM     63  C   UNL     1      -9.032 -13.528  -5.693  1.00  0.00     0.029 A 
ATOM     64  C   UNL     1      -8.473 -13.416  -4.430  1.00  0.00     0.049 A 
ATOM     65  H   UNL     1      -6.449 -13.596  -3.856  1.00  0.00     0.167 HD
ATOM     66  C   UNL     1      -8.513 -13.063  -1.973  1.00  0.00     0.074 A 
ATOM     67  C   UNL     1      -9.193 -12.803  -0.722  1.00  0.00     0.031 C 
ATOM     68  C   UNL     1      -9.137 -13.149  -3.176  1.00  0.00     0.034 A 
BRANCH  55  69
ATOM     69  C   UNL     1      -5.320 -14.301  -7.932  1.00  0.00     0.023 A 
ATOM     70  C   UNL     1      -4.812 -15.495  -8.473  1.00  0.00     0.031 A 
ATOM     71  C   UNL     1      -5.654 -13.266  -8.824  1.00  0.00     0.131 A 
ATOM     72  C   UNL     1      -4.585 -15.598  -9.854  1.00  0.00     0.055 A 
ATOM     73  C   UNL     1      -5.505 -13.407 -10.205  1.00  0.00     0.041 A 
ATOM     74  F   UNL     1      -6.122 -12.094  -8.367  1.00  0.00    -0.206 F 
ATOM     75  C   UNL     1      -4.953 -14.573 -10.727  1.00  0.00     0.022 A 
BRANCH  72  76
ATOM     76  S   UNL     1      -3.668 -17.035 -10.474  1.00  0.00     0.124 S 
ATOM     77  O   UNL     1      -2.408 -16.917  -9.744  1.00  0.00    -0.237 OA
ATOM     78  O   UNL     1      -4.527 -18.148 -10.090  1.00  0.00    -0.237 OA
ATOM     79  O   UNL     1      -3.572 -16.786 -11.911  1.00  0.00    -0.744 OA
ENDBRANCH  72  76
ENDBRANCH  55  69
BRANCH  56  80
ATOM     80  C   UNL     1      -5.939 -12.814   1.971  1.00  0.00     0.023 A 
ATOM     81  C   UNL     1      -6.716 -13.624   2.814  1.00  0.00     0.031 A 
ATOM     82  C   UNL     1      -5.298 -11.698   2.539  1.00  0.00     0.131 A 
ATOM     83  C   UNL     1      -6.880 -13.276   4.164  1.00  0.00     0.055 A 
ATOM     84  C   UNL     1      -5.412 -11.392   3.897  1.00  0.00     0.041 A 
ATOM     85  F   UNL     1      -4.540 -10.890   1.781  1.00  0.00    -0.206 F 
ATOM     86  C   UNL     1      -6.221 -12.175   4.714  1.00  0.00     0.022 A 
BRANCH  83  87
ATOM     87  S   UNL     1      -8.054 -14.226   5.169  1.00  0.00     0.124 S 
ATOM     88  O   UNL     1      -9.287 -14.074   4.404  1.00  0.00    -0.237 OA
ATOM     89  O   UNL     1      -7.452 -15.555   5.161  1.00  0.00    -0.237 OA
ATOM     90  O   UNL     1      -8.029 -13.540   6.458  1.00  0.00    -0.744 OA
ENDBRANCH  83  87
ENDBRANCH  56  80
BRANCH  68  91
ATOM     91  C   UNL     1     -10.641 -13.007  -3.182  1.00  0.00     0.023 A 
ATOM     92  C   UNL     1     -11.274 -11.801  -2.836  1.00  0.00     0.031 A 
ATOM     93  C   UNL     1     -11.451 -14.102  -3.531  1.00  0.00     0.131 A 
ATOM     94  C   UNL     1     -12.675 -11.735  -2.788  1.00  0.00     0.055 A 
ATOM     95  C   UNL     1     -12.843 -14.012  -3.547  1.00  0.00     0.041 A 
ATOM     96  F   UNL     1     -10.901 -15.280  -3.867  1.00  0.00    -0.206 F 
ATOM     97  C   UNL     1     -13.463 -12.827  -3.160  1.00  0.00     0.022 A 
BRANCH  94  98
ATOM     98  S   UNL     1     -13.454 -10.232  -2.138  1.00  0.00     0.124 S 
ATOM     99  O   UNL     1     -12.879 -10.147  -0.800  1.00  0.00    -0.237 OA
ATOM    100  O   UNL     1     -13.012  -9.216  -3.087  1.00  0.00    -0.237 OA
ATOM    101  O   UNL     1     -14.882 -10.540  -2.181  1.00  0.00    -0.744 OA
ENDBRANCH  94  98
ENDBRANCH  68  91
ENDBRANCH  42  43
ENDBRANCH  34  37
ENDBRANCH  32  33
ENDBRANCH  31  32
ENDBRANCH  30  31
ENDBRANCH   1  30
TORSDOF 21
