REMARK SMILES Cc1nsc(NC(=O)[C@@H]2C=C[C@@H]([NH3+])C2)c1C(=O)NCCCCCCNC(=O)c1ccc(-c2c3nc(c(-c4cc(S(=O)(=O)[O-])ccc4F)c4ccc([nH]4)c(-c4cc(S(=O)(=O)[O-])ccc4F)c4nc(c(-c5cc(S(=O)(=O)[O-])ccc5F)c5ccc2[nH]5)C=C4)C=C3)cc1
REMARK SMILES IDX 21 1 20 2 19 3 18 4 16 5 17 6 15 8 1 9 2 10 3 11 4 12 5 13
REMARK SMILES IDX 6 14 7 15 8 17 9 18 10 19 14 20 11 21 12 22 13 23 22 27
REMARK SMILES IDX 23 28 24 29 25 30 26 31 27 33 28 34 29 35 90 36 30 37 89 38
REMARK SMILES IDX 31 39 32 40 33 41 83 42 34 43 88 44 82 45 84 46 35 47 87 48
REMARK SMILES IDX 81 49 80 50 36 52 68 53 48 54 67 55 49 56 52 57 66 58 85 59
REMARK SMILES IDX 50 60 51 61 65 63 86 64 53 65 37 66 38 67 46 68 39 69 45 70
REMARK SMILES IDX 47 71 44 72 40 73 41 74 42 75 43 76 69 77 70 78 78 79 71 80
REMARK SMILES IDX 77 81 79 82 76 83 72 84 73 85 74 86 75 87 54 88 55 89 63 90
REMARK SMILES IDX 56 91 62 92 64 93 61 94 57 95 58 96 59 97 60 98
REMARK H PARENT 18 7 6 16 13 24 13 25 13 26 25 32 84 51 52 62
REMARK Flexibility Score: inf
ROOT
ATOM      1  C   UNL     1      -9.801   4.065  -8.560  1.00  0.00     0.002 C 
ENDROOT
BRANCH   1   2
ATOM      2  C   UNL     1      -8.709   4.312  -7.522  1.00  0.00     0.021 C 
BRANCH   2   3
ATOM      3  C   UNL     1      -8.014   3.103  -6.916  1.00  0.00     0.116 C 
BRANCH   3   4
ATOM      4  N   UNL     1      -7.304   2.236  -7.826  1.00  0.00    -0.352 N 
ATOM      5  C   UNL     1      -6.152   1.510  -7.627  1.00  0.00     0.256 C 
ATOM      6  O   UNL     1      -5.768   0.805  -8.564  1.00  0.00    -0.269 OA
ATOM      7  H   UNL     1      -7.702   2.153  -8.722  1.00  0.00     0.163 HD
BRANCH   5   8
ATOM      8  C   UNL     1      -5.340   1.649  -6.413  1.00  0.00     0.097 A 
ATOM      9  C   UNL     1      -7.038   1.713  -4.360  1.00  0.00     0.069 C 
ATOM     10  C   UNL     1      -5.704   1.834  -5.014  1.00  0.00     0.066 A 
ATOM     11  N   UNL     1      -4.698   2.122  -4.185  1.00  0.00    -0.195 NA
ATOM     12  S   UNL     1      -3.288   2.057  -5.020  1.00  0.00    -0.017 S 
ATOM     13  C   UNL     1      -3.959   1.433  -6.448  1.00  0.00     0.129 A 
BRANCH  13  14
ATOM     14  N   UNL     1      -3.201   0.913  -7.482  1.00  0.00    -0.315 N 
ATOM     15  C   UNL     1      -1.969   0.314  -7.502  1.00  0.00     0.232 C 
ATOM     16  H   UNL     1      -3.626   0.986  -8.367  1.00  0.00     0.170 HD
ATOM     17  O   UNL     1      -1.528  -0.018  -8.611  1.00  0.00    -0.274 OA
BRANCH  15  18
ATOM     18  C   UNL     1      -1.168   0.026  -6.220  1.00  0.00     0.107 C 
ATOM     19  C   UNL     1       0.095  -0.758  -6.473  1.00  0.00    -0.012 C 
ATOM     20  C   UNL     1      -1.899  -0.893  -5.223  1.00  0.00     0.087 C 
ATOM     21  C   UNL     1       0.033  -2.006  -5.993  1.00  0.00     0.033 C 
ATOM     22  C   UNL     1      -1.291  -2.291  -5.380  1.00  0.00     0.205 C 
BRANCH  22  23
ATOM     23  N   UNL     1      -1.190  -2.965  -4.098  1.00  0.00    -0.352 N 
ATOM     24  H   UNL     1      -0.639  -2.394  -3.457  1.00  0.00     0.345 HD
ATOM     25  H   UNL     1      -0.735  -3.869  -4.225  1.00  0.00     0.345 HD
ATOM     26  H   UNL     1      -2.124  -3.104  -3.713  1.00  0.00     0.345 HD
ENDBRANCH  22  23
ENDBRANCH  15  18
ENDBRANCH  13  14
ENDBRANCH   5   8
ENDBRANCH   3   4
ENDBRANCH   2   3
ENDBRANCH   1   2
BRANCH   1  27
ATOM     27  C   UNL     1     -10.860   2.990  -8.276  1.00  0.00     0.002 C 
BRANCH  27  28
ATOM     28  C   UNL     1     -11.615   3.018  -6.940  1.00  0.00     0.021 C 
BRANCH  28  29
ATOM     29  C   UNL     1     -12.303   4.327  -6.593  1.00  0.00     0.116 C 
BRANCH  29  30
ATOM     30  N   UNL     1     -13.335   4.733  -7.551  1.00  0.00    -0.352 N 
ATOM     31  C   UNL     1     -14.076   5.905  -7.574  1.00  0.00     0.251 C 
ATOM     32  H   UNL     1     -13.527   4.090  -8.272  1.00  0.00     0.163 HD
ATOM     33  O   UNL     1     -15.160   5.939  -8.161  1.00  0.00    -0.269 OA
BRANCH  31  34
ATOM     34  C   UNL     1     -13.551   7.104  -6.892  1.00  0.00     0.039 A 
ATOM     35  C   UNL     1     -14.362   8.075  -6.297  1.00  0.00     0.014 A 
ATOM     36  C   UNL     1     -12.170   7.233  -6.846  1.00  0.00     0.014 A 
ATOM     37  C   UNL     1     -13.747   9.135  -5.626  1.00  0.00     0.010 A 
ATOM     38  C   UNL     1     -11.590   8.078  -5.951  1.00  0.00     0.010 A 
ATOM     39  C   UNL     1     -12.352   9.118  -5.460  1.00  0.00    -0.014 A 
BRANCH  39  40
ATOM     40  C   UNL     1     -11.616  10.130  -4.726  1.00  0.00     0.031 A 
ATOM     41  C   UNL     1     -12.000  10.230  -3.306  1.00  0.00     0.074 A 
ATOM     42  C   UNL     1     -10.511  10.739  -5.211  1.00  0.00     0.049 A 
ATOM     43  N   UNL     1     -12.794  11.103  -2.792  1.00  0.00    -0.248 NA
ATOM     44  C   UNL     1     -11.647   9.134  -2.392  1.00  0.00     0.031 C 
ATOM     45  C   UNL     1      -9.806  10.511  -6.479  1.00  0.00     0.029 A 
ATOM     46  N   UNL     1      -9.714  11.649  -4.595  1.00  0.00    -0.354 N 
ATOM     47  C   UNL     1     -12.813  10.839  -1.431  1.00  0.00     0.074 A 
ATOM     48  C   UNL     1     -12.323   9.493  -1.297  1.00  0.00     0.031 C 
ATOM     49  C   UNL     1      -8.587  11.099  -6.434  1.00  0.00     0.029 A 
ATOM     50  C   UNL     1      -8.484  11.871  -5.208  1.00  0.00     0.049 A 
ATOM     51  H   UNL     1      -9.986  12.119  -3.773  1.00  0.00     0.167 HD
ATOM     52  C   UNL     1     -12.974  11.850  -0.534  1.00  0.00     0.034 A 
ATOM     53  C   UNL     1      -7.455  12.621  -4.722  1.00  0.00     0.034 A 
ATOM     54  C   UNL     1     -13.326  13.082  -1.217  1.00  0.00     0.049 A 
ATOM     55  C   UNL     1      -8.068  13.588  -3.769  1.00  0.00     0.074 A 
ATOM     56  C   UNL     1     -14.352  13.457  -2.065  1.00  0.00     0.029 A 
ATOM     57  N   UNL     1     -12.325  14.012  -1.418  1.00  0.00    -0.354 N 
ATOM     58  N   UNL     1      -8.913  14.512  -4.146  1.00  0.00    -0.248 NA
ATOM     59  C   UNL     1      -8.171  13.201  -2.368  1.00  0.00     0.031 C 
ATOM     60  C   UNL     1     -13.719  14.240  -3.077  1.00  0.00     0.029 A 
ATOM     61  C   UNL     1     -12.373  14.396  -2.737  1.00  0.00     0.049 A 
ATOM     62  H   UNL     1     -11.691  14.340  -0.740  1.00  0.00     0.167 HD
ATOM     63  C   UNL     1      -9.924  14.487  -3.195  1.00  0.00     0.074 A 
ATOM     64  C   UNL     1      -9.363  13.732  -2.072  1.00  0.00     0.031 C 
ATOM     65  C   UNL     1     -11.214  14.810  -3.514  1.00  0.00     0.034 A 
BRANCH  52  66
ATOM     66  C   UNL     1     -12.465  11.865   0.888  1.00  0.00     0.023 A 
ATOM     67  C   UNL     1     -12.755  13.016   1.644  1.00  0.00     0.031 A 
ATOM     68  C   UNL     1     -11.514  10.986   1.450  1.00  0.00     0.131 A 
ATOM     69  C   UNL     1     -12.035  13.318   2.809  1.00  0.00     0.055 A 
ATOM     70  C   UNL     1     -10.850  11.255   2.651  1.00  0.00     0.041 A 
ATOM     71  F   UNL     1     -11.102   9.870   0.840  1.00  0.00    -0.206 F 
ATOM     72  C   UNL     1     -11.080  12.445   3.319  1.00  0.00     0.022 A 
BRANCH  69  73
ATOM     73  S   UNL     1     -12.241  14.965   3.530  1.00  0.00     0.124 S 
ATOM     74  O   UNL     1     -11.931  15.822   2.391  1.00  0.00    -0.237 OA
ATOM     75  O   UNL     1     -13.637  14.934   3.952  1.00  0.00    -0.237 OA
ATOM     76  O   UNL     1     -11.261  14.984   4.612  1.00  0.00    -0.744 OA
ENDBRANCH  69  73
ENDBRANCH  52  66
BRANCH  53  77
ATOM     77  C   UNL     1      -5.993  12.313  -4.783  1.00  0.00     0.023 A 
ATOM     78  C   UNL     1      -4.987  13.259  -4.474  1.00  0.00     0.031 A 
ATOM     79  C   UNL     1      -5.566  10.971  -4.916  1.00  0.00     0.131 A 
ATOM     80  C   UNL     1      -3.639  12.848  -4.307  1.00  0.00     0.055 A 
ATOM     81  C   UNL     1      -4.237  10.572  -4.748  1.00  0.00     0.041 A 
ATOM     82  F   UNL     1      -6.444   9.978  -5.129  1.00  0.00    -0.206 F 
ATOM     83  C   UNL     1      -3.268  11.507  -4.431  1.00  0.00     0.022 A 
BRANCH  80  84
ATOM     84  S   UNL     1      -2.344  14.040  -3.822  1.00  0.00     0.124 S 
ATOM     85  O   UNL     1      -2.157  14.809  -5.047  1.00  0.00    -0.237 OA
ATOM     86  O   UNL     1      -2.961  14.741  -2.702  1.00  0.00    -0.237 OA
ATOM     87  O   UNL     1      -1.213  13.186  -3.456  1.00  0.00    -0.744 OA
ENDBRANCH  80  84
ENDBRANCH  53  77
BRANCH  65  88
ATOM     88  C   UNL     1     -11.495  15.462  -4.858  1.00  0.00     0.023 A 
ATOM     89  C   UNL     1     -11.157  14.913  -6.118  1.00  0.00     0.031 A 
ATOM     90  C   UNL     1     -12.269  16.636  -4.852  1.00  0.00     0.131 A 
ATOM     91  C   UNL     1     -11.587  15.545  -7.304  1.00  0.00     0.055 A 
ATOM     92  C   UNL     1     -12.714  17.243  -6.025  1.00  0.00     0.041 A 
ATOM     93  F   UNL     1     -12.645  17.197  -3.690  1.00  0.00    -0.206 F 
ATOM     94  C   UNL     1     -12.370  16.702  -7.257  1.00  0.00     0.022 A 
BRANCH  91  95
ATOM     95  S   UNL     1     -11.119  14.884  -8.938  1.00  0.00     0.124 S 
ATOM     96  O   UNL     1      -9.687  14.642  -8.812  1.00  0.00    -0.237 OA
ATOM     97  O   UNL     1     -11.960  13.696  -9.053  1.00  0.00    -0.237 OA
ATOM     98  O   UNL     1     -11.474  15.969  -9.857  1.00  0.00    -0.744 OA
ENDBRANCH  91  95
ENDBRANCH  65  88
ENDBRANCH  39  40
ENDBRANCH  31  34
ENDBRANCH  29  30
ENDBRANCH  28  29
ENDBRANCH  27  28
ENDBRANCH   1  27
TORSDOF 19
