REMARK SMILES Cc1ccc(/[NH+]=C2/S[C@@H](CC(=O)Nc3ccc(C(=O)NCCCCCCNC(=O)c4ccc(-c5c6nc(c(-c7cc(S(=O)(=O)[O-])ccc7F)c7ccc([nH]7)c(-c7cc(S(=O)(=O)[O-])ccc7F)c7nc(c(-c8cc(S(=O)(=O)[O-])ccc8F)c8ccc5[nH]8)C=C7)C=C6)cc4)cc3)C(=O)N2C)cc1
REMARK SMILES IDX 23 1 22 2 21 3 20 4 18 5 19 6 17 8 14 9 15 10 94 11 16 12
REMARK SMILES IDX 93 13 13 14 11 15 12 16 10 18 9 19 6 20 7 21 8 23 97 24
REMARK SMILES IDX 95 25 98 26 96 27 5 28 1 29 2 30 3 31 100 32 4 33 99 34
REMARK SMILES IDX 24 35 25 36 26 37 27 38 28 39 29 41 30 42 31 43 92 44 32 45
REMARK SMILES IDX 91 46 33 47 34 48 35 49 85 50 36 51 90 52 84 53 86 54 37 55
REMARK SMILES IDX 89 56 83 57 82 58 38 60 70 61 50 62 69 63 51 64 54 65 68 66
REMARK SMILES IDX 87 67 52 68 53 69 67 71 88 72 55 73 39 74 40 75 48 76 41 77
REMARK SMILES IDX 47 78 49 79 46 80 42 81 43 82 44 83 45 84 71 85 72 86 80 87
REMARK SMILES IDX 73 88 79 89 81 90 78 91 74 92 75 93 76 94 77 95 56 96 57 97
REMARK SMILES IDX 65 98 58 99 64 100 66 101 63 102 59 103 60 104 61 105 62 106
REMARK H PARENT 20 7 13 17 6 22 27 40 86 59 54 70
REMARK Flexibility Score: inf
ROOT
ATOM      1  C   UNL     1       0.839   1.970   2.935  1.00  0.00     0.002 C 
ENDROOT
BRANCH   1   2
ATOM      2  C   UNL     1      -0.292   2.423   1.996  1.00  0.00     0.021 C 
BRANCH   2   3
ATOM      3  C   UNL     1      -1.636   2.790   2.639  1.00  0.00     0.116 C 
BRANCH   3   4
ATOM      4  N   UNL     1      -1.630   4.073   3.329  1.00  0.00    -0.352 N 
ATOM      5  C   UNL     1      -2.467   5.162   3.251  1.00  0.00     0.251 C 
ATOM      6  O   UNL     1      -2.217   6.162   3.923  1.00  0.00    -0.269 OA
ATOM      7  H   UNL     1      -0.889   4.181   3.969  1.00  0.00     0.163 HD
BRANCH   5   8
ATOM      8  C   UNL     1      -3.658   5.201   2.360  1.00  0.00     0.039 A 
ATOM      9  C   UNL     1      -5.879   5.387   0.602  1.00  0.00     0.041 A 
ATOM     10  C   UNL     1      -5.647   4.229   1.345  1.00  0.00     0.027 A 
ATOM     11  C   UNL     1      -5.035   6.486   0.822  1.00  0.00     0.027 A 
ATOM     12  C   UNL     1      -4.553   4.139   2.227  1.00  0.00     0.016 A 
ATOM     13  C   UNL     1      -3.936   6.395   1.687  1.00  0.00     0.016 A 
BRANCH   9  14
ATOM     14  N   UNL     1      -6.877   5.567  -0.378  1.00  0.00    -0.326 N 
ATOM     15  C   UNL     1      -7.666   4.746  -1.126  1.00  0.00     0.226 C 
ATOM     16  O   UNL     1      -8.441   5.276  -1.932  1.00  0.00    -0.275 OA
ATOM     17  H   UNL     1      -7.044   6.518  -0.568  1.00  0.00     0.169 HD
BRANCH  15  18
ATOM     18  C   UNL     1      -7.604   3.241  -1.063  1.00  0.00     0.128 C 
BRANCH  18  19
ATOM     19  C   UNL     1      -6.507   2.643  -1.936  1.00  0.00     0.183 C 
ATOM     20  N   UNL     1      -3.673   0.158  -1.504  1.00  0.00    -0.235 N 
ATOM     21  C   UNL     1      -4.422   1.207  -1.446  1.00  0.00     0.319 C 
ATOM     22  H   UNL     1      -4.103  -0.727  -1.451  1.00  0.00     0.313 HD
ATOM     23  S   UNL     1      -6.155   0.936  -1.431  1.00  0.00    -0.022 SA
ATOM     24  N   UNL     1      -4.159   2.549  -1.415  1.00  0.00    -0.193 N 
ATOM     25  C   UNL     1      -5.173   3.353  -1.887  1.00  0.00     0.324 C 
ATOM     26  C   UNL     1      -2.909   3.202  -1.067  1.00  0.00     0.301 C 
ATOM     27  O   UNL     1      -5.008   4.497  -2.299  1.00  0.00    -0.245 OA
BRANCH  20  28
ATOM     28  C   UNL     1      -2.286   0.213  -1.637  1.00  0.00     0.125 A 
ATOM     29  C   UNL     1       1.888   1.026  -1.273  1.00  0.00     0.044 C 
ATOM     30  C   UNL     1       0.476   0.603  -1.525  1.00  0.00    -0.051 A 
ATOM     31  C   UNL     1      -0.133  -0.369  -0.733  1.00  0.00     0.008 A 
ATOM     32  C   UNL     1      -0.276   1.246  -2.504  1.00  0.00     0.008 A 
ATOM     33  C   UNL     1      -1.511  -0.553  -0.773  1.00  0.00     0.052 A 
ATOM     34  C   UNL     1      -1.645   1.003  -2.596  1.00  0.00     0.052 A 
ENDBRANCH  20  28
ENDBRANCH  18  19
ENDBRANCH  15  18
ENDBRANCH   9  14
ENDBRANCH   5   8
ENDBRANCH   3   4
ENDBRANCH   2   3
ENDBRANCH   1   2
BRANCH   1  35
ATOM     35  C   UNL     1       0.614   0.663   3.713  1.00  0.00     0.002 C 
BRANCH  35  36
ATOM     36  C   UNL     1       0.629  -0.645   2.905  1.00  0.00     0.021 C 
BRANCH  36  37
ATOM     37  C   UNL     1       2.025  -1.151   2.487  1.00  0.00     0.116 C 
BRANCH  37  38
ATOM     38  N   UNL     1       2.203  -2.566   2.856  1.00  0.00    -0.352 N 
ATOM     39  C   UNL     1       2.782  -3.618   2.182  1.00  0.00     0.251 C 
ATOM     40  H   UNL     1       1.845  -2.800   3.743  1.00  0.00     0.163 HD
ATOM     41  O   UNL     1       2.916  -4.727   2.694  1.00  0.00    -0.269 OA
BRANCH  39  42
ATOM     42  C   UNL     1       3.296  -3.389   0.825  1.00  0.00     0.039 A 
ATOM     43  C   UNL     1       4.679  -3.337   0.639  1.00  0.00     0.014 A 
ATOM     44  C   UNL     1       2.420  -3.044  -0.198  1.00  0.00     0.014 A 
ATOM     45  C   UNL     1       5.185  -2.700  -0.490  1.00  0.00     0.010 A 
ATOM     46  C   UNL     1       2.927  -2.384  -1.310  1.00  0.00     0.010 A 
ATOM     47  C   UNL     1       4.300  -2.106  -1.396  1.00  0.00    -0.014 A 
BRANCH  47  48
ATOM     48  C   UNL     1       4.714  -0.945  -2.198  1.00  0.00     0.031 A 
ATOM     49  C   UNL     1       4.702  -0.911  -3.675  1.00  0.00     0.074 A 
ATOM     50  C   UNL     1       5.074   0.196  -1.559  1.00  0.00     0.049 A 
ATOM     51  N   UNL     1       5.463  -0.136  -4.378  1.00  0.00    -0.248 NA
ATOM     52  C   UNL     1       3.855  -1.763  -4.490  1.00  0.00     0.031 C 
ATOM     53  C   UNL     1       5.245   1.529  -2.138  1.00  0.00     0.029 A 
ATOM     54  N   UNL     1       5.519   0.346  -0.255  1.00  0.00    -0.354 N 
ATOM     55  C   UNL     1       5.007  -0.144  -5.675  1.00  0.00     0.074 A 
ATOM     56  C   UNL     1       4.068  -1.246  -5.707  1.00  0.00     0.031 C 
ATOM     57  C   UNL     1       5.974   2.280  -1.301  1.00  0.00     0.029 A 
ATOM     58  C   UNL     1       6.404   1.428  -0.211  1.00  0.00     0.049 A 
ATOM     59  H   UNL     1       5.257  -0.214   0.511  1.00  0.00     0.167 HD
ATOM     60  C   UNL     1       5.376   0.862  -6.526  1.00  0.00     0.034 A 
ATOM     61  C   UNL     1       7.693   1.261   0.198  1.00  0.00     0.034 A 
ATOM     62  C   UNL     1       6.322   1.800  -5.899  1.00  0.00     0.049 A 
ATOM     63  C   UNL     1       8.717   1.565  -0.872  1.00  0.00     0.074 A 
ATOM     64  C   UNL     1       6.214   3.108  -5.451  1.00  0.00     0.029 A 
ATOM     65  N   UNL     1       7.566   1.350  -5.465  1.00  0.00    -0.354 N 
ATOM     66  N   UNL     1       8.436   1.790  -2.126  1.00  0.00    -0.248 NA
ATOM     67  C   UNL     1      10.149   1.602  -0.611  1.00  0.00     0.031 C 
ATOM     68  C   UNL     1       7.399   3.436  -4.739  1.00  0.00     0.029 A 
ATOM     69  C   UNL     1       8.236   2.334  -4.759  1.00  0.00     0.049 A 
ATOM     70  H   UNL     1       7.923   0.448  -5.637  1.00  0.00     0.167 HD
ATOM     71  C   UNL     1       9.598   1.937  -2.848  1.00  0.00     0.074 A 
ATOM     72  C   UNL     1      10.639   1.845  -1.838  1.00  0.00     0.031 C 
ATOM     73  C   UNL     1       9.573   2.092  -4.211  1.00  0.00     0.034 A 
BRANCH  60  74
ATOM     74  C   UNL     1       4.696   1.179  -7.856  1.00  0.00     0.023 A 
ATOM     75  C   UNL     1       4.787   2.486  -8.395  1.00  0.00     0.031 A 
ATOM     76  C   UNL     1       3.928   0.284  -8.626  1.00  0.00     0.131 A 
ATOM     77  C   UNL     1       4.066   2.872  -9.545  1.00  0.00     0.055 A 
ATOM     78  C   UNL     1       3.171   0.677  -9.741  1.00  0.00     0.041 A 
ATOM     79  F   UNL     1       3.922  -1.031  -8.387  1.00  0.00    -0.206 F 
ATOM     80  C   UNL     1       3.226   1.981 -10.199  1.00  0.00     0.022 A 
BRANCH  77  81
ATOM     81  S   UNL     1       4.236   4.566 -10.178  1.00  0.00     0.124 S 
ATOM     82  O   UNL     1       3.811   5.367  -9.035  1.00  0.00    -0.237 OA
ATOM     83  O   UNL     1       5.651   4.628 -10.523  1.00  0.00    -0.237 OA
ATOM     84  O   UNL     1       3.322   4.594 -11.320  1.00  0.00    -0.744 OA
ENDBRANCH  77  81
ENDBRANCH  60  74
BRANCH  61  85
ATOM     85  C   UNL     1       7.834   0.254   1.286  1.00  0.00     0.023 A 
ATOM     86  C   UNL     1       7.126   0.512   2.479  1.00  0.00     0.031 A 
ATOM     87  C   UNL     1       8.274  -1.055   1.052  1.00  0.00     0.131 A 
ATOM     88  C   UNL     1       6.735  -0.542   3.313  1.00  0.00     0.055 A 
ATOM     89  C   UNL     1       7.939  -2.098   1.926  1.00  0.00     0.041 A 
ATOM     90  F   UNL     1       8.915  -1.370  -0.083  1.00  0.00    -0.206 F 
ATOM     91  C   UNL     1       7.128  -1.852   3.037  1.00  0.00     0.022 A 
BRANCH  88  92
ATOM     92  S   UNL     1       5.481  -0.219   4.591  1.00  0.00     0.124 S 
ATOM     93  O   UNL     1       6.302   0.109   5.749  1.00  0.00    -0.237 OA
ATOM     94  O   UNL     1       4.712   0.885   4.019  1.00  0.00    -0.237 OA
ATOM     95  O   UNL     1       4.748  -1.480   4.670  1.00  0.00    -0.744 OA
ENDBRANCH  88  92
ENDBRANCH  61  85
BRANCH  73  96
ATOM     96  C   UNL     1      10.772   2.105  -5.159  1.00  0.00     0.023 A 
ATOM     97  C   UNL     1      12.107   1.966  -4.750  1.00  0.00     0.031 A 
ATOM     98  C   UNL     1      10.598   2.247  -6.561  1.00  0.00     0.131 A 
ATOM     99  C   UNL     1      13.179   2.010  -5.665  1.00  0.00     0.055 A 
ATOM    100  C   UNL     1      11.660   2.256  -7.476  1.00  0.00     0.041 A 
ATOM    101  F   UNL     1       9.386   2.368  -7.119  1.00  0.00    -0.206 F 
ATOM    102  C   UNL     1      12.966   2.147  -7.030  1.00  0.00     0.022 A 
BRANCH  99 103
ATOM    103  S   UNL     1      14.868   1.916  -5.009  1.00  0.00     0.124 S 
ATOM    104  O   UNL     1      14.926   3.092  -4.146  1.00  0.00    -0.237 OA
ATOM    105  O   UNL     1      14.861   0.629  -4.321  1.00  0.00    -0.237 OA
ATOM    106  O   UNL     1      15.709   1.979  -6.202  1.00  0.00    -0.744 OA
ENDBRANCH  99 103
ENDBRANCH  73  96
ENDBRANCH  47  48
ENDBRANCH  39  42
ENDBRANCH  37  38
ENDBRANCH  36  37
ENDBRANCH  35  36
ENDBRANCH   1  35
TORSDOF 20
