REMARK SMILES COc1cc(F)ccc1NCC(C)(C)C(=O)NCCCCCCNC(=O)c1ccc(-c2c3nc(c(-c4cc(S(=O)(=O)[O-])ccc4F)c4ccc([nH]4)c(-c4cc(S(=O)(=O)[O-])ccc4F)c4nc(c(-c5cc(S(=O)(=O)[O-])ccc5F)c5ccc2[nH]5)C=C4)C=C3)cc1
REMARK SMILES IDX 20 1 19 2 18 3 17 4 15 5 16 6 12 8 13 9 14 10 11 11 10 12
REMARK SMILES IDX 9 14 3 15 4 16 5 17 8 18 6 19 7 20 2 21 1 22 21 23 22 24
REMARK SMILES IDX 23 25 24 26 25 27 26 29 27 30 28 31 89 32 29 33 88 34 30 35
REMARK SMILES IDX 31 36 32 37 82 38 33 39 87 40 81 41 83 42 34 43 86 44 80 45
REMARK SMILES IDX 79 46 35 48 67 49 47 50 66 51 48 52 51 53 65 54 84 55 49 56
REMARK SMILES IDX 50 57 64 59 85 60 52 61 36 62 37 63 45 64 38 65 44 66 46 67
REMARK SMILES IDX 43 68 39 69 40 70 41 71 42 72 68 73 69 74 77 75 70 76 76 77
REMARK SMILES IDX 78 78 75 79 71 80 72 81 73 82 74 83 53 84 54 85 62 86 55 87
REMARK SMILES IDX 61 88 63 89 60 90 56 91 57 92 58 93 59 94
REMARK H PARENT 17 7 10 13 24 28 83 47 51 58
REMARK Flexibility Score: inf
ROOT
ATOM      1  C   UNL     1      -2.805   8.117  -4.665  1.00  0.00     0.002 C 
ENDROOT
BRANCH   1   2
ATOM      2  C   UNL     1      -3.765   7.566  -3.603  1.00  0.00     0.021 C 
BRANCH   2   3
ATOM      3  C   UNL     1      -3.600   6.069  -3.337  1.00  0.00     0.116 C 
BRANCH   3   4
ATOM      4  N   UNL     1      -2.341   5.817  -2.664  1.00  0.00    -0.356 N 
ATOM      5  C   UNL     1      -2.053   5.466  -1.382  1.00  0.00     0.227 C 
ATOM      6  O   UNL     1      -0.915   5.758  -1.004  1.00  0.00    -0.274 OA
ATOM      7  H   UNL     1      -1.550   5.918  -3.241  1.00  0.00     0.163 HD
BRANCH   5   8
ATOM      8  C   UNL     1      -3.095   4.809  -0.457  1.00  0.00     0.061 C 
ATOM      9  C   UNL     1      -3.796   3.611  -1.122  1.00  0.00     0.023 C 
ATOM     10  C   UNL     1      -4.119   5.876  -0.015  1.00  0.00     0.023 C 
BRANCH   8  11
ATOM     11  C   UNL     1      -2.410   4.316   0.852  1.00  0.00     0.129 C 
BRANCH  11  12
ATOM     12  N   UNL     1      -1.396   3.293   0.653  1.00  0.00    -0.381 N 
ATOM     13  H   UNL     1      -1.693   2.447   0.247  1.00  0.00     0.160 HD
BRANCH  12  14
ATOM     14  C   UNL     1      -0.050   3.392   0.980  1.00  0.00     0.077 A 
ATOM     15  C   UNL     1       0.816   2.322   0.643  1.00  0.00     0.144 A 
ATOM     16  C   UNL     1       2.177   2.375   0.962  1.00  0.00     0.087 A 
ATOM     17  C   UNL     1       2.679   3.484   1.631  1.00  0.00     0.127 A 
ATOM     18  C   UNL     1       0.500   4.491   1.656  1.00  0.00     0.032 A 
ATOM     19  F   UNL     1       3.983   3.535   1.936  1.00  0.00    -0.207 F 
ATOM     20  C   UNL     1       1.857   4.541   1.981  1.00  0.00     0.041 A 
BRANCH  15  21
ATOM     21  O   UNL     1       0.237   1.286  -0.059  1.00  0.00    -0.494 OA
ATOM     22  C   UNL     1       0.843   0.010   0.106  1.00  0.00     0.278 C 
ENDBRANCH  15  21
ENDBRANCH  12  14
ENDBRANCH  11  12
ENDBRANCH   8  11
ENDBRANCH   5   8
ENDBRANCH   3   4
ENDBRANCH   2   3
ENDBRANCH   1   2
BRANCH   1  23
ATOM     23  C   UNL     1      -2.872   7.408  -6.021  1.00  0.00     0.002 C 
BRANCH  23  24
ATOM     24  C   UNL     1      -4.273   7.319  -6.631  1.00  0.00     0.021 C 
BRANCH  24  25
ATOM     25  C   UNL     1      -4.956   8.666  -6.841  1.00  0.00     0.116 C 
BRANCH  25  26
ATOM     26  N   UNL     1      -4.226   9.499  -7.783  1.00  0.00    -0.352 N 
ATOM     27  C   UNL     1      -4.674  10.098  -8.932  1.00  0.00     0.251 C 
ATOM     28  H   UNL     1      -3.279   9.655  -7.564  1.00  0.00     0.163 HD
ATOM     29  O   UNL     1      -3.866  10.579  -9.725  1.00  0.00    -0.269 OA
BRANCH  27  30
ATOM     30  C   UNL     1      -6.122  10.142  -9.222  1.00  0.00     0.039 A 
ATOM     31  C   UNL     1      -6.565   9.836 -10.510  1.00  0.00     0.014 A 
ATOM     32  C   UNL     1      -7.042  10.482  -8.224  1.00  0.00     0.014 A 
ATOM     33  C   UNL     1      -7.934   9.817 -10.783  1.00  0.00     0.010 A 
ATOM     34  C   UNL     1      -8.408  10.390  -8.479  1.00  0.00     0.010 A 
ATOM     35  C   UNL     1      -8.869  10.058  -9.761  1.00  0.00    -0.014 A 
BRANCH  35  36
ATOM     36  C   UNL     1     -10.330   9.966 -10.019  1.00  0.00     0.031 A 
ATOM     37  C   UNL     1     -11.201  11.184  -9.873  1.00  0.00     0.074 A 
ATOM     38  C   UNL     1     -10.875   8.776 -10.343  1.00  0.00     0.049 A 
ATOM     39  N   UNL     1     -12.500  11.284  -9.984  1.00  0.00    -0.248 NA
ATOM     40  C   UNL     1     -10.529  12.451  -9.539  1.00  0.00     0.031 C 
ATOM     41  C   UNL     1     -10.136   7.520 -10.489  1.00  0.00     0.029 A 
ATOM     42  N   UNL     1     -12.176   8.425 -10.610  1.00  0.00    -0.354 N 
ATOM     43  C   UNL     1     -12.802  12.617  -9.730  1.00  0.00     0.074 A 
ATOM     44  C   UNL     1     -11.557  13.279  -9.408  1.00  0.00     0.031 C 
ATOM     45  C   UNL     1     -10.987   6.547 -10.851  1.00  0.00     0.029 A 
ATOM     46  C   UNL     1     -12.339   7.092 -10.911  1.00  0.00     0.049 A 
ATOM     47  H   UNL     1     -12.922   9.066 -10.587  1.00  0.00     0.167 HD
ATOM     48  C   UNL     1     -14.005  13.235  -9.782  1.00  0.00     0.034 A 
ATOM     49  C   UNL     1     -13.452   6.382 -11.190  1.00  0.00     0.034 A 
ATOM     50  C   UNL     1     -15.236  12.572 -10.130  1.00  0.00     0.049 A 
ATOM     51  C   UNL     1     -14.782   7.088 -11.208  1.00  0.00     0.074 A 
ATOM     52  C   UNL     1     -16.498  13.124 -10.259  1.00  0.00     0.029 A 
ATOM     53  N   UNL     1     -15.362  11.218 -10.404  1.00  0.00    -0.354 N 
ATOM     54  N   UNL     1     -15.044   8.353 -10.975  1.00  0.00    -0.248 NA
ATOM     55  C   UNL     1     -15.965   6.276 -11.523  1.00  0.00     0.031 C 
ATOM     56  C   UNL     1     -17.398  12.095 -10.543  1.00  0.00     0.029 A 
ATOM     57  C   UNL     1     -16.687  10.912 -10.669  1.00  0.00     0.049 A 
ATOM     58  H   UNL     1     -14.621  10.571 -10.409  1.00  0.00     0.167 HD
ATOM     59  C   UNL     1     -16.419   8.492 -11.140  1.00  0.00     0.074 A 
ATOM     60  C   UNL     1     -16.931   7.185 -11.496  1.00  0.00     0.031 C 
ATOM     61  C   UNL     1     -17.186   9.604 -11.014  1.00  0.00     0.034 A 
BRANCH  48  62
ATOM     62  C   UNL     1     -14.064  14.703  -9.451  1.00  0.00     0.023 A 
ATOM     63  C   UNL     1     -13.506  15.671 -10.301  1.00  0.00     0.031 A 
ATOM     64  C   UNL     1     -14.745  15.142  -8.302  1.00  0.00     0.131 A 
ATOM     65  C   UNL     1     -13.617  17.031  -9.977  1.00  0.00     0.055 A 
ATOM     66  C   UNL     1     -14.904  16.498  -8.015  1.00  0.00     0.041 A 
ATOM     67  F   UNL     1     -15.283  14.256  -7.447  1.00  0.00    -0.206 F 
ATOM     68  C   UNL     1     -14.335  17.452  -8.854  1.00  0.00     0.022 A 
BRANCH  65  69
ATOM     69  S   UNL     1     -12.767  18.248 -11.018  1.00  0.00     0.124 S 
ATOM     70  O   UNL     1     -11.366  17.905 -10.784  1.00  0.00    -0.237 OA
ATOM     71  O   UNL     1     -13.284  17.946 -12.348  1.00  0.00    -0.237 OA
ATOM     72  O   UNL     1     -13.191  19.531 -10.461  1.00  0.00    -0.744 OA
ENDBRANCH  65  69
ENDBRANCH  48  62
BRANCH  49  73
ATOM     73  C   UNL     1     -13.357   4.919 -11.456  1.00  0.00     0.023 A 
ATOM     74  C   UNL     1     -13.640   4.393 -12.726  1.00  0.00     0.031 A 
ATOM     75  C   UNL     1     -12.985   4.024 -10.437  1.00  0.00     0.131 A 
ATOM     76  C   UNL     1     -13.572   3.006 -12.938  1.00  0.00     0.055 A 
ATOM     77  C   UNL     1     -12.875   2.651 -10.664  1.00  0.00     0.041 A 
ATOM     78  F   UNL     1     -12.698   4.478  -9.207  1.00  0.00    -0.206 F 
ATOM     79  C   UNL     1     -13.177   2.134 -11.920  1.00  0.00     0.022 A 
BRANCH  76  80
ATOM     80  S   UNL     1     -14.048   2.347 -14.559  1.00  0.00     0.124 S 
ATOM     81  O   UNL     1     -15.454   2.727 -14.631  1.00  0.00    -0.237 OA
ATOM     82  O   UNL     1     -13.143   3.059 -15.455  1.00  0.00    -0.237 OA
ATOM     83  O   UNL     1     -13.793   0.914 -14.431  1.00  0.00    -0.744 OA
ENDBRANCH  76  80
ENDBRANCH  49  73
BRANCH  61  84
ATOM     84  C   UNL     1     -18.659   9.473 -11.293  1.00  0.00     0.023 A 
ATOM     85  C   UNL     1     -19.517   8.792 -10.413  1.00  0.00     0.031 A 
ATOM     86  C   UNL     1     -19.220  10.095 -12.423  1.00  0.00     0.131 A 
ATOM     87  C   UNL     1     -20.890   8.730 -10.690  1.00  0.00     0.055 A 
ATOM     88  C   UNL     1     -20.593  10.072 -12.666  1.00  0.00     0.041 A 
ATOM     89  F   UNL     1     -18.442  10.761 -13.291  1.00  0.00    -0.206 F 
ATOM     90  C   UNL     1     -21.436   9.383 -11.800  1.00  0.00     0.022 A 
BRANCH  87  91
ATOM     91  S   UNL     1     -21.958   7.759  -9.593  1.00  0.00     0.124 S 
ATOM     92  O   UNL     1     -21.442   6.408  -9.789  1.00  0.00    -0.237 OA
ATOM     93  O   UNL     1     -21.698   8.357  -8.287  1.00  0.00    -0.237 OA
ATOM     94  O   UNL     1     -23.300   7.993 -10.124  1.00  0.00    -0.744 OA
ENDBRANCH  87  91
ENDBRANCH  61  84
ENDBRANCH  35  36
ENDBRANCH  27  30
ENDBRANCH  25  26
ENDBRANCH  24  25
ENDBRANCH  23  24
ENDBRANCH   1  23
TORSDOF 20
