REMARK SMILES CC(C)N(CC(=O)NCCCCCCNC(=O)c1ccc(-c2c3nc(c(-c4cc(S(=O)(=O)[O-])ccc4F)c4ccc([nH]4)c(-c4cc(S(=O)(=O)[O-])ccc4F)c4nc(c(-c5cc(S(=O)(=O)[O-])ccc5F)c5ccc2[nH]5)C=C4)C=C3)cc1)C(=O)NC1C(C)(C)C1(C)C
REMARK SMILES IDX 11 1 10 2 9 3 8 4 6 5 7 6 5 8 4 9 2 10 1 11 3 12 81 13 82 14
REMARK SMILES IDX 83 15 84 17 85 18 88 19 86 20 87 21 89 22 90 23 12 24 13 25
REMARK SMILES IDX 14 26 15 27 16 28 17 30 18 31 19 32 80 33 20 34 79 35 21 36
REMARK SMILES IDX 22 37 23 38 73 39 24 40 78 41 72 42 74 43 25 44 77 45 71 46
REMARK SMILES IDX 70 47 26 49 58 50 38 51 57 52 39 53 42 54 56 55 75 56 40 57
REMARK SMILES IDX 41 58 55 60 76 61 43 62 27 63 28 64 36 65 29 66 35 67 37 68
REMARK SMILES IDX 34 69 30 70 31 71 32 72 33 73 59 74 60 75 68 76 61 77 67 78
REMARK SMILES IDX 69 79 66 80 62 81 63 82 64 83 65 84 44 85 45 86 53 87 46 88
REMARK SMILES IDX 52 89 54 90 51 91 47 92 48 93 49 94 50 95
REMARK H PARENT 8 7 83 16 15 29 74 48 42 59
REMARK Flexibility Score: inf
ROOT
ATOM      1  C   UNL     1      -1.012  -2.402   5.856  1.00  0.00     0.002 C 
ENDROOT
BRANCH   1   2
ATOM      2  C   UNL     1      -0.190  -1.802   4.712  1.00  0.00     0.021 C 
BRANCH   2   3
ATOM      3  C   UNL     1       0.238  -2.762   3.616  1.00  0.00     0.116 C 
BRANCH   3   4
ATOM      4  N   UNL     1      -0.855  -3.366   2.913  1.00  0.00    -0.355 N 
ATOM      5  C   UNL     1      -0.753  -3.588   1.571  1.00  0.00     0.239 C 
ATOM      6  O   UNL     1      -0.839  -4.746   1.157  1.00  0.00    -0.273 OA
ATOM      7  H   UNL     1      -1.674  -3.620   3.396  1.00  0.00     0.163 HD
BRANCH   5   8
ATOM      8  C   UNL     1      -0.704  -2.405   0.602  1.00  0.00     0.221 C 
BRANCH   8   9
ATOM      9  N   UNL     1      -0.614  -1.001   0.986  1.00  0.00    -0.313 N 
BRANCH   9  10
ATOM     10  C   UNL     1       0.721  -0.385   0.857  1.00  0.00     0.081 C 
ATOM     11  C   UNL     1       0.844   0.468  -0.404  1.00  0.00     0.031 C 
ATOM     12  C   UNL     1       1.194   0.405   2.078  1.00  0.00     0.031 C 
ENDBRANCH   9  10
BRANCH   9  13
ATOM     13  C   UNL     1      -1.771  -0.241   1.173  1.00  0.00     0.318 C 
ATOM     14  O   UNL     1      -1.768   0.979   1.319  1.00  0.00    -0.249 OA
ATOM     15  N   UNL     1      -2.913  -0.961   1.455  1.00  0.00    -0.334 N 
ATOM     16  H   UNL     1      -2.938  -1.385   2.343  1.00  0.00     0.165 HD
BRANCH  15  17
ATOM     17  C   UNL     1      -4.094  -1.181   0.619  1.00  0.00     0.096 C 
ATOM     18  C   UNL     1      -4.504  -2.229  -0.432  1.00  0.00    -0.007 C 
ATOM     19  C   UNL     1      -4.842  -2.465   1.046  1.00  0.00    -0.007 C 
ATOM     20  C   UNL     1      -5.697  -1.977  -1.343  1.00  0.00     0.014 C 
ATOM     21  C   UNL     1      -3.443  -2.961  -1.226  1.00  0.00     0.014 C 
ATOM     22  C   UNL     1      -4.117  -3.534   1.838  1.00  0.00     0.014 C 
ATOM     23  C   UNL     1      -6.245  -2.277   1.581  1.00  0.00     0.014 C 
ENDBRANCH  15  17
ENDBRANCH   9  13
ENDBRANCH   8   9
ENDBRANCH   5   8
ENDBRANCH   3   4
ENDBRANCH   2   3
ENDBRANCH   1   2
BRANCH   1  24
ATOM     24  C   UNL     1      -0.537  -3.742   6.429  1.00  0.00     0.002 C 
BRANCH  24  25
ATOM     25  C   UNL     1       0.953  -3.872   6.747  1.00  0.00     0.021 C 
BRANCH  25  26
ATOM     26  C   UNL     1       1.537  -2.760   7.600  1.00  0.00     0.116 C 
BRANCH  26  27
ATOM     27  N   UNL     1       1.052  -2.815   8.963  1.00  0.00    -0.352 N 
ATOM     28  C   UNL     1       1.789  -2.900  10.121  1.00  0.00     0.251 C 
ATOM     29  H   UNL     1       0.075  -2.788   9.075  1.00  0.00     0.163 HD
ATOM     30  O   UNL     1       1.237  -3.158  11.182  1.00  0.00    -0.269 OA
BRANCH  28  31
ATOM     31  C   UNL     1       3.257  -2.707  10.057  1.00  0.00     0.039 A 
ATOM     32  C   UNL     1       4.086  -3.618  10.712  1.00  0.00     0.014 A 
ATOM     33  C   UNL     1       3.809  -1.646   9.332  1.00  0.00     0.014 A 
ATOM     34  C   UNL     1       5.473  -3.490  10.604  1.00  0.00     0.010 A 
ATOM     35  C   UNL     1       5.189  -1.568   9.159  1.00  0.00     0.010 A 
ATOM     36  C   UNL     1       6.036  -2.481   9.805  1.00  0.00    -0.014 A 
BRANCH  36  37
ATOM     37  C   UNL     1       7.510  -2.351   9.659  1.00  0.00     0.031 A 
ATOM     38  C   UNL     1       8.208  -1.120  10.172  1.00  0.00     0.074 A 
ATOM     39  C   UNL     1       8.209  -3.317   9.031  1.00  0.00     0.049 A 
ATOM     40  N   UNL     1       9.474  -0.797  10.104  1.00  0.00    -0.248 NA
ATOM     41  C   UNL     1       7.364  -0.105  10.820  1.00  0.00     0.031 C 
ATOM     42  C   UNL     1       7.638  -4.540   8.462  1.00  0.00     0.029 A 
ATOM     43  N   UNL     1       9.551  -3.424   8.764  1.00  0.00    -0.354 N 
ATOM     44  C   UNL     1       9.575   0.463  10.686  1.00  0.00     0.074 A 
ATOM     45  C   UNL     1       8.233   0.869  11.042  1.00  0.00     0.031 C 
ATOM     46  C   UNL     1       8.626  -5.288   7.947  1.00  0.00     0.029 A 
ATOM     47  C   UNL     1       9.894  -4.581   8.102  1.00  0.00     0.049 A 
ATOM     48  H   UNL     1      10.208  -2.737   9.021  1.00  0.00     0.167 HD
ATOM     49  C   UNL     1      10.688   1.202  10.922  1.00  0.00     0.034 A 
ATOM     50  C   UNL     1      11.092  -5.019   7.666  1.00  0.00     0.034 A 
ATOM     51  C   UNL     1      12.021   0.772  10.575  1.00  0.00     0.049 A 
ATOM     52  C   UNL     1      12.311  -4.165   7.912  1.00  0.00     0.074 A 
ATOM     53  C   UNL     1      13.224   1.408  10.827  1.00  0.00     0.029 A 
ATOM     54  N   UNL     1      12.327  -0.397   9.890  1.00  0.00    -0.354 N 
ATOM     55  N   UNL     1      12.398  -3.002   8.516  1.00  0.00    -0.248 NA
ATOM     56  C   UNL     1      13.594  -4.688   7.425  1.00  0.00     0.031 C 
ATOM     57  C   UNL     1      14.247   0.665  10.228  1.00  0.00     0.029 A 
ATOM     58  C   UNL     1      13.695  -0.480   9.676  1.00  0.00     0.049 A 
ATOM     59  H   UNL     1      11.669  -1.069   9.599  1.00  0.00     0.167 HD
ATOM     60  C   UNL     1      13.751  -2.673   8.513  1.00  0.00     0.074 A 
ATOM     61  C   UNL     1      14.441  -3.766   7.859  1.00  0.00     0.031 C 
ATOM     62  C   UNL     1      14.369  -1.571   9.011  1.00  0.00     0.034 A 
BRANCH  49  63
ATOM     63  C   UNL     1      10.501   2.562  11.556  1.00  0.00     0.023 A 
ATOM     64  C   UNL     1       9.944   2.714  12.838  1.00  0.00     0.031 A 
ATOM     65  C   UNL     1      10.860   3.727  10.855  1.00  0.00     0.131 A 
ATOM     66  C   UNL     1       9.688   3.997  13.344  1.00  0.00     0.055 A 
ATOM     67  C   UNL     1      10.683   5.000  11.400  1.00  0.00     0.041 A 
ATOM     68  F   UNL     1      11.376   3.649   9.618  1.00  0.00    -0.206 F 
ATOM     69  C   UNL     1      10.079   5.142  12.646  1.00  0.00     0.022 A 
BRANCH  66  70
ATOM     70  S   UNL     1       8.700   4.151  14.857  1.00  0.00     0.124 S 
ATOM     71  O   UNL     1       7.468   3.464  14.475  1.00  0.00    -0.237 OA
ATOM     72  O   UNL     1       9.529   3.473  15.846  1.00  0.00    -0.237 OA
ATOM     73  O   UNL     1       8.568   5.595  15.036  1.00  0.00    -0.744 OA
ENDBRANCH  66  70
ENDBRANCH  49  63
BRANCH  50  74
ATOM     74  C   UNL     1      11.209  -6.322   6.950  1.00  0.00     0.023 A 
ATOM     75  C   UNL     1      11.956  -7.379   7.494  1.00  0.00     0.031 A 
ATOM     76  C   UNL     1      10.616  -6.516   5.690  1.00  0.00     0.131 A 
ATOM     77  C   UNL     1      12.133  -8.563   6.761  1.00  0.00     0.055 A 
ATOM     78  C   UNL     1      10.747  -7.717   4.989  1.00  0.00     0.041 A 
ATOM     79  F   UNL     1       9.888  -5.540   5.124  1.00  0.00    -0.206 F 
ATOM     80  C   UNL     1      11.522  -8.744   5.519  1.00  0.00     0.022 A 
BRANCH  77  81
ATOM     81  S   UNL     1      13.252  -9.831   7.417  1.00  0.00     0.124 S 
ATOM     82  O   UNL     1      14.502  -9.091   7.536  1.00  0.00    -0.237 OA
ATOM     83  O   UNL     1      12.597 -10.193   8.670  1.00  0.00    -0.237 OA
ATOM     84  O   UNL     1      13.233 -10.866   6.385  1.00  0.00    -0.744 OA
ENDBRANCH  77  81
ENDBRANCH  50  74
BRANCH  62  85
ATOM     85  C   UNL     1      15.875  -1.522   8.907  1.00  0.00     0.023 A 
ATOM     86  C   UNL     1      16.531  -1.438   7.666  1.00  0.00     0.031 A 
ATOM     87  C   UNL     1      16.664  -1.572  10.070  1.00  0.00     0.131 A 
ATOM     88  C   UNL     1      17.933  -1.466   7.614  1.00  0.00     0.055 A 
ATOM     89  C   UNL     1      18.058  -1.532  10.015  1.00  0.00     0.041 A 
ATOM     90  F   UNL     1      16.092  -1.656  11.282  1.00  0.00    -0.206 F 
ATOM     91  C   UNL     1      18.700  -1.492   8.782  1.00  0.00     0.022 A 
BRANCH  88  92
ATOM     92  S   UNL     1      18.743  -1.565   5.994  1.00  0.00     0.124 S 
ATOM     93  O   UNL     1      18.175  -2.792   5.446  1.00  0.00    -0.237 OA
ATOM     94  O   UNL     1      18.315  -0.324   5.355  1.00  0.00    -0.237 OA
ATOM     95  O   UNL     1      20.165  -1.633   6.325  1.00  0.00    -0.744 OA
ENDBRANCH  88  92
ENDBRANCH  62  85
ENDBRANCH  36  37
ENDBRANCH  28  31
ENDBRANCH  26  27
ENDBRANCH  25  26
ENDBRANCH  24  25
ENDBRANCH   1  24
TORSDOF 20
