REMARK SMILES [NH3+][C@@H](CC1=C[C@H](S)c2ccccc2C1)C(=O)NCCCCCCNC(=O)c1ccc(-c2c3nc(c(-c4cc(S(=O)(=O)[O-])ccc4F)c4ccc([nH]4)c(-c4cc(S(=O)(=O)[O-])ccc4F)c4nc(c(-c5cc(S(=O)(=O)[O-])ccc5F)c5ccc2[nH]5)C=C4)C=C3)cc1
REMARK SMILES IDX 20 1 19 2 18 3 17 4 15 5 16 6 2 8 1 9 3 13 4 14 5 15 14 16
REMARK SMILES IDX 6 17 13 18 8 19 12 20 9 21 11 22 10 23 7 24 21 26 22 27
REMARK SMILES IDX 23 28 24 29 25 30 26 32 27 33 28 34 89 35 29 36 88 37 30 38
REMARK SMILES IDX 31 39 32 40 82 41 33 42 87 43 81 44 83 45 34 46 86 47 80 48
REMARK SMILES IDX 79 49 35 51 67 52 47 53 66 54 48 55 51 56 65 57 84 58 49 59
REMARK SMILES IDX 50 60 64 62 85 63 52 64 36 65 37 66 45 67 38 68 44 69 46 70
REMARK SMILES IDX 43 71 39 72 40 73 41 74 42 75 68 76 69 77 77 78 70 79 76 80
REMARK SMILES IDX 78 81 75 82 71 83 72 84 73 85 74 86 53 87 54 88 62 89 55 90
REMARK SMILES IDX 61 91 63 92 60 93 56 94 57 95 58 96 59 97
REMARK H PARENT 17 7 1 10 1 11 1 12 7 25 24 31 83 50 51 61
REMARK Flexibility Score: inf
ROOT
ATOM      1  C   UNL     1      -3.991   1.889  -1.631  1.00  0.00     0.002 C 
ENDROOT
BRANCH   1   2
ATOM      2  C   UNL     1      -2.635   1.182  -1.579  1.00  0.00     0.021 C 
BRANCH   2   3
ATOM      3  C   UNL     1      -1.829   1.201  -0.288  1.00  0.00     0.116 C 
BRANCH   3   4
ATOM      4  N   UNL     1      -1.932   0.163   0.691  1.00  0.00    -0.351 N 
ATOM      5  C   UNL     1      -0.955  -0.177   1.601  1.00  0.00     0.278 C 
ATOM      6  O   UNL     1      -1.325  -0.845   2.577  1.00  0.00    -0.268 OA
ATOM      7  H   UNL     1      -2.771  -0.352   0.716  1.00  0.00     0.163 HD
BRANCH   5   8
ATOM      8  C   UNL     1       0.570   0.205   1.452  1.00  0.00     0.275 C 
BRANCH   8   9
ATOM      9  N   UNL     1       1.179  -0.304   0.204  1.00  0.00    -0.347 N 
ATOM     10  H   UNL     1       2.160  -0.026   0.166  1.00  0.00     0.345 HD
ATOM     11  H   UNL     1       0.684   0.085  -0.599  1.00  0.00     0.345 HD
ATOM     12  H   UNL     1       1.113  -1.322   0.184  1.00  0.00     0.345 HD
ENDBRANCH   8   9
BRANCH   8  13
ATOM     13  C   UNL     1       1.091   1.585   1.979  1.00  0.00     0.106 C 
BRANCH  13  14
ATOM     14  C   UNL     1       1.102   2.916   1.222  1.00  0.00    -0.062 C 
ATOM     15  C   UNL     1       1.262   4.078   1.891  1.00  0.00    -0.009 C 
ATOM     16  C   UNL     1       0.927   2.955  -0.259  1.00  0.00     0.066 C 
ATOM     17  C   UNL     1       1.140   5.465   1.282  1.00  0.00     0.096 C 
ATOM     18  C   UNL     1       0.851   4.288  -0.944  1.00  0.00    -0.039 A 
ATOM     19  C   UNL     1       0.861   5.483  -0.213  1.00  0.00    -0.028 A 
ATOM     20  C   UNL     1       0.584   4.293  -2.327  1.00  0.00     0.004 A 
ATOM     21  C   UNL     1       0.614   6.681  -0.907  1.00  0.00     0.005 A 
ATOM     22  C   UNL     1       0.320   5.483  -2.989  1.00  0.00     0.000 A 
ATOM     23  C   UNL     1       0.327   6.676  -2.277  1.00  0.00     0.000 A 
BRANCH  17  24
ATOM     24  S   UNL     1      -0.213   6.280   2.223  1.00  0.00    -0.167 SA
ATOM     25  H   UNL     1      -1.363   5.570   2.070  1.00  0.00     0.103 HD
ENDBRANCH  17  24
ENDBRANCH  13  14
ENDBRANCH   8  13
ENDBRANCH   5   8
ENDBRANCH   3   4
ENDBRANCH   2   3
ENDBRANCH   1   2
BRANCH   1  26
ATOM     26  C   UNL     1      -4.156   3.265  -0.975  1.00  0.00     0.002 C 
BRANCH  26  27
ATOM     27  C   UNL     1      -3.283   4.433  -1.448  1.00  0.00     0.021 C 
BRANCH  27  28
ATOM     28  C   UNL     1      -3.307   4.801  -2.933  1.00  0.00     0.116 C 
BRANCH  28  29
ATOM     29  N   UNL     1      -4.591   5.277  -3.422  1.00  0.00    -0.352 N 
ATOM     30  C   UNL     1      -4.886   6.365  -4.225  1.00  0.00     0.251 C 
ATOM     31  H   UNL     1      -5.369   4.743  -3.141  1.00  0.00     0.163 HD
ATOM     32  O   UNL     1      -6.054   6.632  -4.467  1.00  0.00    -0.269 OA
BRANCH  30  33
ATOM     33  C   UNL     1      -3.803   7.239  -4.758  1.00  0.00     0.039 A 
ATOM     34  C   UNL     1      -2.639   6.710  -5.318  1.00  0.00     0.014 A 
ATOM     35  C   UNL     1      -3.966   8.629  -4.704  1.00  0.00     0.014 A 
ATOM     36  C   UNL     1      -1.579   7.557  -5.658  1.00  0.00     0.010 A 
ATOM     37  C   UNL     1      -2.926   9.479  -5.111  1.00  0.00     0.010 A 
ATOM     38  C   UNL     1      -1.696   8.952  -5.535  1.00  0.00    -0.014 A 
BRANCH  38  39
ATOM     39  C   UNL     1      -0.529   9.838  -5.829  1.00  0.00     0.031 A 
ATOM     40  C   UNL     1       0.087  10.691  -4.745  1.00  0.00     0.074 A 
ATOM     41  C   UNL     1       0.009   9.862  -7.066  1.00  0.00     0.049 A 
ATOM     42  N   UNL     1       1.111  11.504  -4.816  1.00  0.00    -0.248 NA
ATOM     43  C   UNL     1      -0.524  10.623  -3.408  1.00  0.00     0.031 C 
ATOM     44  C   UNL     1      -0.483   9.088  -8.204  1.00  0.00     0.029 A 
ATOM     45  N   UNL     1       1.086  10.551  -7.573  1.00  0.00    -0.354 N 
ATOM     46  C   UNL     1       1.258  12.053  -3.546  1.00  0.00     0.074 A 
ATOM     47  C   UNL     1       0.195  11.509  -2.731  1.00  0.00     0.031 C 
ATOM     48  C   UNL     1       0.306   9.316  -9.264  1.00  0.00     0.029 A 
ATOM     49  C   UNL     1       1.323  10.304  -8.907  1.00  0.00     0.049 A 
ATOM     50  H   UNL     1       1.636  11.164  -7.033  1.00  0.00     0.167 HD
ATOM     51  C   UNL     1       2.201  12.917  -3.095  1.00  0.00     0.034 A 
ATOM     52  C   UNL     1       2.237  10.819  -9.758  1.00  0.00     0.034 A 
ATOM     53  C   UNL     1       3.270  13.445  -3.907  1.00  0.00     0.049 A 
ATOM     54  C   UNL     1       3.249  11.813  -9.244  1.00  0.00     0.074 A 
ATOM     55  C   UNL     1       4.295  14.291  -3.519  1.00  0.00     0.029 A 
ATOM     56  N   UNL     1       3.458  13.189  -5.257  1.00  0.00    -0.354 N 
ATOM     57  N   UNL     1       3.413  12.266  -8.024  1.00  0.00    -0.248 NA
ATOM     58  C   UNL     1       4.207  12.362 -10.215  1.00  0.00     0.031 C 
ATOM     59  C   UNL     1       5.050  14.611  -4.646  1.00  0.00     0.029 A 
ATOM     60  C   UNL     1       4.560  13.891  -5.722  1.00  0.00     0.049 A 
ATOM     61  H   UNL     1       2.892  12.598  -5.805  1.00  0.00     0.167 HD
ATOM     62  C   UNL     1       4.505  13.129  -8.076  1.00  0.00     0.074 A 
ATOM     63  C   UNL     1       4.980  13.115  -9.443  1.00  0.00     0.031 C 
ATOM     64  C   UNL     1       5.056  13.866  -7.079  1.00  0.00     0.034 A 
BRANCH  51  65
ATOM     65  C   UNL     1       2.159  13.357  -1.648  1.00  0.00     0.023 A 
ATOM     66  C   UNL     1       2.012  14.722  -1.333  1.00  0.00     0.031 A 
ATOM     67  C   UNL     1       2.424  12.459  -0.599  1.00  0.00     0.131 A 
ATOM     68  C   UNL     1       2.179  15.156  -0.012  1.00  0.00     0.055 A 
ATOM     69  C   UNL     1       2.539  12.890   0.724  1.00  0.00     0.041 A 
ATOM     70  F   UNL     1       2.577  11.148  -0.844  1.00  0.00    -0.206 F 
ATOM     71  C   UNL     1       2.433  14.246   1.020  1.00  0.00     0.022 A 
BRANCH  68  72
ATOM     72  S   UNL     1       2.161  16.921   0.407  1.00  0.00     0.124 S 
ATOM     73  O   UNL     1       1.066  16.988   1.373  1.00  0.00    -0.237 OA
ATOM     74  O   UNL     1       3.497  17.115   0.965  1.00  0.00    -0.237 OA
ATOM     75  O   UNL     1       1.906  17.582  -0.867  1.00  0.00    -0.744 OA
ENDBRANCH  68  72
ENDBRANCH  51  65
BRANCH  52  76
ATOM     76  C   UNL     1       2.244  10.358 -11.180  1.00  0.00     0.023 A 
ATOM     77  C   UNL     1       1.118  10.541 -12.003  1.00  0.00     0.031 A 
ATOM     78  C   UNL     1       3.330   9.635 -11.700  1.00  0.00     0.131 A 
ATOM     79  C   UNL     1       1.071   9.937 -13.266  1.00  0.00     0.055 A 
ATOM     80  C   UNL     1       3.312   9.106 -12.992  1.00  0.00     0.041 A 
ATOM     81  F   UNL     1       4.424   9.424 -10.951  1.00  0.00    -0.206 F 
ATOM     82  C   UNL     1       2.169   9.238 -13.774  1.00  0.00     0.022 A 
BRANCH  79  83
ATOM     83  S   UNL     1      -0.469   9.912 -14.226  1.00  0.00     0.124 S 
ATOM     84  O   UNL     1      -0.067  10.567 -15.466  1.00  0.00    -0.237 OA
ATOM     85  O   UNL     1      -0.731   8.478 -14.325  1.00  0.00    -0.237 OA
ATOM     86  O   UNL     1      -1.406  10.657 -13.393  1.00  0.00    -0.744 OA
ENDBRANCH  79  83
ENDBRANCH  52  76
BRANCH  64  87
ATOM     87  C   UNL     1       6.261  14.730  -7.380  1.00  0.00     0.023 A 
ATOM     88  C   UNL     1       7.472  14.509  -6.692  1.00  0.00     0.031 A 
ATOM     89  C   UNL     1       6.166  15.866  -8.202  1.00  0.00     0.131 A 
ATOM     90  C   UNL     1       8.515  15.438  -6.795  1.00  0.00     0.055 A 
ATOM     91  C   UNL     1       7.231  16.759  -8.347  1.00  0.00     0.041 A 
ATOM     92  F   UNL     1       5.032  16.131  -8.870  1.00  0.00    -0.206 F 
ATOM     93  C   UNL     1       8.405  16.556  -7.627  1.00  0.00     0.022 A 
BRANCH  90  94
ATOM     94  S   UNL     1      10.009  15.287  -5.776  1.00  0.00     0.124 S 
ATOM     95  O   UNL     1      11.059  15.192  -6.788  1.00  0.00    -0.237 OA
ATOM     96  O   UNL     1       9.989  16.533  -5.015  1.00  0.00    -0.237 OA
ATOM     97  O   UNL     1       9.785  14.072  -4.999  1.00  0.00    -0.744 OA
ENDBRANCH  90  94
ENDBRANCH  64  87
ENDBRANCH  38  39
ENDBRANCH  30  33
ENDBRANCH  28  29
ENDBRANCH  27  28
ENDBRANCH  26  27
ENDBRANCH   1  26
TORSDOF 20
