REMARK SMILES Cc1cc(F)cc(N[C@@](C)(C(=O)NCCCCCCNC(=O)c2ccc(-c3c4nc(c(-c5cc(S(=O)(=O)[O-])ccc5F)c5ccc([nH]5)c(-c5cc(S(=O)(=O)[O-])ccc5F)c5nc(c(-c6cc(S(=O)(=O)[O-])ccc6F)c6ccc3[nH]6)C=C5)C=C4)cc2)c2ccc(O)cc2)c1
REMARK SMILES IDX 17 1 16 2 15 3 14 4 13 5 11 6 12 7 9 9 10 10 8 11 7 13 1 14
REMARK SMILES IDX 2 15 3 16 93 17 4 18 5 19 6 20 86 21 87 22 92 23 88 24 91 25
REMARK SMILES IDX 89 26 90 27 18 29 19 30 20 31 21 32 22 34 23 35 24 36 85 37
REMARK SMILES IDX 25 38 84 39 26 40 27 41 28 42 78 43 29 44 83 45 77 46 79 47
REMARK SMILES IDX 30 48 82 49 76 50 75 51 31 53 63 54 43 55 62 56 44 57 47 58
REMARK SMILES IDX 61 59 80 60 45 61 46 62 60 64 81 65 48 66 32 67 33 68 41 69
REMARK SMILES IDX 34 70 40 71 42 72 39 73 35 74 36 75 37 76 38 77 64 78 65 79
REMARK SMILES IDX 73 80 66 81 72 82 74 83 71 84 67 85 68 86 69 87 70 88 49 89
REMARK SMILES IDX 50 90 58 91 51 92 57 93 59 94 56 95 52 96 53 97 54 98 55 99
REMARK H PARENT 13 8 8 12 90 28 20 33 79 52 47 63
REMARK Flexibility Score: inf
ROOT
ATOM      1  C   UNL     1       2.853  -8.222   1.951  1.00  0.00     0.002 C 
ENDROOT
BRANCH   1   2
ATOM      2  C   UNL     1       2.823  -6.774   2.451  1.00  0.00     0.002 C 
BRANCH   2   3
ATOM      3  C   UNL     1       2.633  -5.709   1.366  1.00  0.00     0.021 C 
BRANCH   3   4
ATOM      4  C   UNL     1       1.379  -5.887   0.511  1.00  0.00     0.116 C 
BRANCH   4   5
ATOM      5  N   UNL     1       0.177  -5.673   1.290  1.00  0.00    -0.354 N 
ATOM      6  C   UNL     1      -0.850  -4.774   1.185  1.00  0.00     0.250 C 
ATOM      7  O   UNL     1      -1.574  -4.729   2.188  1.00  0.00    -0.272 OA
ATOM      8  H   UNL     1       0.079  -6.297   2.045  1.00  0.00     0.163 HD
BRANCH   6   9
ATOM      9  C   UNL     1      -1.075  -3.871  -0.105  1.00  0.00     0.139 C 
ATOM     10  C   UNL     1      -1.062  -4.747  -1.383  1.00  0.00     0.051 C 
BRANCH   9  11
ATOM     11  N   UNL     1       0.071  -2.918  -0.184  1.00  0.00    -0.368 N 
ATOM     12  H   UNL     1       0.843  -3.266  -0.687  1.00  0.00     0.161 HD
BRANCH  11  13
ATOM     13  C   UNL     1       0.259  -1.642   0.313  1.00  0.00     0.038 A 
ATOM     14  C   UNL     1       2.866   1.122  -0.243  1.00  0.00     0.044 C 
ATOM     15  C   UNL     1       1.607   0.421   0.168  1.00  0.00    -0.046 A 
ATOM     16  C   UNL     1       0.558   1.142   0.734  1.00  0.00     0.042 A 
ATOM     17  C   UNL     1       1.431  -0.955  -0.065  1.00  0.00     0.029 A 
ATOM     18  C   UNL     1      -0.565   0.464   1.184  1.00  0.00     0.125 A 
ATOM     19  F   UNL     1      -1.571   1.159   1.734  1.00  0.00    -0.207 F 
ATOM     20  C   UNL     1      -0.686  -0.917   1.037  1.00  0.00     0.065 A 
ENDBRANCH  11  13
ENDBRANCH   9  11
BRANCH   9  21
ATOM     21  C   UNL     1      -2.475  -3.190  -0.167  1.00  0.00    -0.013 A 
ATOM     22  C   UNL     1      -2.687  -2.022  -0.930  1.00  0.00     0.010 A 
ATOM     23  C   UNL     1      -3.596  -3.726   0.495  1.00  0.00     0.010 A 
ATOM     24  C   UNL     1      -3.887  -1.311  -0.849  1.00  0.00     0.046 A 
ATOM     25  C   UNL     1      -4.806  -3.031   0.561  1.00  0.00     0.046 A 
ATOM     26  C   UNL     1      -4.924  -1.804  -0.074  1.00  0.00     0.115 A 
BRANCH  26  27
ATOM     27  O   UNL     1      -6.053  -1.051   0.051  1.00  0.00    -0.508 OA
ATOM     28  H   UNL     1      -6.116  -0.224  -0.385  1.00  0.00     0.293 HD
ENDBRANCH  26  27
ENDBRANCH   9  21
ENDBRANCH   6   9
ENDBRANCH   4   5
ENDBRANCH   3   4
ENDBRANCH   2   3
ENDBRANCH   1   2
BRANCH   1  29
ATOM     29  C   UNL     1       3.861  -8.506   0.835  1.00  0.00     0.021 C 
BRANCH  29  30
ATOM     30  C   UNL     1       5.306  -8.151   1.172  1.00  0.00     0.116 C 
BRANCH  30  31
ATOM     31  N   UNL     1       5.814  -8.925   2.291  1.00  0.00    -0.352 N 
ATOM     32  C   UNL     1       6.947  -9.698   2.372  1.00  0.00     0.251 C 
ATOM     33  H   UNL     1       5.268  -8.890   3.109  1.00  0.00     0.163 HD
ATOM     34  O   UNL     1       7.108 -10.440   3.333  1.00  0.00    -0.269 OA
BRANCH  32  35
ATOM     35  C   UNL     1       7.951  -9.650   1.285  1.00  0.00     0.039 A 
ATOM     36  C   UNL     1       8.499 -10.847   0.819  1.00  0.00     0.014 A 
ATOM     37  C   UNL     1       8.351  -8.432   0.727  1.00  0.00     0.014 A 
ATOM     38  C   UNL     1       9.402 -10.826  -0.247  1.00  0.00     0.010 A 
ATOM     39  C   UNL     1       9.189  -8.420  -0.385  1.00  0.00     0.010 A 
ATOM     40  C   UNL     1       9.727  -9.617  -0.883  1.00  0.00    -0.014 A 
BRANCH  40  41
ATOM     41  C   UNL     1      10.625  -9.588  -2.068  1.00  0.00     0.031 A 
ATOM     42  C   UNL     1      11.937  -8.855  -2.006  1.00  0.00     0.074 A 
ATOM     43  C   UNL     1      10.229 -10.171  -3.217  1.00  0.00     0.049 A 
ATOM     44  N   UNL     1      12.822  -8.661  -2.950  1.00  0.00    -0.248 NA
ATOM     45  C   UNL     1      12.283  -8.231  -0.722  1.00  0.00     0.031 C 
ATOM     46  C   UNL     1       8.959 -10.873  -3.413  1.00  0.00     0.029 A 
ATOM     47  N   UNL     1      10.846 -10.258  -4.441  1.00  0.00    -0.354 N 
ATOM     48  C   UNL     1      13.822  -7.880  -2.379  1.00  0.00     0.074 A 
ATOM     49  C   UNL     1      13.398  -7.585  -1.027  1.00  0.00     0.031 C 
ATOM     50  C   UNL     1       8.901 -11.337  -4.671  1.00  0.00     0.029 A 
ATOM     51  C   UNL     1      10.103 -10.923  -5.389  1.00  0.00     0.049 A 
ATOM     52  H   UNL     1      11.736  -9.879  -4.623  1.00  0.00     0.167 HD
ATOM     53  C   UNL     1      14.992  -7.466  -2.926  1.00  0.00     0.034 A 
ATOM     54  C   UNL     1      10.350 -11.159  -6.693  1.00  0.00     0.034 A 
ATOM     55  C   UNL     1      15.399  -7.778  -4.276  1.00  0.00     0.049 A 
ATOM     56  C   UNL     1      11.645 -10.669  -7.288  1.00  0.00     0.074 A 
ATOM     57  C   UNL     1      16.591  -7.470  -4.909  1.00  0.00     0.029 A 
ATOM     58  N   UNL     1      14.620  -8.454  -5.208  1.00  0.00    -0.354 N 
ATOM     59  N   UNL     1      12.611  -9.987  -6.717  1.00  0.00    -0.248 NA
ATOM     60  C   UNL     1      11.889 -10.991  -8.700  1.00  0.00     0.031 C 
ATOM     61  C   UNL     1      16.498  -7.880  -6.244  1.00  0.00     0.029 A 
ATOM     62  C   UNL     1      15.287  -8.531  -6.423  1.00  0.00     0.049 A 
ATOM     63  H   UNL     1      13.725  -8.824  -5.033  1.00  0.00     0.167 HD
ATOM     64  C   UNL     1      13.589  -9.823  -7.693  1.00  0.00     0.074 A 
ATOM     65  C   UNL     1      13.102 -10.491  -8.883  1.00  0.00     0.031 C 
ATOM     66  C   UNL     1      14.785  -9.183  -7.611  1.00  0.00     0.034 A 
BRANCH  53  67
ATOM     67  C   UNL     1      15.892  -6.599  -2.074  1.00  0.00     0.023 A 
ATOM     68  C   UNL     1      16.426  -7.055  -0.855  1.00  0.00     0.031 A 
ATOM     69  C   UNL     1      16.195  -5.284  -2.468  1.00  0.00     0.131 A 
ATOM     70  C   UNL     1      17.153  -6.178  -0.035  1.00  0.00     0.055 A 
ATOM     71  C   UNL     1      16.998  -4.446  -1.692  1.00  0.00     0.041 A 
ATOM     72  F   UNL     1      15.698  -4.781  -3.610  1.00  0.00    -0.206 F 
ATOM     73  C   UNL     1      17.467  -4.885  -0.458  1.00  0.00     0.022 A 
BRANCH  70  74
ATOM     74  S   UNL     1      17.533  -6.696   1.662  1.00  0.00     0.124 S 
ATOM     75  O   UNL     1      16.201  -6.989   2.186  1.00  0.00    -0.237 OA
ATOM     76  O   UNL     1      18.405  -7.846   1.453  1.00  0.00    -0.237 OA
ATOM     77  O   UNL     1      18.177  -5.520   2.243  1.00  0.00    -0.744 OA
ENDBRANCH  70  74
ENDBRANCH  53  67
BRANCH  54  78
ATOM     78  C   UNL     1       9.341 -11.873  -7.529  1.00  0.00     0.023 A 
ATOM     79  C   UNL     1       9.617 -13.130  -8.091  1.00  0.00     0.031 A 
ATOM     80  C   UNL     1       8.087 -11.294  -7.794  1.00  0.00     0.131 A 
ATOM     81  C   UNL     1       8.668 -13.748  -8.920  1.00  0.00     0.055 A 
ATOM     82  C   UNL     1       7.125 -11.938  -8.574  1.00  0.00     0.041 A 
ATOM     83  F   UNL     1       7.769 -10.096  -7.278  1.00  0.00    -0.206 F 
ATOM     84  C   UNL     1       7.418 -13.169  -9.152  1.00  0.00     0.022 A 
BRANCH  81  85
ATOM     85  S   UNL     1       9.118 -15.294  -9.757  1.00  0.00     0.124 S 
ATOM     86  O   UNL     1      10.284 -14.882 -10.532  1.00  0.00    -0.237 OA
ATOM     87  O   UNL     1       9.377 -16.184  -8.630  1.00  0.00    -0.237 OA
ATOM     88  O   UNL     1       7.928 -15.615 -10.541  1.00  0.00    -0.744 OA
ENDBRANCH  81  85
ENDBRANCH  54  78
BRANCH  66  89
ATOM     89  C   UNL     1      15.668  -9.213  -8.836  1.00  0.00     0.023 A 
ATOM     90  C   UNL     1      15.300  -8.578 -10.035  1.00  0.00     0.031 A 
ATOM     91  C   UNL     1      16.898  -9.896  -8.803  1.00  0.00     0.131 A 
ATOM     92  C   UNL     1      16.123  -8.687 -11.166  1.00  0.00     0.055 A 
ATOM     93  C   UNL     1      17.745  -9.943  -9.911  1.00  0.00     0.041 A 
ATOM     94  F   UNL     1      17.300 -10.527  -7.688  1.00  0.00    -0.206 F 
ATOM     95  C   UNL     1      17.353  -9.348 -11.106  1.00  0.00     0.022 A 
BRANCH  92  96
ATOM     96  S   UNL     1      15.518  -8.042 -12.750  1.00  0.00     0.124 S 
ATOM     97  O   UNL     1      14.275  -8.786 -12.924  1.00  0.00    -0.237 OA
ATOM     98  O   UNL     1      15.375  -6.617 -12.473  1.00  0.00    -0.237 OA
ATOM     99  O   UNL     1      16.583  -8.387 -13.691  1.00  0.00    -0.744 OA
ENDBRANCH  92  96
ENDBRANCH  66  89
ENDBRANCH  40  41
ENDBRANCH  32  35
ENDBRANCH  30  31
ENDBRANCH  29  30
ENDBRANCH   1  29
TORSDOF 20
