REMARK SMILES CC(C)[C@@H](CC(=O)OC(C)(C)C)C(=O)NCCCCCCNC(=O)c1ccc(-c2c3nc(c(-c4cc(S(=O)(=O)[O-])ccc4F)c4ccc([nH]4)c(-c4cc(S(=O)(=O)[O-])ccc4F)c4nc(c(-c5cc(S(=O)(=O)[O-])ccc5F)c5ccc2[nH]5)C=C4)C=C3)cc1
REMARK SMILES IDX 18 1 17 2 16 3 15 4 13 5 14 6 4 8 2 9 1 10 3 11 5 12 6 13
REMARK SMILES IDX 7 14 8 15 9 16 10 17 11 18 12 19 19 20 20 21 21 22 22 23
REMARK SMILES IDX 23 24 24 26 25 27 26 28 87 29 27 30 86 31 28 32 29 33 30 34
REMARK SMILES IDX 80 35 31 36 85 37 79 38 81 39 32 40 84 41 78 42 77 43 33 45
REMARK SMILES IDX 65 46 45 47 64 48 46 49 49 50 63 51 82 52 47 53 48 54 62 56
REMARK SMILES IDX 83 57 50 58 34 59 35 60 43 61 36 62 42 63 44 64 41 65 37 66
REMARK SMILES IDX 38 67 39 68 40 69 66 70 67 71 75 72 68 73 74 74 76 75 73 76
REMARK SMILES IDX 69 77 70 78 71 79 72 80 51 81 52 82 60 83 53 84 59 85 61 86
REMARK SMILES IDX 58 87 54 88 55 89 56 90 57 91
REMARK H PARENT 15 7 22 25 81 44 49 55
REMARK Flexibility Score: inf
ROOT
ATOM      1  C   UNL     1       0.284   6.626   1.398  1.00  0.00     0.002 C 
ENDROOT
BRANCH   1   2
ATOM      2  C   UNL     1       0.644   5.179   1.039  1.00  0.00     0.021 C 
BRANCH   2   3
ATOM      3  C   UNL     1      -0.489   4.170   1.210  1.00  0.00     0.116 C 
BRANCH   3   4
ATOM      4  N   UNL     1      -1.247   3.893   0.015  1.00  0.00    -0.356 N 
ATOM      5  C   UNL     1      -1.605   2.699  -0.526  1.00  0.00     0.223 C 
ATOM      6  O   UNL     1      -2.487   2.716  -1.392  1.00  0.00    -0.275 OA
ATOM      7  H   UNL     1      -1.549   4.687  -0.483  1.00  0.00     0.163 HD
BRANCH   5   8
ATOM      8  C   UNL     1      -0.953   1.362  -0.135  1.00  0.00     0.092 C 
BRANCH   8   9
ATOM      9  C   UNL     1       0.593   1.309  -0.250  1.00  0.00    -0.004 C 
ATOM     10  C   UNL     1       1.118  -0.129  -0.137  1.00  0.00     0.008 C 
ATOM     11  C   UNL     1       1.069   1.891  -1.592  1.00  0.00     0.008 C 
ENDBRANCH   8   9
BRANCH   8  12
ATOM     12  C   UNL     1      -1.619   0.697   1.084  1.00  0.00     0.136 C 
BRANCH  12  13
ATOM     13  C   UNL     1      -1.408   1.258   2.471  1.00  0.00     0.307 C 
ATOM     14  O   UNL     1      -2.345   1.594   3.191  1.00  0.00    -0.252 OA
BRANCH  13  15
ATOM     15  O   UNL     1      -0.103   1.275   2.828  1.00  0.00    -0.460 OA
BRANCH  15  16
ATOM     16  C   UNL     1       0.344   1.768   4.129  1.00  0.00     0.104 C 
ATOM     17  C   UNL     1      -0.348   3.055   4.591  1.00  0.00     0.056 C 
ATOM     18  C   UNL     1       0.167   0.688   5.194  1.00  0.00     0.056 C 
ATOM     19  C   UNL     1       1.841   2.059   3.930  1.00  0.00     0.056 C 
ENDBRANCH  15  16
ENDBRANCH  13  15
ENDBRANCH  12  13
ENDBRANCH   8  12
ENDBRANCH   5   8
ENDBRANCH   3   4
ENDBRANCH   2   3
ENDBRANCH   1   2
BRANCH   1  20
ATOM     20  C   UNL     1      -0.195   6.875   2.837  1.00  0.00     0.002 C 
BRANCH  20  21
ATOM     21  C   UNL     1       0.750   6.426   3.954  1.00  0.00     0.021 C 
BRANCH  21  22
ATOM     22  C   UNL     1       2.090   7.145   4.031  1.00  0.00     0.116 C 
BRANCH  22  23
ATOM     23  N   UNL     1       1.954   8.541   4.398  1.00  0.00    -0.352 N 
ATOM     24  C   UNL     1       2.328   9.224   5.529  1.00  0.00     0.251 C 
ATOM     25  H   UNL     1       1.516   9.098   3.715  1.00  0.00     0.163 HD
ATOM     26  O   UNL     1       1.923  10.377   5.670  1.00  0.00    -0.269 OA
BRANCH  24  27
ATOM     27  C   UNL     1       3.177   8.612   6.585  1.00  0.00     0.039 A 
ATOM     28  C   UNL     1       2.969   9.007   7.912  1.00  0.00     0.014 A 
ATOM     29  C   UNL     1       4.213   7.719   6.301  1.00  0.00     0.014 A 
ATOM     30  C   UNL     1       3.763   8.483   8.939  1.00  0.00     0.010 A 
ATOM     31  C   UNL     1       4.938   7.121   7.336  1.00  0.00     0.010 A 
ATOM     32  C   UNL     1       4.739   7.512   8.667  1.00  0.00    -0.014 A 
BRANCH  32  33
ATOM     33  C   UNL     1       5.578   6.942   9.761  1.00  0.00     0.031 A 
ATOM     34  C   UNL     1       7.075   7.135   9.755  1.00  0.00     0.074 A 
ATOM     35  C   UNL     1       4.998   6.233  10.751  1.00  0.00     0.049 A 
ATOM     36  N   UNL     1       7.970   6.706  10.610  1.00  0.00    -0.248 NA
ATOM     37  C   UNL     1       7.644   7.881   8.623  1.00  0.00     0.031 C 
ATOM     38  C   UNL     1       3.568   5.932  10.848  1.00  0.00     0.029 A 
ATOM     39  N   UNL     1       5.535   5.638  11.867  1.00  0.00    -0.354 N 
ATOM     40  C   UNL     1       9.203   7.117  10.112  1.00  0.00     0.074 A 
ATOM     41  C   UNL     1       8.945   7.768   8.847  1.00  0.00     0.031 C 
ATOM     42  C   UNL     1       3.337   5.245  11.978  1.00  0.00     0.029 A 
ATOM     43  C   UNL     1       4.603   5.017  12.668  1.00  0.00     0.049 A 
ATOM     44  H   UNL     1       6.497   5.655  12.076  1.00  0.00     0.167 HD
ATOM     45  C   UNL     1      10.434   6.988  10.669  1.00  0.00     0.034 A 
ATOM     46  C   UNL     1       4.748   4.338  13.824  1.00  0.00     0.034 A 
ATOM     47  C   UNL     1      10.676   6.359  11.945  1.00  0.00     0.049 A 
ATOM     48  C   UNL     1       6.126   4.212  14.425  1.00  0.00     0.074 A 
ATOM     49  C   UNL     1      11.873   6.233  12.631  1.00  0.00     0.029 A 
ATOM     50  N   UNL     1       9.706   5.746  12.728  1.00  0.00    -0.354 N 
ATOM     51  N   UNL     1       7.272   4.661  13.968  1.00  0.00    -0.248 NA
ATOM     52  C   UNL     1       6.225   3.502  15.707  1.00  0.00     0.031 C 
ATOM     53  C   UNL     1      11.639   5.485  13.790  1.00  0.00     0.029 A 
ATOM     54  C   UNL     1      10.283   5.212  13.871  1.00  0.00     0.049 A 
ATOM     55  H   UNL     1       8.749   5.696  12.503  1.00  0.00     0.167 HD
ATOM     56  C   UNL     1       8.224   4.311  14.923  1.00  0.00     0.074 A 
ATOM     57  C   UNL     1       7.512   3.637  15.989  1.00  0.00     0.031 C 
ATOM     58  C   UNL     1       9.564   4.528  14.921  1.00  0.00     0.034 A 
BRANCH  45  59
ATOM     59  C   UNL     1      11.614   7.522   9.888  1.00  0.00     0.023 A 
ATOM     60  C   UNL     1      11.742   8.888   9.578  1.00  0.00     0.031 A 
ATOM     61  C   UNL     1      12.619   6.650   9.432  1.00  0.00     0.131 A 
ATOM     62  C   UNL     1      12.804   9.329   8.773  1.00  0.00     0.055 A 
ATOM     63  C   UNL     1      13.719   7.108   8.702  1.00  0.00     0.041 A 
ATOM     64  F   UNL     1      12.544   5.332   9.678  1.00  0.00    -0.206 F 
ATOM     65  C   UNL     1      13.808   8.453   8.355  1.00  0.00     0.022 A 
BRANCH  62  66
ATOM     66  S   UNL     1      12.777  11.036   8.160  1.00  0.00     0.124 S 
ATOM     67  O   UNL     1      11.518  11.063   7.419  1.00  0.00    -0.237 OA
ATOM     68  O   UNL     1      12.809  11.814   9.393  1.00  0.00    -0.237 OA
ATOM     69  O   UNL     1      13.979  11.123   7.334  1.00  0.00    -0.744 OA
ENDBRANCH  62  66
ENDBRANCH  45  59
BRANCH  46  70
ATOM     70  C   UNL     1       3.567   3.719  14.493  1.00  0.00     0.023 A 
ATOM     71  C   UNL     1       3.148   4.141  15.765  1.00  0.00     0.031 A 
ATOM     72  C   UNL     1       2.868   2.658  13.889  1.00  0.00     0.131 A 
ATOM     73  C   UNL     1       2.097   3.473  16.415  1.00  0.00     0.055 A 
ATOM     74  C   UNL     1       1.787   2.035  14.515  1.00  0.00     0.041 A 
ATOM     75  F   UNL     1       3.223   2.216  12.672  1.00  0.00    -0.206 F 
ATOM     76  C   UNL     1       1.405   2.432  15.792  1.00  0.00     0.022 A 
BRANCH  73  77
ATOM     77  S   UNL     1       1.708   3.924  18.128  1.00  0.00     0.124 S 
ATOM     78  O   UNL     1       2.988   3.705  18.791  1.00  0.00    -0.237 OA
ATOM     79  O   UNL     1       1.287   5.314  17.987  1.00  0.00    -0.237 OA
ATOM     80  O   UNL     1       0.646   2.987  18.493  1.00  0.00    -0.744 OA
ENDBRANCH  73  77
ENDBRANCH  46  70
BRANCH  58  81
ATOM     81  C   UNL     1      10.335   4.059  16.132  1.00  0.00     0.023 A 
ATOM     82  C   UNL     1      10.446   2.694  16.454  1.00  0.00     0.031 A 
ATOM     83  C   UNL     1      10.942   4.992  16.991  1.00  0.00     0.131 A 
ATOM     84  C   UNL     1      11.088   2.306  17.640  1.00  0.00     0.055 A 
ATOM     85  C   UNL     1      11.638   4.595  18.134  1.00  0.00     0.041 A 
ATOM     86  F   UNL     1      10.867   6.307  16.734  1.00  0.00    -0.206 F 
ATOM     87  C   UNL     1      11.699   3.246  18.473  1.00  0.00     0.022 A 
BRANCH  84  88
ATOM     88  S   UNL     1      11.015   0.563  18.137  1.00  0.00     0.124 S 
ATOM     89  O   UNL     1       9.576   0.322  18.186  1.00  0.00    -0.237 OA
ATOM     90  O   UNL     1      11.735  -0.100  17.055  1.00  0.00    -0.237 OA
ATOM     91  O   UNL     1      11.691   0.547  19.433  1.00  0.00    -0.744 OA
ENDBRANCH  84  88
ENDBRANCH  58  81
ENDBRANCH  32  33
ENDBRANCH  24  27
ENDBRANCH  22  23
ENDBRANCH  21  22
ENDBRANCH  20  21
ENDBRANCH   1  20
TORSDOF 21
