REMARK SMILES Cc1nn(Cc2ccc(C(=O)NCCCCCCNC(=O)c3ccc(-c4c5nc(c(-c6cc(S(=O)(=O)[O-])ccc6F)c6ccc([nH]6)c(-c6cc(S(=O)(=O)[O-])ccc6F)c6nc(c(-c7cc(S(=O)(=O)[O-])ccc7F)c7ccc4[nH]7)C=C6)C=C5)cc3)o2)c(C)c1C
REMARK SMILES IDX 16 1 15 2 14 3 13 4 12 5 10 6 11 7 9 9 6 10 7 11 85 12 8 13
REMARK SMILES IDX 5 14 4 15 1 16 2 17 3 18 88 19 86 20 89 21 87 22 17 23 18 24
REMARK SMILES IDX 19 25 20 26 21 28 22 29 23 30 84 31 24 32 83 33 25 34 26 35
REMARK SMILES IDX 27 36 77 37 28 38 82 39 76 40 78 41 29 42 81 43 75 44 74 45
REMARK SMILES IDX 30 47 62 48 42 49 61 50 43 51 46 52 60 53 79 54 44 55 45 56
REMARK SMILES IDX 59 58 80 59 47 60 31 61 32 62 40 63 33 64 39 65 41 66 38 67
REMARK SMILES IDX 34 68 35 69 36 70 37 71 63 72 64 73 72 74 65 75 71 76 73 77
REMARK SMILES IDX 70 78 66 79 67 80 68 81 69 82 48 83 49 84 57 85 50 86 56 87
REMARK SMILES IDX 58 88 55 89 51 90 52 91 53 92 54 93
REMARK H PARENT 12 8 19 27 78 46 46 57
REMARK Flexibility Score: inf
ROOT
ATOM      1  C   UNL     1      -2.599  10.578  -4.840  1.00  0.00     0.002 C 
ENDROOT
BRANCH   1   2
ATOM      2  C   UNL     1      -1.961   9.273  -5.339  1.00  0.00     0.002 C 
BRANCH   2   3
ATOM      3  C   UNL     1      -1.547   8.259  -4.266  1.00  0.00     0.021 C 
BRANCH   3   4
ATOM      4  C   UNL     1      -2.642   7.872  -3.272  1.00  0.00     0.116 C 
BRANCH   4   5
ATOM      5  N   UNL     1      -3.746   7.185  -3.916  1.00  0.00    -0.349 N 
ATOM      6  C   UNL     1      -4.328   5.960  -3.696  1.00  0.00     0.286 C 
ATOM      7  O   UNL     1      -5.277   5.680  -4.436  1.00  0.00    -0.266 OA
ATOM      8  H   UNL     1      -4.157   7.695  -4.651  1.00  0.00     0.163 HD
BRANCH   6   9
ATOM      9  C   UNL     1      -3.882   5.052  -2.655  1.00  0.00     0.191 A 
ATOM     10  C   UNL     1      -2.725   4.327  -0.915  1.00  0.00     0.126 A 
ATOM     11  C   UNL     1      -3.597   3.313  -1.250  1.00  0.00     0.048 A 
ATOM     12  O   UNL     1      -2.908   5.387  -1.755  1.00  0.00    -0.454 OA
ATOM     13  C   UNL     1      -4.337   3.777  -2.361  1.00  0.00     0.056 A 
BRANCH  10  14
ATOM     14  C   UNL     1      -1.722   4.498   0.169  1.00  0.00     0.219 C 
BRANCH  14  15
ATOM     15  N   UNL     1      -0.573   3.610   0.014  1.00  0.00    -0.262 N 
ATOM     16  C   UNL     1       0.632   0.282  -0.016  1.00  0.00     0.069 C 
ATOM     17  C   UNL     1       0.470   1.758  -0.013  1.00  0.00     0.063 A 
ATOM     18  N   UNL     1      -0.755   2.276   0.132  1.00  0.00    -0.177 NA
ATOM     19  C   UNL     1       1.461   2.769  -0.136  1.00  0.00    -0.007 A 
ATOM     20  C   UNL     1       0.752   3.960  -0.098  1.00  0.00     0.039 A 
ATOM     21  C   UNL     1       2.933   2.611  -0.267  1.00  0.00     0.048 C 
ATOM     22  C   UNL     1       1.232   5.365  -0.163  1.00  0.00     0.066 C 
ENDBRANCH  14  15
ENDBRANCH  10  14
ENDBRANCH   6   9
ENDBRANCH   4   5
ENDBRANCH   3   4
ENDBRANCH   2   3
ENDBRANCH   1   2
BRANCH   1  23
ATOM     23  C   UNL     1      -1.830  11.363  -3.769  1.00  0.00     0.021 C 
BRANCH  23  24
ATOM     24  C   UNL     1      -0.472  11.885  -4.218  1.00  0.00     0.116 C 
BRANCH  24  25
ATOM     25  N   UNL     1      -0.573  12.921  -5.247  1.00  0.00    -0.352 N 
ATOM     26  C   UNL     1       0.453  13.541  -5.933  1.00  0.00     0.251 C 
ATOM     27  H   UNL     1      -1.485  13.210  -5.479  1.00  0.00     0.163 HD
ATOM     28  O   UNL     1       0.274  14.642  -6.453  1.00  0.00    -0.269 OA
BRANCH  26  29
ATOM     29  C   UNL     1       1.759  12.866  -6.027  1.00  0.00     0.039 A 
ATOM     30  C   UNL     1       2.965  13.567  -5.929  1.00  0.00     0.014 A 
ATOM     31  C   UNL     1       1.754  11.484  -6.193  1.00  0.00     0.014 A 
ATOM     32  C   UNL     1       4.163  12.850  -5.912  1.00  0.00     0.010 A 
ATOM     33  C   UNL     1       2.912  10.774  -6.014  1.00  0.00     0.010 A 
ATOM     34  C   UNL     1       4.126  11.449  -5.937  1.00  0.00    -0.014 A 
BRANCH  34  35
ATOM     35  C   UNL     1       5.334  10.644  -5.785  1.00  0.00     0.031 A 
ATOM     36  C   UNL     1       6.074  10.857  -4.513  1.00  0.00     0.074 A 
ATOM     37  C   UNL     1       5.599   9.584  -6.581  1.00  0.00     0.049 A 
ATOM     38  N   UNL     1       7.229  11.410  -4.349  1.00  0.00    -0.248 NA
ATOM     39  C   UNL     1       5.382  10.559  -3.250  1.00  0.00     0.031 C 
ATOM     40  C   UNL     1       4.769   9.047  -7.667  1.00  0.00     0.029 A 
ATOM     41  N   UNL     1       6.599   8.668  -6.491  1.00  0.00    -0.354 N 
ATOM     42  C   UNL     1       7.525  11.292  -2.993  1.00  0.00     0.074 A 
ATOM     43  C   UNL     1       6.272  10.995  -2.356  1.00  0.00     0.031 C 
ATOM     44  C   UNL     1       5.159   7.787  -7.954  1.00  0.00     0.029 A 
ATOM     45  C   UNL     1       6.370   7.497  -7.208  1.00  0.00     0.049 A 
ATOM     46  H   UNL     1       7.417   8.820  -5.964  1.00  0.00     0.167 HD
ATOM     47  C   UNL     1       8.816  11.186  -2.560  1.00  0.00     0.034 A 
ATOM     48  C   UNL     1       7.100   6.351  -7.175  1.00  0.00     0.034 A 
ATOM     49  C   UNL     1       9.736  11.514  -3.634  1.00  0.00     0.049 A 
ATOM     50  C   UNL     1       8.446   6.723  -6.671  1.00  0.00     0.074 A 
ATOM     51  C   UNL     1       9.932  12.618  -4.442  1.00  0.00     0.029 A 
ATOM     52  N   UNL     1      10.375  10.473  -4.277  1.00  0.00    -0.354 N 
ATOM     53  N   UNL     1       9.252   7.525  -7.316  1.00  0.00    -0.248 NA
ATOM     54  C   UNL     1       8.699   6.619  -5.241  1.00  0.00     0.031 C 
ATOM     55  C   UNL     1      10.211  12.081  -5.734  1.00  0.00     0.029 A 
ATOM     56  C   UNL     1      10.266  10.689  -5.627  1.00  0.00     0.049 A 
ATOM     57  H   UNL     1      10.827   9.712  -3.845  1.00  0.00     0.167 HD
ATOM     58  C   UNL     1       9.799   8.346  -6.340  1.00  0.00     0.074 A 
ATOM     59  C   UNL     1       9.512   7.668  -5.076  1.00  0.00     0.031 C 
ATOM     60  C   UNL     1      10.170   9.632  -6.618  1.00  0.00     0.034 A 
BRANCH  47  61
ATOM     61  C   UNL     1       9.285  10.405  -1.341  1.00  0.00     0.023 A 
ATOM     62  C   UNL     1      10.680  10.284  -1.181  1.00  0.00     0.031 A 
ATOM     63  C   UNL     1       8.511   9.547  -0.531  1.00  0.00     0.131 A 
ATOM     64  C   UNL     1      11.239   9.239  -0.428  1.00  0.00     0.055 A 
ATOM     65  C   UNL     1       9.074   8.554   0.279  1.00  0.00     0.041 A 
ATOM     66  F   UNL     1       7.175   9.562  -0.515  1.00  0.00    -0.206 F 
ATOM     67  C   UNL     1      10.443   8.361   0.296  1.00  0.00     0.022 A 
BRANCH  64  68
ATOM     68  S   UNL     1      13.012   8.922  -0.611  1.00  0.00     0.124 S 
ATOM     69  O   UNL     1      13.132   8.817  -2.062  1.00  0.00    -0.237 OA
ATOM     70  O   UNL     1      13.592  10.112   0.002  1.00  0.00    -0.237 OA
ATOM     71  O   UNL     1      13.209   7.678   0.127  1.00  0.00    -0.744 OA
ENDBRANCH  64  68
ENDBRANCH  47  61
BRANCH  48  72
ATOM     72  C   UNL     1       6.574   4.959  -7.258  1.00  0.00     0.023 A 
ATOM     73  C   UNL     1       7.356   3.851  -7.649  1.00  0.00     0.031 A 
ATOM     74  C   UNL     1       5.292   4.671  -6.731  1.00  0.00     0.131 A 
ATOM     75  C   UNL     1       6.846   2.535  -7.512  1.00  0.00     0.055 A 
ATOM     76  C   UNL     1       4.792   3.373  -6.606  1.00  0.00     0.041 A 
ATOM     77  F   UNL     1       4.508   5.647  -6.243  1.00  0.00    -0.206 F 
ATOM     78  C   UNL     1       5.572   2.297  -6.991  1.00  0.00     0.022 A 
BRANCH  75  79
ATOM     79  S   UNL     1       7.874   1.092  -7.945  1.00  0.00     0.124 S 
ATOM     80  O   UNL     1       8.075   1.269  -9.378  1.00  0.00    -0.237 OA
ATOM     81  O   UNL     1       9.045   1.280  -7.096  1.00  0.00    -0.237 OA
ATOM     82  O   UNL     1       7.033  -0.049  -7.580  1.00  0.00    -0.744 OA
ENDBRANCH  75  79
ENDBRANCH  48  72
BRANCH  60  83
ATOM     83  C   UNL     1      10.287  10.064  -8.065  1.00  0.00     0.023 A 
ATOM     84  C   UNL     1       9.223  10.083  -8.994  1.00  0.00     0.031 A 
ATOM     85  C   UNL     1      11.509  10.639  -8.457  1.00  0.00     0.131 A 
ATOM     86  C   UNL     1       9.410  10.669 -10.263  1.00  0.00     0.055 A 
ATOM     87  C   UNL     1      11.683  11.236  -9.703  1.00  0.00     0.041 A 
ATOM     88  F   UNL     1      12.546  10.679  -7.604  1.00  0.00    -0.206 F 
ATOM     89  C   UNL     1      10.634  11.251 -10.613  1.00  0.00     0.022 A 
BRANCH  86  90
ATOM     90  S   UNL     1       8.059  10.693 -11.487  1.00  0.00     0.124 S 
ATOM     91  O   UNL     1       7.613   9.306 -11.527  1.00  0.00    -0.237 OA
ATOM     92  O   UNL     1       7.122  11.652 -10.908  1.00  0.00    -0.237 OA
ATOM     93  O   UNL     1       8.717  11.155 -12.711  1.00  0.00    -0.744 OA
ENDBRANCH  86  90
ENDBRANCH  60  83
ENDBRANCH  34  35
ENDBRANCH  26  29
ENDBRANCH  24  25
ENDBRANCH  23  24
ENDBRANCH   1  23
TORSDOF 18
