REMARK SMILES CC(C)[C@H](NC(=O)[C@H](Cc1ccccc1)n1c(=O)[nH]c2ccccc2c1=O)C(=O)NCCCCCCNC(=O)c1ccc(-c2c3nc(c(-c4cc(S(=O)(=O)[O-])ccc4F)c4ccc([nH]4)c(-c4cc(S(=O)(=O)[O-])ccc4F)c4nc(c(-c5cc(S(=O)(=O)[O-])ccc5F)c5ccc2[nH]5)C=C4)C=C3)cc1
REMARK SMILES IDX 33 1 32 2 31 3 30 4 28 5 29 6 4 8 2 9 1 10 3 11 5 12 6 13
REMARK SMILES IDX 7 15 8 16 16 17 17 18 26 19 18 20 19 21 25 22 27 23 20 24
REMARK SMILES IDX 24 26 21 27 23 28 22 29 9 30 10 31 11 32 15 33 12 34 14 35
REMARK SMILES IDX 13 36 34 37 35 38 36 39 37 40 38 41 39 43 40 44 41 45 102 46
REMARK SMILES IDX 42 47 101 48 43 49 44 50 45 51 95 52 46 53 100 54 94 55
REMARK SMILES IDX 96 56 47 57 99 58 93 59 92 60 48 62 80 63 60 64 79 65 61 66
REMARK SMILES IDX 64 67 78 68 97 69 62 70 63 71 77 73 98 74 65 75 49 76 50 77
REMARK SMILES IDX 58 78 51 79 57 80 59 81 56 82 52 83 53 84 54 85 55 86 81 87
REMARK SMILES IDX 82 88 90 89 83 90 89 91 91 92 88 93 84 94 85 95 86 96 87 97
REMARK SMILES IDX 66 98 67 99 75 100 68 101 74 102 76 103 73 104 69 105 70 106
REMARK SMILES IDX 71 107 72 108
REMARK H PARENT 30 7 5 14 19 25 37 42 96 61 64 72
REMARK Flexibility Score: inf
ROOT
ATOM      1  C   UNL     1      -5.668   5.463  -3.217  1.00  0.00     0.002 C 
ENDROOT
BRANCH   1   2
ATOM      2  C   UNL     1      -4.607   5.376  -4.322  1.00  0.00     0.021 C 
BRANCH   2   3
ATOM      3  C   UNL     1      -3.273   4.770  -3.892  1.00  0.00     0.116 C 
BRANCH   3   4
ATOM      4  N   UNL     1      -3.397   3.469  -3.270  1.00  0.00    -0.354 N 
ATOM      5  C   UNL     1      -2.956   2.249  -3.678  1.00  0.00     0.242 C 
ATOM      6  O   UNL     1      -2.971   1.337  -2.845  1.00  0.00    -0.273 OA
ATOM      7  H   UNL     1      -3.880   3.467  -2.413  1.00  0.00     0.163 HD
BRANCH   5   8
ATOM      8  C   UNL     1      -2.271   2.046  -5.046  1.00  0.00     0.173 C 
BRANCH   8   9
ATOM      9  C   UNL     1      -0.781   2.476  -4.824  1.00  0.00     0.015 C 
ATOM     10  C   UNL     1       0.103   1.234  -4.662  1.00  0.00     0.010 C 
ATOM     11  C   UNL     1      -0.171   3.406  -5.872  1.00  0.00     0.010 C 
ENDBRANCH   8   9
BRANCH   8  12
ATOM     12  N   UNL     1      -2.965   2.717  -6.149  1.00  0.00    -0.342 N 
ATOM     13  C   UNL     1      -4.090   2.415  -6.859  1.00  0.00     0.244 C 
ATOM     14  H   UNL     1      -2.533   3.554  -6.434  1.00  0.00     0.164 HD
ATOM     15  O   UNL     1      -4.296   3.170  -7.820  1.00  0.00    -0.273 OA
BRANCH  13  16
ATOM     16  C   UNL     1      -4.925   1.115  -6.679  1.00  0.00     0.189 C 
BRANCH  16  17
ATOM     17  N   UNL     1      -5.099   0.634  -5.300  1.00  0.00    -0.247 N 
ATOM     18  C   UNL     1      -5.798   1.446  -4.431  1.00  0.00     0.329 A 
ATOM     19  C   UNL     1      -4.561  -0.589  -4.913  1.00  0.00     0.264 A 
ATOM     20  O   UNL     1      -5.988   2.642  -4.628  1.00  0.00    -0.248 OA
ATOM     21  N   UNL     1      -6.232   0.901  -3.267  1.00  0.00    -0.307 N 
ATOM     22  C   UNL     1      -4.830  -1.025  -3.524  1.00  0.00     0.064 A 
ATOM     23  O   UNL     1      -3.881  -1.304  -5.647  1.00  0.00    -0.268 OA
ATOM     24  C   UNL     1      -5.742  -0.296  -2.768  1.00  0.00     0.055 A 
ATOM     25  H   UNL     1      -6.925   1.376  -2.754  1.00  0.00     0.171 HD
ATOM     26  C   UNL     1      -4.162  -2.108  -2.949  1.00  0.00     0.016 A 
ATOM     27  C   UNL     1      -6.066  -0.681  -1.469  1.00  0.00     0.027 A 
ATOM     28  C   UNL     1      -4.439  -2.463  -1.626  1.00  0.00     0.001 A 
ATOM     29  C   UNL     1      -5.405  -1.766  -0.896  1.00  0.00     0.002 A 
ENDBRANCH  16  17
BRANCH  16  30
ATOM     30  C   UNL     1      -6.251   1.133  -7.538  1.00  0.00     0.071 C 
BRANCH  30  31
ATOM     31  C   UNL     1      -7.571   1.295  -6.806  1.00  0.00    -0.045 A 
ATOM     32  C   UNL     1      -8.024   2.564  -6.415  1.00  0.00     0.004 A 
ATOM     33  C   UNL     1      -8.290   0.166  -6.388  1.00  0.00     0.004 A 
ATOM     34  C   UNL     1      -9.078   2.690  -5.505  1.00  0.00     0.000 A 
ATOM     35  C   UNL     1      -9.368   0.297  -5.510  1.00  0.00     0.000 A 
ATOM     36  C   UNL     1      -9.739   1.555  -5.040  1.00  0.00     0.000 A 
ENDBRANCH  30  31
ENDBRANCH  16  30
ENDBRANCH  13  16
ENDBRANCH   8  12
ENDBRANCH   5   8
ENDBRANCH   3   4
ENDBRANCH   2   3
ENDBRANCH   1   2
BRANCH   1  37
ATOM     37  C   UNL     1      -5.207   6.114  -1.911  1.00  0.00     0.002 C 
BRANCH  37  38
ATOM     38  C   UNL     1      -4.533   7.476  -2.068  1.00  0.00     0.021 C 
BRANCH  38  39
ATOM     39  C   UNL     1      -5.370   8.512  -2.800  1.00  0.00     0.116 C 
BRANCH  39  40
ATOM     40  N   UNL     1      -6.555   8.878  -2.047  1.00  0.00    -0.352 N 
ATOM     41  C   UNL     1      -6.981  10.129  -1.672  1.00  0.00     0.251 C 
ATOM     42  H   UNL     1      -7.130   8.130  -1.767  1.00  0.00     0.163 HD
ATOM     43  O   UNL     1      -7.879  10.245  -0.849  1.00  0.00    -0.269 OA
BRANCH  41  44
ATOM     44  C   UNL     1      -6.327  11.326  -2.252  1.00  0.00     0.039 A 
ATOM     45  C   UNL     1      -6.029  12.403  -1.415  1.00  0.00     0.014 A 
ATOM     46  C   UNL     1      -6.017  11.389  -3.614  1.00  0.00     0.014 A 
ATOM     47  C   UNL     1      -5.389  13.529  -1.939  1.00  0.00     0.010 A 
ATOM     48  C   UNL     1      -5.303  12.474  -4.115  1.00  0.00     0.010 A 
ATOM     49  C   UNL     1      -5.002  13.566  -3.289  1.00  0.00    -0.014 A 
BRANCH  49  50
ATOM     50  C   UNL     1      -4.333  14.764  -3.862  1.00  0.00     0.031 A 
ATOM     51  C   UNL     1      -5.019  15.555  -4.946  1.00  0.00     0.074 A 
ATOM     52  C   UNL     1      -3.106  15.121  -3.435  1.00  0.00     0.049 A 
ATOM     53  N   UNL     1      -4.590  16.598  -5.609  1.00  0.00    -0.248 NA
ATOM     54  C   UNL     1      -6.354  15.092  -5.357  1.00  0.00     0.031 C 
ATOM     55  C   UNL     1      -2.328  14.416  -2.414  1.00  0.00     0.029 A 
ATOM     56  N   UNL     1      -2.296  16.166  -3.803  1.00  0.00    -0.354 N 
ATOM     57  C   UNL     1      -5.596  16.909  -6.519  1.00  0.00     0.074 A 
ATOM     58  C   UNL     1      -6.621  15.899  -6.372  1.00  0.00     0.031 C 
ATOM     59  C   UNL     1      -1.171  15.067  -2.215  1.00  0.00     0.029 A 
ATOM     60  C   UNL     1      -1.100  16.207  -3.124  1.00  0.00     0.049 A 
ATOM     61  H   UNL     1      -2.548  16.826  -4.489  1.00  0.00     0.167 HD
ATOM     62  C   UNL     1      -5.673  17.957  -7.377  1.00  0.00     0.034 A 
ATOM     63  C   UNL     1      -0.064  17.063  -3.226  1.00  0.00     0.034 A 
ATOM     64  C   UNL     1      -4.647  18.963  -7.503  1.00  0.00     0.049 A 
ATOM     65  C   UNL     1      -0.160  18.205  -4.209  1.00  0.00     0.074 A 
ATOM     66  C   UNL     1      -4.633  20.083  -8.316  1.00  0.00     0.029 A 
ATOM     67  N   UNL     1      -3.449  18.971  -6.799  1.00  0.00    -0.354 N 
ATOM     68  N   UNL     1      -1.135  18.507  -5.036  1.00  0.00    -0.248 NA
ATOM     69  C   UNL     1       0.978  19.132  -4.259  1.00  0.00     0.031 C 
ATOM     70  C   UNL     1      -3.403  20.729  -8.153  1.00  0.00     0.029 A 
ATOM     71  C   UNL     1      -2.682  20.063  -7.175  1.00  0.00     0.049 A 
ATOM     72  H   UNL     1      -3.184  18.299  -6.130  1.00  0.00     0.167 HD
ATOM     73  C   UNL     1      -0.745  19.684  -5.670  1.00  0.00     0.074 A 
ATOM     74  C   UNL     1       0.546  20.042  -5.120  1.00  0.00     0.031 C 
ATOM     75  C   UNL     1      -1.396  20.409  -6.615  1.00  0.00     0.034 A 
BRANCH  62  76
ATOM     76  C   UNL     1      -6.899  18.048  -8.256  1.00  0.00     0.023 A 
ATOM     77  C   UNL     1      -8.187  18.200  -7.713  1.00  0.00     0.031 A 
ATOM     78  C   UNL     1      -6.784  17.957  -9.655  1.00  0.00     0.131 A 
ATOM     79  C   UNL     1      -9.310  18.178  -8.553  1.00  0.00     0.055 A 
ATOM     80  C   UNL     1      -7.899  18.025 -10.492  1.00  0.00     0.041 A 
ATOM     81  F   UNL     1      -5.584  17.789 -10.233  1.00  0.00    -0.206 F 
ATOM     82  C   UNL     1      -9.174  18.120  -9.941  1.00  0.00     0.022 A 
BRANCH  79  83
ATOM     83  S   UNL     1     -10.956  18.080  -7.796  1.00  0.00     0.124 S 
ATOM     84  O   UNL     1     -10.857  16.835  -7.038  1.00  0.00    -0.237 OA
ATOM     85  O   UNL     1     -11.016  19.305  -7.008  1.00  0.00    -0.237 OA
ATOM     86  O   UNL     1     -11.859  18.031  -8.945  1.00  0.00    -0.744 OA
ENDBRANCH  79  83
ENDBRANCH  62  76
BRANCH  63  87
ATOM     87  C   UNL     1       1.157  16.887  -2.385  1.00  0.00     0.023 A 
ATOM     88  C   UNL     1       1.545  17.868  -1.459  1.00  0.00     0.031 A 
ATOM     89  C   UNL     1       1.989  15.764  -2.539  1.00  0.00     0.131 A 
ATOM     90  C   UNL     1       2.761  17.740  -0.769  1.00  0.00     0.055 A 
ATOM     91  C   UNL     1       3.166  15.610  -1.805  1.00  0.00     0.041 A 
ATOM     92  F   UNL     1       1.665  14.792  -3.408  1.00  0.00    -0.206 F 
ATOM     93  C   UNL     1       3.567  16.610  -0.925  1.00  0.00     0.022 A 
BRANCH  90  94
ATOM     94  S   UNL     1       3.328  19.126   0.255  1.00  0.00     0.124 S 
ATOM     95  O   UNL     1       3.351  20.218  -0.712  1.00  0.00    -0.237 OA
ATOM     96  O   UNL     1       2.288  19.192   1.276  1.00  0.00    -0.237 OA
ATOM     97  O   UNL     1       4.638  18.683   0.729  1.00  0.00    -0.744 OA
ENDBRANCH  90  94
ENDBRANCH  63  87
BRANCH  75  98
ATOM     98  C   UNL     1      -0.749  21.699  -7.061  1.00  0.00     0.023 A 
ATOM     99  C   UNL     1       0.478  21.722  -7.745  1.00  0.00     0.031 A 
ATOM    100  C   UNL     1      -1.369  22.930  -6.776  1.00  0.00     0.131 A 
ATOM    101  C   UNL     1       1.080  22.950  -8.061  1.00  0.00     0.055 A 
ATOM    102  C   UNL     1      -0.799  24.146  -7.155  1.00  0.00     0.041 A 
ATOM    103  F   UNL     1      -2.541  22.970  -6.122  1.00  0.00    -0.206 F 
ATOM    104  C   UNL     1       0.440  24.161  -7.787  1.00  0.00     0.022 A 
BRANCH 101 105
ATOM    105  S   UNL     1       2.764  22.946  -8.735  1.00  0.00     0.124 S 
ATOM    106  O   UNL     1       3.500  22.215  -7.709  1.00  0.00    -0.237 OA
ATOM    107  O   UNL     1       2.589  22.254 -10.008  1.00  0.00    -0.237 OA
ATOM    108  O   UNL     1       3.094  24.366  -8.842  1.00  0.00    -0.744 OA
ENDBRANCH 101 105
ENDBRANCH  75  98
ENDBRANCH  49  50
ENDBRANCH  41  44
ENDBRANCH  39  40
ENDBRANCH  38  39
ENDBRANCH  37  38
ENDBRANCH   1  37
TORSDOF 22
