REMARK SMILES CCC[C@@H]1SC[C@H](C(=O)NCCCCCCNC(=O)c2ccc(-c3c4nc(c(-c5cc(S(=O)(=O)[O-])ccc5F)c5ccc([nH]5)c(-c5cc(S(=O)(=O)[O-])ccc5F)c5nc(c(-c6cc(S(=O)(=O)[O-])ccc6F)c6ccc3[nH]6)C=C5)C=C4)cc2)N1C(=O)C[NH+]1CCC([NH3+])CC1
REMARK SMILES IDX 13 1 12 2 11 3 10 4 8 5 9 6 7 8 4 9 5 10 83 11 6 12 3 13
REMARK SMILES IDX 2 14 1 15 84 16 85 17 86 18 87 19 88 20 93 21 89 23 92 24
REMARK SMILES IDX 90 25 91 26 14 30 15 31 16 32 17 33 18 34 19 36 20 37 21 38
REMARK SMILES IDX 82 39 22 40 81 41 23 42 24 43 25 44 75 45 26 46 80 47 74 48
REMARK SMILES IDX 76 49 27 50 79 51 73 52 72 53 28 55 60 56 40 57 59 58 41 59
REMARK SMILES IDX 44 60 58 61 77 62 42 63 43 64 57 66 78 67 45 68 29 69 30 70
REMARK SMILES IDX 38 71 31 72 37 73 39 74 36 75 32 76 33 77 34 78 35 79 61 80
REMARK SMILES IDX 62 81 70 82 63 83 69 84 71 85 68 86 64 87 65 88 66 89 67 90
REMARK SMILES IDX 46 91 47 92 55 93 48 94 54 95 56 96 53 97 49 98 50 99 51 100
REMARK SMILES IDX 52 101
REMARK H PARENT 10 7 87 22 91 27 91 28 91 29 17 35 76 54 44 65
REMARK Flexibility Score: inf
ROOT
ATOM      1  C   UNL     1      -5.474  -7.543   2.899  1.00  0.00     0.002 C 
ENDROOT
BRANCH   1   2
ATOM      2  C   UNL     1      -4.503  -7.210   1.767  1.00  0.00     0.021 C 
BRANCH   2   3
ATOM      3  C   UNL     1      -3.575  -6.047   2.071  1.00  0.00     0.116 C 
BRANCH   3   4
ATOM      4  N   UNL     1      -2.827  -6.182   3.320  1.00  0.00    -0.354 N 
ATOM      5  C   UNL     1      -1.701  -5.486   3.722  1.00  0.00     0.243 C 
ATOM      6  O   UNL     1      -1.323  -5.570   4.886  1.00  0.00    -0.273 OA
ATOM      7  H   UNL     1      -3.168  -6.852   3.955  1.00  0.00     0.163 HD
BRANCH   5   8
ATOM      8  C   UNL     1      -1.044  -4.601   2.662  1.00  0.00     0.185 C 
ATOM      9  C   UNL     1       0.285  -2.798   1.915  1.00  0.00     0.144 C 
ATOM     10  S   UNL     1      -1.261  -1.933   2.416  1.00  0.00    -0.134 SA
ATOM     11  N   UNL     1       0.250  -3.895   2.845  1.00  0.00    -0.313 N 
ATOM     12  C   UNL     1      -2.114  -3.502   2.346  1.00  0.00     0.107 C 
BRANCH   9  13
ATOM     13  C   UNL     1       1.493  -1.765   1.727  1.00  0.00     0.036 C 
BRANCH  13  14
ATOM     14  C   UNL     1       3.297  -1.573   0.644  1.00  0.00    -0.000 C 
ATOM     15  C   UNL     1       3.825  -1.288  -0.889  1.00  0.00     0.004 C 
ENDBRANCH  13  14
ENDBRANCH   9  13
BRANCH  11  16
ATOM     16  C   UNL     1       1.384  -4.491   3.366  1.00  0.00     0.279 C 
ATOM     17  O   UNL     1       1.424  -5.698   3.612  1.00  0.00    -0.268 OA
BRANCH  16  18
ATOM     18  C   UNL     1       2.592  -3.573   3.679  1.00  0.00     0.363 C 
BRANCH  18  19
ATOM     19  N   UNL     1       3.198  -2.885   2.498  1.00  0.00    -0.327 N 
ATOM     20  C   UNL     1       2.530  -3.566   0.937  1.00  0.00     0.268 C 
ATOM     21  C   UNL     1       3.278  -1.039   2.744  1.00  0.00     0.268 C 
ATOM     22  H   UNL     1       4.191  -3.101   2.405  1.00  0.00     0.348 HD
ATOM     23  C   UNL     1       1.590  -2.485  -0.345  1.00  0.00     0.126 C 
ATOM     24  C   UNL     1       2.359   0.196   1.494  1.00  0.00     0.126 C 
ATOM     25  C   UNL     1       1.478  -0.574  -0.094  1.00  0.00     0.192 C 
BRANCH  25  26
ATOM     26  N   UNL     1       0.061  -0.161  -0.287  1.00  0.00    -0.355 N 
ATOM     27  H   UNL     1      -0.520  -0.589   0.434  1.00  0.00     0.344 HD
ATOM     28  H   UNL     1      -0.259  -0.465  -1.207  1.00  0.00     0.344 HD
ATOM     29  H   UNL     1      -0.009   0.855  -0.222  1.00  0.00     0.344 HD
ENDBRANCH  25  26
ENDBRANCH  18  19
ENDBRANCH  16  18
ENDBRANCH  11  16
ENDBRANCH   5   8
ENDBRANCH   3   4
ENDBRANCH   2   3
ENDBRANCH   1   2
BRANCH   1  30
ATOM     30  C   UNL     1      -6.302  -6.365   3.425  1.00  0.00     0.002 C 
BRANCH  30  31
ATOM     31  C   UNL     1      -7.198  -5.678   2.392  1.00  0.00     0.021 C 
BRANCH  31  32
ATOM     32  C   UNL     1      -8.070  -6.623   1.575  1.00  0.00     0.116 C 
BRANCH  32  33
ATOM     33  N   UNL     1      -8.864  -7.506   2.414  1.00  0.00    -0.352 N 
ATOM     34  C   UNL     1     -10.200  -7.795   2.343  1.00  0.00     0.251 C 
ATOM     35  H   UNL     1      -8.371  -7.960   3.136  1.00  0.00     0.163 HD
ATOM     36  O   UNL     1     -10.739  -8.434   3.246  1.00  0.00    -0.269 OA
BRANCH  34  37
ATOM     37  C   UNL     1     -10.984  -7.306   1.194  1.00  0.00     0.039 A 
ATOM     38  C   UNL     1     -12.206  -6.675   1.433  1.00  0.00     0.014 A 
ATOM     39  C   UNL     1     -10.496  -7.439  -0.109  1.00  0.00     0.014 A 
ATOM     40  C   UNL     1     -12.912  -6.124   0.365  1.00  0.00     0.010 A 
ATOM     41  C   UNL     1     -11.161  -6.817  -1.160  1.00  0.00     0.010 A 
ATOM     42  C   UNL     1     -12.377  -6.156  -0.934  1.00  0.00    -0.014 A 
BRANCH  42  43
ATOM     43  C   UNL     1     -13.084  -5.504  -2.066  1.00  0.00     0.031 A 
ATOM     44  C   UNL     1     -13.587  -6.330  -3.216  1.00  0.00     0.074 A 
ATOM     45  C   UNL     1     -13.230  -4.164  -2.073  1.00  0.00     0.049 A 
ATOM     46  N   UNL     1     -14.185  -5.943  -4.313  1.00  0.00    -0.248 NA
ATOM     47  C   UNL     1     -13.364  -7.782  -3.134  1.00  0.00     0.031 C 
ATOM     48  C   UNL     1     -12.749  -3.257  -1.027  1.00  0.00     0.029 A 
ATOM     49  N   UNL     1     -13.822  -3.329  -2.986  1.00  0.00    -0.354 N 
ATOM     50  C   UNL     1     -14.405  -7.099  -5.053  1.00  0.00     0.074 A 
ATOM     51  C   UNL     1     -13.813  -8.191  -4.311  1.00  0.00     0.031 C 
ATOM     52  C   UNL     1     -13.096  -1.999  -1.342  1.00  0.00     0.029 A 
ATOM     53  C   UNL     1     -13.774  -2.000  -2.634  1.00  0.00     0.049 A 
ATOM     54  H   UNL     1     -14.243  -3.652  -3.816  1.00  0.00     0.167 HD
ATOM     55  C   UNL     1     -15.064  -7.238  -6.230  1.00  0.00     0.034 A 
ATOM     56  C   UNL     1     -14.215  -0.905  -3.285  1.00  0.00     0.034 A 
ATOM     57  C   UNL     1     -15.650  -6.136  -6.952  1.00  0.00     0.049 A 
ATOM     58  C   UNL     1     -14.904  -1.081  -4.615  1.00  0.00     0.074 A 
ATOM     59  C   UNL     1     -16.379  -6.168  -8.128  1.00  0.00     0.029 A 
ATOM     60  N   UNL     1     -15.566  -4.801  -6.576  1.00  0.00    -0.354 N 
ATOM     61  N   UNL     1     -15.150  -2.188  -5.278  1.00  0.00    -0.248 NA
ATOM     62  C   UNL     1     -15.384   0.137  -5.279  1.00  0.00     0.031 C 
ATOM     63  C   UNL     1     -16.662  -4.852  -8.505  1.00  0.00     0.029 A 
ATOM     64  C   UNL     1     -16.195  -3.999  -7.518  1.00  0.00     0.049 A 
ATOM     65  H   UNL     1     -15.124  -4.472  -5.760  1.00  0.00     0.167 HD
ATOM     66  C   UNL     1     -15.845  -1.799  -6.421  1.00  0.00     0.074 A 
ATOM     67  C   UNL     1     -15.991  -0.360  -6.346  1.00  0.00     0.031 C 
ATOM     68  C   UNL     1     -16.324  -2.563  -7.437  1.00  0.00     0.034 A 
BRANCH  55  69
ATOM     69  C   UNL     1     -15.155  -8.627  -6.817  1.00  0.00     0.023 A 
ATOM     70  C   UNL     1     -15.811  -9.674  -6.145  1.00  0.00     0.031 A 
ATOM     71  C   UNL     1     -14.557  -8.917  -8.057  1.00  0.00     0.131 A 
ATOM     72  C   UNL     1     -15.788 -10.972  -6.676  1.00  0.00     0.055 A 
ATOM     73  C   UNL     1     -14.615 -10.192  -8.623  1.00  0.00     0.041 A 
ATOM     74  F   UNL     1     -13.894  -7.968  -8.736  1.00  0.00    -0.206 F 
ATOM     75  C   UNL     1     -15.220 -11.233  -7.925  1.00  0.00     0.022 A 
BRANCH  72  76
ATOM     76  S   UNL     1     -16.373 -12.341  -5.640  1.00  0.00     0.124 S 
ATOM     77  O   UNL     1     -15.504 -12.218  -4.472  1.00  0.00    -0.237 OA
ATOM     78  O   UNL     1     -17.776 -12.002  -5.432  1.00  0.00    -0.237 OA
ATOM     79  O   UNL     1     -16.131 -13.523  -6.465  1.00  0.00    -0.744 OA
ENDBRANCH  72  76
ENDBRANCH  55  69
BRANCH  56  80
ATOM     80  C   UNL     1     -14.010   0.455  -2.705  1.00  0.00     0.023 A 
ATOM     81  C   UNL     1     -15.102   1.268  -2.361  1.00  0.00     0.031 A 
ATOM     82  C   UNL     1     -12.717   0.981  -2.531  1.00  0.00     0.131 A 
ATOM     83  C   UNL     1     -14.883   2.580  -1.914  1.00  0.00     0.055 A 
ATOM     84  C   UNL     1     -12.504   2.264  -2.025  1.00  0.00     0.041 A 
ATOM     85  F   UNL     1     -11.637   0.247  -2.842  1.00  0.00    -0.206 F 
ATOM     86  C   UNL     1     -13.592   3.078  -1.728  1.00  0.00     0.022 A 
BRANCH  83  87
ATOM     87  S   UNL     1     -16.317   3.666  -1.675  1.00  0.00     0.124 S 
ATOM     88  O   UNL     1     -16.930   3.639  -2.998  1.00  0.00    -0.237 OA
ATOM     89  O   UNL     1     -17.045   2.977  -0.615  1.00  0.00    -0.237 OA
ATOM     90  O   UNL     1     -15.716   4.941  -1.290  1.00  0.00    -0.744 OA
ENDBRANCH  83  87
ENDBRANCH  56  80
BRANCH  68  91
ATOM     91  C   UNL     1     -17.095  -1.855  -8.526  1.00  0.00     0.023 A 
ATOM     92  C   UNL     1     -16.485  -0.919  -9.380  1.00  0.00     0.031 A 
ATOM     93  C   UNL     1     -18.465  -2.117  -8.704  1.00  0.00     0.131 A 
ATOM     94  C   UNL     1     -17.257  -0.236 -10.333  1.00  0.00     0.055 A 
ATOM     95  C   UNL     1     -19.212  -1.486  -9.700  1.00  0.00     0.041 A 
ATOM     96  F   UNL     1     -19.102  -2.996  -7.914  1.00  0.00    -0.206 F 
ATOM     97  C   UNL     1     -18.611  -0.529 -10.512  1.00  0.00     0.022 A 
BRANCH  94  98
ATOM     98  S   UNL     1     -16.490   1.117 -11.265  1.00  0.00     0.124 S 
ATOM     99  O   UNL     1     -16.052   2.010 -10.197  1.00  0.00    -0.237 OA
ATOM    100  O   UNL     1     -15.431   0.431 -11.997  1.00  0.00    -0.237 OA
ATOM    101  O   UNL     1     -17.584   1.627 -12.091  1.00  0.00    -0.744 OA
ENDBRANCH  94  98
ENDBRANCH  68  91
ENDBRANCH  42  43
ENDBRANCH  34  37
ENDBRANCH  32  33
ENDBRANCH  31  32
ENDBRANCH  30  31
ENDBRANCH   1  30
TORSDOF 22
