REMARK SMILES O=C(C[C@@H]1CN(c2ccc([N+](=O)[O-])cc2Cl)CCO1)NCCCCCCNC(=O)c1ccc(-c2c3nc(c(-c4cc(S(=O)(=O)[O-])ccc4F)c4ccc([nH]4)c(-c4cc(S(=O)(=O)[O-])ccc4F)c4nc(c(-c5cc(S(=O)(=O)[O-])ccc5F)c5ccc2[nH]5)C=C4)C=C3)cc1
REMARK SMILES IDX 23 1 22 2 21 3 20 4 1 5 2 6 3 8 4 9 5 10 19 11 6 12 18 13
REMARK SMILES IDX 17 14 7 15 8 16 15 17 9 18 14 19 16 20 10 21 11 22 12 23
REMARK SMILES IDX 13 24 24 25 25 26 26 27 27 28 28 29 29 31 30 32 31 33 92 34
REMARK SMILES IDX 32 35 91 36 33 37 34 38 35 39 85 40 36 41 90 42 84 43 86 44
REMARK SMILES IDX 37 45 89 46 83 47 82 48 38 50 70 51 50 52 69 53 51 54 54 55
REMARK SMILES IDX 68 56 87 57 52 58 53 59 67 61 88 62 55 63 39 64 40 65 48 66
REMARK SMILES IDX 41 67 47 68 49 69 46 70 42 71 43 72 44 73 45 74 71 75 72 76
REMARK SMILES IDX 80 77 73 78 79 79 81 80 78 81 74 82 75 83 76 84 77 85 56 86
REMARK SMILES IDX 57 87 65 88 58 89 64 90 66 91 63 92 59 93 60 94 61 95 62 96
REMARK H PARENT 20 7 27 30 86 49 54 60
REMARK Flexibility Score: inf
ROOT
ATOM      1  C   UNL     1       4.088   3.265  -1.743  1.00  0.00     0.002 C 
ENDROOT
BRANCH   1   2
ATOM      2  C   UNL     1       2.588   3.083  -1.471  1.00  0.00     0.021 C 
BRANCH   2   3
ATOM      3  C   UNL     1       2.084   1.648  -1.625  1.00  0.00     0.116 C 
BRANCH   3   4
ATOM      4  N   UNL     1       2.766   0.763  -0.704  1.00  0.00    -0.356 N 
ATOM      5  O   UNL     1       0.905  -0.064   0.371  1.00  0.00    -0.275 OA
ATOM      6  C   UNL     1       2.122  -0.005   0.235  1.00  0.00     0.222 C 
ATOM      7  H   UNL     1       3.748   0.709  -0.753  1.00  0.00     0.163 HD
BRANCH   6   8
ATOM      8  C   UNL     1       3.066  -0.772   1.133  1.00  0.00     0.133 C 
BRANCH   8   9
ATOM      9  C   UNL     1       3.837  -1.814   0.328  1.00  0.00     0.147 C 
ATOM     10  C   UNL     1       3.365  -3.243   0.661  1.00  0.00     0.149 C 
ATOM     11  O   UNL     1       5.251  -1.664   0.611  1.00  0.00    -0.374 OA
ATOM     12  N   UNL     1       4.196  -4.198  -0.082  1.00  0.00    -0.365 N 
ATOM     13  C   UNL     1       6.022  -2.581  -0.192  1.00  0.00     0.182 C 
ATOM     14  C   UNL     1       5.641  -4.048   0.089  1.00  0.00     0.145 C 
BRANCH  12  15
ATOM     15  C   UNL     1       3.628  -5.236  -0.784  1.00  0.00     0.056 A 
ATOM     16  C   UNL     1       3.889  -6.559  -0.394  1.00  0.00     0.034 A 
ATOM     17  C   UNL     1       2.762  -5.039  -1.886  1.00  0.00     0.071 A 
ATOM     18  C   UNL     1       3.282  -7.644  -1.037  1.00  0.00     0.088 A 
ATOM     19  C   UNL     1       2.154  -6.112  -2.543  1.00  0.00     0.108 A 
ATOM     20  Cl  UNL     1       2.456  -3.464  -2.540  1.00  0.00    -0.082 Cl
ATOM     21  C   UNL     1       2.408  -7.412  -2.104  1.00  0.00     0.271 A 
BRANCH  21  22
ATOM     22  N   UNL     1       1.748  -8.541  -2.768  1.00  0.00     0.062 N 
ATOM     23  O   UNL     1       1.994  -9.680  -2.345  1.00  0.00    -0.258 OA
ATOM     24  O   UNL     1       0.980  -8.291  -3.707  1.00  0.00    -0.258 OA
ENDBRANCH  21  22
ENDBRANCH  12  15
ENDBRANCH   8   9
ENDBRANCH   6   8
ENDBRANCH   3   4
ENDBRANCH   2   3
ENDBRANCH   1   2
BRANCH   1  25
ATOM     25  C   UNL     1       4.551   2.878  -3.151  1.00  0.00     0.002 C 
BRANCH  25  26
ATOM     26  C   UNL     1       3.868   3.637  -4.290  1.00  0.00     0.021 C 
BRANCH  26  27
ATOM     27  C   UNL     1       4.000   5.157  -4.222  1.00  0.00     0.116 C 
BRANCH  27  28
ATOM     28  N   UNL     1       5.383   5.599  -4.328  1.00  0.00    -0.352 N 
ATOM     29  C   UNL     1       5.944   6.505  -5.197  1.00  0.00     0.251 C 
ATOM     30  H   UNL     1       6.006   5.191  -3.685  1.00  0.00     0.163 HD
ATOM     31  O   UNL     1       7.166   6.619  -5.253  1.00  0.00    -0.269 OA
BRANCH  29  32
ATOM     32  C   UNL     1       5.077   7.313  -6.083  1.00  0.00     0.039 A 
ATOM     33  C   UNL     1       5.411   7.427  -7.435  1.00  0.00     0.014 A 
ATOM     34  C   UNL     1       3.930   7.940  -5.589  1.00  0.00     0.014 A 
ATOM     35  C   UNL     1       4.549   8.098  -8.307  1.00  0.00     0.010 A 
ATOM     36  C   UNL     1       3.037   8.546  -6.471  1.00  0.00     0.010 A 
ATOM     37  C   UNL     1       3.331   8.620  -7.841  1.00  0.00    -0.014 A 
BRANCH  37  38
ATOM     38  C   UNL     1       2.338   9.213  -8.777  1.00  0.00     0.031 A 
ATOM     39  C   UNL     1       1.948  10.660  -8.658  1.00  0.00     0.074 A 
ATOM     40  C   UNL     1       1.730   8.424  -9.685  1.00  0.00     0.049 A 
ATOM     41  N   UNL     1       1.038  11.329  -9.318  1.00  0.00    -0.248 NA
ATOM     42  C   UNL     1       2.658  11.447  -7.641  1.00  0.00     0.031 C 
ATOM     43  C   UNL     1       1.989   6.993  -9.866  1.00  0.00     0.029 A 
ATOM     44  N   UNL     1       0.756   8.703 -10.612  1.00  0.00    -0.354 N 
ATOM     45  C   UNL     1       1.062  12.618  -8.795  1.00  0.00     0.074 A 
ATOM     46  C   UNL     1       2.028  12.610  -7.715  1.00  0.00     0.031 C 
ATOM     47  C   UNL     1       1.204   6.525 -10.848  1.00  0.00     0.029 A 
ATOM     48  C   UNL     1       0.348   7.604 -11.332  1.00  0.00     0.049 A 
ATOM     49  H   UNL     1       0.385   9.604 -10.748  1.00  0.00     0.167 HD
ATOM     50  C   UNL     1       0.361  13.710  -9.194  1.00  0.00     0.034 A 
ATOM     51  C   UNL     1      -0.623   7.469 -12.257  1.00  0.00     0.034 A 
ATOM     52  C   UNL     1      -0.607  13.694 -10.265  1.00  0.00     0.049 A 
ATOM     53  C   UNL     1      -1.427   8.680 -12.653  1.00  0.00     0.074 A 
ATOM     54  C   UNL     1      -1.337  14.749 -10.785  1.00  0.00     0.029 A 
ATOM     55  N   UNL     1      -0.999  12.561 -10.970  1.00  0.00    -0.354 N 
ATOM     56  N   UNL     1      -1.350   9.907 -12.191  1.00  0.00    -0.248 NA
ATOM     57  C   UNL     1      -2.440   8.491 -13.698  1.00  0.00     0.031 C 
ATOM     58  C   UNL     1      -2.222  14.243 -11.744  1.00  0.00     0.029 A 
ATOM     59  C   UNL     1      -1.988  12.885 -11.888  1.00  0.00     0.049 A 
ATOM     60  H   UNL     1      -0.628  11.659 -10.837  1.00  0.00     0.167 HD
ATOM     61  C   UNL     1      -2.294  10.641 -12.905  1.00  0.00     0.074 A 
ATOM     62  C   UNL     1      -2.911   9.722 -13.840  1.00  0.00     0.031 C 
ATOM     63  C   UNL     1      -2.617  11.956 -12.799  1.00  0.00     0.034 A 
BRANCH  50  64
ATOM     64  C   UNL     1       0.603  14.999  -8.440  1.00  0.00     0.023 A 
ATOM     65  C   UNL     1       1.876  15.596  -8.393  1.00  0.00     0.031 A 
ATOM     66  C   UNL     1      -0.435  15.614  -7.719  1.00  0.00     0.131 A 
ATOM     67  C   UNL     1       2.100  16.708  -7.567  1.00  0.00     0.055 A 
ATOM     68  C   UNL     1      -0.227  16.778  -6.974  1.00  0.00     0.041 A 
ATOM     69  F   UNL     1      -1.668  15.085  -7.707  1.00  0.00    -0.206 F 
ATOM     70  C   UNL     1       1.052  17.320  -6.878  1.00  0.00     0.022 A 
BRANCH  67  71
ATOM     71  S   UNL     1       3.812  17.227  -7.267  1.00  0.00     0.124 S 
ATOM     72  O   UNL     1       4.407  15.997  -6.748  1.00  0.00    -0.237 OA
ATOM     73  O   UNL     1       4.254  17.641  -8.593  1.00  0.00    -0.237 OA
ATOM     74  O   UNL     1       3.677  18.304  -6.288  1.00  0.00    -0.744 OA
ENDBRANCH  67  71
ENDBRANCH  50  64
BRANCH  51  75
ATOM     75  C   UNL     1      -0.911   6.129 -12.845  1.00  0.00     0.023 A 
ATOM     76  C   UNL     1      -0.693   5.865 -14.206  1.00  0.00     0.031 A 
ATOM     77  C   UNL     1      -1.425   5.090 -12.046  1.00  0.00     0.131 A 
ATOM     78  C   UNL     1      -1.020   4.606 -14.735  1.00  0.00     0.055 A 
ATOM     79  C   UNL     1      -1.698   3.824 -12.565  1.00  0.00     0.041 A 
ATOM     80  F   UNL     1      -1.647   5.288 -10.737  1.00  0.00    -0.206 F 
ATOM     81  C   UNL     1      -1.505   3.580 -13.921  1.00  0.00     0.022 A 
BRANCH  78  82
ATOM     82  S   UNL     1      -0.864   4.346 -16.523  1.00  0.00     0.124 S 
ATOM     83  O   UNL     1      -1.763   5.366 -17.051  1.00  0.00    -0.237 OA
ATOM     84  O   UNL     1       0.561   4.572 -16.740  1.00  0.00    -0.237 OA
ATOM     85  O   UNL     1      -1.309   2.966 -16.707  1.00  0.00    -0.744 OA
ENDBRANCH  78  82
ENDBRANCH  51  75
BRANCH  63  86
ATOM     86  C   UNL     1      -3.672  12.482 -13.743  1.00  0.00     0.023 A 
ATOM     87  C   UNL     1      -5.012  12.062 -13.667  1.00  0.00     0.031 A 
ATOM     88  C   UNL     1      -3.330  13.417 -14.737  1.00  0.00     0.131 A 
ATOM     89  C   UNL     1      -5.949  12.536 -14.598  1.00  0.00     0.055 A 
ATOM     90  C   UNL     1      -4.279  13.934 -15.620  1.00  0.00     0.041 A 
ATOM     91  F   UNL     1      -2.065  13.850 -14.862  1.00  0.00    -0.206 F 
ATOM     92  C   UNL     1      -5.595  13.484 -15.561  1.00  0.00     0.022 A 
BRANCH  89  93
ATOM     93  S   UNL     1      -7.620  11.832 -14.591  1.00  0.00     0.124 S 
ATOM     94  O   UNL     1      -7.353  10.416 -14.823  1.00  0.00    -0.237 OA
ATOM     95  O   UNL     1      -8.101  12.180 -13.258  1.00  0.00    -0.237 OA
ATOM     96  O   UNL     1      -8.290  12.525 -15.690  1.00  0.00    -0.744 OA
ENDBRANCH  89  93
ENDBRANCH  63  86
ENDBRANCH  37  38
ENDBRANCH  29  32
ENDBRANCH  27  28
ENDBRANCH  26  27
ENDBRANCH  25  26
ENDBRANCH   1  25
TORSDOF 19
