REMARK SMILES O=C(Cn1c(SCCc2ccccc2)nc2ccccc21)NCCCCCCNC(=O)c1ccc(-c2c3nc(c(-c4cc(S(=O)(=O)[O-])ccc4F)c4ccc([nH]4)c(-c4cc(S(=O)(=O)[O-])ccc4F)c4nc(c(-c5cc(S(=O)(=O)[O-])ccc5F)c5ccc2[nH]5)C=C4)C=C3)cc1
REMARK SMILES IDX 24 1 23 2 22 3 1 4 2 5 3 7 4 8 5 9 21 10 15 11 16 12 20 13
REMARK SMILES IDX 17 14 19 15 18 16 6 17 7 18 8 19 9 20 10 21 14 22 11 23
REMARK SMILES IDX 13 24 12 25 25 26 26 27 27 28 28 29 29 30 30 31 31 33 32 34
REMARK SMILES IDX 33 35 94 36 34 37 93 38 35 39 36 40 37 41 87 42 38 43 92 44
REMARK SMILES IDX 86 45 88 46 39 47 91 48 85 49 84 50 40 52 72 53 52 54 71 55
REMARK SMILES IDX 53 56 56 57 70 58 89 59 54 60 55 61 69 63 90 64 57 65 41 66
REMARK SMILES IDX 42 67 50 68 43 69 49 70 51 71 48 72 44 73 45 74 46 75 47 76
REMARK SMILES IDX 73 77 74 78 82 79 75 80 81 81 83 82 80 83 76 84 77 85 78 86
REMARK SMILES IDX 79 87 58 88 59 89 67 90 60 91 66 92 68 93 65 94 61 95 62 96
REMARK SMILES IDX 63 97 64 98
REMARK H PARENT 22 6 29 32 88 51 56 62
REMARK Flexibility Score: inf
ROOT
ATOM      1  C   UNL     1       3.005   2.634  -0.731  1.00  0.00     0.021 C 
ENDROOT
BRANCH   1   2
ATOM      2  C   UNL     1       3.166   1.149  -1.384  1.00  0.00     0.116 C 
BRANCH   2   3
ATOM      3  N   UNL     1       3.532  -0.335  -0.722  1.00  0.00    -0.355 N 
ATOM      4  O   UNL     1       2.137  -1.768   0.790  1.00  0.00    -0.273 OA
ATOM      5  C   UNL     1       3.192  -1.443   0.234  1.00  0.00     0.240 C 
ATOM      6  H   UNL     1       4.363  -0.621  -1.166  1.00  0.00     0.163 HD
BRANCH   5   7
ATOM      7  C   UNL     1       4.302  -2.181   0.996  1.00  0.00     0.224 C 
BRANCH   7   8
ATOM      8  N   UNL     1       5.536  -1.976   0.342  1.00  0.00    -0.309 N 
ATOM      9  C   UNL     1       5.877  -0.662   0.103  1.00  0.00     0.169 A 
ATOM     10  C   UNL     1       5.791  -2.791  -0.748  1.00  0.00     0.069 A 
ATOM     11  N   UNL     1       6.226  -0.578  -1.189  1.00  0.00    -0.222 NA
ATOM     12  C   UNL     1       6.138  -1.890  -1.742  1.00  0.00     0.090 A 
ATOM     13  C   UNL     1       5.439  -4.139  -0.977  1.00  0.00     0.028 A 
ATOM     14  C   UNL     1       6.125  -2.381  -3.072  1.00  0.00     0.030 A 
ATOM     15  C   UNL     1       5.396  -4.587  -2.292  1.00  0.00     0.002 A 
ATOM     16  C   UNL     1       5.737  -3.723  -3.329  1.00  0.00     0.002 A 
BRANCH   9  17
ATOM     17  S   UNL     1       5.134   0.704   1.199  1.00  0.00    -0.088 SA
BRANCH  17  18
ATOM     18  C   UNL     1       2.954   0.674   1.490  1.00  0.00     0.083 C 
BRANCH  18  19
ATOM     19  C   UNL     1       1.320   0.543   0.628  1.00  0.00     0.047 C 
BRANCH  19  20
ATOM     20  C   UNL     1       0.537  -0.481  -0.413  1.00  0.00    -0.047 A 
ATOM     21  C   UNL     1      -0.753  -0.898  -0.051  1.00  0.00     0.004 A 
ATOM     22  C   UNL     1       1.067  -1.192  -1.533  1.00  0.00     0.004 A 
ATOM     23  C   UNL     1      -1.300  -2.103  -0.546  1.00  0.00     0.000 A 
ATOM     24  C   UNL     1       0.604  -2.458  -1.922  1.00  0.00     0.000 A 
ATOM     25  C   UNL     1      -0.573  -2.936  -1.393  1.00  0.00     0.000 A 
ENDBRANCH  19  20
ENDBRANCH  18  19
ENDBRANCH  17  18
ENDBRANCH   9  17
ENDBRANCH   7   8
ENDBRANCH   5   7
ENDBRANCH   2   3
ENDBRANCH   1   2
BRANCH   1  26
ATOM     26  C   UNL     1       4.112   3.534  -0.125  1.00  0.00     0.002 C 
BRANCH  26  27
ATOM     27  C   UNL     1       4.718   4.618  -1.020  1.00  0.00     0.002 C 
BRANCH  27  28
ATOM     28  C   UNL     1       3.982   5.969  -1.060  1.00  0.00     0.021 C 
BRANCH  28  29
ATOM     29  C   UNL     1       3.944   6.763   0.256  1.00  0.00     0.116 C 
BRANCH  29  30
ATOM     30  N   UNL     1       5.245   7.091   0.812  1.00  0.00    -0.352 N 
ATOM     31  C   UNL     1       6.158   8.097   0.632  1.00  0.00     0.251 C 
ATOM     32  H   UNL     1       5.543   6.431   1.480  1.00  0.00     0.163 HD
ATOM     33  O   UNL     1       7.127   8.086   1.398  1.00  0.00    -0.269 OA
BRANCH  31  34
ATOM     34  C   UNL     1       6.098   9.140  -0.431  1.00  0.00     0.039 A 
ATOM     35  C   UNL     1       5.032   9.336  -1.305  1.00  0.00     0.014 A 
ATOM     36  C   UNL     1       7.244   9.945  -0.588  1.00  0.00     0.014 A 
ATOM     37  C   UNL     1       5.155  10.207  -2.382  1.00  0.00     0.010 A 
ATOM     38  C   UNL     1       7.357  10.848  -1.645  1.00  0.00     0.010 A 
ATOM     39  C   UNL     1       6.337  10.926  -2.586  1.00  0.00    -0.014 A 
BRANCH  39  40
ATOM     40  C   UNL     1       6.431  11.718  -3.813  1.00  0.00     0.031 A 
ATOM     41  C   UNL     1       5.320  12.685  -4.065  1.00  0.00     0.074 A 
ATOM     42  C   UNL     1       7.447  11.623  -4.692  1.00  0.00     0.049 A 
ATOM     43  N   UNL     1       4.417  12.652  -4.994  1.00  0.00    -0.248 NA
ATOM     44  C   UNL     1       5.139  13.766  -3.089  1.00  0.00     0.031 C 
ATOM     45  C   UNL     1       8.748  10.965  -4.539  1.00  0.00     0.029 A 
ATOM     46  N   UNL     1       7.534  12.189  -5.928  1.00  0.00    -0.354 N 
ATOM     47  C   UNL     1       3.631  13.792  -4.815  1.00  0.00     0.074 A 
ATOM     48  C   UNL     1       4.053  14.376  -3.564  1.00  0.00     0.031 C 
ATOM     49  C   UNL     1       9.570  11.363  -5.537  1.00  0.00     0.029 A 
ATOM     50  C   UNL     1       8.800  12.152  -6.483  1.00  0.00     0.049 A 
ATOM     51  H   UNL     1       6.761  12.591  -6.386  1.00  0.00     0.167 HD
ATOM     52  C   UNL     1       2.772  14.263  -5.766  1.00  0.00     0.034 A 
ATOM     53  C   UNL     1       9.207  12.785  -7.609  1.00  0.00     0.034 A 
ATOM     54  C   UNL     1       2.511  13.290  -6.787  1.00  0.00     0.049 A 
ATOM     55  C   UNL     1       8.007  13.089  -8.424  1.00  0.00     0.074 A 
ATOM     56  C   UNL     1       1.865  12.072  -6.832  1.00  0.00     0.029 A 
ATOM     57  N   UNL     1       3.222  13.374  -7.958  1.00  0.00    -0.354 N 
ATOM     58  N   UNL     1       7.282  12.187  -9.026  1.00  0.00    -0.248 NA
ATOM     59  C   UNL     1       7.366  14.380  -8.233  1.00  0.00     0.031 C 
ATOM     60  C   UNL     1       2.601  11.299  -7.775  1.00  0.00     0.029 A 
ATOM     61  C   UNL     1       3.629  12.103  -8.273  1.00  0.00     0.049 A 
ATOM     62  H   UNL     1       3.405  14.193  -8.474  1.00  0.00     0.167 HD
ATOM     63  C   UNL     1       5.977  12.640  -8.893  1.00  0.00     0.074 A 
ATOM     64  C   UNL     1       6.103  14.040  -8.495  1.00  0.00     0.031 C 
ATOM     65  C   UNL     1       4.917  11.778  -8.855  1.00  0.00     0.034 A 
BRANCH  52  66
ATOM     66  C   UNL     1       2.353  15.707  -5.900  1.00  0.00     0.023 A 
ATOM     67  C   UNL     1       3.069  16.754  -5.292  1.00  0.00     0.031 A 
ATOM     68  C   UNL     1       1.352  16.096  -6.814  1.00  0.00     0.131 A 
ATOM     69  C   UNL     1       2.772  18.097  -5.554  1.00  0.00     0.055 A 
ATOM     70  C   UNL     1       1.100  17.439  -7.129  1.00  0.00     0.041 A 
ATOM     71  F   UNL     1       0.618  15.182  -7.468  1.00  0.00    -0.206 F 
ATOM     72  C   UNL     1       1.809  18.450  -6.493  1.00  0.00     0.022 A 
BRANCH  69  73
ATOM     73  S   UNL     1       3.640  19.418  -4.664  1.00  0.00     0.124 S 
ATOM     74  O   UNL     1       4.359  20.083  -5.742  1.00  0.00    -0.237 OA
ATOM     75  O   UNL     1       2.530  20.165  -4.082  1.00  0.00    -0.237 OA
ATOM     76  O   UNL     1       4.463  18.687  -3.698  1.00  0.00    -0.744 OA
ENDBRANCH  69  73
ENDBRANCH  52  66
BRANCH  53  77
ATOM     77  C   UNL     1      10.437  13.605  -7.696  1.00  0.00     0.023 A 
ATOM     78  C   UNL     1      10.911  14.269  -6.547  1.00  0.00     0.031 A 
ATOM     79  C   UNL     1      10.969  13.989  -8.936  1.00  0.00     0.131 A 
ATOM     80  C   UNL     1      11.844  15.305  -6.659  1.00  0.00     0.055 A 
ATOM     81  C   UNL     1      11.916  15.014  -9.044  1.00  0.00     0.041 A 
ATOM     82  F   UNL     1      10.531  13.419 -10.069  1.00  0.00    -0.206 F 
ATOM     83  C   UNL     1      12.347  15.688  -7.904  1.00  0.00     0.022 A 
BRANCH  80  84
ATOM     84  S   UNL     1      12.361  16.237  -5.192  1.00  0.00     0.124 S 
ATOM     85  O   UNL     1      13.817  16.233  -5.324  1.00  0.00    -0.237 OA
ATOM     86  O   UNL     1      11.714  17.525  -5.416  1.00  0.00    -0.237 OA
ATOM     87  O   UNL     1      11.841  15.446  -4.081  1.00  0.00    -0.744 OA
ENDBRANCH  80  84
ENDBRANCH  53  77
BRANCH  65  88
ATOM     88  C   UNL     1       5.151  10.315  -9.173  1.00  0.00     0.023 A 
ATOM     89  C   UNL     1       4.272   9.690 -10.077  1.00  0.00     0.031 A 
ATOM     90  C   UNL     1       6.037   9.487  -8.457  1.00  0.00     0.131 A 
ATOM     91  C   UNL     1       4.271   8.295 -10.216  1.00  0.00     0.055 A 
ATOM     92  C   UNL     1       6.080   8.102  -8.649  1.00  0.00     0.041 A 
ATOM     93  F   UNL     1       6.823   9.975  -7.489  1.00  0.00    -0.206 F 
ATOM     94  C   UNL     1       5.183   7.497  -9.521  1.00  0.00     0.022 A 
BRANCH  91  95
ATOM     95  S   UNL     1       2.980   7.468 -11.181  1.00  0.00     0.124 S 
ATOM     96  O   UNL     1       3.748   6.843 -12.254  1.00  0.00    -0.237 OA
ATOM     97  O   UNL     1       2.405   6.546 -10.204  1.00  0.00    -0.237 OA
ATOM     98  O   UNL     1       2.097   8.555 -11.596  1.00  0.00    -0.744 OA
ENDBRANCH  91  95
ENDBRANCH  65  88
ENDBRANCH  39  40
ENDBRANCH  31  34
ENDBRANCH  29  30
ENDBRANCH  28  29
ENDBRANCH  27  28
ENDBRANCH  26  27
ENDBRANCH   1  26
TORSDOF 21
