REMARK SMILES Cc1ccc(S(=O)(=O)Nc2cc(C(=O)NCCCCCCNC(=O)c3ccc(-c4c5nc(c(-c6cc(S(=O)(=O)[O-])ccc6F)c6ccc([nH]6)c(-c6cc(S(=O)(=O)[O-])ccc6F)c6nc(c(-c7cc(S(=O)(=O)[O-])ccc7F)c7ccc4[nH]7)C=C6)C=C5)cc3)ccc2C)c(Br)c1
REMARK SMILES IDX 18 1 17 2 16 3 15 4 13 5 14 6 12 8 10 9 11 10 90 11 89 12
REMARK SMILES IDX 91 13 88 14 9 15 6 17 7 18 8 19 5 20 1 21 2 22 3 23 94 24
REMARK SMILES IDX 4 25 92 26 93 27 19 28 20 29 21 30 22 31 23 32 24 34 25 35
REMARK SMILES IDX 26 36 87 37 27 38 86 39 28 40 29 41 30 42 80 43 31 44 85 45
REMARK SMILES IDX 79 46 81 47 32 48 84 49 78 50 77 51 33 53 65 54 45 55 64 56
REMARK SMILES IDX 46 57 49 58 63 59 82 60 47 61 48 62 62 64 83 65 50 66 34 67
REMARK SMILES IDX 35 68 43 69 36 70 42 71 44 72 41 73 37 74 38 75 39 76 40 77
REMARK SMILES IDX 66 78 67 79 75 80 68 81 74 82 76 83 73 84 69 85 70 86 71 87
REMARK SMILES IDX 72 88 51 89 52 90 60 91 53 92 59 93 61 94 58 95 54 96 55 97
REMARK SMILES IDX 56 98 57 99
REMARK H PARENT 15 7 9 16 22 33 81 52 49 63
REMARK Flexibility Score: inf
ROOT
ATOM      1  C   UNL     1      -2.581   0.626   5.201  1.00  0.00     0.002 C 
ENDROOT
BRANCH   1   2
ATOM      2  C   UNL     1      -2.093   1.636   4.153  1.00  0.00     0.021 C 
BRANCH   2   3
ATOM      3  C   UNL     1      -2.766   1.472   2.792  1.00  0.00     0.116 C 
BRANCH   3   4
ATOM      4  N   UNL     1      -4.035   2.176   2.749  1.00  0.00    -0.352 N 
ATOM      5  C   UNL     1      -4.500   3.262   2.060  1.00  0.00     0.251 C 
ATOM      6  O   UNL     1      -5.687   3.562   2.210  1.00  0.00    -0.269 OA
ATOM      7  H   UNL     1      -4.710   1.784   3.349  1.00  0.00     0.163 HD
BRANCH   5   8
ATOM      8  C   UNL     1      -3.696   4.046   1.078  1.00  0.00     0.041 A 
ATOM      9  C   UNL     1      -1.663   4.672  -0.069  1.00  0.00     0.053 A 
ATOM     10  C   UNL     1      -2.302   4.116   1.045  1.00  0.00     0.040 A 
ATOM     11  C   UNL     1      -2.385   5.436  -1.001  1.00  0.00    -0.027 A 
ATOM     12  C   UNL     1      -3.778   5.467  -0.903  1.00  0.00     0.006 A 
ATOM     13  C   UNL     1      -1.732   6.213  -2.112  1.00  0.00     0.046 C 
ATOM     14  C   UNL     1      -4.424   4.744   0.098  1.00  0.00     0.014 A 
BRANCH   9  15
ATOM     15  N   UNL     1      -0.256   4.535  -0.289  1.00  0.00    -0.279 N 
ATOM     16  H   UNL     1       0.258   5.332  -0.552  1.00  0.00     0.180 HD
BRANCH  15  17
ATOM     17  S   UNL     1       0.568   3.056  -0.115  1.00  0.00     0.263 S 
ATOM     18  O   UNL     1       0.925   3.059   1.293  1.00  0.00    -0.201 OA
ATOM     19  O   UNL     1       1.583   3.042  -1.142  1.00  0.00    -0.201 OA
BRANCH  17  20
ATOM     20  C   UNL     1      -0.456   1.624  -0.375  1.00  0.00     0.101 A 
ATOM     21  C   UNL     1      -3.169  -1.736  -0.208  1.00  0.00     0.044 C 
ATOM     22  C   UNL     1      -2.214  -0.584  -0.326  1.00  0.00    -0.050 A 
ATOM     23  C   UNL     1      -2.597   0.616  -0.931  1.00  0.00     0.005 A 
ATOM     24  C   UNL     1      -0.903  -0.711   0.139  1.00  0.00     0.020 A 
ATOM     25  C   UNL     1      -1.713   1.703  -0.984  1.00  0.00     0.024 A 
ATOM     26  C   UNL     1      -0.026   0.383   0.121  1.00  0.00     0.038 A 
ATOM     27  Br  UNL     1       1.738   0.025   0.740  1.00  0.00    -0.049 Br
ENDBRANCH  17  20
ENDBRANCH  15  17
ENDBRANCH   9  15
ENDBRANCH   5   8
ENDBRANCH   3   4
ENDBRANCH   2   3
ENDBRANCH   1   2
BRANCH   1  28
ATOM     28  C   UNL     1      -2.398  -0.860   4.840  1.00  0.00     0.002 C 
BRANCH  28  29
ATOM     29  C   UNL     1      -1.020  -1.258   4.306  1.00  0.00     0.021 C 
BRANCH  29  30
ATOM     30  C   UNL     1       0.101  -1.090   5.323  1.00  0.00     0.116 C 
BRANCH  30  31
ATOM     31  N   UNL     1       0.533  -2.329   5.955  1.00  0.00    -0.352 N 
ATOM     32  C   UNL     1       1.488  -2.518   6.942  1.00  0.00     0.251 C 
ATOM     33  H   UNL     1       0.084  -3.146   5.637  1.00  0.00     0.163 HD
ATOM     34  O   UNL     1       1.817  -3.636   7.299  1.00  0.00    -0.269 OA
BRANCH  32  35
ATOM     35  C   UNL     1       2.004  -1.329   7.667  1.00  0.00     0.039 A 
ATOM     36  C   UNL     1       1.905  -1.345   9.064  1.00  0.00     0.014 A 
ATOM     37  C   UNL     1       2.327  -0.152   6.997  1.00  0.00     0.014 A 
ATOM     38  C   UNL     1       1.885  -0.141   9.762  1.00  0.00     0.010 A 
ATOM     39  C   UNL     1       2.213   1.047   7.672  1.00  0.00     0.010 A 
ATOM     40  C   UNL     1       1.925   1.052   9.041  1.00  0.00    -0.014 A 
BRANCH  40  41
ATOM     41  C   UNL     1       1.552   2.337   9.619  1.00  0.00     0.031 A 
ATOM     42  C   UNL     1       2.586   3.320   9.987  1.00  0.00     0.074 A 
ATOM     43  C   UNL     1       0.247   2.640   9.789  1.00  0.00     0.049 A 
ATOM     44  N   UNL     1       2.449   4.218  10.903  1.00  0.00    -0.248 NA
ATOM     45  C   UNL     1       3.902   3.331   9.362  1.00  0.00     0.031 C 
ATOM     46  C   UNL     1      -0.326   3.936  10.136  1.00  0.00     0.029 A 
ATOM     47  N   UNL     1      -0.811   1.745   9.917  1.00  0.00    -0.354 N 
ATOM     48  C   UNL     1       3.506   5.092  10.794  1.00  0.00     0.074 A 
ATOM     49  C   UNL     1       4.420   4.450   9.876  1.00  0.00     0.031 C 
ATOM     50  C   UNL     1      -1.538   3.741  10.679  1.00  0.00     0.029 A 
ATOM     51  C   UNL     1      -1.725   2.308  10.823  1.00  0.00     0.049 A 
ATOM     52  H   UNL     1      -0.902   0.879   9.458  1.00  0.00     0.167 HD
ATOM     53  C   UNL     1       3.420   6.325  11.374  1.00  0.00     0.034 A 
ATOM     54  C   UNL     1      -2.035   1.668  11.988  1.00  0.00     0.034 A 
ATOM     55  C   UNL     1       2.177   6.473  12.135  1.00  0.00     0.049 A 
ATOM     56  C   UNL     1      -1.654   2.454  13.224  1.00  0.00     0.074 A 
ATOM     57  C   UNL     1       0.972   7.095  11.850  1.00  0.00     0.029 A 
ATOM     58  N   UNL     1       1.955   5.688  13.262  1.00  0.00    -0.354 N 
ATOM     59  N   UNL     1      -0.833   3.469  13.225  1.00  0.00    -0.248 NA
ATOM     60  C   UNL     1      -2.166   2.152  14.556  1.00  0.00     0.031 C 
ATOM     61  C   UNL     1       0.004   6.620  12.772  1.00  0.00     0.029 A 
ATOM     62  C   UNL     1       0.626   5.739  13.640  1.00  0.00     0.049 A 
ATOM     63  H   UNL     1       2.649   5.167  13.727  1.00  0.00     0.167 HD
ATOM     64  C   UNL     1      -0.687   3.945  14.505  1.00  0.00     0.074 A 
ATOM     65  C   UNL     1      -1.565   3.100  15.297  1.00  0.00     0.031 C 
ATOM     66  C   UNL     1       0.145   4.992  14.797  1.00  0.00     0.034 A 
BRANCH  53  67
ATOM     67  C   UNL     1       4.294   7.501  10.980  1.00  0.00     0.023 A 
ATOM     68  C   UNL     1       3.776   8.811  11.076  1.00  0.00     0.031 A 
ATOM     69  C   UNL     1       5.598   7.414  10.456  1.00  0.00     0.131 A 
ATOM     70  C   UNL     1       4.471   9.921  10.559  1.00  0.00     0.055 A 
ATOM     71  C   UNL     1       6.265   8.506   9.882  1.00  0.00     0.041 A 
ATOM     72  F   UNL     1       6.313   6.284  10.530  1.00  0.00    -0.206 F 
ATOM     73  C   UNL     1       5.694   9.768   9.916  1.00  0.00     0.022 A 
BRANCH  70  74
ATOM     74  S   UNL     1       3.757  11.579  10.747  1.00  0.00     0.124 S 
ATOM     75  O   UNL     1       2.490  11.454  10.036  1.00  0.00    -0.237 OA
ATOM     76  O   UNL     1       3.676  11.717  12.197  1.00  0.00    -0.237 OA
ATOM     77  O   UNL     1       4.742  12.447  10.101  1.00  0.00    -0.744 OA
ENDBRANCH  70  74
ENDBRANCH  53  67
BRANCH  54  78
ATOM     78  C   UNL     1      -2.026   0.183  11.854  1.00  0.00     0.023 A 
ATOM     79  C   UNL     1      -2.917  -0.383  10.915  1.00  0.00     0.031 A 
ATOM     80  C   UNL     1      -0.939  -0.594  12.278  1.00  0.00     0.131 A 
ATOM     81  C   UNL     1      -2.620  -1.611  10.306  1.00  0.00     0.055 A 
ATOM     82  C   UNL     1      -0.680  -1.849  11.711  1.00  0.00     0.041 A 
ATOM     83  F   UNL     1      -0.041  -0.100  13.142  1.00  0.00    -0.206 F 
ATOM     84  C   UNL     1      -1.494  -2.341  10.688  1.00  0.00     0.022 A 
BRANCH  81  85
ATOM     85  S   UNL     1      -3.557  -2.109   8.829  1.00  0.00     0.124 S 
ATOM     86  O   UNL     1      -4.636  -2.903   9.405  1.00  0.00    -0.237 OA
ATOM     87  O   UNL     1      -3.952  -0.829   8.243  1.00  0.00    -0.237 OA
ATOM     88  O   UNL     1      -2.578  -2.854   8.040  1.00  0.00    -0.744 OA
ENDBRANCH  81  85
ENDBRANCH  54  78
BRANCH  66  89
ATOM     89  C   UNL     1       0.511   5.479  16.187  1.00  0.00     0.023 A 
ATOM     90  C   UNL     1       0.322   4.721  17.352  1.00  0.00     0.031 A 
ATOM     91  C   UNL     1       1.146   6.734  16.375  1.00  0.00     0.131 A 
ATOM     92  C   UNL     1       0.658   5.232  18.620  1.00  0.00     0.055 A 
ATOM     93  C   UNL     1       1.555   7.205  17.627  1.00  0.00     0.041 A 
ATOM     94  F   UNL     1       1.405   7.557  15.350  1.00  0.00    -0.206 F 
ATOM     95  C   UNL     1       1.295   6.461  18.765  1.00  0.00     0.022 A 
BRANCH  92  96
ATOM     96  S   UNL     1       0.179   4.278  20.085  1.00  0.00     0.124 S 
ATOM     97  O   UNL     1      -1.277   4.276  19.979  1.00  0.00    -0.237 OA
ATOM     98  O   UNL     1       0.833   2.995  19.852  1.00  0.00    -0.237 OA
ATOM     99  O   UNL     1       0.719   5.058  21.198  1.00  0.00    -0.744 OA
ENDBRANCH  92  96
ENDBRANCH  66  89
ENDBRANCH  40  41
ENDBRANCH  32  35
ENDBRANCH  30  31
ENDBRANCH  29  30
ENDBRANCH  28  29
ENDBRANCH   1  28
TORSDOF 19
