REMARK SMILES C[C@H](c1cccc(-c2cc(C(=O)NCCCCCCNC(=O)c3ccc(-c4c5nc(c(-c6cc(S(=O)(=O)[O-])ccc6F)c6ccc([nH]6)c(-c6cc(S(=O)(=O)[O-])ccc6F)c6nc(c(-c7cc(S(=O)(=O)[O-])ccc7F)c7ccc4[nH]7)C=C6)C=C5)cc3)cc(S(=O)(=O)N3CCOCC3)c2)c1)[NH+](C)C
REMARK SMILES IDX 16 1 15 2 14 3 13 4 11 5 12 6 10 8 8 9 9 10 97 11 87 12
REMARK SMILES IDX 86 13 7 14 3 15 4 16 98 17 5 18 6 19 2 20 1 21 99 22 100 23
REMARK SMILES IDX 101 24 88 26 89 27 90 28 91 29 92 30 96 31 93 32 95 33 94 34
REMARK SMILES IDX 17 35 18 36 19 37 20 38 21 39 22 41 23 42 24 43 85 44 25 45
REMARK SMILES IDX 84 46 26 47 27 48 28 49 78 50 29 51 83 52 77 53 79 54 30 55
REMARK SMILES IDX 82 56 76 57 75 58 31 60 63 61 43 62 62 63 44 64 47 65 61 66
REMARK SMILES IDX 80 67 45 68 46 69 60 71 81 72 48 73 32 74 33 75 41 76 34 77
REMARK SMILES IDX 40 78 42 79 39 80 35 81 36 82 37 83 38 84 64 85 65 86 73 87
REMARK SMILES IDX 66 88 72 89 74 90 71 91 67 92 68 93 69 94 70 95 49 96 50 97
REMARK SMILES IDX 58 98 51 99 57 100 59 101 56 102 52 103 53 104 54 105 55 106
REMARK H PARENT 13 7 99 25 20 40 79 59 47 70
REMARK Flexibility Score: inf
ROOT
ATOM      1  C   UNL     1      10.601   2.560   5.599  1.00  0.00     0.002 C 
ENDROOT
BRANCH   1   2
ATOM      2  C   UNL     1       9.816   1.660   4.648  1.00  0.00     0.021 C 
BRANCH   2   3
ATOM      3  C   UNL     1       8.338   1.464   4.952  1.00  0.00     0.116 C 
BRANCH   3   4
ATOM      4  N   UNL     1       7.528   2.676   4.971  1.00  0.00    -0.352 N 
ATOM      5  C   UNL     1       6.195   2.850   4.641  1.00  0.00     0.251 C 
ATOM      6  O   UNL     1       5.686   3.965   4.706  1.00  0.00    -0.269 OA
ATOM      7  H   UNL     1       7.998   3.491   5.260  1.00  0.00     0.163 HD
BRANCH   5   8
ATOM      8  C   UNL     1       5.385   1.706   4.141  1.00  0.00     0.041 A 
ATOM      9  C   UNL     1       3.877   0.805   2.438  1.00  0.00    -0.016 A 
ATOM     10  C   UNL     1       4.492   1.901   3.069  1.00  0.00     0.022 A 
ATOM     11  C   UNL     1       4.258  -0.482   2.873  1.00  0.00     0.030 A 
ATOM     12  C   UNL     1       5.105  -0.667   3.958  1.00  0.00     0.084 A 
ATOM     13  C   UNL     1       5.574   0.430   4.663  1.00  0.00     0.035 A 
BRANCH   9  14
ATOM     14  C   UNL     1       2.937   0.921   1.297  1.00  0.00    -0.018 A 
ATOM     15  C   UNL     1       1.079  -0.098   0.015  1.00  0.00     0.010 A 
ATOM     16  C   UNL     1       1.300   0.832  -1.007  1.00  0.00     0.010 A 
ATOM     17  C   UNL     1       1.859   0.015   1.181  1.00  0.00     0.018 A 
ATOM     18  C   UNL     1       2.309   1.791  -0.888  1.00  0.00     0.001 A 
ATOM     19  C   UNL     1       3.134   1.823   0.244  1.00  0.00     0.009 A 
BRANCH  15  20
ATOM     20  C   UNL     1       0.098  -1.258  -0.203  1.00  0.00     0.211 C 
ATOM     21  C   UNL     1       0.498  -2.526   0.575  1.00  0.00     0.081 C 
BRANCH  20  22
ATOM     22  N   UNL     1      -1.327  -0.876  -0.076  1.00  0.00    -0.334 N 
ATOM     23  C   UNL     1      -2.218  -1.986  -0.430  1.00  0.00     0.333 C 
ATOM     24  C   UNL     1      -1.689  -0.353   1.240  1.00  0.00     0.333 C 
ATOM     25  H   UNL     1      -1.450  -0.113  -0.742  1.00  0.00     0.348 HD
ENDBRANCH  20  22
ENDBRANCH  15  20
ENDBRANCH   9  14
BRANCH  12  26
ATOM     26  S   UNL     1       5.820  -2.242   4.378  1.00  0.00     0.243 S 
ATOM     27  O   UNL     1       7.227  -2.115   4.042  1.00  0.00    -0.207 OA
ATOM     28  O   UNL     1       5.375  -2.529   5.717  1.00  0.00    -0.207 OA
BRANCH  26  29
ATOM     29  N   UNL     1       5.131  -3.337   3.332  1.00  0.00    -0.193 NA
ATOM     30  C   UNL     1       5.712  -3.673   2.018  1.00  0.00     0.131 C 
ATOM     31  C   UNL     1       3.964  -4.143   3.719  1.00  0.00     0.131 C 
ATOM     32  C   UNL     1       4.610  -3.716   0.948  1.00  0.00     0.177 C 
ATOM     33  C   UNL     1       2.934  -4.093   2.594  1.00  0.00     0.177 C 
ATOM     34  O   UNL     1       3.490  -4.524   1.343  1.00  0.00    -0.379 OA
ENDBRANCH  26  29
ENDBRANCH  12  26
ENDBRANCH   5   8
ENDBRANCH   3   4
ENDBRANCH   2   3
ENDBRANCH   1   2
BRANCH   1  35
ATOM     35  C   UNL     1      10.460   2.279   7.096  1.00  0.00     0.002 C 
BRANCH  35  36
ATOM     36  C   UNL     1      10.755   0.854   7.571  1.00  0.00     0.021 C 
BRANCH  36  37
ATOM     37  C   UNL     1      12.080   0.242   7.125  1.00  0.00     0.116 C 
BRANCH  37  38
ATOM     38  N   UNL     1      13.235   1.038   7.498  1.00  0.00    -0.352 N 
ATOM     39  C   UNL     1      14.410   0.662   8.104  1.00  0.00     0.251 C 
ATOM     40  H   UNL     1      13.166   1.996   7.285  1.00  0.00     0.163 HD
ATOM     41  O   UNL     1      15.220   1.528   8.427  1.00  0.00    -0.269 OA
BRANCH  39  42
ATOM     42  C   UNL     1      14.692  -0.763   8.402  1.00  0.00     0.039 A 
ATOM     43  C   UNL     1      15.246  -1.086   9.646  1.00  0.00     0.014 A 
ATOM     44  C   UNL     1      14.443  -1.774   7.470  1.00  0.00     0.014 A 
ATOM     45  C   UNL     1      15.487  -2.422   9.979  1.00  0.00     0.010 A 
ATOM     46  C   UNL     1      14.629  -3.111   7.826  1.00  0.00     0.010 A 
ATOM     47  C   UNL     1      15.150  -3.449   9.084  1.00  0.00    -0.014 A 
BRANCH  47  48
ATOM     48  C   UNL     1      15.333  -4.879   9.451  1.00  0.00     0.031 A 
ATOM     49  C   UNL     1      16.328  -5.731   8.713  1.00  0.00     0.074 A 
ATOM     50  C   UNL     1      14.550  -5.428  10.401  1.00  0.00     0.049 A 
ATOM     51  N   UNL     1      16.575  -7.011   8.832  1.00  0.00    -0.248 NA
ATOM     52  C   UNL     1      17.131  -5.057   7.683  1.00  0.00     0.031 C 
ATOM     53  C   UNL     1      13.512  -4.718  11.153  1.00  0.00     0.029 A 
ATOM     54  N   UNL     1      14.490  -6.711  10.884  1.00  0.00    -0.354 N 
ATOM     55  C   UNL     1      17.545  -7.302   7.879  1.00  0.00     0.074 A 
ATOM     56  C   UNL     1      17.804  -6.071   7.160  1.00  0.00     0.031 C 
ATOM     57  C   UNL     1      12.924  -5.574  12.004  1.00  0.00     0.029 A 
ATOM     58  C   UNL     1      13.515  -6.898  11.837  1.00  0.00     0.049 A 
ATOM     59  H   UNL     1      15.088  -7.430  10.578  1.00  0.00     0.167 HD
ATOM     60  C   UNL     1      18.173  -8.481   7.637  1.00  0.00     0.034 A 
ATOM     61  C   UNL     1      13.129  -8.011  12.491  1.00  0.00     0.034 A 
ATOM     62  C   UNL     1      17.917  -9.694   8.376  1.00  0.00     0.049 A 
ATOM     63  C   UNL     1      13.845  -9.307  12.216  1.00  0.00     0.074 A 
ATOM     64  C   UNL     1      18.551 -10.920   8.269  1.00  0.00     0.029 A 
ATOM     65  N   UNL     1      16.940  -9.840   9.353  1.00  0.00    -0.354 N 
ATOM     66  N   UNL     1      14.807  -9.552  11.356  1.00  0.00    -0.248 NA
ATOM     67  C   UNL     1      13.434 -10.472  13.008  1.00  0.00     0.031 C 
ATOM     68  C   UNL     1      17.919 -11.821   9.136  1.00  0.00     0.029 A 
ATOM     69  C   UNL     1      16.933 -11.141   9.833  1.00  0.00     0.049 A 
ATOM     70  H   UNL     1      16.339  -9.123   9.661  1.00  0.00     0.167 HD
ATOM     71  C   UNL     1      15.129 -10.895  11.521  1.00  0.00     0.074 A 
ATOM     72  C   UNL     1      14.270 -11.403  12.571  1.00  0.00     0.031 C 
ATOM     73  C   UNL     1      16.057 -11.640  10.867  1.00  0.00     0.034 A 
BRANCH  60  74
ATOM     74  C   UNL     1      19.172  -8.513   6.505  1.00  0.00     0.023 A 
ATOM     75  C   UNL     1      20.345  -7.737   6.530  1.00  0.00     0.031 A 
ATOM     76  C   UNL     1      18.933  -9.305   5.368  1.00  0.00     0.131 A 
ATOM     77  C   UNL     1      21.187  -7.703   5.409  1.00  0.00     0.055 A 
ATOM     78  C   UNL     1      19.817  -9.329   4.287  1.00  0.00     0.041 A 
ATOM     79  F   UNL     1      17.823 -10.054   5.278  1.00  0.00    -0.206 F 
ATOM     80  C   UNL     1      20.944  -8.512   4.296  1.00  0.00     0.022 A 
BRANCH  77  81
ATOM     81  S   UNL     1      22.521  -6.474   5.364  1.00  0.00     0.124 S 
ATOM     82  O   UNL     1      21.777  -5.226   5.516  1.00  0.00    -0.237 OA
ATOM     83  O   UNL     1      23.349  -6.867   6.498  1.00  0.00    -0.237 OA
ATOM     84  O   UNL     1      23.127  -6.673   4.050  1.00  0.00    -0.744 OA
ENDBRANCH  77  81
ENDBRANCH  60  74
BRANCH  61  85
ATOM     85  C   UNL     1      11.998  -7.956  13.458  1.00  0.00     0.023 A 
ATOM     86  C   UNL     1      12.210  -8.134  14.833  1.00  0.00     0.031 A 
ATOM     87  C   UNL     1      10.681  -7.744  13.012  1.00  0.00     0.131 A 
ATOM     88  C   UNL     1      11.116  -8.133  15.713  1.00  0.00     0.055 A 
ATOM     89  C   UNL     1       9.602  -7.701  13.896  1.00  0.00     0.041 A 
ATOM     90  F   UNL     1      10.429  -7.559  11.706  1.00  0.00    -0.206 F 
ATOM     91  C   UNL     1       9.816  -7.907  15.255  1.00  0.00     0.022 A 
BRANCH  88  92
ATOM     92  S   UNL     1      11.412  -8.491  17.467  1.00  0.00     0.124 S 
ATOM     93  O   UNL     1      12.003  -9.823  17.404  1.00  0.00    -0.237 OA
ATOM     94  O   UNL     1      12.311  -7.407  17.849  1.00  0.00    -0.237 OA
ATOM     95  O   UNL     1      10.077  -8.427  18.057  1.00  0.00    -0.744 OA
ENDBRANCH  88  92
ENDBRANCH  61  85
BRANCH  73  96
ATOM     96  C   UNL     1      16.206 -13.076  11.301  1.00  0.00     0.023 A 
ATOM     97  C   UNL     1      15.201 -14.029  11.059  1.00  0.00     0.031 A 
ATOM     98  C   UNL     1      17.363 -13.492  11.982  1.00  0.00     0.131 A 
ATOM     99  C   UNL     1      15.351 -15.339  11.539  1.00  0.00     0.055 A 
ATOM    100  C   UNL     1      17.530 -14.809  12.412  1.00  0.00     0.041 A 
ATOM    101  F   UNL     1      18.352 -12.621  12.242  1.00  0.00    -0.206 F 
ATOM    102  C   UNL     1      16.515 -15.738  12.201  1.00  0.00     0.022 A 
BRANCH  99 103
ATOM    103  S   UNL     1      13.968 -16.499  11.356  1.00  0.00     0.124 S 
ATOM    104  O   UNL     1      12.902 -15.817  12.082  1.00  0.00    -0.237 OA
ATOM    105  O   UNL     1      13.809 -16.571   9.908  1.00  0.00    -0.237 OA
ATOM    106  O   UNL     1      14.462 -17.723  11.985  1.00  0.00    -0.744 OA
ENDBRANCH  99 103
ENDBRANCH  73  96
ENDBRANCH  47  48
ENDBRANCH  39  42
ENDBRANCH  37  38
ENDBRANCH  36  37
ENDBRANCH  35  36
ENDBRANCH   1  35
TORSDOF 21
