REMARK SMILES CC(C)c1cc(OCC(=O)NCCCCCCNC(=O)c2ccc(-c3c4nc(c(-c5cc(S(=O)(=O)[O-])ccc5F)c5ccc([nH]5)c(-c5cc(S(=O)(=O)[O-])ccc5F)c5nc(c(-c6cc(S(=O)(=O)[O-])ccc6F)c6ccc3[nH]6)C=C5)C=C4)cc2)nc(Nc2ccc(F)cc2F)n1
REMARK SMILES IDX 14 1 13 2 12 3 11 4 9 5 10 6 8 8 7 9 6 10 4 11 5 12 95 13
REMARK SMILES IDX 85 14 84 15 2 16 1 17 3 18 86 19 87 21 88 22 93 23 89 24
REMARK SMILES IDX 92 25 94 26 90 27 91 28 15 29 16 30 17 31 18 32 19 33 20 35
REMARK SMILES IDX 21 36 22 37 83 38 23 39 82 40 24 41 25 42 26 43 76 44 27 45
REMARK SMILES IDX 81 46 75 47 77 48 28 49 80 50 74 51 73 52 29 54 61 55 41 56
REMARK SMILES IDX 60 57 42 58 45 59 59 60 78 61 43 62 44 63 58 65 79 66 46 67
REMARK SMILES IDX 30 68 31 69 39 70 32 71 38 72 40 73 37 74 33 75 34 76 35 77
REMARK SMILES IDX 36 78 62 79 63 80 71 81 64 82 70 83 72 84 69 85 65 86 66 87
REMARK SMILES IDX 67 88 68 89 47 90 48 91 56 92 49 93 55 94 57 95 54 96 50 97
REMARK SMILES IDX 51 98 52 99 53 100
REMARK H PARENT 11 7 86 20 18 34 77 53 45 64
REMARK Flexibility Score: inf
ROOT
ATOM      1  C   UNL     1      -3.779  -0.845  -4.205  1.00  0.00     0.002 C 
ENDROOT
BRANCH   1   2
ATOM      2  C   UNL     1      -4.435  -0.767  -2.819  1.00  0.00     0.021 C 
BRANCH   2   3
ATOM      3  C   UNL     1      -4.376  -2.063  -2.013  1.00  0.00     0.116 C 
BRANCH   3   4
ATOM      4  N   UNL     1      -3.010  -2.451  -1.720  1.00  0.00    -0.353 N 
ATOM      5  C   UNL     1      -2.392  -2.515  -0.508  1.00  0.00     0.258 C 
ATOM      6  O   UNL     1      -1.209  -2.860  -0.458  1.00  0.00    -0.271 OA
ATOM      7  H   UNL     1      -2.459  -2.700  -2.496  1.00  0.00     0.163 HD
BRANCH   5   8
ATOM      8  C   UNL     1      -3.179  -2.183   0.769  1.00  0.00     0.331 C 
BRANCH   8   9
ATOM      9  O   UNL     1      -3.762  -0.897   0.880  1.00  0.00    -0.467 OA
BRANCH   9  10
ATOM     10  C   UNL     1      -2.941   0.194   0.839  1.00  0.00     0.218 A 
ATOM     11  C   UNL     1      -0.897   1.337   0.690  1.00  0.00     0.052 A 
ATOM     12  C   UNL     1      -1.565   0.145   0.855  1.00  0.00     0.092 A 
ATOM     13  N   UNL     1      -1.573   2.498   0.637  1.00  0.00    -0.217 NA
ATOM     14  C   UNL     1      -2.913   2.475   0.677  1.00  0.00     0.230 A 
ATOM     15  N   UNL     1      -3.625   1.348   0.775  1.00  0.00    -0.177 NA
BRANCH  11  16
ATOM     16  C   UNL     1       0.620   1.421   0.623  1.00  0.00     0.032 C 
ATOM     17  C   UNL     1       1.285   0.168   0.034  1.00  0.00     0.014 C 
ATOM     18  C   UNL     1       1.083   2.641  -0.189  1.00  0.00     0.014 C 
ENDBRANCH  11  16
BRANCH  14  19
ATOM     19  N   UNL     1      -3.618   3.674   0.732  1.00  0.00    -0.322 N 
ATOM     20  H   UNL     1      -4.588   3.599   0.882  1.00  0.00     0.170 HD
BRANCH  19  21
ATOM     21  C   UNL     1      -3.117   4.974   0.600  1.00  0.00     0.077 A 
ATOM     22  C   UNL     1      -3.431   5.933   1.574  1.00  0.00     0.032 A 
ATOM     23  C   UNL     1      -2.208   5.335  -0.412  1.00  0.00     0.149 A 
ATOM     24  C   UNL     1      -2.839   7.199   1.542  1.00  0.00     0.041 A 
ATOM     25  C   UNL     1      -1.629   6.598  -0.461  1.00  0.00     0.080 A 
ATOM     26  F   UNL     1      -1.910   4.471  -1.396  1.00  0.00    -0.205 F 
ATOM     27  C   UNL     1      -1.943   7.517   0.527  1.00  0.00     0.126 A 
ATOM     28  F   UNL     1      -1.370   8.728   0.509  1.00  0.00    -0.207 F 
ENDBRANCH  19  21
ENDBRANCH  14  19
ENDBRANCH   9  10
ENDBRANCH   8   9
ENDBRANCH   5   8
ENDBRANCH   3   4
ENDBRANCH   2   3
ENDBRANCH   1   2
BRANCH   1  29
ATOM     29  C   UNL     1      -4.283  -1.972  -5.112  1.00  0.00     0.002 C 
BRANCH  29  30
ATOM     30  C   UNL     1      -5.797  -2.002  -5.335  1.00  0.00     0.021 C 
BRANCH  30  31
ATOM     31  C   UNL     1      -6.378  -0.734  -5.951  1.00  0.00     0.116 C 
BRANCH  31  32
ATOM     32  N   UNL     1      -5.877  -0.499  -7.296  1.00  0.00    -0.352 N 
ATOM     33  C   UNL     1      -6.576  -0.301  -8.461  1.00  0.00     0.251 C 
ATOM     34  H   UNL     1      -4.897  -0.479  -7.383  1.00  0.00     0.163 HD
ATOM     35  O   UNL     1      -5.983  -0.323  -9.537  1.00  0.00    -0.269 OA
BRANCH  33  36
ATOM     36  C   UNL     1      -8.041  -0.092  -8.420  1.00  0.00     0.039 A 
ATOM     37  C   UNL     1      -8.846  -0.756  -9.348  1.00  0.00     0.014 A 
ATOM     38  C   UNL     1      -8.620   0.754  -7.469  1.00  0.00     0.014 A 
ATOM     39  C   UNL     1     -10.236  -0.622  -9.281  1.00  0.00     0.010 A 
ATOM     40  C   UNL     1     -10.007   0.824  -7.355  1.00  0.00     0.010 A 
ATOM     41  C   UNL     1     -10.831   0.138  -8.261  1.00  0.00    -0.014 A 
BRANCH  41  42
ATOM     42  C   UNL     1     -12.310   0.224  -8.126  1.00  0.00     0.031 A 
ATOM     43  C   UNL     1     -13.008   1.550  -8.274  1.00  0.00     0.074 A 
ATOM     44  C   UNL     1     -13.018  -0.882  -7.818  1.00  0.00     0.049 A 
ATOM     45  N   UNL     1     -14.276   1.838  -8.129  1.00  0.00    -0.248 NA
ATOM     46  C   UNL     1     -12.163   2.708  -8.600  1.00  0.00     0.031 C 
ATOM     47  C   UNL     1     -12.451  -2.218  -7.617  1.00  0.00     0.029 A 
ATOM     48  N   UNL     1     -14.363  -1.062  -7.613  1.00  0.00    -0.354 N 
ATOM     49  C   UNL     1     -14.380   3.210  -8.334  1.00  0.00     0.074 A 
ATOM     50  C   UNL     1     -13.037   3.703  -8.552  1.00  0.00     0.031 C 
ATOM     51  C   UNL     1     -13.443  -3.082  -7.351  1.00  0.00     0.029 A 
ATOM     52  C   UNL     1     -14.710  -2.358  -7.306  1.00  0.00     0.049 A 
ATOM     53  H   UNL     1     -15.020  -0.331  -7.680  1.00  0.00     0.167 HD
ATOM     54  C   UNL     1     -15.495   3.983  -8.359  1.00  0.00     0.034 A 
ATOM     55  C   UNL     1     -15.907  -2.900  -7.006  1.00  0.00     0.034 A 
ATOM     56  C   UNL     1     -16.829   3.472  -8.148  1.00  0.00     0.049 A 
ATOM     57  C   UNL     1     -17.127  -2.011  -6.998  1.00  0.00     0.074 A 
ATOM     58  C   UNL     1     -18.031   4.156  -8.210  1.00  0.00     0.029 A 
ATOM     59  N   UNL     1     -17.138   2.158  -7.822  1.00  0.00    -0.354 N 
ATOM     60  N   UNL     1     -17.214  -0.725  -7.248  1.00  0.00    -0.248 NA
ATOM     61  C   UNL     1     -18.409  -2.649  -6.676  1.00  0.00     0.031 C 
ATOM     62  C   UNL     1     -19.055   3.278  -7.839  1.00  0.00     0.029 A 
ATOM     63  C   UNL     1     -18.507   2.022  -7.639  1.00  0.00     0.049 A 
ATOM     64  H   UNL     1     -16.482   1.429  -7.734  1.00  0.00     0.167 HD
ATOM     65  C   UNL     1     -18.567  -0.410  -7.151  1.00  0.00     0.074 A 
ATOM     66  C   UNL     1     -19.257  -1.643  -6.834  1.00  0.00     0.031 C 
ATOM     67  C   UNL     1     -19.184   0.788  -7.314  1.00  0.00     0.034 A 
BRANCH  54  68
ATOM     68  C   UNL     1     -15.314   5.465  -8.590  1.00  0.00     0.023 A 
ATOM     69  C   UNL     1     -14.762   5.969  -9.781  1.00  0.00     0.031 A 
ATOM     70  C   UNL     1     -15.687   6.390  -7.599  1.00  0.00     0.131 A 
ATOM     71  C   UNL     1     -14.531   7.346  -9.920  1.00  0.00     0.055 A 
ATOM     72  C   UNL     1     -15.535   7.766  -7.778  1.00  0.00     0.041 A 
ATOM     73  F   UNL     1     -16.199   5.971  -6.430  1.00  0.00    -0.206 F 
ATOM     74  C   UNL     1     -14.939   8.251  -8.939  1.00  0.00     0.022 A 
BRANCH  71  75
ATOM     75  S   UNL     1     -13.555   7.922 -11.336  1.00  0.00     0.124 S 
ATOM     76  O   UNL     1     -12.309   7.180 -11.157  1.00  0.00    -0.237 OA
ATOM     77  O   UNL     1     -14.379   7.522 -12.471  1.00  0.00    -0.237 OA
ATOM     78  O   UNL     1     -13.450   9.363 -11.117  1.00  0.00    -0.744 OA
ENDBRANCH  71  75
ENDBRANCH  54  68
BRANCH  55  79
ATOM     79  C   UNL     1     -16.024  -4.351  -6.674  1.00  0.00     0.023 A 
ATOM     80  C   UNL     1     -16.795  -5.215  -7.468  1.00  0.00     0.031 A 
ATOM     81  C   UNL     1     -15.413  -4.885  -5.525  1.00  0.00     0.131 A 
ATOM     82  C   UNL     1     -16.983  -6.549  -7.075  1.00  0.00     0.055 A 
ATOM     83  C   UNL     1     -15.550  -6.229  -5.173  1.00  0.00     0.041 A 
ATOM     84  F   UNL     1     -14.664  -4.106  -4.729  1.00  0.00    -0.206 F 
ATOM     85  C   UNL     1     -16.352  -7.066  -5.941  1.00  0.00     0.022 A 
BRANCH  82  86
ATOM     86  S   UNL     1     -18.152  -7.573  -8.010  1.00  0.00     0.124 S 
ATOM     87  O   UNL     1     -19.381  -6.795  -7.898  1.00  0.00    -0.237 OA
ATOM     88  O   UNL     1     -17.533  -7.611  -9.330  1.00  0.00    -0.237 OA
ATOM     89  O   UNL     1     -18.147  -8.842  -7.284  1.00  0.00    -0.744 OA
ENDBRANCH  82  86
ENDBRANCH  55  79
BRANCH  67  90
ATOM     90  C   UNL     1     -20.691   0.808  -7.204  1.00  0.00     0.023 A 
ATOM     91  C   UNL     1     -21.354   0.520  -5.998  1.00  0.00     0.031 A 
ATOM     92  C   UNL     1     -21.476   1.113  -8.331  1.00  0.00     0.131 A 
ATOM     93  C   UNL     1     -22.756   0.483  -5.962  1.00  0.00     0.055 A 
ATOM     94  C   UNL     1     -22.870   1.144  -8.271  1.00  0.00     0.041 A 
ATOM     95  F   UNL     1     -20.899   1.392  -9.511  1.00  0.00    -0.206 F 
ATOM     96  C   UNL     1     -23.518   0.813  -7.086  1.00  0.00     0.022 A 
BRANCH  93  97
ATOM     97  S   UNL     1     -23.574  -0.105  -4.453  1.00  0.00     0.124 S 
ATOM     98  O   UNL     1     -23.005  -1.440  -4.300  1.00  0.00    -0.237 OA
ATOM     99  O   UNL     1     -23.154   0.884  -3.465  1.00  0.00    -0.237 OA
ATOM    100  O   UNL     1     -24.994  -0.071  -4.797  1.00  0.00    -0.744 OA
ENDBRANCH  93  97
ENDBRANCH  67  90
ENDBRANCH  41  42
ENDBRANCH  33  36
ENDBRANCH  31  32
ENDBRANCH  30  31
ENDBRANCH  29  30
ENDBRANCH   1  29
TORSDOF 21
