REMARK SMILES C[C@@H](C(=O)NCCCCCCNC(=O)c1ccc(-c2c3nc(c(-c4cc(S(=O)(=O)[O-])ccc4F)c4ccc([nH]4)c(-c4cc(S(=O)(=O)[O-])ccc4F)c4nc(c(-c5cc(S(=O)(=O)[O-])ccc5F)c5ccc2[nH]5)C=C4)C=C3)cc1)N1C(=O)/C(=C/c2nc3ccccc3[nH]2)SC1=S
REMARK SMILES IDX 9 1 8 2 7 3 6 4 5 5 3 6 4 7 2 9 1 10 78 11 79 12 93 13 80 14
REMARK SMILES IDX 81 15 92 16 94 17 82 18 83 19 84 20 91 21 85 22 90 23 86 25
REMARK SMILES IDX 89 26 87 27 88 28 10 29 11 30 12 31 13 32 14 34 15 35 16 36
REMARK SMILES IDX 77 37 17 38 76 39 18 40 19 41 20 42 70 43 21 44 75 45 69 46
REMARK SMILES IDX 71 47 22 48 74 49 68 50 67 51 23 53 55 54 35 55 54 56 36 57
REMARK SMILES IDX 39 58 53 59 72 60 37 61 38 62 52 64 73 65 40 66 24 67 25 68
REMARK SMILES IDX 33 69 26 70 32 71 34 72 31 73 27 74 28 75 29 76 30 77 56 78
REMARK SMILES IDX 57 79 65 80 58 81 64 82 66 83 63 84 59 85 60 86 61 87 62 88
REMARK SMILES IDX 41 89 42 90 50 91 43 92 49 93 51 94 48 95 44 96 45 97 46 98
REMARK SMILES IDX 47 99
REMARK H PARENT 5 8 91 24 12 33 71 52 39 63
REMARK Flexibility Score: inf
ROOT
ATOM      1  C   UNL     1       5.957  -1.500  -3.031  1.00  0.00     0.002 C 
ENDROOT
BRANCH   1   2
ATOM      2  C   UNL     1       5.021  -2.140  -2.001  1.00  0.00     0.002 C 
BRANCH   2   3
ATOM      3  C   UNL     1       4.260  -1.147  -1.116  1.00  0.00     0.021 C 
BRANCH   3   4
ATOM      4  C   UNL     1       3.426  -0.134  -1.897  1.00  0.00     0.116 C 
BRANCH   4   5
ATOM      5  N   UNL     1       2.333  -0.781  -2.595  1.00  0.00    -0.354 N 
ATOM      6  C   UNL     1       0.992  -0.726  -2.353  1.00  0.00     0.242 C 
ATOM      7  O   UNL     1       0.248  -1.304  -3.150  1.00  0.00    -0.273 OA
ATOM      8  H   UNL     1       2.599  -1.344  -3.358  1.00  0.00     0.163 HD
BRANCH   6   9
ATOM      9  C   UNL     1       0.463   0.092  -1.154  1.00  0.00     0.178 C 
ATOM     10  C   UNL     1       0.850  -0.428   0.226  1.00  0.00     0.042 C 
BRANCH   9  11
ATOM     11  N   UNL     1      -0.992   0.275  -1.280  1.00  0.00    -0.281 N 
ATOM     12  C   UNL     1      -1.844  -0.814  -1.135  1.00  0.00     0.267 C 
ATOM     13  C   UNL     1      -1.587   1.493  -1.536  1.00  0.00     0.149 C 
ATOM     14  O   UNL     1      -1.539  -1.952  -0.798  1.00  0.00    -0.268 OA
ATOM     15  C   UNL     1      -3.247  -0.408  -1.398  1.00  0.00     0.084 C 
ATOM     16  S   UNL     1      -3.321   1.304  -1.584  1.00  0.00    -0.054 SA
ATOM     17  S   UNL     1      -0.875   2.990  -1.734  1.00  0.00    -0.052 S 
ATOM     18  C   UNL     1      -4.259  -1.290  -1.447  1.00  0.00     0.068 C 
BRANCH  18  19
ATOM     19  C   UNL     1      -5.576  -0.861  -1.736  1.00  0.00     0.132 A 
ATOM     20  N   UNL     1      -5.978   0.121  -2.514  1.00  0.00    -0.229 NA
ATOM     21  N   UNL     1      -6.650  -1.425  -1.085  1.00  0.00    -0.338 N 
ATOM     22  C   UNL     1      -7.282   0.344  -2.193  1.00  0.00     0.089 A 
ATOM     23  C   UNL     1      -7.744  -0.619  -1.306  1.00  0.00     0.066 A 
ATOM     24  H   UNL     1      -6.637  -2.256  -0.557  1.00  0.00     0.168 HD
ATOM     25  C   UNL     1      -8.120   1.389  -2.598  1.00  0.00     0.030 A 
ATOM     26  C   UNL     1      -9.046  -0.616  -0.801  1.00  0.00     0.028 A 
ATOM     27  C   UNL     1      -9.417   1.435  -2.083  1.00  0.00     0.002 A 
ATOM     28  C   UNL     1      -9.871   0.445  -1.207  1.00  0.00     0.002 A 
ENDBRANCH  18  19
ENDBRANCH   9  11
ENDBRANCH   6   9
ENDBRANCH   4   5
ENDBRANCH   3   4
ENDBRANCH   2   3
ENDBRANCH   1   2
BRANCH   1  29
ATOM     29  C   UNL     1       6.984  -0.525  -2.450  1.00  0.00     0.021 C 
BRANCH  29  30
ATOM     30  C   UNL     1       7.919  -1.138  -1.415  1.00  0.00     0.116 C 
BRANCH  30  31
ATOM     31  N   UNL     1       8.745  -2.186  -1.988  1.00  0.00    -0.352 N 
ATOM     32  C   UNL     1      10.107  -2.341  -1.939  1.00  0.00     0.251 C 
ATOM     33  H   UNL     1       8.258  -2.885  -2.481  1.00  0.00     0.163 HD
ATOM     34  O   UNL     1      10.650  -3.159  -2.676  1.00  0.00    -0.269 OA
BRANCH  32  35
ATOM     35  C   UNL     1      10.914  -1.513  -1.014  1.00  0.00     0.039 A 
ATOM     36  C   UNL     1      12.146  -1.019  -1.450  1.00  0.00     0.014 A 
ATOM     37  C   UNL     1      10.475  -1.249   0.287  1.00  0.00     0.014 A 
ATOM     38  C   UNL     1      12.922  -0.240  -0.590  1.00  0.00     0.010 A 
ATOM     39  C   UNL     1      11.209  -0.400   1.111  1.00  0.00     0.010 A 
ATOM     40  C   UNL     1      12.454   0.091   0.692  1.00  0.00    -0.014 A 
BRANCH  40  41
ATOM     41  C   UNL     1      13.283   0.899   1.626  1.00  0.00     0.031 A 
ATOM     42  C   UNL     1      13.765   0.290   2.917  1.00  0.00     0.074 A 
ATOM     43  C   UNL     1      13.576   2.180   1.329  1.00  0.00     0.049 A 
ATOM     44  N   UNL     1      14.473   0.831   3.876  1.00  0.00    -0.248 NA
ATOM     45  C   UNL     1      13.371  -1.103   3.179  1.00  0.00     0.031 C 
ATOM     46  C   UNL     1      13.136   2.890   0.125  1.00  0.00     0.029 A 
ATOM     47  N   UNL     1      14.316   3.113   2.011  1.00  0.00    -0.354 N 
ATOM     48  C   UNL     1      14.593  -0.147   4.858  1.00  0.00     0.074 A 
ATOM     49  C   UNL     1      13.824  -1.287   4.409  1.00  0.00     0.031 C 
ATOM     50  C   UNL     1      13.649   4.131   0.135  1.00  0.00     0.029 A 
ATOM     51  C   UNL     1      14.413   4.324   1.364  1.00  0.00     0.049 A 
ATOM     52  H   UNL     1      14.737   2.933   2.882  1.00  0.00     0.167 HD
ATOM     53  C   UNL     1      15.301  -0.109   6.015  1.00  0.00     0.034 A 
ATOM     54  C   UNL     1      15.046   5.459   1.722  1.00  0.00     0.034 A 
ATOM     55  C   UNL     1      16.077   1.032   6.437  1.00  0.00     0.049 A 
ATOM     56  C   UNL     1      15.811   5.485   3.022  1.00  0.00     0.074 A 
ATOM     57  C   UNL     1      16.877   1.162   7.559  1.00  0.00     0.029 A 
ATOM     58  N   UNL     1      16.146   2.243   5.759  1.00  0.00    -0.354 N 
ATOM     59  N   UNL     1      15.959   4.532   3.915  1.00  0.00    -0.248 NA
ATOM     60  C   UNL     1      16.507   6.734   3.353  1.00  0.00     0.031 C 
ATOM     61  C   UNL     1      17.362   2.474   7.602  1.00  0.00     0.029 A 
ATOM     62  C   UNL     1      16.946   3.135   6.457  1.00  0.00     0.049 A 
ATOM     63  H   UNL     1      15.693   2.440   4.908  1.00  0.00     0.167 HD
ATOM     64  C   UNL     1      16.805   5.056   4.890  1.00  0.00     0.074 A 
ATOM     65  C   UNL     1      17.140   6.400   4.467  1.00  0.00     0.031 C 
ATOM     66  C   UNL     1      17.271   4.476   6.027  1.00  0.00     0.034 A 
BRANCH  53  67
ATOM     67  C   UNL     1      15.237  -1.324   6.913  1.00  0.00     0.023 A 
ATOM     68  C   UNL     1      15.683  -2.588   6.489  1.00  0.00     0.031 A 
ATOM     69  C   UNL     1      14.690  -1.224   8.205  1.00  0.00     0.131 A 
ATOM     70  C   UNL     1      15.497  -3.711   7.309  1.00  0.00     0.055 A 
ATOM     71  C   UNL     1      14.593  -2.329   9.053  1.00  0.00     0.041 A 
ATOM     72  F   UNL     1      14.223  -0.051   8.662  1.00  0.00    -0.206 F 
ATOM     73  C   UNL     1      14.981  -3.586   8.601  1.00  0.00     0.022 A 
BRANCH  70  74
ATOM     74  S   UNL     1      15.784  -5.358   6.603  1.00  0.00     0.124 S 
ATOM     75  O   UNL     1      14.863  -5.355   5.468  1.00  0.00    -0.237 OA
ATOM     76  O   UNL     1      17.203  -5.317   6.275  1.00  0.00    -0.237 OA
ATOM     77  O   UNL     1      15.418  -6.265   7.689  1.00  0.00    -0.744 OA
ENDBRANCH  70  74
ENDBRANCH  53  67
BRANCH  54  78
ATOM     78  C   UNL     1      14.999   6.665   0.843  1.00  0.00     0.023 A 
ATOM     79  C   UNL     1      16.170   7.189   0.273  1.00  0.00     0.031 A 
ATOM     80  C   UNL     1      13.791   7.343   0.604  1.00  0.00     0.131 A 
ATOM     81  C   UNL     1      16.119   8.385  -0.460  1.00  0.00     0.055 A 
ATOM     82  C   UNL     1      13.735   8.499  -0.177  1.00  0.00     0.041 A 
ATOM     83  F   UNL     1      12.640   6.884   1.121  1.00  0.00    -0.206 F 
ATOM     84  C   UNL     1      14.907   9.035  -0.701  1.00  0.00     0.022 A 
BRANCH  81  85
ATOM     85  S   UNL     1      17.677   9.134  -1.009  1.00  0.00     0.124 S 
ATOM     86  O   UNL     1      18.382   9.310   0.255  1.00  0.00    -0.237 OA
ATOM     87  O   UNL     1      18.206   8.110  -1.903  1.00  0.00    -0.237 OA
ATOM     88  O   UNL     1      17.248  10.368  -1.663  1.00  0.00    -0.744 OA
ENDBRANCH  81  85
ENDBRANCH  54  78
BRANCH  66  89
ATOM     89  C   UNL     1      18.248   5.275   6.858  1.00  0.00     0.023 A 
ATOM     90  C   UNL     1      17.887   6.482   7.482  1.00  0.00     0.031 A 
ATOM     91  C   UNL     1      19.574   4.829   7.005  1.00  0.00     0.131 A 
ATOM     92  C   UNL     1      18.856   7.235   8.162  1.00  0.00     0.055 A 
ATOM     93  C   UNL     1      20.515   5.545   7.747  1.00  0.00     0.041 A 
ATOM     94  F   UNL     1      19.980   3.686   6.429  1.00  0.00    -0.206 F 
ATOM     95  C   UNL     1      20.163   6.765   8.315  1.00  0.00     0.022 A 
BRANCH  92  96
ATOM     96  S   UNL     1      18.419   8.899   8.738  1.00  0.00     0.124 S 
ATOM     97  O   UNL     1      17.965   9.537   7.506  1.00  0.00    -0.237 OA
ATOM     98  O   UNL     1      17.385   8.623   9.730  1.00  0.00    -0.237 OA
ATOM     99  O   UNL     1      19.674   9.416   9.279  1.00  0.00    -0.744 OA
ENDBRANCH  92  96
ENDBRANCH  66  89
ENDBRANCH  40  41
ENDBRANCH  32  35
ENDBRANCH  30  31
ENDBRANCH  29  30
ENDBRANCH   1  29
TORSDOF 18
