REMARK SMILES CCOc1cc2c(cc1/C=C1/C(=O)N(c3cccc(C(=O)NCCCCCCNC(=O)c4ccc(-c5c6nc(c(-c7cc(S(=O)(=O)[O-])ccc7F)c7ccc([nH]7)c(-c7cc(S(=O)(=O)[O-])ccc7F)c7nc(c(-c8cc(S(=O)(=O)[O-])ccc8F)c8ccc5[nH]8)C=C7)C=C6)cc4)c3)C(=S)N=C1O)OCO2
REMARK SMILES IDX 25 1 24 2 23 3 22 4 20 5 21 6 19 8 15 9 16 10 95 11 17 12
REMARK SMILES IDX 18 13 14 14 10 15 11 16 12 17 99 18 13 19 98 20 96 21 97 22
REMARK SMILES IDX 9 23 4 24 5 25 6 26 8 27 7 28 103 29 101 30 102 31 3 32 2 33
REMARK SMILES IDX 1 34 100 35 26 37 27 38 28 39 29 40 30 41 31 43 32 44 33 45
REMARK SMILES IDX 94 46 34 47 93 48 35 49 36 50 37 51 87 52 38 53 92 54 86 55
REMARK SMILES IDX 88 56 39 57 91 58 85 59 84 60 40 62 72 63 52 64 71 65 53 66
REMARK SMILES IDX 56 67 70 68 89 69 54 70 55 71 69 73 90 74 57 75 41 76 42 77
REMARK SMILES IDX 50 78 43 79 49 80 51 81 48 82 44 83 45 84 46 85 47 86 73 87
REMARK SMILES IDX 74 88 82 89 75 90 81 91 83 92 80 93 76 94 77 95 78 96 79 97
REMARK SMILES IDX 58 98 59 99 67 100 60 101 66 102 68 103 65 104 61 105 62 106
REMARK SMILES IDX 63 107 64 108
REMARK H PARENT 22 7 100 36 29 42 88 61 56 72
REMARK Flexibility Score: inf
ROOT
ATOM      1  C   UNL     1      -0.337  -5.086   9.083  1.00  0.00     0.002 C 
ENDROOT
BRANCH   1   2
ATOM      2  C   UNL     1       0.539  -3.858   9.317  1.00  0.00     0.021 C 
BRANCH   2   3
ATOM      3  C   UNL     1      -0.148  -2.503   9.207  1.00  0.00     0.116 C 
BRANCH   3   4
ATOM      4  N   UNL     1      -1.178  -2.264  10.204  1.00  0.00    -0.352 N 
ATOM      5  C   UNL     1      -1.525  -1.132  10.910  1.00  0.00     0.251 C 
ATOM      6  O   UNL     1      -2.446  -1.214  11.722  1.00  0.00    -0.269 OA
ATOM      7  H   UNL     1      -1.728  -3.054  10.413  1.00  0.00     0.163 HD
BRANCH   5   8
ATOM      8  C   UNL     1      -0.788   0.160  10.781  1.00  0.00     0.041 A 
ATOM      9  C   UNL     1       0.831   1.588   9.645  1.00  0.00     0.052 A 
ATOM     10  C   UNL     1       0.808   2.459  10.739  1.00  0.00     0.027 A 
ATOM     11  C   UNL     1      -0.092   0.530   9.629  1.00  0.00     0.040 A 
ATOM     12  C   UNL     1       0.008   2.183  11.852  1.00  0.00     0.003 A 
ATOM     13  C   UNL     1      -0.750   1.012  11.891  1.00  0.00     0.014 A 
BRANCH   9  14
ATOM     14  N   UNL     1       1.880   1.601   8.639  1.00  0.00    -0.251 N 
ATOM     15  C   UNL     1       2.241   1.417   4.987  1.00  0.00     0.031 C 
ATOM     16  C   UNL     1       2.562   1.266   6.294  1.00  0.00     0.103 C 
ATOM     17  C   UNL     1       1.466   1.453   7.298  1.00  0.00     0.270 C 
ATOM     18  C   UNL     1       3.851   0.963   6.893  1.00  0.00     0.226 C 
ATOM     19  O   UNL     1       0.289   1.476   6.933  1.00  0.00    -0.268 OA
ATOM     20  N   UNL     1       4.181   1.122   8.113  1.00  0.00    -0.184 NA
ATOM     21  C   UNL     1       3.249   1.540   9.030  1.00  0.00     0.210 C 
ATOM     22  S   UNL     1       3.877   1.773  10.597  1.00  0.00    -0.038 S 
BRANCH  15  23
ATOM     23  C   UNL     1       3.047   1.371   3.733  1.00  0.00     0.021 A 
ATOM     24  C   UNL     1       2.426   1.060   2.484  1.00  0.00     0.130 A 
ATOM     25  C   UNL     1       3.173   1.012   1.298  1.00  0.00     0.097 A 
ATOM     26  C   UNL     1       4.529   1.224   1.374  1.00  0.00     0.169 A 
ATOM     27  C   UNL     1       4.413   1.703   3.721  1.00  0.00     0.062 A 
ATOM     28  C   UNL     1       5.132   1.566   2.552  1.00  0.00     0.166 A 
ATOM     29  O   UNL     1       5.404   1.183   0.336  1.00  0.00    -0.453 OA
ATOM     30  O   UNL     1       6.471   1.765   2.413  1.00  0.00    -0.454 OA
ATOM     31  C   UNL     1       6.652   1.382   1.028  1.00  0.00     0.468 C 
BRANCH  24  32
ATOM     32  O   UNL     1       1.053   0.967   2.439  1.00  0.00    -0.493 OA
BRANCH  32  33
ATOM     33  C   UNL     1       0.527  -0.223   1.839  1.00  0.00     0.226 C 
ATOM     34  C   UNL     1       0.217  -0.053   0.361  1.00  0.00     0.049 C 
ENDBRANCH  32  33
ENDBRANCH  24  32
ENDBRANCH  15  23
BRANCH  18  35
ATOM     35  O   UNL     1       4.769   0.380   6.126  1.00  0.00    -0.493 OA
ATOM     36  H   UNL     1       4.594   0.231   5.217  1.00  0.00     0.295 HD
ENDBRANCH  18  35
ENDBRANCH   9  14
ENDBRANCH   5   8
ENDBRANCH   3   4
ENDBRANCH   2   3
ENDBRANCH   1   2
BRANCH   1  37
ATOM     37  C   UNL     1      -1.111  -5.124   7.763  1.00  0.00     0.002 C 
BRANCH  37  38
ATOM     38  C   UNL     1      -0.291  -4.894   6.492  1.00  0.00     0.021 C 
BRANCH  38  39
ATOM     39  C   UNL     1       0.919  -5.805   6.312  1.00  0.00     0.116 C 
BRANCH  39  40
ATOM     40  N   UNL     1       0.554  -7.210   6.230  1.00  0.00    -0.352 N 
ATOM     41  C   UNL     1       0.854  -8.129   5.255  1.00  0.00     0.251 C 
ATOM     42  H   UNL     1       0.016  -7.550   6.981  1.00  0.00     0.163 HD
ATOM     43  O   UNL     1       0.306  -9.231   5.268  1.00  0.00    -0.269 OA
BRANCH  41  44
ATOM     44  C   UNL     1       1.808  -7.782   4.179  1.00  0.00     0.039 A 
ATOM     45  C   UNL     1       1.483  -8.095   2.857  1.00  0.00     0.014 A 
ATOM     46  C   UNL     1       3.018  -7.147   4.471  1.00  0.00     0.014 A 
ATOM     47  C   UNL     1       2.340  -7.710   1.822  1.00  0.00     0.010 A 
ATOM     48  C   UNL     1       3.833  -6.698   3.434  1.00  0.00     0.010 A 
ATOM     49  C   UNL     1       3.505  -6.975   2.098  1.00  0.00    -0.014 A 
BRANCH  49  50
ATOM     50  C   UNL     1       4.405  -6.508   1.008  1.00  0.00     0.031 A 
ATOM     51  C   UNL     1       5.823  -7.012   0.940  1.00  0.00     0.074 A 
ATOM     52  C   UNL     1       3.970  -5.598   0.113  1.00  0.00     0.049 A 
ATOM     53  N   UNL     1       6.797  -6.646   0.146  1.00  0.00    -0.248 NA
ATOM     54  C   UNL     1       6.202  -8.041   1.920  1.00  0.00     0.031 C 
ATOM     55  C   UNL     1       2.626  -5.014   0.079  1.00  0.00     0.029 A 
ATOM     56  N   UNL     1       4.616  -4.997  -0.939  1.00  0.00    -0.354 N 
ATOM     57  C   UNL     1       7.905  -7.393   0.535  1.00  0.00     0.074 A 
ATOM     58  C   UNL     1       7.497  -8.178   1.681  1.00  0.00     0.031 C 
ATOM     59  C   UNL     1       2.541  -4.166  -0.960  1.00  0.00     0.029 A 
ATOM     60  C   UNL     1       3.834  -4.103  -1.633  1.00  0.00     0.049 A 
ATOM     61  H   UNL     1       5.552  -5.189  -1.175  1.00  0.00     0.167 HD
ATOM     62  C   UNL     1       9.140  -7.438  -0.025  1.00  0.00     0.034 A 
ATOM     63  C   UNL     1       4.133  -3.305  -2.678  1.00  0.00     0.034 A 
ATOM     64  C   UNL     1       9.531  -6.652  -1.171  1.00  0.00     0.049 A 
ATOM     65  C   UNL     1       5.536  -3.308  -3.226  1.00  0.00     0.074 A 
ATOM     66  C   UNL     1      10.742  -6.649  -1.841  1.00  0.00     0.029 A 
ATOM     67  N   UNL     1       8.722  -5.723  -1.813  1.00  0.00    -0.354 N 
ATOM     68  N   UNL     1       6.571  -4.021  -2.848  1.00  0.00    -0.248 NA
ATOM     69  C   UNL     1       5.809  -2.388  -4.338  1.00  0.00     0.031 C 
ATOM     70  C   UNL     1      10.693  -5.664  -2.834  1.00  0.00     0.029 A 
ATOM     71  C   UNL     1       9.421  -5.116  -2.845  1.00  0.00     0.049 A 
ATOM     72  H   UNL     1       7.789  -5.524  -1.570  1.00  0.00     0.167 HD
ATOM     73  C   UNL     1       7.608  -3.660  -3.703  1.00  0.00     0.074 A 
ATOM     74  C   UNL     1       7.073  -2.668  -4.613  1.00  0.00     0.031 C 
ATOM     75  C   UNL     1       8.884  -4.119  -3.740  1.00  0.00     0.034 A 
BRANCH  62  76
ATOM     76  C   UNL     1      10.162  -8.348   0.616  1.00  0.00     0.023 A 
ATOM     77  C   UNL     1       9.964  -9.738   0.697  1.00  0.00     0.031 A 
ATOM     78  C   UNL     1      11.336  -7.820   1.181  1.00  0.00     0.131 A 
ATOM     79  C   UNL     1      10.877 -10.536   1.402  1.00  0.00     0.055 A 
ATOM     80  C   UNL     1      12.288  -8.633   1.799  1.00  0.00     0.041 A 
ATOM     81  F   UNL     1      11.574  -6.499   1.156  1.00  0.00    -0.206 F 
ATOM     82  C   UNL     1      12.053  -9.999   1.929  1.00  0.00     0.022 A 
BRANCH  79  83
ATOM     83  S   UNL     1      10.420 -12.254   1.764  1.00  0.00     0.124 S 
ATOM     84  O   UNL     1       9.165 -12.077   2.491  1.00  0.00    -0.237 OA
ATOM     85  O   UNL     1      10.310 -12.838   0.432  1.00  0.00    -0.237 OA
ATOM     86  O   UNL     1      11.535 -12.742   2.571  1.00  0.00    -0.744 OA
ENDBRANCH  79  83
ENDBRANCH  62  76
BRANCH  63  87
ATOM     87  C   UNL     1       3.118  -2.378  -3.249  1.00  0.00     0.023 A 
ATOM     88  C   UNL     1       2.636  -2.536  -4.558  1.00  0.00     0.031 A 
ATOM     89  C   UNL     1       2.693  -1.258  -2.519  1.00  0.00     0.131 A 
ATOM     90  C   UNL     1       1.785  -1.563  -5.108  1.00  0.00     0.055 A 
ATOM     91  C   UNL     1       1.806  -0.322  -3.052  1.00  0.00     0.041 A 
ATOM     92  F   UNL     1       3.145  -1.059  -1.271  1.00  0.00    -0.206 F 
ATOM     93  C   UNL     1       1.351  -0.469  -4.357  1.00  0.00     0.022 A 
BRANCH  90  94
ATOM     94  S   UNL     1       1.337  -1.686  -6.861  1.00  0.00     0.124 S 
ATOM     95  O   UNL     1       2.637  -1.543  -7.506  1.00  0.00    -0.237 OA
ATOM     96  O   UNL     1       0.726  -3.009  -6.929  1.00  0.00    -0.237 OA
ATOM     97  O   UNL     1       0.416  -0.567  -7.054  1.00  0.00    -0.744 OA
ENDBRANCH  90  94
ENDBRANCH  63  87
BRANCH  75  98
ATOM     98  C   UNL     1       9.769  -3.598  -4.845  1.00  0.00     0.023 A 
ATOM     99  C   UNL     1      10.184  -2.257  -4.898  1.00  0.00     0.031 A 
ATOM    100  C   UNL     1      10.196  -4.465  -5.867  1.00  0.00     0.131 A 
ATOM    101  C   UNL     1      10.960  -1.810  -5.979  1.00  0.00     0.055 A 
ATOM    102  C   UNL     1      11.020  -4.030  -6.904  1.00  0.00     0.041 A 
ATOM    103  F   UNL     1       9.822  -5.755  -5.869  1.00  0.00    -0.206 F 
ATOM    104  C   UNL     1      11.397  -2.692  -6.971  1.00  0.00     0.022 A 
BRANCH 101 105
ATOM    105  S   UNL     1      11.318  -0.037  -6.119  1.00  0.00     0.124 S 
ATOM    106  O   UNL     1       9.979   0.537  -6.196  1.00  0.00    -0.237 OA
ATOM    107  O   UNL     1      12.055   0.231  -4.888  1.00  0.00    -0.237 OA
ATOM    108  O   UNL     1      12.106   0.058  -7.346  1.00  0.00    -0.744 OA
ENDBRANCH 101 105
ENDBRANCH  75  98
ENDBRANCH  49  50
ENDBRANCH  41  44
ENDBRANCH  39  40
ENDBRANCH  38  39
ENDBRANCH  37  38
ENDBRANCH   1  37
TORSDOF 21
