REMARK SMILES O=C(NCCCCCCNC(=O)c1cnc(-c2ccccc2Cl)nc1)c1ccc(-c2c3nc(c(-c4cc(S(=O)(=O)[O-])ccc4F)c4ccc([nH]4)c(-c4cc(S(=O)(=O)[O-])ccc4F)c4nc(c(-c5cc(S(=O)(=O)[O-])ccc5F)c5ccc2[nH]5)C=C4)C=C3)cc1
REMARK SMILES IDX 5 1 4 2 3 3 1 4 2 5 26 7 27 8 88 9 28 10 87 11 29 12 30 13
REMARK SMILES IDX 31 14 81 15 32 16 86 17 80 18 82 19 33 20 85 21 79 22 78 23
REMARK SMILES IDX 34 25 66 26 46 27 65 28 47 29 50 30 64 31 83 32 48 33 49 34
REMARK SMILES IDX 63 36 84 37 51 38 35 39 36 40 44 41 37 42 43 43 45 44 42 45
REMARK SMILES IDX 38 46 39 47 40 48 41 49 67 50 68 51 76 52 69 53 75 54 77 55
REMARK SMILES IDX 74 56 70 57 71 58 72 59 73 60 52 61 53 62 61 63 54 64 60 65
REMARK SMILES IDX 62 66 59 67 55 68 56 69 57 70 58 71 6 72 7 73 8 74 9 75
REMARK SMILES IDX 10 76 11 77 12 79 13 80 14 81 25 82 15 83 24 84 16 85 17 86
REMARK SMILES IDX 18 87 22 88 19 89 21 90 23 91 20 92
REMARK H PARENT 3 6 82 24 50 35 10 78
REMARK Flexibility Score: inf
ROOT
ATOM      1  C   UNL     1       4.702  -1.506  -2.276  1.00  0.00     0.021 C 
ENDROOT
BRANCH   1   2
ATOM      2  C   UNL     1       4.442  -0.302  -1.382  1.00  0.00     0.116 C 
BRANCH   2   3
ATOM      3  N   UNL     1       3.022  -0.036  -1.208  1.00  0.00    -0.352 N 
ATOM      4  O   UNL     1       1.075   0.119  -0.078  1.00  0.00    -0.269 OA
ATOM      5  C   UNL     1       2.300   0.061  -0.042  1.00  0.00     0.251 C 
ATOM      6  H   UNL     1       2.509   0.092  -2.038  1.00  0.00     0.163 HD
BRANCH   5   7
ATOM      7  C   UNL     1       3.012   0.076   1.254  1.00  0.00     0.039 A 
ATOM      8  C   UNL     1       4.149   0.869   1.423  1.00  0.00     0.014 A 
ATOM      9  C   UNL     1       2.545  -0.717   2.305  1.00  0.00     0.014 A 
ATOM     10  C   UNL     1       4.899   0.761   2.588  1.00  0.00     0.010 A 
ATOM     11  C   UNL     1       3.248  -0.748   3.514  1.00  0.00     0.010 A 
ATOM     12  C   UNL     1       4.444  -0.027   3.657  1.00  0.00    -0.014 A 
BRANCH  12  13
ATOM     13  C   UNL     1       5.199  -0.015   4.937  1.00  0.00     0.031 A 
ATOM     14  C   UNL     1       5.846  -1.260   5.476  1.00  0.00     0.074 A 
ATOM     15  C   UNL     1       5.314   1.153   5.601  1.00  0.00     0.049 A 
ATOM     16  N   UNL     1       6.535  -1.419   6.577  1.00  0.00    -0.248 NA
ATOM     17  C   UNL     1       5.693  -2.487   4.682  1.00  0.00     0.031 C 
ATOM     18  C   UNL     1       4.724   2.424   5.169  1.00  0.00     0.029 A 
ATOM     19  N   UNL     1       5.970   1.472   6.761  1.00  0.00    -0.354 N 
ATOM     20  C   UNL     1       6.887  -2.764   6.621  1.00  0.00     0.074 A 
ATOM     21  C   UNL     1       6.303  -3.382   5.448  1.00  0.00     0.031 C 
ATOM     22  C   UNL     1       5.083   3.390   6.025  1.00  0.00     0.029 A 
ATOM     23  C   UNL     1       5.855   2.798   7.110  1.00  0.00     0.049 A 
ATOM     24  H   UNL     1       6.475   0.816   7.293  1.00  0.00     0.167 HD
ATOM     25  C   UNL     1       7.631  -3.414   7.551  1.00  0.00     0.034 A 
ATOM     26  C   UNL     1       6.291   3.461   8.197  1.00  0.00     0.034 A 
ATOM     27  C   UNL     1       8.199  -2.774   8.716  1.00  0.00     0.049 A 
ATOM     28  C   UNL     1       7.064   2.703   9.241  1.00  0.00     0.074 A 
ATOM     29  C   UNL     1       8.996  -3.331   9.702  1.00  0.00     0.029 A 
ATOM     30  N   UNL     1       8.020  -1.440   9.064  1.00  0.00    -0.354 N 
ATOM     31  N   UNL     1       7.406   1.435   9.255  1.00  0.00    -0.248 NA
ATOM     32  C   UNL     1       7.513   3.464  10.412  1.00  0.00     0.031 C 
ATOM     33  C   UNL     1       9.227  -2.360  10.683  1.00  0.00     0.029 A 
ATOM     34  C   UNL     1       8.656  -1.169  10.268  1.00  0.00     0.049 A 
ATOM     35  H   UNL     1       7.514  -0.782   8.533  1.00  0.00     0.167 HD
ATOM     36  C   UNL     1       8.132   1.254  10.428  1.00  0.00     0.074 A 
ATOM     37  C   UNL     1       8.195   2.547  11.079  1.00  0.00     0.031 C 
ATOM     38  C   UNL     1       8.697   0.121  10.919  1.00  0.00     0.034 A 
BRANCH  25  39
ATOM     39  C   UNL     1       7.832  -4.902   7.373  1.00  0.00     0.023 A 
ATOM     40  C   UNL     1       8.522  -5.435   6.270  1.00  0.00     0.031 A 
ATOM     41  C   UNL     1       7.317  -5.805   8.322  1.00  0.00     0.131 A 
ATOM     42  C   UNL     1       8.619  -6.827   6.109  1.00  0.00     0.055 A 
ATOM     43  C   UNL     1       7.488  -7.185   8.198  1.00  0.00     0.041 A 
ATOM     44  F   UNL     1       6.630  -5.360   9.386  1.00  0.00    -0.206 F 
ATOM     45  C   UNL     1       8.131  -7.705   7.079  1.00  0.00     0.022 A 
BRANCH  42  46
ATOM     46  S   UNL     1       9.268  -7.475   4.544  1.00  0.00     0.124 S 
ATOM     47  O   UNL     1       8.362  -6.867   3.572  1.00  0.00    -0.237 OA
ATOM     48  O   UNL     1      10.638  -6.975   4.538  1.00  0.00    -0.237 OA
ATOM     49  O   UNL     1       9.132  -8.923   4.689  1.00  0.00    -0.744 OA
ENDBRANCH  42  46
ENDBRANCH  25  39
BRANCH  26  50
ATOM     50  C   UNL     1       5.969   4.906   8.371  1.00  0.00     0.023 A 
ATOM     51  C   UNL     1       6.982   5.875   8.426  1.00  0.00     0.031 A 
ATOM     52  C   UNL     1       4.636   5.337   8.510  1.00  0.00     0.131 A 
ATOM     53  C   UNL     1       6.651   7.219   8.657  1.00  0.00     0.055 A 
ATOM     54  C   UNL     1       4.308   6.682   8.677  1.00  0.00     0.041 A 
ATOM     55  F   UNL     1       3.628   4.452   8.463  1.00  0.00    -0.206 F 
ATOM     56  C   UNL     1       5.320   7.631   8.766  1.00  0.00     0.022 A 
BRANCH  53  57
ATOM     57  S   UNL     1       7.993   8.412   8.906  1.00  0.00     0.124 S 
ATOM     58  O   UNL     1       8.704   7.827  10.037  1.00  0.00    -0.237 OA
ATOM     59  O   UNL     1       8.682   8.364   7.621  1.00  0.00    -0.237 OA
ATOM     60  O   UNL     1       7.290   9.661   9.188  1.00  0.00    -0.744 OA
ENDBRANCH  53  57
ENDBRANCH  26  50
BRANCH  38  61
ATOM     61  C   UNL     1       9.472   0.250  12.209  1.00  0.00     0.023 A 
ATOM     62  C   UNL     1       8.844   0.587  13.421  1.00  0.00     0.031 A 
ATOM     63  C   UNL     1      10.865   0.055  12.218  1.00  0.00     0.131 A 
ATOM     64  C   UNL     1       9.616   0.780  14.577  1.00  0.00     0.055 A 
ATOM     65  C   UNL     1      11.617   0.180  13.386  1.00  0.00     0.041 A 
ATOM     66  F   UNL     1      11.519  -0.261  11.089  1.00  0.00    -0.206 F 
ATOM     67  C   UNL     1      10.995   0.559  14.572  1.00  0.00     0.022 A 
BRANCH  64  68
ATOM     68  S   UNL     1       8.807   1.429  16.066  1.00  0.00     0.124 S 
ATOM     69  O   UNL     1       8.256   2.691  15.585  1.00  0.00    -0.237 OA
ATOM     70  O   UNL     1       7.835   0.385  16.373  1.00  0.00    -0.237 OA
ATOM     71  O   UNL     1       9.903   1.556  17.024  1.00  0.00    -0.744 OA
ENDBRANCH  64  68
ENDBRANCH  38  61
ENDBRANCH  12  13
ENDBRANCH   5   7
ENDBRANCH   2   3
ENDBRANCH   1   2
BRANCH   1  72
ATOM     72  C   UNL     1       4.237  -1.341  -3.722  1.00  0.00     0.002 C 
BRANCH  72  73
ATOM     73  C   UNL     1       4.809  -0.124  -4.456  1.00  0.00     0.002 C 
BRANCH  73  74
ATOM     74  C   UNL     1       6.337  -0.012  -4.450  1.00  0.00     0.021 C 
BRANCH  74  75
ATOM     75  C   UNL     1       7.073  -1.238  -4.986  1.00  0.00     0.116 C 
BRANCH  75  76
ATOM     76  N   UNL     1       6.760  -1.485  -6.387  1.00  0.00    -0.352 N 
ATOM     77  C   UNL     1       7.602  -1.508  -7.466  1.00  0.00     0.254 C 
ATOM     78  H   UNL     1       5.811  -1.659  -6.585  1.00  0.00     0.163 HD
ATOM     79  O   UNL     1       7.161  -1.519  -8.613  1.00  0.00    -0.269 OA
BRANCH  77  80
ATOM     80  C   UNL     1       9.047  -1.507  -7.255  1.00  0.00     0.076 A 
ATOM     81  C   UNL     1       9.681  -2.422  -6.447  1.00  0.00     0.129 A 
ATOM     82  C   UNL     1       9.855  -0.587  -7.878  1.00  0.00     0.129 A 
ATOM     83  N   UNL     1      11.005  -2.389  -6.193  1.00  0.00    -0.236 NA
ATOM     84  N   UNL     1      11.186  -0.509  -7.659  1.00  0.00    -0.236 NA
ATOM     85  C   UNL     1      11.703  -1.394  -6.782  1.00  0.00     0.160 A 
BRANCH  85  86
ATOM     86  C   UNL     1      13.125  -1.302  -6.454  1.00  0.00     0.038 A 
ATOM     87  C   UNL     1      13.928  -2.458  -6.545  1.00  0.00     0.013 A 
ATOM     88  C   UNL     1      13.739  -0.115  -6.014  1.00  0.00     0.052 A 
ATOM     89  C   UNL     1      15.290  -2.430  -6.233  1.00  0.00     0.001 A 
ATOM     90  C   UNL     1      15.105  -0.089  -5.700  1.00  0.00     0.021 A 
ATOM     91  Cl  UNL     1      12.859   1.357  -5.765  1.00  0.00    -0.084 Cl
ATOM     92  C   UNL     1      15.879  -1.243  -5.814  1.00  0.00     0.002 A 
ENDBRANCH  85  86
ENDBRANCH  77  80
ENDBRANCH  75  76
ENDBRANCH  74  75
ENDBRANCH  73  74
ENDBRANCH  72  73
ENDBRANCH   1  72
TORSDOF 17
