REMARK SMILES COCC[C@]1(C(=O)NCCCCCCNC(=O)c2ccc(-c3c4nc(c(-c5cc(S(=O)(=O)[O-])ccc5F)c5ccc([nH]5)c(-c5cc(S(=O)(=O)[O-])ccc5F)c5nc(c(-c6cc(S(=O)(=O)[O-])ccc6F)c6ccc3[nH]6)C=C5)C=C4)cc2)CCC[N@@H+](Cc2cccc3c2OC(C)(C)C3)C1
REMARK SMILES IDX 11 1 10 2 9 3 8 4 6 5 7 6 5 8 81 9 97 10 82 11 84 12 83 13
REMARK SMILES IDX 4 15 3 16 2 17 1 18 85 19 86 20 87 21 91 22 88 23 90 24
REMARK SMILES IDX 92 25 89 26 96 27 93 28 94 29 95 30 12 31 13 32 14 33 15 34
REMARK SMILES IDX 16 35 17 37 18 38 19 39 80 40 20 41 79 42 21 43 22 44 23 45
REMARK SMILES IDX 73 46 24 47 78 48 72 49 74 50 25 51 77 52 71 53 70 54 26 56
REMARK SMILES IDX 58 57 38 58 57 59 39 60 42 61 56 62 75 63 40 64 41 65 55 67
REMARK SMILES IDX 76 68 43 69 27 70 28 71 36 72 29 73 35 74 37 75 34 76 30 77
REMARK SMILES IDX 31 78 32 79 33 80 59 81 60 82 68 83 61 84 67 85 69 86 66 87
REMARK SMILES IDX 62 88 63 89 64 90 65 91 44 92 45 93 53 94 46 95 52 96 54 97
REMARK SMILES IDX 51 98 47 99 48 100 49 101 50 102
REMARK H PARENT 8 7 84 14 15 36 74 55 42 66
REMARK Flexibility Score: inf
ROOT
ATOM      1  C   UNL     1      -2.133   0.928  -1.045  1.00  0.00     0.002 C 
ENDROOT
BRANCH   1   2
ATOM      2  C   UNL     1      -0.778   0.418  -0.518  1.00  0.00     0.021 C 
BRANCH   2   3
ATOM      3  C   UNL     1       0.249   1.496  -0.114  1.00  0.00     0.116 C 
BRANCH   3   4
ATOM      4  N   UNL     1       0.475   1.840   1.336  1.00  0.00    -0.355 N 
ATOM      5  C   UNL     1       1.317   1.350   2.372  1.00  0.00     0.232 C 
ATOM      6  O   UNL     1       1.854   2.174   3.114  1.00  0.00    -0.274 OA
ATOM      7  H   UNL     1      -0.098   2.582   1.638  1.00  0.00     0.163 HD
BRANCH   5   8
ATOM      8  C   UNL     1       1.260  -0.163   2.725  1.00  0.00     0.100 C 
ATOM      9  C   UNL     1       1.763  -0.712   1.366  1.00  0.00     0.029 C 
ATOM     10  C   UNL     1       2.068  -1.252   3.609  1.00  0.00     0.279 C 
ATOM     11  C   UNL     1       1.185  -2.017   0.936  1.00  0.00     0.063 C 
ATOM     12  N   UNL     1       1.410  -2.596   3.321  1.00  0.00    -0.330 N 
ATOM     13  C   UNL     1       1.606  -3.058   1.942  1.00  0.00     0.262 C 
ATOM     14  H   UNL     1       0.439  -2.316   3.456  1.00  0.00     0.348 HD
BRANCH   8  15
ATOM     15  C   UNL     1      -0.007  -0.131   3.700  1.00  0.00     0.051 C 
BRANCH  15  16
ATOM     16  C   UNL     1      -1.148   0.896   3.776  1.00  0.00     0.161 C 
BRANCH  16  17
ATOM     17  O   UNL     1      -2.409   0.231   3.678  1.00  0.00    -0.385 OA
ATOM     18  C   UNL     1      -2.594  -0.284   2.373  1.00  0.00     0.194 C 
ENDBRANCH  16  17
ENDBRANCH  15  16
ENDBRANCH   8  15
BRANCH  12  19
ATOM     19  C   UNL     1       1.490  -3.705   4.308  1.00  0.00     0.303 C 
BRANCH  19  20
ATOM     20  C   UNL     1       2.838  -4.408   4.370  1.00  0.00     0.049 A 
ATOM     21  C   UNL     1       3.265  -5.231   3.328  1.00  0.00     0.013 A 
ATOM     22  C   UNL     1       3.830  -3.796   5.085  1.00  0.00     0.132 A 
ATOM     23  C   UNL     1       4.567  -5.067   2.829  1.00  0.00     0.001 A 
ATOM     24  C   UNL     1       4.960  -3.362   4.448  1.00  0.00    -0.001 A 
ATOM     25  O   UNL     1       3.802  -3.503   6.410  1.00  0.00    -0.487 OA
ATOM     26  C   UNL     1       5.372  -4.020   3.309  1.00  0.00     0.008 A 
ATOM     27  C   UNL     1       5.417  -2.163   5.199  1.00  0.00     0.087 C 
ATOM     28  C   UNL     1       4.907  -2.576   6.602  1.00  0.00     0.108 C 
ATOM     29  C   UNL     1       6.114  -3.160   7.357  1.00  0.00     0.057 C 
ATOM     30  C   UNL     1       4.222  -1.510   7.453  1.00  0.00     0.057 C 
ENDBRANCH  19  20
ENDBRANCH  12  19
ENDBRANCH   5   8
ENDBRANCH   3   4
ENDBRANCH   2   3
ENDBRANCH   1   2
BRANCH   1  31
ATOM     31  C   UNL     1      -2.103   1.753  -2.337  1.00  0.00     0.002 C 
BRANCH  31  32
ATOM     32  C   UNL     1      -1.415   1.106  -3.541  1.00  0.00     0.021 C 
BRANCH  32  33
ATOM     33  C   UNL     1      -1.949  -0.266  -3.949  1.00  0.00     0.116 C 
BRANCH  33  34
ATOM     34  N   UNL     1      -3.360  -0.233  -4.307  1.00  0.00    -0.352 N 
ATOM     35  C   UNL     1      -3.956  -0.427  -5.527  1.00  0.00     0.251 C 
ATOM     36  H   UNL     1      -3.977  -0.044  -3.564  1.00  0.00     0.163 HD
ATOM     37  O   UNL     1      -5.154  -0.151  -5.675  1.00  0.00    -0.269 OA
BRANCH  35  38
ATOM     38  C   UNL     1      -3.169  -0.934  -6.666  1.00  0.00     0.039 A 
ATOM     39  C   UNL     1      -3.238  -0.270  -7.893  1.00  0.00     0.014 A 
ATOM     40  C   UNL     1      -2.345  -2.054  -6.517  1.00  0.00     0.014 A 
ATOM     41  C   UNL     1      -2.408  -0.671  -8.943  1.00  0.00     0.010 A 
ATOM     42  C   UNL     1      -1.471  -2.409  -7.542  1.00  0.00     0.010 A 
ATOM     43  C   UNL     1      -1.479  -1.708  -8.758  1.00  0.00    -0.014 A 
BRANCH  43  44
ATOM     44  C   UNL     1      -0.471  -2.038  -9.800  1.00  0.00     0.031 A 
ATOM     45  C   UNL     1      -0.476  -3.387 -10.463  1.00  0.00     0.074 A 
ATOM     46  C   UNL     1       0.496  -1.143 -10.088  1.00  0.00     0.049 A 
ATOM     47  N   UNL     1       0.380  -3.892 -11.314  1.00  0.00    -0.248 NA
ATOM     48  C   UNL     1      -1.575  -4.294 -10.102  1.00  0.00     0.031 C 
ATOM     49  C   UNL     1       0.617   0.188  -9.488  1.00  0.00     0.029 A 
ATOM     50  N   UNL     1       1.568  -1.218 -10.942  1.00  0.00    -0.354 N 
ATOM     51  C   UNL     1      -0.072  -5.177 -11.589  1.00  0.00     0.074 A 
ATOM     52  C   UNL     1      -1.247  -5.391 -10.770  1.00  0.00     0.031 C 
ATOM     53  C   UNL     1       1.688   0.809 -10.007  1.00  0.00     0.029 A 
ATOM     54  C   UNL     1       2.367  -0.097 -10.927  1.00  0.00     0.049 A 
ATOM     55  H   UNL     1       1.748  -2.000 -11.512  1.00  0.00     0.167 HD
ATOM     56  C   UNL     1       0.438  -6.085 -12.458  1.00  0.00     0.034 A 
ATOM     57  C   UNL     1       3.529   0.163 -11.558  1.00  0.00     0.034 A 
ATOM     58  C   UNL     1       1.612  -5.852 -13.264  1.00  0.00     0.049 A 
ATOM     59  C   UNL     1       4.116  -0.893 -12.461  1.00  0.00     0.074 A 
ATOM     60  C   UNL     1       2.177  -6.678 -14.220  1.00  0.00     0.029 A 
ATOM     61  N   UNL     1       2.414  -4.720 -13.196  1.00  0.00    -0.354 N 
ATOM     62  N   UNL     1       3.643  -2.082 -12.757  1.00  0.00    -0.248 NA
ATOM     63  C   UNL     1       5.393  -0.575 -13.113  1.00  0.00     0.031 C 
ATOM     64  C   UNL     1       3.364  -6.087 -14.665  1.00  0.00     0.029 A 
ATOM     65  C   UNL     1       3.497  -4.851 -14.052  1.00  0.00     0.049 A 
ATOM     66  H   UNL     1       2.238  -3.938 -12.624  1.00  0.00     0.167 HD
ATOM     67  C   UNL     1       4.556  -2.644 -13.644  1.00  0.00     0.074 A 
ATOM     68  C   UNL     1       5.595  -1.656 -13.852  1.00  0.00     0.031 C 
ATOM     69  C   UNL     1       4.539  -3.867 -14.232  1.00  0.00     0.034 A 
BRANCH  56  70
ATOM     70  C   UNL     1      -0.253  -7.425 -12.555  1.00  0.00     0.023 A 
ATOM     71  C   UNL     1      -1.582  -7.541 -12.999  1.00  0.00     0.031 A 
ATOM     72  C   UNL     1       0.423  -8.603 -12.192  1.00  0.00     0.131 A 
ATOM     73  C   UNL     1      -2.213  -8.793 -13.001  1.00  0.00     0.055 A 
ATOM     74  C   UNL     1      -0.185  -9.858 -12.275  1.00  0.00     0.041 A 
ATOM     75  F   UNL     1       1.686  -8.555 -11.739  1.00  0.00    -0.206 F 
ATOM     76  C   UNL     1      -1.516  -9.957 -12.668  1.00  0.00     0.022 A 
BRANCH  73  77
ATOM     77  S   UNL     1      -4.000  -8.861 -13.306  1.00  0.00     0.124 S 
ATOM     78  O   UNL     1      -4.512  -7.990 -12.250  1.00  0.00    -0.237 OA
ATOM     79  O   UNL     1      -4.107  -8.346 -14.666  1.00  0.00    -0.237 OA
ATOM     80  O   UNL     1      -4.322 -10.277 -13.146  1.00  0.00    -0.744 OA
ENDBRANCH  73  77
ENDBRANCH  56  70
BRANCH  57  81
ATOM     81  C   UNL     1       4.240   1.455 -11.334  1.00  0.00     0.023 A 
ATOM     82  C   UNL     1       4.458   2.354 -12.390  1.00  0.00     0.031 A 
ATOM     83  C   UNL     1       4.754   1.792 -10.068  1.00  0.00     0.131 A 
ATOM     84  C   UNL     1       5.208   3.520 -12.174  1.00  0.00     0.055 A 
ATOM     85  C   UNL     1       5.447   2.983  -9.844  1.00  0.00     0.041 A 
ATOM     86  F   UNL     1       4.577   0.969  -9.022  1.00  0.00    -0.206 F 
ATOM     87  C   UNL     1       5.689   3.849 -10.904  1.00  0.00     0.022 A 
BRANCH  84  88
ATOM     88  S   UNL     1       5.632   4.556 -13.601  1.00  0.00     0.124 S 
ATOM     89  O   UNL     1       6.344   3.610 -14.452  1.00  0.00    -0.237 OA
ATOM     90  O   UNL     1       4.316   4.978 -14.069  1.00  0.00    -0.237 OA
ATOM     91  O   UNL     1       6.454   5.615 -13.019  1.00  0.00    -0.744 OA
ENDBRANCH  84  88
ENDBRANCH  57  81
BRANCH  69  92
ATOM     92  C   UNL     1       5.673  -4.194 -15.172  1.00  0.00     0.023 A 
ATOM     93  C   UNL     1       6.989  -4.358 -14.706  1.00  0.00     0.031 A 
ATOM     94  C   UNL     1       5.433  -4.356 -16.548  1.00  0.00     0.131 A 
ATOM     95  C   UNL     1       8.023  -4.632 -15.613  1.00  0.00     0.055 A 
ATOM     96  C   UNL     1       6.455  -4.690 -17.438  1.00  0.00     0.041 A 
ATOM     97  F   UNL     1       4.197  -4.206 -17.049  1.00  0.00    -0.206 F 
ATOM     98  C   UNL     1       7.761  -4.819 -16.973  1.00  0.00     0.022 A 
BRANCH  95  99
ATOM     99  S   UNL     1       9.730  -4.667 -15.004  1.00  0.00     0.124 S 
ATOM    100  O   UNL     1       9.897  -3.310 -14.492  1.00  0.00    -0.237 OA
ATOM    101  O   UNL     1       9.683  -5.725 -13.999  1.00  0.00    -0.237 OA
ATOM    102  O   UNL     1      10.514  -4.981 -16.197  1.00  0.00    -0.744 OA
ENDBRANCH  95  99
ENDBRANCH  69  92
ENDBRANCH  43  44
ENDBRANCH  35  38
ENDBRANCH  33  34
ENDBRANCH  32  33
ENDBRANCH  31  32
ENDBRANCH   1  31
TORSDOF 21
