REMARK SMILES CCOc1ccc(-c2cc(Cl)cc3c2O[C@H](C(F)(F)F)C(C(=O)NCCCCCCNC(=O)c2ccc(-c4c5nc(c(-c6cc(S(=O)(=O)[O-])ccc6F)c6ccc([nH]6)c(-c6cc(S(=O)(=O)[O-])ccc6F)c6nc(c(-c7cc(S(=O)(=O)[O-])ccc7F)c7ccc4[nH]7)C=C6)C=C5)cc2)=C3)cc1
REMARK SMILES IDX 27 1 26 2 25 3 24 4 22 5 23 6 21 8 8 9 9 10 14 11 10 12
REMARK SMILES IDX 13 13 15 14 11 15 12 16 97 17 16 18 7 19 4 20 5 21 99 22
REMARK SMILES IDX 6 23 98 24 3 25 2 26 1 27 17 28 18 29 19 30 20 31 28 32
REMARK SMILES IDX 29 33 30 34 31 35 32 36 33 38 34 39 35 40 96 41 36 42 95 43
REMARK SMILES IDX 37 44 38 45 39 46 89 47 40 48 94 49 88 50 90 51 41 52 93 53
REMARK SMILES IDX 87 54 86 55 42 57 74 58 54 59 73 60 55 61 58 62 72 63 91 64
REMARK SMILES IDX 56 65 57 66 71 68 92 69 59 70 43 71 44 72 52 73 45 74 51 75
REMARK SMILES IDX 53 76 50 77 46 78 47 79 48 80 49 81 75 82 76 83 84 84 77 85
REMARK SMILES IDX 83 86 85 87 82 88 78 89 79 90 80 91 81 92 60 93 61 94 69 95
REMARK SMILES IDX 62 96 68 97 70 98 67 99 63 100 64 101 65 102 66 103
REMARK H PARENT 24 7 31 37 90 56 58 67
REMARK Flexibility Score: inf
ROOT
ATOM      1  C   UNL     1      14.790   5.942  -4.241  1.00  0.00     0.002 C 
ENDROOT
BRANCH   1   2
ATOM      2  C   UNL     1      13.708   5.267  -5.101  1.00  0.00     0.021 C 
BRANCH   2   3
ATOM      3  C   UNL     1      13.107   3.991  -4.493  1.00  0.00     0.116 C 
BRANCH   3   4
ATOM      4  N   UNL     1      12.479   4.303  -3.224  1.00  0.00    -0.352 N 
ATOM      5  C   UNL     1      11.153   4.171  -2.968  1.00  0.00     0.251 C 
ATOM      6  O   UNL     1      10.515   5.103  -2.492  1.00  0.00    -0.270 OA
ATOM      7  H   UNL     1      13.055   4.634  -2.497  1.00  0.00     0.163 HD
BRANCH   5   8
ATOM      8  C   UNL     1      10.584   2.801  -3.138  1.00  0.00     0.067 C 
ATOM      9  C   UNL     1       7.000   3.384  -1.304  1.00  0.00     0.026 A 
ATOM     10  C   UNL     1       7.239   4.069  -0.087  1.00  0.00     0.033 A 
ATOM     11  C   UNL     1       8.123   2.837  -1.947  1.00  0.00     0.135 A 
ATOM     12  C   UNL     1       8.486   4.066   0.537  1.00  0.00     0.042 A 
ATOM     13  C   UNL     1       9.350   2.744  -1.247  1.00  0.00     0.019 A 
ATOM     14  O   UNL     1       8.096   2.411  -3.267  1.00  0.00    -0.475 OA
ATOM     15  Cl  UNL     1       8.705   4.930   2.007  1.00  0.00    -0.084 Cl
ATOM     16  C   UNL     1       9.534   3.345  -0.005  1.00  0.00     0.032 A 
ATOM     17  C   UNL     1      10.502   2.150  -1.960  1.00  0.00     0.025 C 
ATOM     18  C   UNL     1       9.339   2.749  -4.017  1.00  0.00     0.314 C 
BRANCH   9  19
ATOM     19  C   UNL     1       5.576   3.130  -1.628  1.00  0.00    -0.014 A 
ATOM     20  C   UNL     1       2.840   2.530  -1.238  1.00  0.00     0.119 A 
ATOM     21  C   UNL     1       3.254   3.855  -1.341  1.00  0.00     0.047 A 
ATOM     22  C   UNL     1       3.755   1.507  -1.461  1.00  0.00     0.047 A 
ATOM     23  C   UNL     1       4.610   4.153  -1.542  1.00  0.00     0.013 A 
ATOM     24  C   UNL     1       5.110   1.804  -1.658  1.00  0.00     0.013 A 
BRANCH  20  25
ATOM     25  O   UNL     1       1.517   2.286  -0.996  1.00  0.00    -0.494 OA
BRANCH  25  26
ATOM     26  C   UNL     1       1.265   1.594   0.238  1.00  0.00     0.226 C 
ATOM     27  C   UNL     1       1.039   0.108   0.002  1.00  0.00     0.049 C 
ENDBRANCH  25  26
ENDBRANCH  20  25
ENDBRANCH   9  19
BRANCH  18  28
ATOM     28  C   UNL     1       9.592   1.761  -5.175  1.00  0.00     0.429 C 
ATOM     29  F   UNL     1       8.904   0.606  -5.031  1.00  0.00    -0.167 F 
ATOM     30  F   UNL     1       9.242   2.303  -6.366  1.00  0.00    -0.167 F 
ATOM     31  F   UNL     1      10.903   1.419  -5.284  1.00  0.00    -0.167 F 
ENDBRANCH  18  28
ENDBRANCH   5   8
ENDBRANCH   3   4
ENDBRANCH   2   3
ENDBRANCH   1   2
BRANCH   1  32
ATOM     32  C   UNL     1      15.969   5.043  -3.864  1.00  0.00     0.002 C 
BRANCH  32  33
ATOM     33  C   UNL     1      16.733   4.465  -5.054  1.00  0.00     0.021 C 
BRANCH  33  34
ATOM     34  C   UNL     1      17.270   5.506  -6.032  1.00  0.00     0.116 C 
BRANCH  34  35
ATOM     35  N   UNL     1      18.222   6.415  -5.410  1.00  0.00    -0.352 N 
ATOM     36  C   UNL     1      19.467   6.788  -5.854  1.00  0.00     0.251 C 
ATOM     37  H   UNL     1      17.935   6.816  -4.558  1.00  0.00     0.163 HD
ATOM     38  O   UNL     1      20.212   7.442  -5.129  1.00  0.00    -0.269 OA
BRANCH  36  39
ATOM     39  C   UNL     1      19.910   6.362  -7.198  1.00  0.00     0.039 A 
ATOM     40  C   UNL     1      21.147   5.730  -7.337  1.00  0.00     0.014 A 
ATOM     41  C   UNL     1      19.076   6.542  -8.306  1.00  0.00     0.014 A 
ATOM     42  C   UNL     1      21.513   5.200  -8.576  1.00  0.00     0.010 A 
ATOM     43  C   UNL     1      19.415   5.957  -9.522  1.00  0.00     0.010 A 
ATOM     44  C   UNL     1      20.630   5.268  -9.666  1.00  0.00    -0.014 A 
BRANCH  44  45
ATOM     45  C   UNL     1      20.936   4.602 -10.959  1.00  0.00     0.031 A 
ATOM     46  C   UNL     1      21.108   5.424 -12.206  1.00  0.00     0.074 A 
ATOM     47  C   UNL     1      20.968   3.255 -11.022  1.00  0.00     0.049 A 
ATOM     48  N   UNL     1      21.254   5.028 -13.444  1.00  0.00    -0.248 NA
ATOM     49  C   UNL     1      21.087   6.885 -12.039  1.00  0.00     0.031 C 
ATOM     50  C   UNL     1      20.791   2.350  -9.883  1.00  0.00     0.029 A 
ATOM     51  N   UNL     1      21.144   2.409 -12.089  1.00  0.00    -0.354 N 
ATOM     52  C   UNL     1      21.320   6.189 -14.207  1.00  0.00     0.074 A 
ATOM     53  C   UNL     1      21.154   7.301 -13.295  1.00  0.00     0.031 C 
ATOM     54  C   UNL     1      20.885   1.081 -10.310  1.00  0.00     0.029 A 
ATOM     55  C   UNL     1      21.070   1.075 -11.757  1.00  0.00     0.049 A 
ATOM     56  H   UNL     1      21.307   2.727 -13.007  1.00  0.00     0.167 HD
ATOM     57  C   UNL     1      21.515   6.312 -15.543  1.00  0.00     0.034 A 
ATOM     58  C   UNL     1      21.120  -0.027 -12.533  1.00  0.00     0.034 A 
ATOM     59  C   UNL     1      21.697   5.191 -16.433  1.00  0.00     0.049 A 
ATOM     60  C   UNL     1      21.285   0.141 -14.024  1.00  0.00     0.074 A 
ATOM     61  C   UNL     1      21.984   5.206 -17.787  1.00  0.00     0.029 A 
ATOM     62  N   UNL     1      21.594   3.856 -16.065  1.00  0.00    -0.354 N 
ATOM     63  N   UNL     1      21.406   1.246 -14.722  1.00  0.00    -0.248 NA
ATOM     64  C   UNL     1      21.318  -1.087 -14.830  1.00  0.00     0.031 C 
ATOM     65  C   UNL     1      21.976   3.887 -18.252  1.00  0.00     0.029 A 
ATOM     66  C   UNL     1      21.764   3.042 -17.175  1.00  0.00     0.049 A 
ATOM     67  H   UNL     1      21.425   3.534 -15.150  1.00  0.00     0.167 HD
ATOM     68  C   UNL     1      21.560   0.842 -16.046  1.00  0.00     0.074 A 
ATOM     69  C   UNL     1      21.530  -0.606 -16.046  1.00  0.00     0.031 C 
ATOM     70  C   UNL     1      21.717   1.599 -17.161  1.00  0.00     0.034 A 
BRANCH  57  71
ATOM     71  C   UNL     1      21.506   7.703 -16.128  1.00  0.00     0.023 A 
ATOM     72  C   UNL     1      22.476   8.660 -15.783  1.00  0.00     0.031 A 
ATOM     73  C   UNL     1      20.506   8.079 -17.042  1.00  0.00     0.131 A 
ATOM     74  C   UNL     1      22.388   9.962 -16.298  1.00  0.00     0.055 A 
ATOM     75  C   UNL     1      20.469   9.354 -17.611  1.00  0.00     0.041 A 
ATOM     76  F   UNL     1      19.541   7.215 -17.393  1.00  0.00    -0.206 F 
ATOM     77  C   UNL     1      21.407  10.309 -17.229  1.00  0.00     0.022 A 
BRANCH  74  78
ATOM     78  S   UNL     1      23.498  11.233 -15.633  1.00  0.00     0.124 S 
ATOM     79  O   UNL     1      23.159  11.208 -14.213  1.00  0.00    -0.237 OA
ATOM     80  O   UNL     1      24.816  10.716 -15.985  1.00  0.00    -0.237 OA
ATOM     81  O   UNL     1      23.094  12.446 -16.342  1.00  0.00    -0.744 OA
ENDBRANCH  74  78
ENDBRANCH  57  71
BRANCH  58  82
ATOM     82  C   UNL     1      20.987  -1.387 -11.935  1.00  0.00     0.023 A 
ATOM     83  C   UNL     1      22.037  -2.315 -12.020  1.00  0.00     0.031 A 
ATOM     84  C   UNL     1      19.791  -1.801 -11.324  1.00  0.00     0.131 A 
ATOM     85  C   UNL     1      21.855  -3.624 -11.550  1.00  0.00     0.055 A 
ATOM     86  C   UNL     1      19.633  -3.088 -10.805  1.00  0.00     0.041 A 
ATOM     87  F   UNL     1      18.754  -0.955 -11.216  1.00  0.00    -0.206 F 
ATOM     88  C   UNL     1      20.665  -4.014 -10.931  1.00  0.00     0.022 A 
BRANCH  85  89
ATOM     89  S   UNL     1      23.163  -4.844 -11.850  1.00  0.00     0.124 S 
ATOM     90  O   UNL     1      23.280  -4.800 -13.303  1.00  0.00    -0.237 OA
ATOM     91  O   UNL     1      24.280  -4.280 -11.098  1.00  0.00    -0.237 OA
ATOM     92  O   UNL     1      22.607  -6.080 -11.305  1.00  0.00    -0.744 OA
ENDBRANCH  85  89
ENDBRANCH  58  82
BRANCH  70  93
ATOM     93  C   UNL     1      21.907   0.868 -18.467  1.00  0.00     0.023 A 
ATOM     94  C   UNL     1      20.870   0.122 -19.053  1.00  0.00     0.031 A 
ATOM     95  C   UNL     1      23.143   0.924 -19.135  1.00  0.00     0.131 A 
ATOM     96  C   UNL     1      21.102  -0.577 -20.248  1.00  0.00     0.055 A 
ATOM     97  C   UNL     1      23.350   0.275 -20.353  1.00  0.00     0.041 A 
ATOM     98  F   UNL     1      24.169   1.620 -18.618  1.00  0.00    -0.206 F 
ATOM     99  C   UNL     1      22.329  -0.489 -20.911  1.00  0.00     0.022 A 
BRANCH  96 100
ATOM    100  S   UNL     1      19.799  -1.661 -20.891  1.00  0.00     0.124 S 
ATOM    101  O   UNL     1      19.644  -2.625 -19.806  1.00  0.00    -0.237 OA
ATOM    102  O   UNL     1      18.687  -0.736 -21.085  1.00  0.00    -0.237 OA
ATOM    103  O   UNL     1      20.376  -2.200 -22.121  1.00  0.00    -0.744 OA
ENDBRANCH  96 100
ENDBRANCH  70  93
ENDBRANCH  44  45
ENDBRANCH  36  39
ENDBRANCH  34  35
ENDBRANCH  33  34
ENDBRANCH  32  33
ENDBRANCH   1  32
TORSDOF 20
