REMARK SMILES O=C(NCCCCCCNC(=O)C1CCN(C(=O)COc2ccc(Cl)cc2Cl)CC1)c1ccc(-c2c3nc(c(-c4cc(S(=O)(=O)[O-])ccc4F)c4ccc([nH]4)c(-c4cc(S(=O)(=O)[O-])ccc4F)c4nc(c(-c5cc(S(=O)(=O)[O-])ccc5F)c5ccc2[nH]5)C=C4)C=C3)cc1
REMARK SMILES IDX 6 1 5 2 4 3 3 4 1 5 2 6 31 8 32 9 93 10 33 11 92 12 34 13
REMARK SMILES IDX 35 14 36 15 86 16 37 17 91 18 85 19 87 20 38 21 90 22 84 23
REMARK SMILES IDX 83 24 39 26 71 27 51 28 70 29 52 30 55 31 69 32 88 33 53 34
REMARK SMILES IDX 54 35 68 37 89 38 56 39 40 40 41 41 49 42 42 43 48 44 50 45
REMARK SMILES IDX 47 46 43 47 44 48 45 49 46 50 72 51 73 52 81 53 74 54 80 55
REMARK SMILES IDX 82 56 79 57 75 58 76 59 77 60 78 61 57 62 58 63 66 64 59 65
REMARK SMILES IDX 65 66 67 67 64 68 60 69 61 70 62 71 63 72 7 73 8 74 9 75
REMARK SMILES IDX 10 76 11 77 12 79 13 80 14 81 30 82 15 83 29 84 16 85 17 86
REMARK SMILES IDX 18 87 19 88 20 89 21 90 22 91 27 92 23 93 26 94 28 95 24 96
REMARK SMILES IDX 25 97
REMARK H PARENT 3 7 87 25 55 36 10 78
REMARK Flexibility Score: inf
ROOT
ATOM      1  C   UNL     1       4.141  -2.342  -3.035  1.00  0.00     0.002 C 
ENDROOT
BRANCH   1   2
ATOM      2  C   UNL     1       4.549  -2.162  -1.573  1.00  0.00     0.021 C 
BRANCH   2   3
ATOM      3  C   UNL     1       4.342  -0.761  -1.012  1.00  0.00     0.116 C 
BRANCH   3   4
ATOM      4  N   UNL     1       2.940  -0.380  -0.950  1.00  0.00    -0.352 N 
ATOM      5  O   UNL     1       1.025   0.298   0.035  1.00  0.00    -0.269 OA
ATOM      6  C   UNL     1       2.244   0.162   0.105  1.00  0.00     0.251 C 
ATOM      7  H   UNL     1       2.420  -0.529  -1.773  1.00  0.00     0.163 HD
BRANCH   6   8
ATOM      8  C   UNL     1       2.969   0.557   1.333  1.00  0.00     0.039 A 
ATOM      9  C   UNL     1       4.157   1.286   1.253  1.00  0.00     0.014 A 
ATOM     10  C   UNL     1       2.459   0.181   2.579  1.00  0.00     0.014 A 
ATOM     11  C   UNL     1       4.905   1.517   2.402  1.00  0.00     0.010 A 
ATOM     12  C   UNL     1       3.172   0.487   3.742  1.00  0.00     0.010 A 
ATOM     13  C   UNL     1       4.418   1.130   3.662  1.00  0.00    -0.014 A 
BRANCH  13  14
ATOM     14  C   UNL     1       5.210   1.453   4.877  1.00  0.00     0.031 A 
ATOM     15  C   UNL     1       5.804   0.367   5.731  1.00  0.00     0.074 A 
ATOM     16  C   UNL     1       5.422   2.748   5.183  1.00  0.00     0.049 A 
ATOM     17  N   UNL     1       6.549   0.474   6.803  1.00  0.00    -0.248 NA
ATOM     18  C   UNL     1       5.517  -1.019   5.337  1.00  0.00     0.031 C 
ATOM     19  C   UNL     1       4.889   3.887   4.429  1.00  0.00     0.029 A 
ATOM     20  N   UNL     1       6.155   3.329   6.185  1.00  0.00    -0.354 N 
ATOM     21  C   UNL     1       6.807  -0.826   7.223  1.00  0.00     0.074 A 
ATOM     22  C   UNL     1       6.107  -1.704   6.307  1.00  0.00     0.031 C 
ATOM     23  C   UNL     1       5.357   5.024   4.961  1.00  0.00     0.029 A 
ATOM     24  C   UNL     1       6.166   4.704   6.131  1.00  0.00     0.049 A 
ATOM     25  H   UNL     1       6.628   2.813   6.876  1.00  0.00     0.167 HD
ATOM     26  C   UNL     1       7.564  -1.246   8.269  1.00  0.00     0.034 A 
ATOM     27  C   UNL     1       6.751   5.608   6.939  1.00  0.00     0.034 A 
ATOM     28  C   UNL     1       8.256  -0.354   9.172  1.00  0.00     0.049 A 
ATOM     29  C   UNL     1       7.553   5.117   8.112  1.00  0.00     0.074 A 
ATOM     30  C   UNL     1       9.075  -0.672  10.242  1.00  0.00     0.029 A 
ATOM     31  N   UNL     1       8.203   1.034   9.118  1.00  0.00    -0.354 N 
ATOM     32  N   UNL     1       7.803   3.882   8.483  1.00  0.00    -0.248 NA
ATOM     33  C   UNL     1       8.153   6.142   8.973  1.00  0.00     0.031 C 
ATOM     34  C   UNL     1       9.462   0.518  10.871  1.00  0.00     0.029 A 
ATOM     35  C   UNL     1       8.946   1.584  10.153  1.00  0.00     0.049 A 
ATOM     36  H   UNL     1       7.708   1.552   8.442  1.00  0.00     0.167 HD
ATOM     37  C   UNL     1       8.606   3.984   9.614  1.00  0.00     0.074 A 
ATOM     38  C   UNL     1       8.816   5.399   9.847  1.00  0.00     0.031 C 
ATOM     39  C   UNL     1       9.126   2.998  10.388  1.00  0.00     0.034 A 
BRANCH  26  40
ATOM     40  C   UNL     1       7.640  -2.736   8.518  1.00  0.00     0.023 A 
ATOM     41  C   UNL     1       8.221  -3.615   7.586  1.00  0.00     0.031 A 
ATOM     42  C   UNL     1       7.096  -3.289   9.691  1.00  0.00     0.131 A 
ATOM     43  C   UNL     1       8.177  -5.001   7.807  1.00  0.00     0.055 A 
ATOM     44  C   UNL     1       7.126  -4.662   9.942  1.00  0.00     0.041 A 
ATOM     45  F   UNL     1       6.511  -2.503  10.609  1.00  0.00    -0.206 F 
ATOM     46  C   UNL     1       7.654  -5.529   8.990  1.00  0.00     0.022 A 
BRANCH  43  47
ATOM     47  S   UNL     1       8.677  -6.110   6.461  1.00  0.00     0.124 S 
ATOM     48  O   UNL     1       7.795  -5.680   5.378  1.00  0.00    -0.237 OA
ATOM     49  O   UNL     1      10.090  -5.789   6.297  1.00  0.00    -0.237 OA
ATOM     50  O   UNL     1       8.396  -7.442   6.991  1.00  0.00    -0.744 OA
ENDBRANCH  43  47
ENDBRANCH  26  40
BRANCH  27  51
ATOM     51  C   UNL     1       6.582   7.064   6.679  1.00  0.00     0.023 A 
ATOM     52  C   UNL     1       7.677   7.869   6.332  1.00  0.00     0.031 A 
ATOM     53  C   UNL     1       5.320   7.676   6.791  1.00  0.00     0.131 A 
ATOM     54  C   UNL     1       7.498   9.248   6.143  1.00  0.00     0.055 A 
ATOM     55  C   UNL     1       5.138   9.038   6.552  1.00  0.00     0.041 A 
ATOM     56  F   UNL     1       4.239   6.948   7.114  1.00  0.00    -0.206 F 
ATOM     57  C   UNL     1       6.233   9.835   6.237  1.00  0.00     0.022 A 
BRANCH  54  58
ATOM     58  S   UNL     1       8.957  10.278   5.836  1.00  0.00     0.124 S 
ATOM     59  O   UNL     1       9.765  10.012   7.021  1.00  0.00    -0.237 OA
ATOM     60  O   UNL     1       9.458   9.727   4.581  1.00  0.00    -0.237 OA
ATOM     61  O   UNL     1       8.407  11.629   5.745  1.00  0.00    -0.744 OA
ENDBRANCH  54  58
ENDBRANCH  27  51
BRANCH  39  62
ATOM     62  C   UNL     1       9.998   3.434  11.539  1.00  0.00     0.023 A 
ATOM     63  C   UNL     1       9.472   4.134  12.639  1.00  0.00     0.031 A 
ATOM     64  C   UNL     1      11.381   3.183  11.514  1.00  0.00     0.131 A 
ATOM     65  C   UNL     1      10.332   4.616  13.637  1.00  0.00     0.055 A 
ATOM     66  C   UNL     1      12.224   3.613  12.539  1.00  0.00     0.041 A 
ATOM     67  F   UNL     1      11.937   2.522  10.485  1.00  0.00    -0.206 F 
ATOM     68  C   UNL     1      11.703   4.347  13.601  1.00  0.00     0.022 A 
BRANCH  65  69
ATOM     69  S   UNL     1       9.650   5.689  14.930  1.00  0.00     0.124 S 
ATOM     70  O   UNL     1       9.081   6.783  14.149  1.00  0.00    -0.237 OA
ATOM     71  O   UNL     1       8.691   4.811  15.591  1.00  0.00    -0.237 OA
ATOM     72  O   UNL     1      10.819   6.044  15.733  1.00  0.00    -0.744 OA
ENDBRANCH  65  69
ENDBRANCH  39  62
ENDBRANCH  13  14
ENDBRANCH   6   8
ENDBRANCH   3   4
ENDBRANCH   2   3
ENDBRANCH   1   2
BRANCH   1  73
ATOM     73  C   UNL     1       4.794  -1.377  -4.028  1.00  0.00     0.002 C 
BRANCH  73  74
ATOM     74  C   UNL     1       6.327  -1.313  -3.991  1.00  0.00     0.021 C 
BRANCH  74  75
ATOM     75  C   UNL     1       7.037  -2.657  -4.141  1.00  0.00     0.116 C 
BRANCH  75  76
ATOM     76  N   UNL     1       6.656  -3.324  -5.372  1.00  0.00    -0.356 N 
ATOM     77  C   UNL     1       7.399  -3.798  -6.402  1.00  0.00     0.223 C 
ATOM     78  H   UNL     1       5.686  -3.456  -5.477  1.00  0.00     0.163 HD
ATOM     79  O   UNL     1       6.798  -4.315  -7.345  1.00  0.00    -0.275 OA
BRANCH  77  80
ATOM     80  C   UNL     1       8.916  -3.663  -6.391  1.00  0.00     0.082 C 
ATOM     81  C   UNL     1       9.354  -2.520  -7.321  1.00  0.00     0.035 C 
ATOM     82  C   UNL     1       9.572  -5.005  -6.757  1.00  0.00     0.035 C 
ATOM     83  C   UNL     1       9.318  -2.912  -8.801  1.00  0.00     0.120 C 
ATOM     84  C   UNL     1       9.537  -5.296  -8.254  1.00  0.00     0.120 C 
ATOM     85  N   UNL     1      10.056  -4.154  -9.001  1.00  0.00    -0.340 N 
ATOM     86  C   UNL     1      11.186  -4.165  -9.802  1.00  0.00     0.260 C 
ATOM     87  O   UNL     1      11.486  -3.215 -10.531  1.00  0.00    -0.271 OA
BRANCH  86  88
ATOM     88  C   UNL     1      12.116  -5.385  -9.735  1.00  0.00     0.329 C 
BRANCH  88  89
ATOM     89  O   UNL     1      12.476  -5.870  -8.448  1.00  0.00    -0.482 OA
BRANCH  89  90
ATOM     90  C   UNL     1      13.446  -5.176  -7.774  1.00  0.00     0.138 A 
ATOM     91  C   UNL     1      13.430  -3.785  -7.634  1.00  0.00     0.049 A 
ATOM     92  C   UNL     1      14.428  -5.916  -7.097  1.00  0.00     0.084 A 
ATOM     93  C   UNL     1      14.392  -3.143  -6.850  1.00  0.00     0.024 A 
ATOM     94  C   UNL     1      15.393  -5.275  -6.317  1.00  0.00     0.045 A 
ATOM     95  Cl  UNL     1      14.489  -7.640  -7.213  1.00  0.00    -0.080 Cl
ATOM     96  C   UNL     1      15.369  -3.889  -6.198  1.00  0.00     0.042 A 
ATOM     97  Cl  UNL     1      16.546  -3.090  -5.232  1.00  0.00    -0.084 Cl
ENDBRANCH  89  90
ENDBRANCH  88  89
ENDBRANCH  86  88
ENDBRANCH  77  80
ENDBRANCH  75  76
ENDBRANCH  74  75
ENDBRANCH  73  74
ENDBRANCH   1  73
TORSDOF 19
