REMARK SMILES CN(C)c1ccc(-c2nnc([C@H]3CC[N@@H+](Cc4ccc(C(=O)NCCCCCCNC(=O)c5ccc(-c6c7nc(c(-c8cc(S(=O)(=O)[O-])ccc8F)c8ccc([nH]8)c(-c8cc(S(=O)(=O)[O-])ccc8F)c8nc(c(-c9cc(S(=O)(=O)[O-])ccc9F)c9ccc6[nH]9)C=C8)C=C7)cc5)cc4)C3)o2)cc1
REMARK SMILES IDX 25 1 24 2 23 3 21 4 22 5 20 7 17 8 18 9 97 10 19 11 96 12
REMARK SMILES IDX 16 13 15 14 12 15 13 16 98 17 14 18 11 20 8 21 9 22 99 23
REMARK SMILES IDX 10 24 7 25 4 26 5 27 101 28 6 29 100 30 2 31 1 32 3 33 26 34
REMARK SMILES IDX 27 35 28 36 29 37 30 38 31 39 32 41 33 42 34 43 95 44 35 45
REMARK SMILES IDX 94 46 36 47 37 48 38 49 88 50 39 51 93 52 87 53 89 54 40 55
REMARK SMILES IDX 92 56 86 57 85 58 41 60 73 61 53 62 72 63 54 64 57 65 71 66
REMARK SMILES IDX 90 67 55 68 56 69 70 71 91 72 58 73 42 74 43 75 51 76 44 77
REMARK SMILES IDX 50 78 52 79 49 80 45 81 46 82 47 83 48 84 74 85 75 86 83 87
REMARK SMILES IDX 76 88 82 89 84 90 81 91 77 92 78 93 79 94 80 95 59 96 60 97
REMARK SMILES IDX 68 98 61 99 67 100 69 101 66 102 62 103 63 104 64 105 65 106
REMARK H PARENT 23 6 15 19 30 40 89 59 57 70
REMARK Flexibility Score: inf
ROOT
ATOM      1  C   UNL     1       2.599  13.241  -8.262  1.00  0.00     0.021 C 
ENDROOT
BRANCH   1   2
ATOM      2  C   UNL     1       2.121  11.896  -8.815  1.00  0.00     0.116 C 
BRANCH   2   3
ATOM      3  N   UNL     1       2.384  11.788 -10.246  1.00  0.00    -0.352 N 
ATOM      4  C   UNL     1       3.188  10.938 -10.967  1.00  0.00     0.251 C 
ATOM      5  O   UNL     1       3.109  10.947 -12.195  1.00  0.00    -0.269 OA
ATOM      6  H   UNL     1       1.896  12.443 -10.795  1.00  0.00     0.163 HD
BRANCH   4   7
ATOM      7  C   UNL     1       4.121   9.980 -10.321  1.00  0.00     0.039 A 
ATOM      8  C   UNL     1       5.785   8.049  -9.104  1.00  0.00     0.006 A 
ATOM      9  C   UNL     1       5.102   7.751 -10.289  1.00  0.00     0.010 A 
ATOM     10  C   UNL     1       5.720   9.356  -8.618  1.00  0.00     0.010 A 
ATOM     11  C   UNL     1       4.281   8.711 -10.894  1.00  0.00     0.014 A 
ATOM     12  C   UNL     1       4.894  10.316  -9.213  1.00  0.00     0.014 A 
BRANCH   8  13
ATOM     13  C   UNL     1       6.527   6.979  -8.329  1.00  0.00     0.299 C 
BRANCH  13  14
ATOM     14  N   UNL     1       5.818   6.369  -7.189  1.00  0.00    -0.330 N 
ATOM     15  C   UNL     1       4.258   7.565  -5.749  1.00  0.00     0.138 C 
ATOM     16  C   UNL     1       3.532   6.999  -6.968  1.00  0.00     0.081 C 
ATOM     17  C   UNL     1       5.732   7.207  -5.980  1.00  0.00     0.276 C 
ATOM     18  C   UNL     1       4.460   5.902  -7.470  1.00  0.00     0.263 C 
ATOM     19  H   UNL     1       6.427   5.570  -7.014  1.00  0.00     0.348 HD
BRANCH  15  20
ATOM     20  C   UNL     1       3.968   9.008  -5.518  1.00  0.00     0.225 A 
ATOM     21  C   UNL     1       4.337  11.110  -5.372  1.00  0.00     0.247 A 
ATOM     22  N   UNL     1       3.053  10.931  -5.129  1.00  0.00    -0.108 NA
ATOM     23  O   UNL     1       4.988   9.925  -5.610  1.00  0.00    -0.420 OA
ATOM     24  N   UNL     1       2.814   9.575  -5.231  1.00  0.00    -0.112 NA
BRANCH  21  25
ATOM     25  C   UNL     1       5.064  12.353  -5.616  1.00  0.00     0.039 A 
ATOM     26  C   UNL     1       6.076  14.844  -6.557  1.00  0.00     0.036 A 
ATOM     27  C   UNL     1       5.129  14.785  -5.527  1.00  0.00     0.027 A 
ATOM     28  C   UNL     1       6.590  13.632  -7.020  1.00  0.00     0.027 A 
ATOM     29  C   UNL     1       4.609  13.560  -5.078  1.00  0.00     0.016 A 
ATOM     30  C   UNL     1       6.123  12.409  -6.526  1.00  0.00     0.016 A 
BRANCH  26  31
ATOM     31  N   UNL     1       6.466  16.055  -7.103  1.00  0.00    -0.378 N 
ATOM     32  C   UNL     1       6.627  16.189  -8.541  1.00  0.00     0.143 C 
ATOM     33  C   UNL     1       7.048  17.052  -6.219  1.00  0.00     0.143 C 
ENDBRANCH  26  31
ENDBRANCH  21  25
ENDBRANCH  15  20
ENDBRANCH  13  14
ENDBRANCH   8  13
ENDBRANCH   4   7
ENDBRANCH   2   3
ENDBRANCH   1   2
BRANCH   1  34
ATOM     34  C   UNL     1       1.620  14.407  -8.454  1.00  0.00     0.002 C 
BRANCH  34  35
ATOM     35  C   UNL     1       0.354  14.349  -7.587  1.00  0.00     0.002 C 
BRANCH  35  36
ATOM     36  C   UNL     1       0.573  14.332  -6.067  1.00  0.00     0.021 C 
BRANCH  36  37
ATOM     37  C   UNL     1       1.297  15.547  -5.488  1.00  0.00     0.116 C 
BRANCH  37  38
ATOM     38  N   UNL     1       0.537  16.776  -5.646  1.00  0.00    -0.352 N 
ATOM     39  C   UNL     1       0.070  17.666  -4.709  1.00  0.00     0.251 C 
ATOM     40  H   UNL     1       0.322  17.009  -6.578  1.00  0.00     0.163 HD
ATOM     41  O   UNL     1      -0.714  18.544  -5.061  1.00  0.00    -0.269 OA
BRANCH  39  42
ATOM     42  C   UNL     1       0.480  17.575  -3.287  1.00  0.00     0.039 A 
ATOM     43  C   UNL     1      -0.483  17.801  -2.297  1.00  0.00     0.014 A 
ATOM     44  C   UNL     1       1.806  17.331  -2.916  1.00  0.00     0.014 A 
ATOM     45  C   UNL     1      -0.133  17.725  -0.945  1.00  0.00     0.010 A 
ATOM     46  C   UNL     1       2.142  17.197  -1.566  1.00  0.00     0.010 A 
ATOM     47  C   UNL     1       1.177  17.392  -0.565  1.00  0.00    -0.014 A 
BRANCH  47  48
ATOM     48  C   UNL     1       1.547  17.245   0.871  1.00  0.00     0.031 A 
ATOM     49  C   UNL     1       2.533  18.191   1.505  1.00  0.00     0.074 A 
ATOM     50  C   UNL     1       1.035  16.228   1.592  1.00  0.00     0.049 A 
ATOM     51  N   UNL     1       3.032  18.181   2.715  1.00  0.00    -0.248 NA
ATOM     52  C   UNL     1       3.041  19.277   0.655  1.00  0.00     0.031 C 
ATOM     53  C   UNL     1       0.094  15.226   1.086  1.00  0.00     0.029 A 
ATOM     54  N   UNL     1       1.238  15.860   2.899  1.00  0.00    -0.354 N 
ATOM     55  C   UNL     1       3.922  19.249   2.770  1.00  0.00     0.074 A 
ATOM     56  C   UNL     1       3.932  19.848   1.451  1.00  0.00     0.031 C 
ATOM     57  C   UNL     1      -0.212  14.371   2.075  1.00  0.00     0.029 A 
ATOM     58  C   UNL     1       0.541  14.733   3.272  1.00  0.00     0.049 A 
ATOM     59  H   UNL     1       1.826  16.356   3.513  1.00  0.00     0.167 HD
ATOM     60  C   UNL     1       4.648  19.699   3.825  1.00  0.00     0.034 A 
ATOM     61  C   UNL     1       0.521  14.058   4.439  1.00  0.00     0.034 A 
ATOM     62  C   UNL     1       4.620  19.097   5.138  1.00  0.00     0.049 A 
ATOM     63  C   UNL     1       1.355  14.561   5.590  1.00  0.00     0.074 A 
ATOM     64  C   UNL     1       5.277  19.503   6.288  1.00  0.00     0.029 A 
ATOM     65  N   UNL     1       3.904  17.955   5.476  1.00  0.00    -0.354 N 
ATOM     66  N   UNL     1       2.160  15.597   5.636  1.00  0.00    -0.248 NA
ATOM     67  C   UNL     1       1.269  13.809   6.848  1.00  0.00     0.031 C 
ATOM     68  C   UNL     1       5.011  18.573   7.300  1.00  0.00     0.029 A 
ATOM     69  C   UNL     1       4.127  17.627   6.806  1.00  0.00     0.049 A 
ATOM     70  H   UNL     1       3.322  17.452   4.862  1.00  0.00     0.167 HD
ATOM     71  C   UNL     1       2.651  15.637   6.939  1.00  0.00     0.074 A 
ATOM     72  C   UNL     1       2.040  14.531   7.647  1.00  0.00     0.031 C 
ATOM     73  C   UNL     1       3.523  16.513   7.500  1.00  0.00     0.034 A 
BRANCH  60  74
ATOM     74  C   UNL     1       5.554  20.886   3.590  1.00  0.00     0.023 A 
ATOM     75  C   UNL     1       5.045  22.143   3.220  1.00  0.00     0.031 A 
ATOM     76  C   UNL     1       6.949  20.753   3.712  1.00  0.00     0.131 A 
ATOM     77  C   UNL     1       5.923  23.192   2.909  1.00  0.00     0.055 A 
ATOM     78  C   UNL     1       7.815  21.826   3.483  1.00  0.00     0.041 A 
ATOM     79  F   UNL     1       7.498  19.574   4.043  1.00  0.00    -0.206 F 
ATOM     80  C   UNL     1       7.304  23.050   3.063  1.00  0.00     0.022 A 
BRANCH  77  81
ATOM     81  S   UNL     1       5.244  24.697   2.159  1.00  0.00     0.124 S 
ATOM     82  O   UNL     1       4.610  24.165   0.955  1.00  0.00    -0.237 OA
ATOM     83  O   UNL     1       4.341  25.186   3.194  1.00  0.00    -0.237 OA
ATOM     84  O   UNL     1       6.425  25.524   1.918  1.00  0.00    -0.744 OA
ENDBRANCH  77  81
ENDBRANCH  60  74
BRANCH  61  85
ATOM     85  C   UNL     1      -0.305  12.825   4.583  1.00  0.00     0.023 A 
ATOM     86  C   UNL     1      -1.389  12.780   5.475  1.00  0.00     0.031 A 
ATOM     87  C   UNL     1       0.003  11.658   3.861  1.00  0.00     0.131 A 
ATOM     88  C   UNL     1      -2.096  11.582   5.657  1.00  0.00     0.055 A 
ATOM     89  C   UNL     1      -0.737  10.484   4.006  1.00  0.00     0.041 A 
ATOM     90  F   UNL     1       1.027  11.648   2.993  1.00  0.00    -0.206 F 
ATOM     91  C   UNL     1      -1.786  10.437   4.919  1.00  0.00     0.022 A 
BRANCH  88  92
ATOM     92  S   UNL     1      -3.377  11.516   6.939  1.00  0.00     0.124 S 
ATOM     93  O   UNL     1      -2.621  11.871   8.135  1.00  0.00    -0.237 OA
ATOM     94  O   UNL     1      -4.332  12.512   6.464  1.00  0.00    -0.237 OA
ATOM     95  O   UNL     1      -3.844  10.133   6.883  1.00  0.00    -0.744 OA
ENDBRANCH  88  92
ENDBRANCH  61  85
BRANCH  73  96
ATOM     96  C   UNL     1       3.829  16.330   8.967  1.00  0.00     0.023 A 
ATOM     97  C   UNL     1       4.530  15.208   9.444  1.00  0.00     0.031 A 
ATOM     98  C   UNL     1       3.394  17.285   9.903  1.00  0.00     0.131 A 
ATOM     99  C   UNL     1       4.726  15.041  10.823  1.00  0.00     0.055 A 
ATOM    100  C   UNL     1       3.644  17.142  11.269  1.00  0.00     0.041 A 
ATOM    101  F   UNL     1       2.718  18.374   9.505  1.00  0.00    -0.206 F 
ATOM    102  C   UNL     1       4.301  16.009  11.737  1.00  0.00     0.022 A 
BRANCH  99 103
ATOM    103  S   UNL     1       5.463  13.493  11.418  1.00  0.00     0.124 S 
ATOM    104  O   UNL     1       4.534  12.495  10.900  1.00  0.00    -0.237 OA
ATOM    105  O   UNL     1       6.784  13.518  10.798  1.00  0.00    -0.237 OA
ATOM    106  O   UNL     1       5.460  13.648  12.872  1.00  0.00    -0.744 OA
ENDBRANCH  99 103
ENDBRANCH  73  96
ENDBRANCH  47  48
ENDBRANCH  39  42
ENDBRANCH  37  38
ENDBRANCH  36  37
ENDBRANCH  35  36
ENDBRANCH  34  35
ENDBRANCH   1  34
TORSDOF 21
