REMARK SMILES O=C(CCCCCN1C(=O)/C(=C/c2cccc(O)c2)SC1=S)NCCCCCCNC(=O)c1ccc(-c2c3nc(c(-c4cc(S(=O)(=O)[O-])ccc4F)c4ccc([nH]4)c(-c4cc(S(=O)(=O)[O-])ccc4F)c4nc(c(-c5cc(S(=O)(=O)[O-])ccc5F)c5ccc2[nH]5)C=C4)C=C3)cc1
REMARK SMILES IDX 24 1 23 2 1 3 2 4 3 6 4 7 5 8 6 9 7 10 8 11 9 12 21 13 10 14
REMARK SMILES IDX 11 15 20 16 22 17 12 18 13 19 14 20 19 21 15 22 17 23 16 24
REMARK SMILES IDX 18 25 25 27 26 28 27 29 28 30 29 31 30 32 31 33 32 35 33 36
REMARK SMILES IDX 34 37 95 38 35 39 94 40 36 41 37 42 38 43 88 44 39 45 93 46
REMARK SMILES IDX 87 47 89 48 40 49 92 50 86 51 85 52 41 54 73 55 53 56 72 57
REMARK SMILES IDX 54 58 57 59 71 60 90 61 55 62 56 63 70 65 91 66 58 67 42 68
REMARK SMILES IDX 43 69 51 70 44 71 50 72 52 73 49 74 45 75 46 76 47 77 48 78
REMARK SMILES IDX 74 79 75 80 83 81 76 82 82 83 84 84 81 85 77 86 78 87 79 88
REMARK SMILES IDX 80 89 59 90 60 91 68 92 61 93 67 94 69 95 66 96 62 97 63 98
REMARK SMILES IDX 64 99 65 100
REMARK H PARENT 23 5 18 26 30 34 89 53 57 64
REMARK Flexibility Score: inf
ROOT
ATOM      1  C   UNL     1       1.927   1.513  -1.906  1.00  0.00     0.116 C 
ENDROOT
BRANCH   1   2
ATOM      2  N   UNL     1       2.529   0.777  -0.816  1.00  0.00    -0.356 N 
ATOM      3  O   UNL     1       0.650  -0.348  -0.122  1.00  0.00    -0.275 OA
ATOM      4  C   UNL     1       1.849  -0.113  -0.026  1.00  0.00     0.219 C 
ATOM      5  H   UNL     1       3.484   0.924  -0.630  1.00  0.00     0.163 HD
BRANCH   4   6
ATOM      6  C   UNL     1       2.728  -0.787   1.007  1.00  0.00     0.100 C 
BRANCH   6   7
ATOM      7  C   UNL     1       3.626  -1.873   0.412  1.00  0.00     0.010 C 
BRANCH   7   8
ATOM      8  C   UNL     1       4.825  -1.405  -0.424  1.00  0.00     0.002 C 
BRANCH   8   9
ATOM      9  C   UNL     1       5.796  -0.438   0.267  1.00  0.00     0.022 C 
BRANCH   9  10
ATOM     10  C   UNL     1       6.629  -1.052   1.405  1.00  0.00     0.127 C 
BRANCH  10  11
ATOM     11  N   UNL     1       7.460  -2.168   0.949  1.00  0.00    -0.293 N 
ATOM     12  C   UNL     1       8.519  -1.892   0.097  1.00  0.00     0.266 C 
ATOM     13  C   UNL     1       7.289  -3.489   1.306  1.00  0.00     0.148 C 
ATOM     14  O   UNL     1       8.914  -0.783  -0.227  1.00  0.00    -0.268 OA
ATOM     15  C   UNL     1       9.120  -3.157  -0.396  1.00  0.00     0.081 C 
ATOM     16  S   UNL     1       8.391  -4.501   0.384  1.00  0.00    -0.054 SA
ATOM     17  S   UNL     1       6.245  -4.142   2.431  1.00  0.00    -0.052 S 
ATOM     18  C   UNL     1      10.065  -3.170  -1.345  1.00  0.00     0.029 C 
BRANCH  18  19
ATOM     19  C   UNL     1      10.623  -4.385  -1.945  1.00  0.00    -0.021 A 
ATOM     20  C   UNL     1       9.831  -5.191  -2.775  1.00  0.00     0.008 A 
ATOM     21  C   UNL     1      11.947  -4.750  -1.692  1.00  0.00     0.054 A 
ATOM     22  C   UNL     1      10.350  -6.365  -3.323  1.00  0.00     0.004 A 
ATOM     23  C   UNL     1      12.455  -5.920  -2.247  1.00  0.00     0.116 A 
ATOM     24  C   UNL     1      11.667  -6.734  -3.056  1.00  0.00     0.046 A 
BRANCH  23  25
ATOM     25  O   UNL     1      13.750  -6.246  -1.966  1.00  0.00    -0.508 OA
ATOM     26  H   UNL     1      14.125  -7.027  -2.323  1.00  0.00     0.293 HD
ENDBRANCH  23  25
ENDBRANCH  18  19
ENDBRANCH  10  11
ENDBRANCH   9  10
ENDBRANCH   8   9
ENDBRANCH   7   8
ENDBRANCH   6   7
ENDBRANCH   4   6
ENDBRANCH   1   2
BRANCH   1  27
ATOM     27  C   UNL     1       2.524   2.916  -2.002  1.00  0.00     0.021 C 
BRANCH  27  28
ATOM     28  C   UNL     1       4.038   2.958  -2.267  1.00  0.00     0.002 C 
BRANCH  28  29
ATOM     29  C   UNL     1       4.492   2.317  -3.581  1.00  0.00     0.002 C 
BRANCH  29  30
ATOM     30  C   UNL     1       3.848   2.898  -4.840  1.00  0.00     0.021 C 
BRANCH  30  31
ATOM     31  C   UNL     1       4.002   4.408  -5.001  1.00  0.00     0.116 C 
BRANCH  31  32
ATOM     32  N   UNL     1       5.390   4.812  -5.162  1.00  0.00    -0.352 N 
ATOM     33  C   UNL     1       5.957   5.594  -6.141  1.00  0.00     0.251 C 
ATOM     34  H   UNL     1       6.011   4.479  -4.474  1.00  0.00     0.163 HD
ATOM     35  O   UNL     1       7.178   5.689  -6.218  1.00  0.00    -0.269 OA
BRANCH  33  36
ATOM     36  C   UNL     1       5.088   6.285  -7.119  1.00  0.00     0.039 A 
ATOM     37  C   UNL     1       5.402   6.206  -8.477  1.00  0.00     0.014 A 
ATOM     38  C   UNL     1       3.952   6.983  -6.700  1.00  0.00     0.014 A 
ATOM     39  C   UNL     1       4.532   6.757  -9.421  1.00  0.00     0.010 A 
ATOM     40  C   UNL     1       3.049   7.464  -7.645  1.00  0.00     0.010 A 
ATOM     41  C   UNL     1       3.324   7.348  -9.017  1.00  0.00    -0.014 A 
BRANCH  41  42
ATOM     42  C   UNL     1       2.326   7.822 -10.013  1.00  0.00     0.031 A 
ATOM     43  C   UNL     1       1.947   9.276 -10.075  1.00  0.00     0.074 A 
ATOM     44  C   UNL     1       1.708   6.929 -10.812  1.00  0.00     0.049 A 
ATOM     45  N   UNL     1       1.039   9.864 -10.812  1.00  0.00    -0.248 NA
ATOM     46  C   UNL     1       2.664  10.181  -9.166  1.00  0.00     0.031 C 
ATOM     47  C   UNL     1       1.958   5.486 -10.815  1.00  0.00     0.029 A 
ATOM     48  N   UNL     1       0.734   7.097 -11.765  1.00  0.00    -0.354 N 
ATOM     49  C   UNL     1       1.072  11.208 -10.453  1.00  0.00     0.074 A 
ATOM     50  C   UNL     1       2.041  11.328  -9.383  1.00  0.00     0.031 C 
ATOM     51  C   UNL     1       1.172   4.905 -11.733  1.00  0.00     0.029 A 
ATOM     52  C   UNL     1       0.322   5.920 -12.347  1.00  0.00     0.049 A 
ATOM     53  H   UNL     1       0.366   7.977 -12.010  1.00  0.00     0.167 HD
ATOM     54  C   UNL     1       0.377  12.246 -10.984  1.00  0.00     0.034 A 
ATOM     55  C   UNL     1      -0.649   5.678 -13.251  1.00  0.00     0.034 A 
ATOM     56  C   UNL     1      -0.591  12.102 -12.045  1.00  0.00     0.049 A 
ATOM     57  C   UNL     1      -1.447   6.837 -13.792  1.00  0.00     0.074 A 
ATOM     58  C   UNL     1      -1.314  13.090 -12.691  1.00  0.00     0.029 A 
ATOM     59  N   UNL     1      -0.989  10.894 -12.605  1.00  0.00    -0.354 N 
ATOM     60  N   UNL     1      -1.361   8.111 -13.486  1.00  0.00    -0.248 NA
ATOM     61  C   UNL     1      -2.464   6.527 -14.804  1.00  0.00     0.031 C 
ATOM     62  C   UNL     1      -2.206  12.475 -13.576  1.00  0.00     0.029 A 
ATOM     63  C   UNL     1      -1.978  11.108 -13.555  1.00  0.00     0.049 A 
ATOM     64  H   UNL     1      -0.622  10.013 -12.362  1.00  0.00     0.167 HD
ATOM     65  C   UNL     1      -2.299   8.758 -14.287  1.00  0.00     0.074 A 
ATOM     66  C   UNL     1      -2.924   7.734 -15.101  1.00  0.00     0.031 C 
ATOM     67  C   UNL     1      -2.611  10.078 -14.347  1.00  0.00     0.034 A 
BRANCH  54  68
ATOM     68  C   UNL     1       0.623  13.617 -10.394  1.00  0.00     0.023 A 
ATOM     69  C   UNL     1       1.896  14.213 -10.419  1.00  0.00     0.031 A 
ATOM     70  C   UNL     1      -0.416  14.321  -9.760  1.00  0.00     0.131 A 
ATOM     71  C   UNL     1       2.120  15.421  -9.742  1.00  0.00     0.055 A 
ATOM     72  C   UNL     1      -0.209  15.570  -9.171  1.00  0.00     0.041 A 
ATOM     73  F   UNL     1      -1.650  13.798  -9.683  1.00  0.00    -0.206 F 
ATOM     74  C   UNL     1       1.070  16.118  -9.141  1.00  0.00     0.022 A 
BRANCH  71  75
ATOM     75  S   UNL     1       3.832  15.973  -9.504  1.00  0.00     0.124 S 
ATOM     76  O   UNL     1       4.421  14.820  -8.827  1.00  0.00    -0.237 OA
ATOM     77  O   UNL     1       4.279  16.210 -10.871  1.00  0.00    -0.237 OA
ATOM     78  O   UNL     1       3.694  17.168  -8.674  1.00  0.00    -0.744 OA
ENDBRANCH  71  75
ENDBRANCH  54  68
BRANCH  55  79
ATOM     79  C   UNL     1      -0.944   4.278 -13.675  1.00  0.00     0.023 A 
ATOM     80  C   UNL     1      -0.749   3.857 -15.000  1.00  0.00     0.031 A 
ATOM     81  C   UNL     1      -1.451   3.341 -12.755  1.00  0.00     0.131 A 
ATOM     82  C   UNL     1      -1.094   2.549 -15.376  1.00  0.00     0.055 A 
ATOM     83  C   UNL     1      -1.739   2.026 -13.121  1.00  0.00     0.041 A 
ATOM     84  F   UNL     1      -1.655   3.689 -11.474  1.00  0.00    -0.206 F 
ATOM     85  C   UNL     1      -1.572   1.626 -14.442  1.00  0.00     0.022 A 
BRANCH  82  86
ATOM     86  S   UNL     1      -0.985   2.090 -17.128  1.00  0.00     0.124 S 
ATOM     87  O   UNL     1      -1.881   3.061 -17.745  1.00  0.00    -0.237 OA
ATOM     88  O   UNL     1       0.438   2.265 -17.399  1.00  0.00    -0.237 OA
ATOM     89  O   UNL     1      -1.455   0.706 -17.146  1.00  0.00    -0.744 OA
ENDBRANCH  82  86
ENDBRANCH  55  79
BRANCH  67  90
ATOM     90  C   UNL     1      -3.656  10.495 -15.355  1.00  0.00     0.023 A 
ATOM     91  C   UNL     1      -4.999  10.091 -15.243  1.00  0.00     0.031 A 
ATOM     92  C   UNL     1      -3.301  11.309 -16.446  1.00  0.00     0.131 A 
ATOM     93  C   UNL     1      -5.925  10.459 -16.232  1.00  0.00     0.055 A 
ATOM     94  C   UNL     1      -4.241  11.726 -17.390  1.00  0.00     0.041 A 
ATOM     95  F   UNL     1      -2.033  11.719 -16.609  1.00  0.00    -0.206 F 
ATOM     96  C   UNL     1      -5.559  11.291 -17.293  1.00  0.00     0.022 A 
BRANCH  93  97
ATOM     97  S   UNL     1      -7.597   9.759 -16.165  1.00  0.00     0.124 S 
ATOM     98  O   UNL     1      -7.327   8.326 -16.225  1.00  0.00    -0.237 OA
ATOM     99  O   UNL     1      -8.096  10.262 -14.889  1.00  0.00    -0.237 OA
ATOM    100  O   UNL     1      -8.250  10.317 -17.348  1.00  0.00    -0.744 OA
ENDBRANCH  93  97
ENDBRANCH  67  90
ENDBRANCH  41  42
ENDBRANCH  33  36
ENDBRANCH  31  32
ENDBRANCH  30  31
ENDBRANCH  29  30
ENDBRANCH  28  29
ENDBRANCH  27  28
ENDBRANCH   1  27
TORSDOF 23
