REMARK SMILES CCCCCCNC(=O)Oc1cccc(-c2ccc([C@@H](C)C(=O)NCCCCCCNC(=O)c3ccc(-c4c5nc(c(-c6cc(S(=O)(=O)[O-])ccc6F)c6ccc([nH]6)c(-c6cc(S(=O)(=O)[O-])ccc6F)c6nc(c(-c7cc(S(=O)(=O)[O-])ccc7F)c7ccc4[nH]7)C=C6)C=C5)cc3)cc2O)c1
REMARK SMILES IDX 22 1 23 2 24 3 20 5 21 6 19 7 16 8 17 9 98 10 18 11 97 12
REMARK SMILES IDX 15 13 11 14 12 15 100 16 13 17 14 18 10 19 8 20 7 21 9 23
REMARK SMILES IDX 6 24 5 25 4 26 3 27 2 28 1 29 99 30 25 32 26 33 27 34 28 35
REMARK SMILES IDX 29 36 30 37 31 38 32 39 33 41 34 42 35 43 96 44 36 45 95 46
REMARK SMILES IDX 37 47 38 48 39 49 89 50 40 51 94 52 88 53 90 54 41 55 93 56
REMARK SMILES IDX 87 57 86 58 42 60 74 61 54 62 73 63 55 64 58 65 72 66 91 67
REMARK SMILES IDX 56 68 57 69 71 71 92 72 59 73 43 74 44 75 52 76 45 77 51 78
REMARK SMILES IDX 53 79 50 80 46 81 47 82 48 83 49 84 75 85 76 86 84 87 77 88
REMARK SMILES IDX 83 89 85 90 82 91 78 92 79 93 80 94 81 95 60 96 61 97 69 98
REMARK SMILES IDX 62 99 68 100 70 101 67 102 63 103 64 104 65 105 66 106
REMARK H PARENT 24 4 7 22 99 31 31 40 90 59 58 70
REMARK Flexibility Score: inf
ROOT
ATOM      1  C   UNL     1      -3.762  11.691   8.233  1.00  0.00     0.227 C 
ATOM      2  O   UNL     1      -2.787  12.203   7.667  1.00  0.00    -0.274 OA
ATOM      3  N   UNL     1      -3.656  11.522   9.579  1.00  0.00    -0.356 N 
ATOM      4  H   UNL     1      -2.828  11.886   9.967  1.00  0.00     0.163 HD
ENDROOT
BRANCH   1   5
ATOM      5  C   UNL     1      -5.010  11.318   7.419  1.00  0.00     0.105 C 
ATOM      6  C   UNL     1      -6.273  12.071   7.838  1.00  0.00     0.023 C 
BRANCH   5   7
ATOM      7  C   UNL     1      -5.181   9.824   7.192  1.00  0.00    -0.032 A 
ATOM      8  C   UNL     1      -5.342   6.995   6.754  1.00  0.00     0.024 A 
ATOM      9  C   UNL     1      -5.888   7.603   7.896  1.00  0.00     0.013 A 
ATOM     10  C   UNL     1      -4.766   7.859   5.806  1.00  0.00     0.123 A 
ATOM     11  C   UNL     1      -5.851   8.988   8.087  1.00  0.00     0.005 A 
ATOM     12  C   UNL     1      -4.646   9.235   6.037  1.00  0.00     0.051 A 
BRANCH   8  13
ATOM     13  C   UNL     1      -5.390   5.521   6.617  1.00  0.00    -0.011 A 
ATOM     14  C   UNL     1      -4.374   3.402   5.990  1.00  0.00     0.133 A 
ATOM     15  C   UNL     1      -5.514   2.703   6.371  1.00  0.00     0.047 A 
ATOM     16  C   UNL     1      -4.295   4.790   6.122  1.00  0.00     0.056 A 
ATOM     17  C   UNL     1      -6.594   3.402   6.894  1.00  0.00     0.004 A 
ATOM     18  C   UNL     1      -6.537   4.795   7.000  1.00  0.00     0.009 A 
BRANCH  14  19
ATOM     19  O   UNL     1      -3.385   2.661   5.320  1.00  0.00    -0.410 OA
BRANCH  19  20
ATOM     20  C   UNL     1      -2.042   2.848   5.611  1.00  0.00     0.412 C 
ATOM     21  N   UNL     1      -1.220   2.173   4.750  1.00  0.00    -0.321 N 
ATOM     22  H   UNL     1      -0.254   2.228   4.926  1.00  0.00     0.167 HD
ATOM     23  O   UNL     1      -1.588   3.526   6.521  1.00  0.00    -0.224 OA
BRANCH  21  24
ATOM     24  C   UNL     1      -1.631   1.385   3.604  1.00  0.00     0.119 C 
BRANCH  24  25
ATOM     25  C   UNL     1      -1.045   1.928   2.301  1.00  0.00     0.021 C 
BRANCH  25  26
ATOM     26  C   UNL     1       0.484   1.858   2.208  1.00  0.00     0.002 C 
BRANCH  26  27
ATOM     27  C   UNL     1       1.087   0.456   2.356  1.00  0.00    -0.000 C 
BRANCH  27  28
ATOM     28  C   UNL     1       0.598  -0.578   1.340  1.00  0.00    -0.003 C 
ATOM     29  C   UNL     1       0.958  -0.228  -0.095  1.00  0.00     0.004 C 
ENDBRANCH  27  28
ENDBRANCH  26  27
ENDBRANCH  25  26
ENDBRANCH  24  25
ENDBRANCH  21  24
ENDBRANCH  19  20
ENDBRANCH  14  19
ENDBRANCH   8  13
BRANCH  10  30
ATOM     30  O   UNL     1      -4.321   7.431   4.582  1.00  0.00    -0.507 OA
ATOM     31  H   UNL     1      -4.370   6.523   4.357  1.00  0.00     0.293 HD
ENDBRANCH  10  30
ENDBRANCH   5   7
ENDBRANCH   1   5
BRANCH   3  32
ATOM     32  C   UNL     1      -4.540  10.903  10.543  1.00  0.00     0.116 C 
BRANCH  32  33
ATOM     33  C   UNL     1      -4.069   9.497  10.922  1.00  0.00     0.021 C 
BRANCH  33  34
ATOM     34  C   UNL     1      -3.099   9.471  12.107  1.00  0.00     0.002 C 
BRANCH  34  35
ATOM     35  C   UNL     1      -3.681   9.983  13.431  1.00  0.00     0.002 C 
BRANCH  35  36
ATOM     36  C   UNL     1      -4.966   9.289  13.895  1.00  0.00     0.021 C 
BRANCH  36  37
ATOM     37  C   UNL     1      -4.827   7.787  14.131  1.00  0.00     0.116 C 
BRANCH  37  38
ATOM     38  N   UNL     1      -3.865   7.498  15.183  1.00  0.00    -0.352 N 
ATOM     39  C   UNL     1      -4.052   6.876  16.392  1.00  0.00     0.251 C 
ATOM     40  H   UNL     1      -2.944   7.793  15.002  1.00  0.00     0.163 HD
ATOM     41  O   UNL     1      -3.188   6.963  17.260  1.00  0.00    -0.269 OA
BRANCH  39  42
ATOM     42  C   UNL     1      -5.294   6.114  16.649  1.00  0.00     0.039 A 
ATOM     43  C   UNL     1      -5.919   6.233  17.893  1.00  0.00     0.014 A 
ATOM     44  C   UNL     1      -5.823   5.260  15.678  1.00  0.00     0.014 A 
ATOM     45  C   UNL     1      -7.104   5.537  18.142  1.00  0.00     0.010 A 
ATOM     46  C   UNL     1      -7.041   4.622  15.902  1.00  0.00     0.010 A 
ATOM     47  C   UNL     1      -7.692   4.749  17.139  1.00  0.00    -0.014 A 
BRANCH  47  48
ATOM     48  C   UNL     1      -8.979   4.041  17.368  1.00  0.00     0.031 A 
ATOM     49  C   UNL     1      -9.027   2.537  17.343  1.00  0.00     0.074 A 
ATOM     50  C   UNL     1     -10.110   4.754  17.539  1.00  0.00     0.049 A 
ATOM     51  N   UNL     1     -10.060   1.740  17.440  1.00  0.00    -0.248 NA
ATOM     52  C   UNL     1      -7.746   1.841  17.151  1.00  0.00     0.031 C 
ATOM     53  C   UNL     1     -10.193   6.216  17.547  1.00  0.00     0.029 A 
ATOM     54  N   UNL     1     -11.407   4.348  17.728  1.00  0.00    -0.354 N 
ATOM     55  C   UNL     1      -9.556   0.449  17.310  1.00  0.00     0.074 A 
ATOM     56  C   UNL     1      -8.136   0.578  17.064  1.00  0.00     0.031 C 
ATOM     57  C   UNL     1     -11.468   6.583  17.754  1.00  0.00     0.029 A 
ATOM     58  C   UNL     1     -12.301   5.388  17.845  1.00  0.00     0.049 A 
ATOM     59  H   UNL     1     -11.674   3.402  17.776  1.00  0.00     0.167 HD
ATOM     60  C   UNL     1     -10.215  -0.733  17.408  1.00  0.00     0.034 A 
ATOM     61  C   UNL     1     -13.640   5.381  17.994  1.00  0.00     0.034 A 
ATOM     62  C   UNL     1     -11.631  -0.841  17.666  1.00  0.00     0.049 A 
ATOM     63  C   UNL     1     -14.355   4.055  18.075  1.00  0.00     0.074 A 
ATOM     64  C   UNL     1     -12.391  -1.984  17.839  1.00  0.00     0.029 A 
ATOM     65  N   UNL     1     -12.504   0.234  17.780  1.00  0.00    -0.354 N 
ATOM     66  N   UNL     1     -13.857   2.842  17.998  1.00  0.00    -0.248 NA
ATOM     67  C   UNL     1     -15.809   4.098  18.275  1.00  0.00     0.031 C 
ATOM     68  C   UNL     1     -13.730  -1.605  17.985  1.00  0.00     0.029 A 
ATOM     69  C   UNL     1     -13.798  -0.221  17.986  1.00  0.00     0.049 A 
ATOM     70  H   UNL     1     -12.243   1.182  17.722  1.00  0.00     0.167 HD
ATOM     71  C   UNL     1     -14.935   1.978  18.173  1.00  0.00     0.074 A 
ATOM     72  C   UNL     1     -16.104   2.810  18.374  1.00  0.00     0.031 C 
ATOM     73  C   UNL     1     -14.957   0.621  18.174  1.00  0.00     0.034 A 
BRANCH  60  74
ATOM     74  C   UNL     1      -9.412  -1.997  17.208  1.00  0.00     0.023 A 
ATOM     75  C   UNL     1      -8.352  -2.344  18.066  1.00  0.00     0.031 A 
ATOM     76  C   UNL     1      -9.691  -2.856  16.131  1.00  0.00     0.131 A 
ATOM     77  C   UNL     1      -7.565  -3.472  17.788  1.00  0.00     0.055 A 
ATOM     78  C   UNL     1      -8.957  -4.024  15.909  1.00  0.00     0.041 A 
ATOM     79  F   UNL     1     -10.676  -2.569  15.265  1.00  0.00    -0.206 F 
ATOM     80  C   UNL     1      -7.876  -4.329  16.730  1.00  0.00     0.022 A 
BRANCH  77  81
ATOM     81  S   UNL     1      -6.040  -3.718  18.738  1.00  0.00     0.124 S 
ATOM     82  O   UNL     1      -5.314  -2.481  18.457  1.00  0.00    -0.237 OA
ATOM     83  O   UNL     1      -6.538  -3.872  20.100  1.00  0.00    -0.237 OA
ATOM     84  O   UNL     1      -5.457  -4.921  18.146  1.00  0.00    -0.744 OA
ENDBRANCH  77  81
ENDBRANCH  60  74
BRANCH  61  85
ATOM     85  C   UNL     1     -14.400   6.662  18.066  1.00  0.00     0.023 A 
ATOM     86  C   UNL     1     -15.102   7.023  19.227  1.00  0.00     0.031 A 
ATOM     87  C   UNL     1     -14.470   7.526  16.959  1.00  0.00     0.131 A 
ATOM     88  C   UNL     1     -15.883   8.190  19.239  1.00  0.00     0.055 A 
ATOM     89  C   UNL     1     -15.202   8.714  16.995  1.00  0.00     0.041 A 
ATOM     90  F   UNL     1     -13.814   7.232  15.825  1.00  0.00    -0.206 F 
ATOM     91  C   UNL     1     -15.926   9.045  18.136  1.00  0.00     0.022 A 
BRANCH  88  92
ATOM     92  S   UNL     1     -16.915   8.528  20.691  1.00  0.00     0.124 S 
ATOM     93  O   UNL     1     -17.744   7.330  20.752  1.00  0.00    -0.237 OA
ATOM     94  O   UNL     1     -15.917   8.674  21.745  1.00  0.00    -0.237 OA
ATOM     95  O   UNL     1     -17.619   9.757  20.328  1.00  0.00    -0.744 OA
ENDBRANCH  88  92
ENDBRANCH  61  85
BRANCH  73  96
ATOM     96  C   UNL     1     -16.285  -0.044  18.447  1.00  0.00     0.023 A 
ATOM     97  C   UNL     1     -17.363   0.056  17.550  1.00  0.00     0.031 A 
ATOM     98  C   UNL     1     -16.475  -0.781  19.630  1.00  0.00     0.131 A 
ATOM     99  C   UNL     1     -18.599  -0.522  17.877  1.00  0.00     0.055 A 
ATOM    100  C   UNL     1     -17.688  -1.407  19.920  1.00  0.00     0.041 A 
ATOM    101  F   UNL     1     -15.481  -0.907  20.523  1.00  0.00    -0.206 F 
ATOM    102  C   UNL     1     -18.763  -1.268  19.047  1.00  0.00     0.022 A 
BRANCH  99 103
ATOM    103  S   UNL     1     -20.021  -0.206  16.797  1.00  0.00     0.124 S 
ATOM    104  O   UNL     1     -20.104   1.251  16.822  1.00  0.00    -0.237 OA
ATOM    105  O   UNL     1     -19.592  -0.798  15.534  1.00  0.00    -0.237 OA
ATOM    106  O   UNL     1     -21.121  -0.900  17.464  1.00  0.00    -0.744 OA
ENDBRANCH  99 103
ENDBRANCH  73  96
ENDBRANCH  47  48
ENDBRANCH  39  42
ENDBRANCH  37  38
ENDBRANCH  36  37
ENDBRANCH  35  36
ENDBRANCH  34  35
ENDBRANCH  33  34
ENDBRANCH  32  33
ENDBRANCH   3  32
TORSDOF 26
