REMARK SMILES CC1=C(C)C(=O)N(C[C@H](CC(C)C)C(=O)NCCCCCCNC(=O)c2ccc(-c3c4nc(c(-c5cc(S(=O)(=O)[O-])ccc5F)c5ccc([nH]5)c(-c5cc(S(=O)(=O)[O-])ccc5F)c5nc(c(-c6cc(S(=O)(=O)[O-])ccc6F)c6ccc3[nH]6)C=C5)C=C4)cc2)C1=O
REMARK SMILES IDX 20 1 19 2 18 3 17 4 16 5 14 6 15 7 9 9 8 10 7 11 1 12 2 13
REMARK SMILES IDX 3 14 89 15 4 16 5 17 90 18 6 19 10 20 11 21 12 22 13 23
REMARK SMILES IDX 21 24 22 25 23 26 24 27 25 29 26 30 27 31 88 32 28 33 87 34
REMARK SMILES IDX 29 35 30 36 31 37 81 38 32 39 86 40 80 41 82 42 33 43 85 44
REMARK SMILES IDX 79 45 78 46 34 48 66 49 46 50 65 51 47 52 50 53 64 54 83 55
REMARK SMILES IDX 48 56 49 57 63 59 84 60 51 61 35 62 36 63 44 64 37 65 43 66
REMARK SMILES IDX 45 67 42 68 38 69 39 70 40 71 41 72 67 73 68 74 76 75 69 76
REMARK SMILES IDX 75 77 77 78 74 79 70 80 71 81 72 82 73 83 52 84 53 85 61 86
REMARK SMILES IDX 54 87 60 88 62 89 59 90 55 91 56 92 57 93 58 94
REMARK H PARENT 16 8 23 28 82 47 50 58
REMARK Flexibility Score: inf
ROOT
ATOM      1  C   UNL     1       3.468  -9.606   2.869  1.00  0.00     0.002 C 
ENDROOT
BRANCH   1   2
ATOM      2  C   UNL     1       2.195  -9.835   2.052  1.00  0.00     0.002 C 
BRANCH   2   3
ATOM      3  C   UNL     1       1.275  -8.629   1.850  1.00  0.00     0.021 C 
BRANCH   3   4
ATOM      4  C   UNL     1       1.931  -7.352   1.339  1.00  0.00     0.116 C 
BRANCH   4   5
ATOM      5  N   UNL     1       2.501  -7.481   0.016  1.00  0.00    -0.356 N 
ATOM      6  C   UNL     1       2.898  -6.524  -0.862  1.00  0.00     0.224 C 
ATOM      7  O   UNL     1       3.444  -6.910  -1.902  1.00  0.00    -0.275 OA
ATOM      8  H   UNL     1       2.618  -8.407  -0.297  1.00  0.00     0.163 HD
BRANCH   6   9
ATOM      9  C   UNL     1       2.740  -5.022  -0.592  1.00  0.00     0.099 C 
BRANCH   9  10
ATOM     10  C   UNL     1       3.803  -4.470   0.383  1.00  0.00     0.142 C 
BRANCH  10  11
ATOM     11  N   UNL     1       5.087  -5.148   0.302  1.00  0.00    -0.274 N 
ATOM     12  C   UNL     1       7.236  -7.984   1.166  1.00  0.00     0.051 C 
ATOM     13  C   UNL     1       6.709  -6.710   0.630  1.00  0.00     0.023 C 
ATOM     14  C   UNL     1       7.153  -5.883  -0.323  1.00  0.00     0.023 C 
ATOM     15  C   UNL     1       5.458  -6.146   1.141  1.00  0.00     0.256 C 
ATOM     16  C   UNL     1       8.421  -5.920  -1.083  1.00  0.00     0.051 C 
ATOM     17  C   UNL     1       6.108  -4.860  -0.543  1.00  0.00     0.256 C 
ATOM     18  O   UNL     1       4.920  -6.513   2.168  1.00  0.00    -0.269 OA
ATOM     19  O   UNL     1       6.196  -3.940  -1.339  1.00  0.00    -0.269 OA
ENDBRANCH  10  11
ENDBRANCH   9  10
BRANCH   9  20
ATOM     20  C   UNL     1       1.254  -4.617  -0.367  1.00  0.00     0.018 C 
BRANCH  20  21
ATOM     21  C   UNL     1       0.856  -3.994   0.992  1.00  0.00    -0.017 C 
ATOM     22  C   UNL     1       1.035  -2.475   0.982  1.00  0.00     0.007 C 
ATOM     23  C   UNL     1      -0.602  -4.324   1.342  1.00  0.00     0.007 C 
ENDBRANCH  20  21
ENDBRANCH   9  20
ENDBRANCH   6   9
ENDBRANCH   4   5
ENDBRANCH   3   4
ENDBRANCH   2   3
ENDBRANCH   1   2
BRANCH   1  24
ATOM     24  C   UNL     1       3.302  -8.943   4.239  1.00  0.00     0.021 C 
BRANCH  24  25
ATOM     25  C   UNL     1       2.273  -9.570   5.174  1.00  0.00     0.116 C 
BRANCH  25  26
ATOM     26  N   UNL     1       2.511 -10.979   5.420  1.00  0.00    -0.352 N 
ATOM     27  C   UNL     1       2.399 -11.703   6.580  1.00  0.00     0.251 C 
ATOM     28  H   UNL     1       2.797 -11.497   4.632  1.00  0.00     0.163 HD
ATOM     29  O   UNL     1       2.764 -12.876   6.585  1.00  0.00    -0.269 OA
BRANCH  27  30
ATOM     30  C   UNL     1       1.880 -11.084   7.825  1.00  0.00     0.039 A 
ATOM     31  C   UNL     1       2.487 -11.432   9.035  1.00  0.00     0.014 A 
ATOM     32  C   UNL     1       0.788 -10.210   7.826  1.00  0.00     0.014 A 
ATOM     33  C   UNL     1       2.030 -10.879  10.234  1.00  0.00     0.010 A 
ATOM     34  C   UNL     1       0.374  -9.607   9.016  1.00  0.00     0.010 A 
ATOM     35  C   UNL     1       0.983  -9.944  10.234  1.00  0.00    -0.014 A 
BRANCH  35  36
ATOM     36  C   UNL     1       0.519  -9.333  11.508  1.00  0.00     0.031 A 
ATOM     37  C   UNL     1      -0.856  -9.632  12.041  1.00  0.00     0.074 A 
ATOM     38  C   UNL     1       1.334  -8.492  12.175  1.00  0.00     0.049 A 
ATOM     39  N   UNL     1      -1.429  -9.209  13.140  1.00  0.00    -0.248 NA
ATOM     40  C   UNL     1      -1.709 -10.499  11.216  1.00  0.00     0.031 C 
ATOM     41  C   UNL     1       2.669  -8.084  11.731  1.00  0.00     0.029 A 
ATOM     42  N   UNL     1       1.166  -7.833  13.366  1.00  0.00    -0.354 N 
ATOM     43  C   UNL     1      -2.710  -9.753  13.136  1.00  0.00     0.074 A 
ATOM     44  C   UNL     1      -2.848 -10.482  11.893  1.00  0.00     0.031 C 
ATOM     45  C   UNL     1       3.209  -7.271  12.652  1.00  0.00     0.029 A 
ATOM     46  C   UNL     1       2.252  -7.075  13.737  1.00  0.00     0.049 A 
ATOM     47  H   UNL     1       0.344  -7.896  13.904  1.00  0.00     0.167 HD
ATOM     48  C   UNL     1      -3.672  -9.671  14.090  1.00  0.00     0.034 A 
ATOM     49  C   UNL     1       2.456  -6.313  14.829  1.00  0.00     0.034 A 
ATOM     50  C   UNL     1      -3.514  -8.946  15.329  1.00  0.00     0.049 A 
ATOM     51  C   UNL     1       1.381  -6.249  15.882  1.00  0.00     0.074 A 
ATOM     52  C   UNL     1      -4.402  -8.836  16.386  1.00  0.00     0.029 A 
ATOM     53  N   UNL     1      -2.395  -8.200  15.677  1.00  0.00    -0.354 N 
ATOM     54  N   UNL     1       0.197  -6.818  15.890  1.00  0.00    -0.248 NA
ATOM     55  C   UNL     1       1.679  -5.458  17.082  1.00  0.00     0.031 C 
ATOM     56  C   UNL     1      -3.845  -7.979  17.343  1.00  0.00     0.029 A 
ATOM     57  C   UNL     1      -2.579  -7.609  16.919  1.00  0.00     0.049 A 
ATOM     58  H   UNL     1      -1.587  -8.105  15.123  1.00  0.00     0.167 HD
ATOM     59  C   UNL     1      -0.380  -6.472  17.109  1.00  0.00     0.074 A 
ATOM     60  C   UNL     1       0.596  -5.667  17.815  1.00  0.00     0.031 C 
ATOM     61  C   UNL     1      -1.605  -6.792  17.602  1.00  0.00     0.034 A 
BRANCH  48  62
ATOM     62  C   UNL     1      -4.985 -10.367  13.811  1.00  0.00     0.023 A 
ATOM     63  C   UNL     1      -5.061 -11.761  13.644  1.00  0.00     0.031 A 
ATOM     64  C   UNL     1      -6.172  -9.625  13.675  1.00  0.00     0.131 A 
ATOM     65  C   UNL     1      -6.275 -12.359  13.274  1.00  0.00     0.055 A 
ATOM     66  C   UNL     1      -7.394 -10.236  13.387  1.00  0.00     0.041 A 
ATOM     67  F   UNL     1      -6.161  -8.289  13.803  1.00  0.00    -0.206 F 
ATOM     68  C   UNL     1      -7.448 -11.609  13.168  1.00  0.00     0.022 A 
BRANCH  65  69
ATOM     69  S   UNL     1      -6.268 -14.107  12.787  1.00  0.00     0.124 S 
ATOM     70  O   UNL     1      -5.334 -14.096  11.664  1.00  0.00    -0.237 OA
ATOM     71  O   UNL     1      -5.804 -14.770  14.000  1.00  0.00    -0.237 OA
ATOM     72  O   UNL     1      -7.660 -14.368  12.427  1.00  0.00    -0.744 OA
ENDBRANCH  65  69
ENDBRANCH  48  62
BRANCH  49  73
ATOM     73  C   UNL     1       3.731  -5.559  14.994  1.00  0.00     0.023 A 
ATOM     74  C   UNL     1       4.635  -5.879  16.019  1.00  0.00     0.031 A 
ATOM     75  C   UNL     1       4.046  -4.481  14.148  1.00  0.00     0.131 A 
ATOM     76  C   UNL     1       5.789  -5.102  16.202  1.00  0.00     0.055 A 
ATOM     77  C   UNL     1       5.219  -3.741  14.304  1.00  0.00     0.041 A 
ATOM     78  F   UNL     1       3.219  -4.139  13.147  1.00  0.00    -0.206 F 
ATOM     79  C   UNL     1       6.093  -4.042  15.345  1.00  0.00     0.022 A 
BRANCH  76  80
ATOM     80  S   UNL     1       6.854  -5.450  17.628  1.00  0.00     0.124 S 
ATOM     81  O   UNL     1       5.925  -5.291  18.741  1.00  0.00    -0.237 OA
ATOM     82  O   UNL     1       7.295  -6.813  17.350  1.00  0.00    -0.237 OA
ATOM     83  O   UNL     1       7.895  -4.429  17.533  1.00  0.00    -0.744 OA
ENDBRANCH  76  80
ENDBRANCH  49  73
BRANCH  61  84
ATOM     84  C   UNL     1      -1.929  -6.288  18.988  1.00  0.00     0.023 A 
ATOM     85  C   UNL     1      -2.064  -4.915  19.261  1.00  0.00     0.031 A 
ATOM     86  C   UNL     1      -2.064  -7.191  20.056  1.00  0.00     0.131 A 
ATOM     87  C   UNL     1      -2.254  -4.481  20.581  1.00  0.00     0.055 A 
ATOM     88  C   UNL     1      -2.316  -6.756  21.358  1.00  0.00     0.041 A 
ATOM     89  F   UNL     1      -1.944  -8.513  19.854  1.00  0.00    -0.206 F 
ATOM     90  C   UNL     1      -2.395  -5.393  21.629  1.00  0.00     0.022 A 
BRANCH  87  91
ATOM     91  S   UNL     1      -2.198  -2.700  20.927  1.00  0.00     0.124 S 
ATOM     92  O   UNL     1      -0.894  -2.327  20.390  1.00  0.00    -0.237 OA
ATOM     93  O   UNL     1      -3.356  -2.204  20.190  1.00  0.00    -0.237 OA
ATOM     94  O   UNL     1      -2.313  -2.630  22.382  1.00  0.00    -0.744 OA
ENDBRANCH  87  91
ENDBRANCH  61  84
ENDBRANCH  35  36
ENDBRANCH  27  30
ENDBRANCH  25  26
ENDBRANCH  24  25
ENDBRANCH   1  24
TORSDOF 20
