REMARK SMILES CCc1cc(OC(F)(F)F)cc2c1O[C@@H](C(F)(F)F)C(C(=O)NCCCCCCNC(=O)c1ccc(-c3c4nc(c(-c5cc(S(=O)(=O)[O-])ccc5F)c5ccc([nH]5)c(-c5cc(S(=O)(=O)[O-])ccc5F)c5nc(c(-c6cc(S(=O)(=O)[O-])ccc6F)c6ccc3[nH]6)C=C5)C=C4)cc1)=C2
REMARK SMILES IDX 27 1 26 2 25 3 24 4 23 5 21 6 22 7 20 9 3 10 4 11 13 12 5 13
REMARK SMILES IDX 12 14 14 15 11 16 96 17 15 18 2 19 1 20 6 21 7 22 8 23 9 24
REMARK SMILES IDX 10 25 16 26 17 27 18 28 19 29 28 30 29 31 30 32 31 33 32 35
REMARK SMILES IDX 33 36 34 37 95 38 35 39 94 40 36 41 37 42 38 43 88 44 39 45
REMARK SMILES IDX 93 46 87 47 89 48 40 49 92 50 86 51 85 52 41 54 73 55 53 56
REMARK SMILES IDX 72 57 54 58 57 59 71 60 90 61 55 62 56 63 70 65 91 66 58 67
REMARK SMILES IDX 42 68 43 69 51 70 44 71 50 72 52 73 49 74 45 75 46 76 47 77
REMARK SMILES IDX 48 78 74 79 75 80 83 81 76 82 82 83 84 84 81 85 77 86 78 87
REMARK SMILES IDX 79 88 80 89 59 90 60 91 68 92 61 93 67 94 69 95 66 96 62 97
REMARK SMILES IDX 63 98 64 99 65 100
REMARK H PARENT 23 8 30 34 89 53 57 64
REMARK Flexibility Score: inf
ROOT
ATOM      1  C   UNL     1      -0.695   9.311   5.425  1.00  0.00     0.002 C 
ENDROOT
BRANCH   1   2
ATOM      2  C   UNL     1       0.381   8.836   4.441  1.00  0.00     0.002 C 
BRANCH   2   3
ATOM      3  C   UNL     1       0.609   7.318   4.431  1.00  0.00     0.021 C 
BRANCH   3   4
ATOM      4  C   UNL     1      -0.603   6.531   3.920  1.00  0.00     0.116 C 
BRANCH   4   5
ATOM      5  N   UNL     1      -0.657   6.621   2.470  1.00  0.00    -0.352 N 
ATOM      6  C   UNL     1      -0.176   5.821   1.486  1.00  0.00     0.251 C 
ATOM      7  O   UNL     1      -0.162   6.256   0.337  1.00  0.00    -0.270 OA
ATOM      8  H   UNL     1      -1.134   7.416   2.139  1.00  0.00     0.163 HD
BRANCH   6   9
ATOM      9  C   UNL     1       0.238   4.416   1.730  1.00  0.00     0.067 C 
ATOM     10  C   UNL     1       0.966   0.314   2.264  1.00  0.00    -0.002 A 
ATOM     11  C   UNL     1       1.677  -0.112   3.401  1.00  0.00     0.054 A 
ATOM     12  C   UNL     1       0.724   1.684   2.090  1.00  0.00     0.131 A 
ATOM     13  C   UNL     1       2.143   0.810   4.341  1.00  0.00     0.130 A 
ATOM     14  C   UNL     1       1.225   2.618   2.998  1.00  0.00     0.021 A 
ATOM     15  O   UNL     1      -0.092   2.050   1.059  1.00  0.00    -0.475 OA
ATOM     16  C   UNL     1       1.930   2.175   4.121  1.00  0.00     0.058 A 
ATOM     17  C   UNL     1       0.927   4.033   2.815  1.00  0.00     0.025 C 
ATOM     18  C   UNL     1      -0.021   3.428   0.599  1.00  0.00     0.314 C 
BRANCH  10  19
ATOM     19  C   UNL     1       0.465  -0.708   1.267  1.00  0.00     0.036 C 
ATOM     20  C   UNL     1       1.115  -0.566  -0.105  1.00  0.00     0.009 C 
ENDBRANCH  10  19
BRANCH  13  21
ATOM     21  O   UNL     1       2.799   0.526   5.504  1.00  0.00    -0.406 OA
BRANCH  21  22
ATOM     22  C   UNL     1       2.986  -0.837   5.848  1.00  0.00     0.573 C 
ATOM     23  F   UNL     1       1.806  -1.489   5.930  1.00  0.00    -0.132 F 
ATOM     24  F   UNL     1       3.777  -1.455   4.944  1.00  0.00    -0.132 F 
ATOM     25  F   UNL     1       3.590  -0.905   7.053  1.00  0.00    -0.132 F 
ENDBRANCH  21  22
ENDBRANCH  13  21
BRANCH  18  26
ATOM     26  C   UNL     1      -1.270   3.665  -0.281  1.00  0.00     0.429 C 
ATOM     27  F   UNL     1      -1.052   4.555  -1.275  1.00  0.00    -0.167 F 
ATOM     28  F   UNL     1      -1.641   2.514  -0.909  1.00  0.00    -0.167 F 
ATOM     29  F   UNL     1      -2.341   4.077   0.434  1.00  0.00    -0.167 F 
ENDBRANCH  18  26
ENDBRANCH   6   9
ENDBRANCH   4   5
ENDBRANCH   3   4
ENDBRANCH   2   3
ENDBRANCH   1   2
BRANCH   1  30
ATOM     30  C   UNL     1      -0.466   8.897   6.882  1.00  0.00     0.021 C 
BRANCH  30  31
ATOM     31  C   UNL     1       0.833   9.419   7.492  1.00  0.00     0.116 C 
BRANCH  31  32
ATOM     32  N   UNL     1       0.844  10.870   7.558  1.00  0.00    -0.352 N 
ATOM     33  C   UNL     1       1.048  11.694   8.636  1.00  0.00     0.251 C 
ATOM     34  H   UNL     1       0.681  11.330   6.703  1.00  0.00     0.163 HD
ATOM     35  O   UNL     1       0.762  12.883   8.544  1.00  0.00    -0.269 OA
BRANCH  33  36
ATOM     36  C   UNL     1       1.597  11.152   9.900  1.00  0.00     0.039 A 
ATOM     37  C   UNL     1       1.079  11.620  11.110  1.00  0.00     0.014 A 
ATOM     38  C   UNL     1       2.651  10.232   9.899  1.00  0.00     0.014 A 
ATOM     39  C   UNL     1       1.593  11.140  12.317  1.00  0.00     0.010 A 
ATOM     40  C   UNL     1       3.118   9.707  11.103  1.00  0.00     0.010 A 
ATOM     41  C   UNL     1       2.604  10.166  12.324  1.00  0.00    -0.014 A 
BRANCH  41  42
ATOM     42  C   UNL     1       3.140   9.642  13.607  1.00  0.00     0.031 A 
ATOM     43  C   UNL     1       4.564   9.919  14.006  1.00  0.00     0.074 A 
ATOM     44  C   UNL     1       2.348   8.891  14.398  1.00  0.00     0.049 A 
ATOM     45  N   UNL     1       5.212   9.546  15.080  1.00  0.00    -0.248 NA
ATOM     46  C   UNL     1       5.376  10.695  13.056  1.00  0.00     0.031 C 
ATOM     47  C   UNL     1       0.966   8.513  14.092  1.00  0.00     0.029 A 
ATOM     48  N   UNL     1       2.588   8.311  15.617  1.00  0.00    -0.354 N 
ATOM     49  C   UNL     1       6.506  10.034  14.934  1.00  0.00     0.074 A 
ATOM     50  C   UNL     1       6.566  10.674  13.637  1.00  0.00     0.031 C 
ATOM     51  C   UNL     1       0.473   7.791  15.110  1.00  0.00     0.029 A 
ATOM     52  C   UNL     1       1.509   7.625  16.124  1.00  0.00     0.049 A 
ATOM     53  H   UNL     1       3.451   8.380  16.086  1.00  0.00     0.167 HD
ATOM     54  C   UNL     1       7.541   9.975  15.810  1.00  0.00     0.034 A 
ATOM     55  C   UNL     1       1.370   6.941  17.277  1.00  0.00     0.034 A 
ATOM     56  C   UNL     1       7.459   9.342  17.105  1.00  0.00     0.049 A 
ATOM     57  C   UNL     1       2.530   6.895  18.238  1.00  0.00     0.074 A 
ATOM     58  C   UNL     1       8.425   9.269  18.094  1.00  0.00     0.029 A 
ATOM     59  N   UNL     1       6.346   8.665  17.591  1.00  0.00    -0.354 N 
ATOM     60  N   UNL     1       3.730   7.414  18.111  1.00  0.00    -0.248 NA
ATOM     61  C   UNL     1       2.309   6.188  19.505  1.00  0.00     0.031 C 
ATOM     62  C   UNL     1       7.920   8.498  19.147  1.00  0.00     0.029 A 
ATOM     63  C   UNL     1       6.612   8.150  18.851  1.00  0.00     0.049 A 
ATOM     64  H   UNL     1       5.493   8.566  17.110  1.00  0.00     0.167 HD
ATOM     65  C   UNL     1       4.397   7.117  19.296  1.00  0.00     0.074 A 
ATOM     66  C   UNL     1       3.458   6.396  20.130  1.00  0.00     0.031 C 
ATOM     67  C   UNL     1       5.670   7.415  19.663  1.00  0.00     0.034 A 
BRANCH  54  68
ATOM     68  C   UNL     1       8.852  10.592  15.379  1.00  0.00     0.023 A 
ATOM     69  C   UNL     1       8.969  11.967  15.108  1.00  0.00     0.031 A 
ATOM     70  C   UNL     1       9.995   9.791  15.208  1.00  0.00     0.131 A 
ATOM     71  C   UNL     1      10.173  12.484  14.606  1.00  0.00     0.055 A 
ATOM     72  C   UNL     1      11.215  10.327  14.788  1.00  0.00     0.041 A 
ATOM     73  F   UNL     1       9.944   8.468  15.432  1.00  0.00    -0.206 F 
ATOM     74  C   UNL     1      11.305  11.678  14.468  1.00  0.00     0.022 A 
BRANCH  71  75
ATOM     75  S   UNL     1      10.196  14.194  13.999  1.00  0.00     0.124 S 
ATOM     76  O   UNL     1       9.175  14.148  12.954  1.00  0.00    -0.237 OA
ATOM     77  O   UNL     1       9.855  14.957  15.193  1.00  0.00    -0.237 OA
ATOM     78  O   UNL     1      11.564  14.367  13.515  1.00  0.00    -0.744 OA
ENDBRANCH  71  75
ENDBRANCH  54  68
BRANCH  55  79
ATOM     79  C   UNL     1       0.088   6.249  17.593  1.00  0.00     0.023 A 
ATOM     80  C   UNL     1      -0.708   6.658  18.674  1.00  0.00     0.031 A 
ATOM     81  C   UNL     1      -0.341   5.143  16.839  1.00  0.00     0.131 A 
ATOM     82  C   UNL     1      -1.868   5.938  19.000  1.00  0.00     0.055 A 
ATOM     83  C   UNL     1      -1.522   4.461  17.136  1.00  0.00     0.041 A 
ATOM     84  F   UNL     1       0.380   4.716  15.789  1.00  0.00    -0.206 F 
ATOM     85  C   UNL     1      -2.286   4.850  18.232  1.00  0.00     0.022 A 
BRANCH  82  86
ATOM     86  S   UNL     1      -2.784   6.399  20.497  1.00  0.00     0.124 S 
ATOM     87  O   UNL     1      -1.761   6.261  21.526  1.00  0.00    -0.237 OA
ATOM     88  O   UNL     1      -3.203   7.762  20.186  1.00  0.00    -0.237 OA
ATOM     89  O   UNL     1      -3.863   5.415  20.551  1.00  0.00    -0.744 OA
ENDBRANCH  82  86
ENDBRANCH  55  79
BRANCH  67  90
ATOM     90  C   UNL     1       6.096   6.983  21.046  1.00  0.00     0.023 A 
ATOM     91  C   UNL     1       6.204   5.625  21.394  1.00  0.00     0.031 A 
ATOM     92  C   UNL     1       6.363   7.944  22.038  1.00  0.00     0.131 A 
ATOM     93  C   UNL     1       6.499   5.265  22.718  1.00  0.00     0.055 A 
ATOM     94  C   UNL     1       6.720   7.579  23.336  1.00  0.00     0.041 A 
ATOM     95  F   UNL     1       6.274   9.255  21.761  1.00  0.00    -0.206 F 
ATOM     96  C   UNL     1       6.773   6.233  23.687  1.00  0.00     0.022 A 
BRANCH  93  97
ATOM     97  S   UNL     1       6.409   3.513  23.182  1.00  0.00     0.124 S 
ATOM     98  O   UNL     1       5.042   3.169  22.803  1.00  0.00    -0.237 OA
ATOM     99  O   UNL     1       7.464   2.921  22.367  1.00  0.00    -0.237 OA
ATOM    100  O   UNL     1       6.669   3.526  24.620  1.00  0.00    -0.744 OA
ENDBRANCH  93  97
ENDBRANCH  67  90
ENDBRANCH  41  42
ENDBRANCH  33  36
ENDBRANCH  31  32
ENDBRANCH  30  31
ENDBRANCH   1  30
TORSDOF 20
