REMARK SMILES COc1ccc([C@@H](C(=O)NCCCCCCNC(=O)c2ccc(-c3c4nc(c(-c5cc(S(=O)(=O)[O-])ccc5F)c5ccc([nH]5)c(-c5cc(S(=O)(=O)[O-])ccc5F)c5nc(c(-c6cc(S(=O)(=O)[O-])ccc6F)c6ccc3[nH]6)C=C5)C=C4)cc2)[NH+]2CCC(C(N)=O)CC2)c(C)c1
REMARK SMILES IDX 14 1 13 2 12 3 11 4 10 5 8 6 9 7 7 9 6 10 3 11 4 12 94 13
REMARK SMILES IDX 5 14 92 15 93 16 2 17 1 18 83 19 84 20 91 21 85 23 90 24
REMARK SMILES IDX 86 25 87 26 88 27 89 28 15 31 16 32 17 33 18 34 19 36 20 37
REMARK SMILES IDX 21 38 82 39 22 40 81 41 23 42 24 43 25 44 75 45 26 46 80 47
REMARK SMILES IDX 74 48 76 49 27 50 79 51 73 52 72 53 28 55 60 56 40 57 59 58
REMARK SMILES IDX 41 59 44 60 58 61 77 62 42 63 43 64 57 66 78 67 45 68 29 69
REMARK SMILES IDX 30 70 38 71 31 72 37 73 39 74 36 75 32 76 33 77 34 78 35 79
REMARK SMILES IDX 61 80 62 81 70 82 63 83 69 84 71 85 68 86 64 87 65 88 66 89
REMARK SMILES IDX 67 90 46 91 47 92 55 93 48 94 54 95 56 96 53 97 49 98 50 99
REMARK SMILES IDX 51 100 52 101
REMARK H PARENT 10 8 83 22 88 29 88 30 17 35 76 54 44 65
REMARK Flexibility Score: inf
ROOT
ATOM      1  C   UNL     1       3.673   3.816  -7.964  1.00  0.00     0.002 C 
ENDROOT
BRANCH   1   2
ATOM      2  C   UNL     1       2.516   3.265  -7.116  1.00  0.00     0.002 C 
BRANCH   2   3
ATOM      3  C   UNL     1       2.758   3.132  -5.604  1.00  0.00     0.021 C 
BRANCH   3   4
ATOM      4  C   UNL     1       3.286   4.384  -4.903  1.00  0.00     0.116 C 
BRANCH   4   5
ATOM      5  N   UNL     1       2.379   5.509  -5.004  1.00  0.00    -0.351 N 
ATOM      6  C   UNL     1       1.652   6.165  -4.047  1.00  0.00     0.283 C 
ATOM      7  O   UNL     1       1.040   7.168  -4.433  1.00  0.00    -0.268 OA
ATOM      8  H   UNL     1       2.266   5.862  -5.916  1.00  0.00     0.163 HD
BRANCH   6   9
ATOM      9  C   UNL     1       1.688   5.700  -2.555  1.00  0.00     0.305 C 
BRANCH   9  10
ATOM     10  C   UNL     1       1.315   4.231  -2.292  1.00  0.00     0.022 A 
ATOM     11  C   UNL     1       0.819   1.535  -1.544  1.00  0.00     0.119 A 
ATOM     12  C   UNL     1       1.962   2.173  -1.091  1.00  0.00     0.047 A 
ATOM     13  C   UNL     1      -0.047   2.219  -2.396  1.00  0.00     0.050 A 
ATOM     14  C   UNL     1       2.199   3.501  -1.453  1.00  0.00     0.014 A 
ATOM     15  C   UNL     1       0.180   3.557  -2.789  1.00  0.00    -0.038 A 
ATOM     16  C   UNL     1      -0.869   4.152  -3.689  1.00  0.00     0.045 C 
BRANCH  11  17
ATOM     17  O   UNL     1       0.458   0.251  -1.256  1.00  0.00    -0.497 OA
ATOM     18  C   UNL     1       0.962  -0.286  -0.039  1.00  0.00     0.278 C 
ENDBRANCH  11  17
ENDBRANCH   9  10
BRANCH   9  19
ATOM     19  N   UNL     1       1.033   6.695  -1.633  1.00  0.00    -0.321 N 
ATOM     20  C   UNL     1      -0.425   6.777  -1.780  1.00  0.00     0.263 C 
ATOM     21  C   UNL     1       1.432   6.515  -0.232  1.00  0.00     0.263 C 
ATOM     22  H   UNL     1       1.389   7.602  -1.935  1.00  0.00     0.349 HD
ATOM     23  C   UNL     1      -1.021   7.896  -0.923  1.00  0.00     0.075 C 
ATOM     24  C   UNL     1       0.868   7.617   0.671  1.00  0.00     0.075 C 
ATOM     25  C   UNL     1      -0.652   7.679   0.542  1.00  0.00     0.089 C 
BRANCH  25  26
ATOM     26  C   UNL     1      -1.249   8.774   1.404  1.00  0.00     0.220 C 
ATOM     27  N   UNL     1      -2.453   8.457   1.966  1.00  0.00    -0.369 N 
ATOM     28  O   UNL     1      -0.741   9.873   1.592  1.00  0.00    -0.275 OA
ATOM     29  H   UNL     1      -2.852   7.571   1.808  1.00  0.00     0.159 HD
ATOM     30  H   UNL     1      -2.922   9.115   2.528  1.00  0.00     0.159 HD
ENDBRANCH  25  26
ENDBRANCH   9  19
ENDBRANCH   6   9
ENDBRANCH   4   5
ENDBRANCH   3   4
ENDBRANCH   2   3
ENDBRANCH   1   2
BRANCH   1  31
ATOM     31  C   UNL     1       5.030   3.136  -7.779  1.00  0.00     0.021 C 
BRANCH  31  32
ATOM     32  C   UNL     1       5.076   1.688  -8.254  1.00  0.00     0.116 C 
BRANCH  32  33
ATOM     33  N   UNL     1       5.785   1.489  -9.515  1.00  0.00    -0.352 N 
ATOM     34  C   UNL     1       6.039   0.301 -10.187  1.00  0.00     0.251 C 
ATOM     35  H   UNL     1       6.128   2.305  -9.946  1.00  0.00     0.163 HD
ATOM     36  O   UNL     1       6.688   0.272 -11.218  1.00  0.00    -0.269 OA
BRANCH  34  37
ATOM     37  C   UNL     1       5.407  -0.938  -9.673  1.00  0.00     0.039 A 
ATOM     38  C   UNL     1       4.541  -1.630 -10.526  1.00  0.00     0.014 A 
ATOM     39  C   UNL     1       5.460  -1.238  -8.316  1.00  0.00     0.014 A 
ATOM     40  C   UNL     1       3.555  -2.445  -9.975  1.00  0.00     0.010 A 
ATOM     41  C   UNL     1       4.416  -1.950  -7.763  1.00  0.00     0.010 A 
ATOM     42  C   UNL     1       3.426  -2.501  -8.588  1.00  0.00    -0.014 A 
BRANCH  42  43
ATOM     43  C   UNL     1       2.212  -2.957  -7.918  1.00  0.00     0.031 A 
ATOM     44  C   UNL     1       2.210  -4.176  -7.083  1.00  0.00     0.074 A 
ATOM     45  C   UNL     1       1.094  -2.198  -7.979  1.00  0.00     0.049 A 
ATOM     46  N   UNL     1       1.152  -4.855  -6.790  1.00  0.00    -0.248 NA
ATOM     47  C   UNL     1       3.428  -4.759  -6.535  1.00  0.00     0.031 C 
ATOM     48  C   UNL     1      -0.100  -2.311  -7.146  1.00  0.00     0.029 A 
ATOM     49  N   UNL     1       0.728  -1.311  -8.991  1.00  0.00    -0.354 N 
ATOM     50  C   UNL     1       1.484  -5.747  -5.797  1.00  0.00     0.074 A 
ATOM     51  C   UNL     1       2.926  -5.697  -5.727  1.00  0.00     0.031 C 
ATOM     52  C   UNL     1      -1.135  -1.753  -7.791  1.00  0.00     0.029 A 
ATOM     53  C   UNL     1      -0.672  -1.385  -9.116  1.00  0.00     0.049 A 
ATOM     54  H   UNL     1       1.333  -0.742  -9.518  1.00  0.00     0.167 HD
ATOM     55  C   UNL     1       0.495  -6.318  -5.051  1.00  0.00     0.034 A 
ATOM     56  C   UNL     1      -1.258  -1.768 -10.286  1.00  0.00     0.034 A 
ATOM     57  C   UNL     1      -0.834  -5.935  -5.530  1.00  0.00     0.049 A 
ATOM     58  C   UNL     1      -2.101  -3.017 -10.164  1.00  0.00     0.074 A 
ATOM     59  C   UNL     1      -1.778  -5.027  -5.078  1.00  0.00     0.029 A 
ATOM     60  N   UNL     1      -1.245  -6.325  -6.801  1.00  0.00    -0.354 N 
ATOM     61  N   UNL     1      -2.051  -3.841  -9.153  1.00  0.00    -0.248 NA
ATOM     62  C   UNL     1      -3.059  -3.442 -11.178  1.00  0.00     0.031 C 
ATOM     63  C   UNL     1      -2.740  -4.843  -6.104  1.00  0.00     0.029 A 
ATOM     64  C   UNL     1      -2.397  -5.656  -7.170  1.00  0.00     0.049 A 
ATOM     65  H   UNL     1      -0.779  -6.987  -7.360  1.00  0.00     0.167 HD
ATOM     66  C   UNL     1      -2.917  -4.887  -9.360  1.00  0.00     0.074 A 
ATOM     67  C   UNL     1      -3.542  -4.574 -10.634  1.00  0.00     0.031 C 
ATOM     68  C   UNL     1      -3.028  -5.915  -8.460  1.00  0.00     0.034 A 
BRANCH  55  69
ATOM     69  C   UNL     1       0.729  -6.973  -3.704  1.00  0.00     0.023 A 
ATOM     70  C   UNL     1      -0.288  -6.924  -2.725  1.00  0.00     0.031 A 
ATOM     71  C   UNL     1       1.917  -7.609  -3.298  1.00  0.00     0.131 A 
ATOM     72  C   UNL     1      -0.068  -7.369  -1.407  1.00  0.00     0.055 A 
ATOM     73  C   UNL     1       2.160  -7.999  -1.973  1.00  0.00     0.041 A 
ATOM     74  F   UNL     1       2.876  -7.936  -4.176  1.00  0.00    -0.206 F 
ATOM     75  C   UNL     1       1.169  -7.866  -1.014  1.00  0.00     0.022 A 
BRANCH  72  76
ATOM     76  S   UNL     1      -1.429  -7.293  -0.210  1.00  0.00     0.124 S 
ATOM     77  O   UNL     1      -1.736  -5.867  -0.177  1.00  0.00    -0.237 OA
ATOM     78  O   UNL     1      -2.431  -8.157  -0.825  1.00  0.00    -0.237 OA
ATOM     79  O   UNL     1      -0.831  -7.821   1.016  1.00  0.00    -0.744 OA
ENDBRANCH  72  76
ENDBRANCH  55  69
BRANCH  56  80
ATOM     80  C   UNL     1      -0.496  -1.332 -11.488  1.00  0.00     0.023 A 
ATOM     81  C   UNL     1      -0.327   0.059 -11.663  1.00  0.00     0.031 A 
ATOM     82  C   UNL     1       0.375  -2.191 -12.170  1.00  0.00     0.131 A 
ATOM     83  C   UNL     1       0.783   0.554 -12.360  1.00  0.00     0.055 A 
ATOM     84  C   UNL     1       1.448  -1.689 -12.919  1.00  0.00     0.041 A 
ATOM     85  F   UNL     1       0.287  -3.520 -12.013  1.00  0.00    -0.206 F 
ATOM     86  C   UNL     1       1.683  -0.314 -12.980  1.00  0.00     0.022 A 
BRANCH  83  87
ATOM     87  S   UNL     1       1.175   2.324 -12.209  1.00  0.00     0.124 S 
ATOM     88  O   UNL     1       0.307   2.912 -13.223  1.00  0.00    -0.237 OA
ATOM     89  O   UNL     1       0.821   2.611 -10.820  1.00  0.00    -0.237 OA
ATOM     90  O   UNL     1       2.607   2.383 -12.492  1.00  0.00    -0.744 OA
ENDBRANCH  83  87
ENDBRANCH  56  80
BRANCH  68  91
ATOM     91  C   UNL     1      -3.796  -7.215  -8.647  1.00  0.00     0.023 A 
ATOM     92  C   UNL     1      -4.350  -7.632  -9.866  1.00  0.00     0.031 A 
ATOM     93  C   UNL     1      -3.946  -8.134  -7.574  1.00  0.00     0.131 A 
ATOM     94  C   UNL     1      -5.066  -8.842  -9.974  1.00  0.00     0.055 A 
ATOM     95  C   UNL     1      -4.596  -9.367  -7.700  1.00  0.00     0.041 A 
ATOM     96  F   UNL     1      -3.457  -7.886  -6.351  1.00  0.00    -0.206 F 
ATOM     97  C   UNL     1      -5.176  -9.723  -8.904  1.00  0.00     0.022 A 
BRANCH  94  98
ATOM     98  S   UNL     1      -5.899  -9.210 -11.541  1.00  0.00     0.124 S 
ATOM     99  O   UNL     1      -6.851  -8.107 -11.642  1.00  0.00    -0.237 OA
ATOM    100  O   UNL     1      -4.796  -9.182 -12.496  1.00  0.00    -0.237 OA
ATOM    101  O   UNL     1      -6.495 -10.525 -11.317  1.00  0.00    -0.744 OA
ENDBRANCH  94  98
ENDBRANCH  68  91
ENDBRANCH  42  43
ENDBRANCH  34  37
ENDBRANCH  32  33
ENDBRANCH  31  32
ENDBRANCH   1  31
TORSDOF 20
