REMARK SMILES CCc1cc(OC(F)(F)F)cc2c1O[C@@H](C(F)(F)F)C(C(=O)NCCCCCCNC(=O)c1ccc(-c3c4nc(c(-c5cc(S(=O)(=O)[O-])ccc5F)c5ccc([nH]5)c(-c5cc(S(=O)(=O)[O-])ccc5F)c5nc(c(-c6cc(S(=O)(=O)[O-])ccc6F)c6ccc3[nH]6)C=C5)C=C4)cc1)=C2
REMARK SMILES IDX 27 1 26 2 25 3 24 4 23 5 21 6 22 7 20 9 3 10 4 11 13 12 5 13
REMARK SMILES IDX 12 14 14 15 11 16 96 17 15 18 2 19 1 20 6 21 7 22 8 23 9 24
REMARK SMILES IDX 10 25 16 26 17 27 18 28 19 29 28 30 29 31 30 32 31 33 32 35
REMARK SMILES IDX 33 36 34 37 95 38 35 39 94 40 36 41 37 42 38 43 88 44 39 45
REMARK SMILES IDX 93 46 87 47 89 48 40 49 92 50 86 51 85 52 41 54 73 55 53 56
REMARK SMILES IDX 72 57 54 58 57 59 71 60 90 61 55 62 56 63 70 65 91 66 58 67
REMARK SMILES IDX 42 68 43 69 51 70 44 71 50 72 52 73 49 74 45 75 46 76 47 77
REMARK SMILES IDX 48 78 74 79 75 80 83 81 76 82 82 83 84 84 81 85 77 86 78 87
REMARK SMILES IDX 79 88 80 89 59 90 60 91 68 92 61 93 67 94 69 95 66 96 62 97
REMARK SMILES IDX 63 98 64 99 65 100
REMARK H PARENT 23 8 30 34 89 53 57 64
REMARK Flexibility Score: inf
ROOT
ATOM      1  C   UNL     1       5.142   5.468  -9.567  1.00  0.00     0.002 C 
ENDROOT
BRANCH   1   2
ATOM      2  C   UNL     1       3.651   5.498  -9.210  1.00  0.00     0.002 C 
BRANCH   2   3
ATOM      3  C   UNL     1       3.212   4.417  -8.212  1.00  0.00     0.021 C 
BRANCH   3   4
ATOM      4  C   UNL     1       3.860   4.580  -6.831  1.00  0.00     0.116 C 
BRANCH   4   5
ATOM      5  N   UNL     1       3.158   5.617  -6.092  1.00  0.00    -0.352 N 
ATOM      6  C   UNL     1       2.120   5.585  -5.217  1.00  0.00     0.251 C 
ATOM      7  O   UNL     1       1.578   6.651  -4.934  1.00  0.00    -0.270 OA
ATOM      8  H   UNL     1       3.505   6.523  -6.260  1.00  0.00     0.163 HD
BRANCH   6   9
ATOM      9  C   UNL     1       1.681   4.345  -4.526  1.00  0.00     0.067 C 
ATOM     10  C   UNL     1       0.790   0.950  -2.188  1.00  0.00    -0.002 A 
ATOM     11  C   UNL     1       0.842  -0.317  -2.803  1.00  0.00     0.054 A 
ATOM     12  C   UNL     1       1.044   2.090  -2.974  1.00  0.00     0.131 A 
ATOM     13  C   UNL     1       1.182  -0.453  -4.150  1.00  0.00     0.130 A 
ATOM     14  C   UNL     1       1.351   1.964  -4.328  1.00  0.00     0.021 A 
ATOM     15  O   UNL     1       1.045   3.301  -2.344  1.00  0.00    -0.475 OA
ATOM     16  C   UNL     1       1.427   0.693  -4.907  1.00  0.00     0.058 A 
ATOM     17  C   UNL     1       1.684   3.141  -5.115  1.00  0.00     0.025 C 
ATOM     18  C   UNL     1       1.067   4.519  -3.141  1.00  0.00     0.314 C 
BRANCH  10  19
ATOM     19  C   UNL     1       0.395   1.092  -0.731  1.00  0.00     0.036 C 
ATOM     20  C   UNL     1       0.939   0.019   0.207  1.00  0.00     0.009 C 
ENDBRANCH  10  19
BRANCH  13  21
ATOM     21  O   UNL     1       1.317  -1.621  -4.843  1.00  0.00    -0.406 OA
BRANCH  21  22
ATOM     22  C   UNL     1       1.106  -2.838  -4.149  1.00  0.00     0.573 C 
ATOM     23  F   UNL     1       1.956  -2.963  -3.107  1.00  0.00    -0.132 F 
ATOM     24  F   UNL     1      -0.166  -2.918  -3.700  1.00  0.00    -0.132 F 
ATOM     25  F   UNL     1       1.320  -3.868  -4.995  1.00  0.00    -0.132 F 
ENDBRANCH  21  22
ENDBRANCH  13  21
BRANCH  18  26
ATOM     26  C   UNL     1       1.655   5.631  -2.240  1.00  0.00     0.429 C 
ATOM     27  F   UNL     1       1.123   6.849  -2.491  1.00  0.00    -0.167 F 
ATOM     28  F   UNL     1       1.376   5.388  -0.929  1.00  0.00    -0.167 F 
ATOM     29  F   UNL     1       3.001   5.725  -2.337  1.00  0.00    -0.167 F 
ENDBRANCH  18  26
ENDBRANCH   6   9
ENDBRANCH   4   5
ENDBRANCH   3   4
ENDBRANCH   2   3
ENDBRANCH   1   2
BRANCH   1  30
ATOM     30  C   UNL     1       5.645   4.128 -10.111  1.00  0.00     0.021 C 
BRANCH  30  31
ATOM     31  C   UNL     1       4.973   3.689 -11.409  1.00  0.00     0.116 C 
BRANCH  31  32
ATOM     32  N   UNL     1       5.272   4.606 -12.498  1.00  0.00    -0.352 N 
ATOM     33  C   UNL     1       5.910   4.361 -13.688  1.00  0.00     0.251 C 
ATOM     34  H   UNL     1       4.974   5.535 -12.361  1.00  0.00     0.163 HD
ATOM     35  O   UNL     1       6.318   5.297 -14.367  1.00  0.00    -0.269 OA
BRANCH  33  36
ATOM     36  C   UNL     1       6.114   2.966 -14.135  1.00  0.00     0.039 A 
ATOM     37  C   UNL     1       7.355   2.592 -14.654  1.00  0.00     0.014 A 
ATOM     38  C   UNL     1       5.077   2.032 -14.046  1.00  0.00     0.014 A 
ATOM     39  C   UNL     1       7.577   1.263 -15.023  1.00  0.00     0.010 A 
ATOM     40  C   UNL     1       5.321   0.695 -14.349  1.00  0.00     0.010 A 
ATOM     41  C   UNL     1       6.575   0.296 -14.836  1.00  0.00    -0.014 A 
BRANCH  41  42
ATOM     42  C   UNL     1       6.826  -1.140 -15.124  1.00  0.00     0.031 A 
ATOM     43  C   UNL     1       6.050  -1.842 -16.205  1.00  0.00     0.074 A 
ATOM     44  C   UNL     1       7.703  -1.824 -14.364  1.00  0.00     0.049 A 
ATOM     45  N   UNL     1       6.062  -3.105 -16.543  1.00  0.00    -0.248 NA
ATOM     46  C   UNL     1       5.120  -1.017 -16.989  1.00  0.00     0.031 C 
ATOM     47  C   UNL     1       8.490  -1.256 -13.266  1.00  0.00     0.029 A 
ATOM     48  N   UNL     1       8.075  -3.145 -14.386  1.00  0.00    -0.354 N 
ATOM     49  C   UNL     1       5.136  -3.231 -17.574  1.00  0.00     0.074 A 
ATOM     50  C   UNL     1       4.541  -1.924 -17.761  1.00  0.00     0.031 C 
ATOM     51  C   UNL     1       9.264  -2.216 -12.737  1.00  0.00     0.029 A 
ATOM     52  C   UNL     1       8.992  -3.478 -13.416  1.00  0.00     0.049 A 
ATOM     53  H   UNL     1       7.718  -3.793 -15.036  1.00  0.00     0.167 HD
ATOM     54  C   UNL     1       4.828  -4.330 -18.307  1.00  0.00     0.034 A 
ATOM     55  C   UNL     1       9.537  -4.668 -13.097  1.00  0.00     0.034 A 
ATOM     56  C   UNL     1       5.436  -5.624 -18.105  1.00  0.00     0.049 A 
ATOM     57  C   UNL     1       9.143  -5.885 -13.896  1.00  0.00     0.074 A 
ATOM     58  C   UNL     1       5.238  -6.790 -18.824  1.00  0.00     0.029 A 
ATOM     59  N   UNL     1       6.350  -5.928 -17.104  1.00  0.00    -0.354 N 
ATOM     60  N   UNL     1       8.303  -5.977 -14.901  1.00  0.00    -0.248 NA
ATOM     61  C   UNL     1       9.777  -7.155 -13.521  1.00  0.00     0.031 C 
ATOM     62  C   UNL     1       5.969  -7.814 -18.211  1.00  0.00     0.029 A 
ATOM     63  C   UNL     1       6.692  -7.271 -17.162  1.00  0.00     0.049 A 
ATOM     64  H   UNL     1       6.704  -5.284 -16.449  1.00  0.00     0.167 HD
ATOM     65  C   UNL     1       8.329  -7.312 -15.295  1.00  0.00     0.074 A 
ATOM     66  C   UNL     1       9.283  -7.979 -14.433  1.00  0.00     0.031 C 
ATOM     67  C   UNL     1       7.631  -7.930 -16.282  1.00  0.00     0.034 A 
BRANCH  54  68
ATOM     68  C   UNL     1       3.766  -4.182 -19.372  1.00  0.00     0.023 A 
ATOM     69  C   UNL     1       3.933  -3.318 -20.468  1.00  0.00     0.031 A 
ATOM     70  C   UNL     1       2.562  -4.903 -19.282  1.00  0.00     0.131 A 
ATOM     71  C   UNL     1       2.886  -3.139 -21.386  1.00  0.00     0.055 A 
ATOM     72  C   UNL     1       1.557  -4.784 -20.245  1.00  0.00     0.041 A 
ATOM     73  F   UNL     1       2.334  -5.727 -18.247  1.00  0.00    -0.206 F 
ATOM     74  C   UNL     1       1.710  -3.886 -21.297  1.00  0.00     0.022 A 
BRANCH  71  75
ATOM     75  S   UNL     1       3.027  -1.809 -22.611  1.00  0.00     0.124 S 
ATOM     76  O   UNL     1       3.198  -0.637 -21.756  1.00  0.00    -0.237 OA
ATOM     77  O   UNL     1       4.197  -2.213 -23.383  1.00  0.00    -0.237 OA
ATOM     78  O   UNL     1       1.755  -1.867 -23.328  1.00  0.00    -0.744 OA
ENDBRANCH  71  75
ENDBRANCH  54  68
BRANCH  55  79
ATOM     79  C   UNL     1      10.495  -4.780 -11.958  1.00  0.00     0.023 A 
ATOM     80  C   UNL     1      11.825  -5.175 -12.168  1.00  0.00     0.031 A 
ATOM     81  C   UNL     1      10.081  -4.536 -10.636  1.00  0.00     0.131 A 
ATOM     82  C   UNL     1      12.681  -5.362 -11.072  1.00  0.00     0.055 A 
ATOM     83  C   UNL     1      10.953  -4.667  -9.554  1.00  0.00     0.041 A 
ATOM     84  F   UNL     1       8.820  -4.153 -10.378  1.00  0.00    -0.206 F 
ATOM     85  C   UNL     1      12.259  -5.096  -9.768  1.00  0.00     0.022 A 
BRANCH  82  86
ATOM     86  S   UNL     1      14.333  -6.049 -11.369  1.00  0.00     0.124 S 
ATOM     87  O   UNL     1      14.015  -7.314 -12.021  1.00  0.00    -0.237 OA
ATOM     88  O   UNL     1      14.939  -5.025 -12.213  1.00  0.00    -0.237 OA
ATOM     89  O   UNL     1      14.900  -6.163 -10.026  1.00  0.00    -0.744 OA
ENDBRANCH  82  86
ENDBRANCH  55  79
BRANCH  67  90
ATOM     90  C   UNL     1       7.907  -9.399 -16.498  1.00  0.00     0.023 A 
ATOM     91  C   UNL     1       7.580 -10.363 -15.529  1.00  0.00     0.031 A 
ATOM     92  C   UNL     1       8.521  -9.838 -17.685  1.00  0.00     0.131 A 
ATOM     93  C   UNL     1       7.923 -11.708 -15.736  1.00  0.00     0.055 A 
ATOM     94  C   UNL     1       8.799 -11.186 -17.915  1.00  0.00     0.041 A 
ATOM     95  F   UNL     1       8.860  -8.961 -18.644  1.00  0.00    -0.206 F 
ATOM     96  C   UNL     1       8.512 -12.128 -16.931  1.00  0.00     0.022 A 
BRANCH  93  97
ATOM     97  S   UNL     1       7.679 -12.887 -14.380  1.00  0.00     0.124 S 
ATOM     98  O   UNL     1       8.492 -12.301 -13.319  1.00  0.00    -0.237 OA
ATOM     99  O   UNL     1       6.235 -12.836 -14.177  1.00  0.00    -0.237 OA
ATOM    100  O   UNL     1       8.184 -14.146 -14.925  1.00  0.00    -0.744 OA
ENDBRANCH  93  97
ENDBRANCH  67  90
ENDBRANCH  41  42
ENDBRANCH  33  36
ENDBRANCH  31  32
ENDBRANCH  30  31
ENDBRANCH   1  30
TORSDOF 20
