REMARK SMILES C[NH2+][C@@]1(C(=O)NCCCCCCNC(=O)c2ccc(-c3c4nc(c(-c5cc(S(=O)(=O)[O-])ccc5F)c5ccc([nH]5)c(-c5cc(S(=O)(=O)[O-])ccc5F)c5nc(c(-c6cc(S(=O)(=O)[O-])ccc6F)c6ccc3[nH]6)C=C5)C=C4)cc2)CC[C@H](SC(C)C)C1
REMARK SMILES IDX 10 1 9 2 8 3 7 4 6 5 4 6 5 7 3 9 79 10 86 11 80 12 81 13
REMARK SMILES IDX 2 14 1 15 82 18 83 19 84 20 85 21 11 22 12 23 13 24 14 25
REMARK SMILES IDX 15 27 16 28 17 29 78 30 18 31 77 32 19 33 20 34 21 35 71 36
REMARK SMILES IDX 22 37 76 38 70 39 72 40 23 41 75 42 69 43 68 44 24 46 56 47
REMARK SMILES IDX 36 48 55 49 37 50 40 51 54 52 73 53 38 54 39 55 53 57 74 58
REMARK SMILES IDX 41 59 25 60 26 61 34 62 27 63 33 64 35 65 32 66 28 67 29 68
REMARK SMILES IDX 30 69 31 70 57 71 58 72 66 73 59 74 65 75 67 76 64 77 60 78
REMARK SMILES IDX 61 79 62 80 63 81 42 82 43 83 51 84 44 85 50 86 52 87 49 88
REMARK SMILES IDX 45 89 46 90 47 91 48 92
REMARK H PARENT 6 8 2 16 2 17 13 26 72 45 40 56
REMARK Flexibility Score: inf
ROOT
ATOM      1  C   UNL     1      -6.298   1.275   2.643  1.00  0.00     0.002 C 
ENDROOT
BRANCH   1   2
ATOM      2  C   UNL     1      -5.301   0.114   2.754  1.00  0.00     0.002 C 
BRANCH   2   3
ATOM      3  C   UNL     1      -4.509  -0.223   1.492  1.00  0.00     0.021 C 
BRANCH   3   4
ATOM      4  C   UNL     1      -3.751   0.940   0.866  1.00  0.00     0.116 C 
BRANCH   4   5
ATOM      5  N   UNL     1      -2.438   1.174   1.408  1.00  0.00    -0.351 N 
ATOM      6  C   UNL     1      -1.242   1.388   0.798  1.00  0.00     0.281 C 
ATOM      7  O   UNL     1      -0.371   1.880   1.537  1.00  0.00    -0.268 OA
ATOM      8  H   UNL     1      -2.399   1.179   2.392  1.00  0.00     0.163 HD
BRANCH   6   9
ATOM      9  C   UNL     1      -0.902   1.108  -0.736  1.00  0.00     0.176 C 
ATOM     10  C   UNL     1      -1.375   2.265  -1.630  1.00  0.00     0.080 C 
ATOM     11  C   UNL     1      -1.513  -0.142  -1.392  1.00  0.00     0.093 C 
ATOM     12  C   UNL     1      -2.709   1.824  -2.223  1.00  0.00     0.022 C 
ATOM     13  C   UNL     1      -2.587   0.314  -2.421  1.00  0.00     0.054 C 
BRANCH   9  14
ATOM     14  N   UNL     1       0.599   1.090  -0.838  1.00  0.00    -0.336 N 
ATOM     15  C   UNL     1       1.226  -0.078  -0.220  1.00  0.00     0.331 C 
ATOM     16  H   UNL     1       0.852   1.104  -1.826  1.00  0.00     0.346 HD
ATOM     17  H   UNL     1       0.938   1.908  -0.332  1.00  0.00     0.346 HD
ENDBRANCH   9  14
BRANCH  13  18
ATOM     18  S   UNL     1      -3.977  -0.892  -2.251  1.00  0.00    -0.155 SA
BRANCH  18  19
ATOM     19  C   UNL     1      -5.581  -0.112  -2.691  1.00  0.00     0.040 C 
ATOM     20  C   UNL     1      -5.746   1.394  -2.631  1.00  0.00     0.019 C 
ATOM     21  C   UNL     1      -6.047  -0.663  -4.034  1.00  0.00     0.019 C 
ENDBRANCH  18  19
ENDBRANCH  13  18
ENDBRANCH   6   9
ENDBRANCH   4   5
ENDBRANCH   3   4
ENDBRANCH   2   3
ENDBRANCH   1   2
BRANCH   1  22
ATOM     22  C   UNL     1      -7.244   1.266   1.437  1.00  0.00     0.021 C 
BRANCH  22  23
ATOM     23  C   UNL     1      -8.097   0.012   1.258  1.00  0.00     0.116 C 
BRANCH  23  24
ATOM     24  N   UNL     1      -8.956  -0.242   2.399  1.00  0.00    -0.352 N 
ATOM     25  C   UNL     1     -10.323  -0.322   2.488  1.00  0.00     0.251 C 
ATOM     26  H   UNL     1      -8.479  -0.379   3.249  1.00  0.00     0.163 HD
ATOM     27  O   UNL     1     -10.844  -0.359   3.600  1.00  0.00    -0.269 OA
BRANCH  25  28
ATOM     28  C   UNL     1     -11.175  -0.341   1.274  1.00  0.00     0.039 A 
ATOM     29  C   UNL     1     -12.373   0.382   1.290  1.00  0.00     0.014 A 
ATOM     30  C   UNL     1     -10.845  -1.106   0.151  1.00  0.00     0.014 A 
ATOM     31  C   UNL     1     -13.208   0.381   0.168  1.00  0.00     0.010 A 
ATOM     32  C   UNL     1     -11.649  -1.057  -0.990  1.00  0.00     0.010 A 
ATOM     33  C   UNL     1     -12.842  -0.317  -0.993  1.00  0.00    -0.014 A 
BRANCH  33  34
ATOM     34  C   UNL     1     -13.702  -0.291  -2.207  1.00  0.00     0.031 A 
ATOM     35  C   UNL     1     -14.370  -1.550  -2.692  1.00  0.00     0.074 A 
ATOM     36  C   UNL     1     -13.842   0.855  -2.902  1.00  0.00     0.049 A 
ATOM     37  N   UNL     1     -15.097  -1.744  -3.764  1.00  0.00    -0.248 NA
ATOM     38  C   UNL     1     -14.171  -2.756  -1.876  1.00  0.00     0.031 C 
ATOM     39  C   UNL     1     -13.223   2.135  -2.553  1.00  0.00     0.029 A 
ATOM     40  N   UNL     1     -14.541   1.129  -4.052  1.00  0.00    -0.354 N 
ATOM     41  C   UNL     1     -15.432  -3.094  -3.759  1.00  0.00     0.074 A 
ATOM     42  C   UNL     1     -14.780  -3.679  -2.605  1.00  0.00     0.031 C 
ATOM     43  C   UNL     1     -13.581   3.059  -3.459  1.00  0.00     0.029 A 
ATOM     44  C   UNL     1     -14.420   2.433  -4.476  1.00  0.00     0.049 A 
ATOM     45  H   UNL     1     -15.079   0.456  -4.528  1.00  0.00     0.167 HD
ATOM     46  C   UNL     1     -16.224  -3.778  -4.623  1.00  0.00     0.034 A 
ATOM     47  C   UNL     1     -14.915   3.051  -5.567  1.00  0.00     0.034 A 
ATOM     48  C   UNL     1     -16.878  -3.178  -5.762  1.00  0.00     0.049 A 
ATOM     49  C   UNL     1     -15.775   2.267  -6.525  1.00  0.00     0.074 A 
ATOM     50  C   UNL     1     -17.744  -3.767  -6.668  1.00  0.00     0.029 A 
ATOM     51  N   UNL     1     -16.733  -1.855  -6.159  1.00  0.00    -0.354 N 
ATOM     52  N   UNL     1     -16.119   1.000  -6.480  1.00  0.00    -0.248 NA
ATOM     53  C   UNL     1     -16.323   2.999  -7.674  1.00  0.00     0.031 C 
ATOM     54  C   UNL     1     -18.070  -2.819  -7.646  1.00  0.00     0.029 A 
ATOM     55  C   UNL     1     -17.467  -1.618  -7.311  1.00  0.00     0.049 A 
ATOM     56  H   UNL     1     -16.187  -1.183  -5.689  1.00  0.00     0.167 HD
ATOM     57  C   UNL     1     -16.947   0.794  -7.580  1.00  0.00     0.074 A 
ATOM     58  C   UNL     1     -17.061   2.068  -8.259  1.00  0.00     0.031 C 
ATOM     59  C   UNL     1     -17.562  -0.345  -7.988  1.00  0.00     0.034 A 
BRANCH  46  60
ATOM     60  C   UNL     1     -16.399  -5.259  -4.381  1.00  0.00     0.023 A 
ATOM     61  C   UNL     1     -17.012  -5.750  -3.215  1.00  0.00     0.031 A 
ATOM     62  C   UNL     1     -15.922  -6.195  -5.315  1.00  0.00     0.131 A 
ATOM     63  C   UNL     1     -17.061  -7.132  -2.976  1.00  0.00     0.055 A 
ATOM     64  C   UNL     1     -16.047  -7.571  -5.110  1.00  0.00     0.041 A 
ATOM     65  F   UNL     1     -15.311  -5.789  -6.439  1.00  0.00    -0.206 F 
ATOM     66  C   UNL     1     -16.605  -8.047  -3.927  1.00  0.00     0.022 A 
BRANCH  63  67
ATOM     67  S   UNL     1     -17.593  -7.710  -1.341  1.00  0.00     0.124 S 
ATOM     68  O   UNL     1     -16.622  -7.055  -0.467  1.00  0.00    -0.237 OA
ATOM     69  O   UNL     1     -18.962  -7.214  -1.262  1.00  0.00    -0.237 OA
ATOM     70  O   UNL     1     -17.459  -9.162  -1.430  1.00  0.00    -0.744 OA
ENDBRANCH  63  67
ENDBRANCH  46  60
BRANCH  47  71
ATOM     71  C   UNL     1     -14.603   4.485  -5.826  1.00  0.00     0.023 A 
ATOM     72  C   UNL     1     -15.611   5.461  -5.803  1.00  0.00     0.031 A 
ATOM     73  C   UNL     1     -13.294   4.894  -6.138  1.00  0.00     0.131 A 
ATOM     74  C   UNL     1     -15.305   6.791  -6.131  1.00  0.00     0.055 A 
ATOM     75  C   UNL     1     -12.985   6.227  -6.415  1.00  0.00     0.041 A 
ATOM     76  F   UNL     1     -12.292   4.001  -6.167  1.00  0.00    -0.206 F 
ATOM     77  C   UNL     1     -13.996   7.183  -6.425  1.00  0.00     0.022 A 
BRANCH  74  78
ATOM     78  S   UNL     1     -16.659   7.992  -6.244  1.00  0.00     0.124 S 
ATOM     79  O   UNL     1     -17.512   7.384  -7.258  1.00  0.00    -0.237 OA
ATOM     80  O   UNL     1     -17.179   7.990  -4.880  1.00  0.00    -0.237 OA
ATOM     81  O   UNL     1     -15.987   9.225  -6.649  1.00  0.00    -0.744 OA
ENDBRANCH  74  78
ENDBRANCH  47  71
BRANCH  59  82
ATOM     82  C   UNL     1     -18.449  -0.246  -9.206  1.00  0.00     0.023 A 
ATOM     83  C   UNL     1     -17.924   0.006 -10.485  1.00  0.00     0.031 A 
ATOM     84  C   UNL     1     -19.842  -0.389  -9.078  1.00  0.00     0.131 A 
ATOM     85  C   UNL     1     -18.790   0.160 -11.578  1.00  0.00     0.055 A 
ATOM     86  C   UNL     1     -20.694  -0.292 -10.178  1.00  0.00     0.041 A 
ATOM     87  F   UNL     1     -20.397  -0.628  -7.879  1.00  0.00    -0.206 F 
ATOM     88  C   UNL     1     -20.171  -0.003 -11.435  1.00  0.00     0.022 A 
BRANCH  85  89
ATOM     89  S   UNL     1     -18.096   0.663 -13.177  1.00  0.00     0.124 S 
ATOM     90  O   UNL     1     -17.460   1.933 -12.846  1.00  0.00    -0.237 OA
ATOM     91  O   UNL     1     -17.193  -0.441 -13.487  1.00  0.00    -0.237 OA
ATOM     92  O   UNL     1     -19.269   0.764 -14.044  1.00  0.00    -0.744 OA
ENDBRANCH  85  89
ENDBRANCH  59  82
ENDBRANCH  33  34
ENDBRANCH  25  28
ENDBRANCH  23  24
ENDBRANCH  22  23
ENDBRANCH   1  22
TORSDOF 19
