REMARK SMILES C[N@H+](CC(=O)NCCCCCCNC(=O)c1ccc(-c2c3nc(c(-c4cc(S(=O)(=O)[O-])ccc4F)c4ccc([nH]4)c(-c4cc(S(=O)(=O)[O-])ccc4F)c4nc(c(-c5cc(S(=O)(=O)[O-])ccc5F)c5ccc2[nH]5)C=C4)C=C3)cc1)Cc1nc(-c2ccsc2)no1
REMARK SMILES IDX 9 1 8 2 7 3 6 4 4 5 5 6 3 8 2 9 1 10 79 12 80 13 81 14 89 15
REMARK SMILES IDX 82 16 88 17 83 18 84 19 87 20 85 21 86 22 10 23 11 24 12 25
REMARK SMILES IDX 13 26 14 27 15 29 16 30 17 31 78 32 18 33 77 34 19 35 20 36
REMARK SMILES IDX 21 37 71 38 22 39 76 40 70 41 72 42 23 43 75 44 69 45 68 46
REMARK SMILES IDX 24 48 56 49 36 50 55 51 37 52 40 53 54 54 73 55 38 56 39 57
REMARK SMILES IDX 53 59 74 60 41 61 25 62 26 63 34 64 27 65 33 66 35 67 32 68
REMARK SMILES IDX 28 69 29 70 30 71 31 72 57 73 58 74 66 75 59 76 65 77 67 78
REMARK SMILES IDX 64 79 60 80 61 81 62 82 63 83 42 84 43 85 51 86 44 87 50 88
REMARK SMILES IDX 52 89 49 90 45 91 46 92 47 93 48 94
REMARK H PARENT 6 7 2 11 13 28 72 47 40 58
REMARK Flexibility Score: inf
ROOT
ATOM      1  C   UNL     1       0.129   2.163   3.170  1.00  0.00     0.002 C 
ENDROOT
BRANCH   1   2
ATOM      2  C   UNL     1       0.485   0.993   2.253  1.00  0.00     0.021 C 
BRANCH   2   3
ATOM      3  C   UNL     1      -0.720   0.182   1.777  1.00  0.00     0.116 C 
BRANCH   3   4
ATOM      4  N   UNL     1      -1.625   0.944   0.933  1.00  0.00    -0.351 N 
ATOM      5  C   UNL     1      -1.639   1.029  -0.434  1.00  0.00     0.275 C 
ATOM      6  O   UNL     1      -2.478   1.739  -0.993  1.00  0.00    -0.269 OA
ATOM      7  H   UNL     1      -2.315   1.465   1.403  1.00  0.00     0.163 HD
BRANCH   5   8
ATOM      8  C   UNL     1      -0.632   0.203  -1.242  1.00  0.00     0.363 C 
BRANCH   8   9
ATOM      9  N   UNL     1       0.736   0.705  -1.026  1.00  0.00    -0.322 N 
ATOM     10  C   UNL     1       1.743  -0.342  -1.100  1.00  0.00     0.333 C 
ATOM     11  H   UNL     1       0.747   1.047  -0.065  1.00  0.00     0.348 HD
BRANCH   9  12
ATOM     12  C   UNL     1       1.073   1.861  -1.880  1.00  0.00     0.364 C 
BRANCH  12  13
ATOM     13  C   UNL     1       0.647   3.185  -1.329  1.00  0.00     0.282 A 
ATOM     14  N   UNL     1       0.388   3.568  -0.097  1.00  0.00    -0.186 NA
ATOM     15  O   UNL     1       0.512   4.192  -2.245  1.00  0.00    -0.333 OA
ATOM     16  C   UNL     1      -0.035   4.856  -0.284  1.00  0.00     0.203 A 
ATOM     17  N   UNL     1       0.044   5.305  -1.544  1.00  0.00    -0.057 NA
BRANCH  16  18
ATOM     18  C   UNL     1      -0.626   5.606   0.822  1.00  0.00     0.033 A 
ATOM     19  C   UNL     1      -1.772   6.438   0.649  1.00  0.00     0.024 A 
ATOM     20  C   UNL     1      -0.203   5.578   2.133  1.00  0.00     0.077 A 
ATOM     21  C   UNL     1      -2.204   6.979   1.841  1.00  0.00     0.065 A 
ATOM     22  S   UNL     1      -1.210   6.513   3.155  1.00  0.00    -0.152 S 
ENDBRANCH  16  18
ENDBRANCH  12  13
ENDBRANCH   9  12
ENDBRANCH   8   9
ENDBRANCH   5   8
ENDBRANCH   3   4
ENDBRANCH   2   3
ENDBRANCH   1   2
BRANCH   1  23
ATOM     23  C   UNL     1      -0.440   1.779   4.535  1.00  0.00     0.002 C 
BRANCH  23  24
ATOM     24  C   UNL     1       0.439   0.843   5.366  1.00  0.00     0.021 C 
BRANCH  24  25
ATOM     25  C   UNL     1       1.865   1.334   5.603  1.00  0.00     0.116 C 
BRANCH  25  26
ATOM     26  N   UNL     1       1.903   2.564   6.376  1.00  0.00    -0.352 N 
ATOM     27  C   UNL     1       2.481   2.812   7.598  1.00  0.00     0.251 C 
ATOM     28  H   UNL     1       1.448   3.334   5.964  1.00  0.00     0.163 HD
ATOM     29  O   UNL     1       2.240   3.861   8.186  1.00  0.00    -0.269 OA
BRANCH  27  30
ATOM     30  C   UNL     1       3.370   1.801   8.215  1.00  0.00     0.039 A 
ATOM     31  C   UNL     1       3.196   1.483   9.563  1.00  0.00     0.014 A 
ATOM     32  C   UNL     1       4.372   1.172   7.470  1.00  0.00     0.014 A 
ATOM     33  C   UNL     1       3.979   0.483  10.146  1.00  0.00     0.010 A 
ATOM     34  C   UNL     1       5.106   0.129   8.033  1.00  0.00     0.010 A 
ATOM     35  C   UNL     1       4.914  -0.229   9.376  1.00  0.00    -0.014 A 
BRANCH  35  36
ATOM     36  C   UNL     1       5.681  -1.359   9.963  1.00  0.00     0.031 A 
ATOM     37  C   UNL     1       7.176  -1.274  10.109  1.00  0.00     0.074 A 
ATOM     38  C   UNL     1       5.031  -2.486  10.319  1.00  0.00     0.049 A 
ATOM     39  N   UNL     1       8.016  -2.166  10.570  1.00  0.00    -0.248 NA
ATOM     40  C   UNL     1       7.813  -0.032   9.647  1.00  0.00     0.031 C 
ATOM     41  C   UNL     1       3.590  -2.709  10.173  1.00  0.00     0.029 A 
ATOM     42  N   UNL     1       5.492  -3.655  10.870  1.00  0.00    -0.354 N 
ATOM     43  C   UNL     1       9.280  -1.598  10.449  1.00  0.00     0.074 A 
ATOM     44  C   UNL     1       9.098  -0.311   9.812  1.00  0.00     0.031 C 
ATOM     45  C   UNL     1       3.284  -3.927  10.650  1.00  0.00     0.029 A 
ATOM     46  C   UNL     1       4.505  -4.585  11.099  1.00  0.00     0.049 A 
ATOM     47  H   UNL     1       6.441  -3.812  11.081  1.00  0.00     0.167 HD
ATOM     48  C   UNL     1      10.477  -2.094  10.853  1.00  0.00     0.034 A 
ATOM     49  C   UNL     1       4.576  -5.830  11.611  1.00  0.00     0.034 A 
ATOM     50  C   UNL     1      10.640  -3.377  11.494  1.00  0.00     0.049 A 
ATOM     51  C   UNL     1       5.917  -6.359  12.051  1.00  0.00     0.074 A 
ATOM     52  C   UNL     1      11.795  -3.951  11.997  1.00  0.00     0.029 A 
ATOM     53  N   UNL     1       9.617  -4.293  11.715  1.00  0.00    -0.354 N 
ATOM     54  N   UNL     1       7.095  -5.784  11.986  1.00  0.00    -0.248 NA
ATOM     55  C   UNL     1       5.932  -7.701  12.646  1.00  0.00     0.031 C 
ATOM     56  C   UNL     1      11.484  -5.235  12.461  1.00  0.00     0.029 A 
ATOM     57  C   UNL     1      10.121  -5.438  12.317  1.00  0.00     0.049 A 
ATOM     58  H   UNL     1       8.672  -4.150  11.479  1.00  0.00     0.167 HD
ATOM     59  C   UNL     1       7.989  -6.688  12.553  1.00  0.00     0.074 A 
ATOM     60  C   UNL     1       7.207  -7.832  12.977  1.00  0.00     0.031 C 
ATOM     61  C   UNL     1       9.334  -6.584  12.709  1.00  0.00     0.034 A 
BRANCH  48  62
ATOM     62  C   UNL     1      11.702  -1.250  10.586  1.00  0.00     0.023 A 
ATOM     63  C   UNL     1      11.865   0.019  11.171  1.00  0.00     0.031 A 
ATOM     64  C   UNL     1      12.707  -1.705   9.715  1.00  0.00     0.131 A 
ATOM     65  C   UNL     1      12.963   0.819  10.818  1.00  0.00     0.055 A 
ATOM     66  C   UNL     1      13.839  -0.937   9.430  1.00  0.00     0.041 A 
ATOM     67  F   UNL     1      12.599  -2.899   9.111  1.00  0.00    -0.206 F 
ATOM     68  C   UNL     1      13.964   0.340   9.970  1.00  0.00     0.022 A 
BRANCH  65  69
ATOM     69  S   UNL     1      12.988   2.547  11.368  1.00  0.00     0.124 S 
ATOM     70  O   UNL     1      11.755   3.062  10.776  1.00  0.00    -0.237 OA
ATOM     71  O   UNL     1      12.994   2.416  12.820  1.00  0.00    -0.237 OA
ATOM     72  O   UNL     1      14.219   3.075  10.783  1.00  0.00    -0.744 OA
ENDBRANCH  65  69
ENDBRANCH  48  62
BRANCH  49  73
ATOM     73  C   UNL     1       3.349  -6.666  11.738  1.00  0.00     0.023 A 
ATOM     74  C   UNL     1       2.855  -7.040  12.998  1.00  0.00     0.031 A 
ATOM     75  C   UNL     1       2.674  -7.136  10.598  1.00  0.00     0.131 A 
ATOM     76  C   UNL     1       1.748  -7.897  13.088  1.00  0.00     0.055 A 
ATOM     77  C   UNL     1       1.543  -7.948  10.694  1.00  0.00     0.041 A 
ATOM     78  F   UNL     1       3.100  -6.801   9.369  1.00  0.00    -0.206 F 
ATOM     79  C   UNL     1       1.081  -8.344  11.945  1.00  0.00     0.022 A 
BRANCH  76  80
ATOM     80  S   UNL     1       1.236  -8.485  14.726  1.00  0.00     0.124 S 
ATOM     81  O   UNL     1       2.451  -9.138  15.201  1.00  0.00    -0.237 OA
ATOM     82  O   UNL     1       0.874  -7.239  15.395  1.00  0.00    -0.237 OA
ATOM     83  O   UNL     1       0.119  -9.379  14.433  1.00  0.00    -0.744 OA
ENDBRANCH  76  80
ENDBRANCH  49  73
BRANCH  61  84
ATOM     84  C   UNL     1      10.027  -7.739  13.389  1.00  0.00     0.023 A 
ATOM     85  C   UNL     1      10.085  -9.014  12.797  1.00  0.00     0.031 A 
ATOM     86  C   UNL     1      10.600  -7.576  14.663  1.00  0.00     0.131 A 
ATOM     87  C   UNL     1      10.636 -10.091  13.508  1.00  0.00     0.055 A 
ATOM     88  C   UNL     1      11.205  -8.637  15.338  1.00  0.00     0.041 A 
ATOM     89  F   UNL     1      10.572  -6.382  15.277  1.00  0.00    -0.206 F 
ATOM     90  C   UNL     1      11.210  -9.907  14.768  1.00  0.00     0.022 A 
BRANCH  87  91
ATOM     91  S   UNL     1      10.487 -11.759  12.810  1.00  0.00     0.124 S 
ATOM     92  O   UNL     1       9.043 -11.890  12.640  1.00  0.00    -0.237 OA
ATOM     93  O   UNL     1      11.266 -11.653  11.581  1.00  0.00    -0.237 OA
ATOM     94  O   UNL     1      11.070 -12.615  13.841  1.00  0.00    -0.744 OA
ENDBRANCH  87  91
ENDBRANCH  61  84
ENDBRANCH  35  36
ENDBRANCH  27  30
ENDBRANCH  25  26
ENDBRANCH  24  25
ENDBRANCH  23  24
ENDBRANCH   1  23
TORSDOF 20
