REMARK SMILES Cc1c(/C=C2/SC(=S)N(CCC(=O)NCCCCCCNC(=O)c3ccc(-c4c5nc(c(-c6cc(S(=O)(=O)[O-])ccc6F)c6ccc([nH]6)c(-c6cc(S(=O)(=O)[O-])ccc6F)c6nc(c(-c7cc(S(=O)(=O)[O-])ccc7F)c7ccc4[nH]7)C=C6)C=C5)cc3)C2=O)c(N2C[C@@H](C)C[C@H](C)C2)n(C)c(=O)c1C#N
REMARK SMILES IDX 17 1 16 2 15 3 14 4 12 5 13 6 11 8 10 9 9 10 4 11 5 12 6 13
REMARK SMILES IDX 87 14 7 15 88 16 8 17 3 18 1 19 2 20 102 21 89 22 100 23
REMARK SMILES IDX 98 24 101 25 99 26 103 27 104 28 90 29 91 30 97 31 92 32
REMARK SMILES IDX 95 33 93 34 94 35 96 36 18 37 19 38 20 39 21 40 22 41 23 43
REMARK SMILES IDX 24 44 25 45 86 46 26 47 85 48 27 49 28 50 29 51 79 52 30 53
REMARK SMILES IDX 84 54 78 55 80 56 31 57 83 58 77 59 76 60 32 62 64 63 44 64
REMARK SMILES IDX 63 65 45 66 48 67 62 68 81 69 46 70 47 71 61 73 82 74 49 75
REMARK SMILES IDX 33 76 34 77 42 78 35 79 41 80 43 81 40 82 36 83 37 84 38 85
REMARK SMILES IDX 39 86 65 87 66 88 74 89 67 90 73 91 75 92 72 93 68 94 69 95
REMARK SMILES IDX 70 96 71 97 50 98 51 99 59 100 52 101 58 102 60 103 57 104
REMARK SMILES IDX 53 105 54 106 55 107 56 108
REMARK H PARENT 14 7 21 42 80 61 48 72
REMARK Flexibility Score: inf
ROOT
ATOM      1  C   UNL     1      -0.088  -1.749  -0.392  1.00  0.00     0.002 C 
ENDROOT
BRANCH   1   2
ATOM      2  C   UNL     1      -0.113  -2.918   0.579  1.00  0.00     0.021 C 
BRANCH   2   3
ATOM      3  C   UNL     1       1.210  -2.977   1.381  1.00  0.00     0.116 C 
BRANCH   3   4
ATOM      4  N   UNL     1       1.677  -1.697   1.916  1.00  0.00    -0.356 N 
ATOM      5  C   UNL     1       1.708  -1.218   3.189  1.00  0.00     0.221 C 
ATOM      6  O   UNL     1       2.396  -0.227   3.437  1.00  0.00    -0.275 OA
ATOM      7  H   UNL     1       2.030  -1.076   1.238  1.00  0.00     0.163 HD
BRANCH   5   8
ATOM      8  C   UNL     1       0.865  -1.859   4.259  1.00  0.00     0.122 C 
BRANCH   8   9
ATOM      9  C   UNL     1      -0.248  -0.902   4.698  1.00  0.00     0.137 C 
BRANCH   9  10
ATOM     10  N   UNL     1      -1.217  -0.641   3.622  1.00  0.00    -0.292 N 
ATOM     11  C   UNL     1      -1.894   0.990   0.419  1.00  0.00     0.033 C 
ATOM     12  C   UNL     1      -1.950   0.354   1.607  1.00  0.00     0.081 C 
ATOM     13  S   UNL     1      -3.206  -0.771   1.997  1.00  0.00    -0.054 SA
ATOM     14  C   UNL     1      -1.010   0.432   2.760  1.00  0.00     0.266 C 
ATOM     15  C   UNL     1      -2.336  -1.413   3.384  1.00  0.00     0.148 C 
ATOM     16  O   UNL     1      -0.205   1.340   2.916  1.00  0.00    -0.268 OA
ATOM     17  S   UNL     1      -2.846  -2.771   4.207  1.00  0.00    -0.052 S 
BRANCH  11  18
ATOM     18  C   UNL     1      -0.941   1.996  -0.057  1.00  0.00     0.021 A 
ATOM     19  C   UNL     1       0.728   1.070  -1.889  1.00  0.00     0.047 C 
ATOM     20  C   UNL     1       0.428   1.690  -0.551  1.00  0.00    -0.017 A 
ATOM     21  C   UNL     1       1.431   2.433  -0.095  1.00  0.00     0.121 A 
ATOM     22  C   UNL     1      -1.306   3.304   0.088  1.00  0.00     0.118 A 
ATOM     23  C   UNL     1       1.072   3.870   0.199  1.00  0.00     0.270 A 
ATOM     24  N   UNL     1      -0.271   4.240   0.048  1.00  0.00    -0.296 N 
ATOM     25  O   UNL     1       1.967   4.684   0.429  1.00  0.00    -0.268 OA
ATOM     26  C   UNL     1      -0.577   5.660   0.060  1.00  0.00     0.155 C 
BRANCH  21  27
ATOM     27  C   UNL     1       2.927   2.184  -0.195  1.00  0.00     0.105 C 
ATOM     28  N   UNL     1       4.169   1.979  -0.278  1.00  0.00    -0.192 NA
ENDBRANCH  21  27
BRANCH  22  29
ATOM     29  N   UNL     1      -2.635   3.729   0.325  1.00  0.00    -0.357 N 
ATOM     30  C   UNL     1      -3.437   3.269   1.476  1.00  0.00     0.121 C 
ATOM     31  C   UNL     1      -3.468   4.203  -0.798  1.00  0.00     0.121 C 
ATOM     32  C   UNL     1      -4.372   4.359   2.006  1.00  0.00     0.006 C 
ATOM     33  C   UNL     1      -4.330   5.387  -0.330  1.00  0.00     0.006 C 
ATOM     34  C   UNL     1      -3.599   5.399   2.814  1.00  0.00     0.009 C 
ATOM     35  C   UNL     1      -5.195   4.984   0.873  1.00  0.00     0.010 C 
ATOM     36  C   UNL     1      -5.208   5.910  -1.465  1.00  0.00     0.009 C 
ENDBRANCH  22  29
ENDBRANCH  11  18
ENDBRANCH   9  10
ENDBRANCH   8   9
ENDBRANCH   5   8
ENDBRANCH   3   4
ENDBRANCH   2   3
ENDBRANCH   1   2
BRANCH   1  37
ATOM     37  C   UNL     1      -0.958  -1.681  -1.656  1.00  0.00     0.002 C 
BRANCH  37  38
ATOM     38  C   UNL     1      -2.439  -2.013  -1.693  1.00  0.00     0.021 C 
BRANCH  38  39
ATOM     39  C   UNL     1      -3.461  -0.898  -2.029  1.00  0.00     0.116 C 
BRANCH  39  40
ATOM     40  N   UNL     1      -3.030   0.316  -2.745  1.00  0.00    -0.352 N 
ATOM     41  C   UNL     1      -3.786   1.102  -3.597  1.00  0.00     0.251 C 
ATOM     42  H   UNL     1      -2.098   0.599  -2.602  1.00  0.00     0.163 HD
ATOM     43  O   UNL     1      -3.394   2.185  -4.014  1.00  0.00    -0.269 OA
BRANCH  41  44
ATOM     44  C   UNL     1      -5.089   0.560  -4.006  1.00  0.00     0.039 A 
ATOM     45  C   UNL     1      -5.178  -0.055  -5.256  1.00  0.00     0.014 A 
ATOM     46  C   UNL     1      -6.062   0.380  -3.023  1.00  0.00     0.014 A 
ATOM     47  C   UNL     1      -6.198  -0.976  -5.477  1.00  0.00     0.010 A 
ATOM     48  C   UNL     1      -7.024  -0.600  -3.220  1.00  0.00     0.010 A 
ATOM     49  C   UNL     1      -7.083  -1.303  -4.437  1.00  0.00    -0.014 A 
BRANCH  49  50
ATOM     50  C   UNL     1      -8.079  -2.387  -4.600  1.00  0.00     0.031 A 
ATOM     51  C   UNL     1      -9.537  -2.045  -4.573  1.00  0.00     0.074 A 
ATOM     52  C   UNL     1      -7.681  -3.671  -4.708  1.00  0.00     0.049 A 
ATOM     53  N   UNL     1     -10.567  -2.841  -4.670  1.00  0.00    -0.248 NA
ATOM     54  C   UNL     1      -9.884  -0.626  -4.388  1.00  0.00     0.031 C 
ATOM     55  C   UNL     1      -6.292  -4.133  -4.686  1.00  0.00     0.029 A 
ATOM     56  N   UNL     1      -8.410  -4.827  -4.850  1.00  0.00    -0.354 N 
ATOM     57  C   UNL     1     -11.680  -2.021  -4.554  1.00  0.00     0.074 A 
ATOM     58  C   UNL     1     -11.204  -0.680  -4.306  1.00  0.00     0.031 C 
ATOM     59  C   UNL     1      -6.269  -5.468  -4.833  1.00  0.00     0.029 A 
ATOM     60  C   UNL     1      -7.641  -5.966  -4.931  1.00  0.00     0.049 A 
ATOM     61  H   UNL     1      -9.394  -4.840  -4.890  1.00  0.00     0.167 HD
ATOM     62  C   UNL     1     -12.983  -2.350  -4.683  1.00  0.00     0.034 A 
ATOM     63  C   UNL     1      -7.998  -7.260  -5.072  1.00  0.00     0.034 A 
ATOM     64  C   UNL     1     -13.449  -3.680  -4.960  1.00  0.00     0.049 A 
ATOM     65  C   UNL     1      -9.460  -7.605  -5.215  1.00  0.00     0.074 A 
ATOM     66  C   UNL     1     -14.749  -4.098  -5.173  1.00  0.00     0.029 A 
ATOM     67  N   UNL     1     -12.641  -4.801  -5.066  1.00  0.00    -0.354 N 
ATOM     68  N   UNL     1     -10.498  -6.802  -5.212  1.00  0.00    -0.248 NA
ATOM     69  C   UNL     1      -9.805  -9.023  -5.396  1.00  0.00     0.031 C 
ATOM     70  C   UNL     1     -14.735  -5.480  -5.353  1.00  0.00     0.029 A 
ATOM     71  C   UNL     1     -13.419  -5.917  -5.318  1.00  0.00     0.049 A 
ATOM     72  H   UNL     1     -11.660  -4.803  -4.976  1.00  0.00     0.167 HD
ATOM     73  C   UNL     1     -11.612  -7.611  -5.419  1.00  0.00     0.074 A 
ATOM     74  C   UNL     1     -11.122  -8.966  -5.559  1.00  0.00     0.031 C 
ATOM     75  C   UNL     1     -12.921  -7.260  -5.487  1.00  0.00     0.034 A 
BRANCH  62  76
ATOM     76  C   UNL     1     -14.006  -1.257  -4.563  1.00  0.00     0.023 A 
ATOM     77  C   UNL     1     -14.938  -1.284  -3.513  1.00  0.00     0.031 A 
ATOM     78  C   UNL     1     -14.127  -0.259  -5.546  1.00  0.00     0.131 A 
ATOM     79  C   UNL     1     -15.978  -0.349  -3.489  1.00  0.00     0.055 A 
ATOM     80  C   UNL     1     -15.141   0.696  -5.495  1.00  0.00     0.041 A 
ATOM     81  F   UNL     1     -13.250  -0.191  -6.561  1.00  0.00    -0.206 F 
ATOM     82  C   UNL     1     -16.080   0.645  -4.469  1.00  0.00     0.022 A 
BRANCH  79  83
ATOM     83  S   UNL     1     -17.258  -0.414  -2.209  1.00  0.00     0.124 S 
ATOM     84  O   UNL     1     -17.228   0.950  -1.684  1.00  0.00    -0.237 OA
ATOM     85  O   UNL     1     -18.444  -0.760  -2.985  1.00  0.00    -0.237 OA
ATOM     86  O   UNL     1     -16.780  -1.439  -1.288  1.00  0.00    -0.744 OA
ENDBRANCH  79  83
ENDBRANCH  62  76
BRANCH  63  87
ATOM     87  C   UNL     1      -6.939  -8.307  -5.153  1.00  0.00     0.023 A 
ATOM     88  C   UNL     1      -6.096  -8.573  -4.059  1.00  0.00     0.031 A 
ATOM     89  C   UNL     1      -6.700  -8.997  -6.354  1.00  0.00     0.131 A 
ATOM     90  C   UNL     1      -5.022  -9.462  -4.205  1.00  0.00     0.055 A 
ATOM     91  C   UNL     1      -5.667  -9.929  -6.477  1.00  0.00     0.041 A 
ATOM     92  F   UNL     1      -7.471  -8.770  -7.429  1.00  0.00    -0.206 F 
ATOM     93  C   UNL     1      -4.813 -10.155  -5.402  1.00  0.00     0.022 A 
BRANCH  90  94
ATOM     94  S   UNL     1      -3.807  -9.676  -2.876  1.00  0.00     0.124 S 
ATOM     95  O   UNL     1      -3.790 -11.125  -2.702  1.00  0.00    -0.237 OA
ATOM     96  O   UNL     1      -2.607  -9.098  -3.478  1.00  0.00    -0.237 OA
ATOM     97  O   UNL     1      -4.371  -8.915  -1.767  1.00  0.00    -0.744 OA
ENDBRANCH  90  94
ENDBRANCH  63  87
BRANCH  75  98
ATOM     98  C   UNL     1     -13.954  -8.328  -5.742  1.00  0.00     0.023 A 
ATOM     99  C   UNL     1     -14.733  -8.275  -6.914  1.00  0.00     0.031 A 
ATOM    100  C   UNL     1     -14.296  -9.265  -4.754  1.00  0.00     0.131 A 
ATOM    101  C   UNL     1     -15.851  -9.107  -7.044  1.00  0.00     0.055 A 
ATOM    102  C   UNL     1     -15.384 -10.125  -4.910  1.00  0.00     0.041 A 
ATOM    103  F   UNL     1     -13.589  -9.342  -3.615  1.00  0.00    -0.206 F 
ATOM    104  C   UNL     1     -16.177 -10.037  -6.051  1.00  0.00     0.022 A 
BRANCH 101 105
ATOM    105  S   UNL     1     -16.970  -8.953  -8.464  1.00  0.00     0.124 S 
ATOM    106  O   UNL     1     -16.978 -10.315  -8.993  1.00  0.00    -0.237 OA
ATOM    107  O   UNL     1     -18.212  -8.523  -7.829  1.00  0.00    -0.237 OA
ATOM    108  O   UNL     1     -16.322  -7.962  -9.317  1.00  0.00    -0.744 OA
ENDBRANCH 101 105
ENDBRANCH  75  98
ENDBRANCH  49  50
ENDBRANCH  41  44
ENDBRANCH  39  40
ENDBRANCH  38  39
ENDBRANCH  37  38
ENDBRANCH   1  37
TORSDOF 21
