REMARK SMILES COc1ccc2[nH]c(C(=O)c3cc(C)ccn3)c(CC(=O)NCCCCCCNC(=O)c3ccc(-c4c5nc(c(-c6cc(S(=O)(=O)[O-])ccc6F)c6ccc([nH]6)c(-c6cc(S(=O)(=O)[O-])ccc6F)c6nc(c(-c7cc(S(=O)(=O)[O-])ccc7F)c7ccc4[nH]7)C=C6)C=C5)cc3)c2c1
REMARK SMILES IDX 25 1 24 2 23 3 22 4 20 5 21 6 19 8 18 9 3 10 4 11 96 12 5 13
REMARK SMILES IDX 95 14 6 15 7 16 8 17 2 19 1 20 9 21 10 22 11 23 12 24 17 25
REMARK SMILES IDX 13 26 16 27 14 28 15 29 26 30 27 31 28 32 29 33 30 34 31 36
REMARK SMILES IDX 32 37 33 38 94 39 34 40 93 41 35 42 36 43 37 44 87 45 38 46
REMARK SMILES IDX 92 47 86 48 88 49 39 50 91 51 85 52 84 53 40 55 72 56 52 57
REMARK SMILES IDX 71 58 53 59 56 60 70 61 89 62 54 63 55 64 69 66 90 67 57 68
REMARK SMILES IDX 41 69 42 70 50 71 43 72 49 73 51 74 48 75 44 76 45 77 46 78
REMARK SMILES IDX 47 79 73 80 74 81 82 82 75 83 81 84 83 85 80 86 76 87 77 88
REMARK SMILES IDX 78 89 79 90 58 91 59 92 67 93 60 94 66 95 68 96 65 97 61 98
REMARK SMILES IDX 62 99 63 100 64 101
REMARK H PARENT 22 7 7 18 29 35 88 54 56 65
REMARK Flexibility Score: inf
ROOT
ATOM      1  C   UNL     1      -1.885   4.401   5.130  1.00  0.00     0.002 C 
ENDROOT
BRANCH   1   2
ATOM      2  C   UNL     1      -1.317   4.254   3.712  1.00  0.00     0.021 C 
BRANCH   2   3
ATOM      3  C   UNL     1      -2.376   4.067   2.626  1.00  0.00     0.116 C 
BRANCH   3   4
ATOM      4  N   UNL     1      -3.153   5.268   2.405  1.00  0.00    -0.356 N 
ATOM      5  C   UNL     1      -3.161   6.126   1.344  1.00  0.00     0.224 C 
ATOM      6  O   UNL     1      -4.055   6.979   1.325  1.00  0.00    -0.275 OA
ATOM      7  H   UNL     1      -3.772   5.503   3.134  1.00  0.00     0.163 HD
BRANCH   5   8
ATOM      8  C   UNL     1      -2.212   5.952   0.163  1.00  0.00     0.138 C 
BRANCH   8   9
ATOM      9  C   UNL     1      -0.744   5.906   0.499  1.00  0.00    -0.002 A 
ATOM     10  C   UNL     1       0.983   2.575  -0.280  1.00  0.00     0.119 A 
ATOM     11  C   UNL     1       2.223   2.922   0.249  1.00  0.00     0.048 A 
ATOM     12  C   UNL     1      -0.060   3.504  -0.306  1.00  0.00     0.057 A 
ATOM     13  C   UNL     1       2.439   4.193   0.797  1.00  0.00     0.030 A 
ATOM     14  C   UNL     1       0.120   4.780   0.270  1.00  0.00     0.008 A 
ATOM     15  C   UNL     1       1.367   5.094   0.799  1.00  0.00     0.046 A 
ATOM     16  N   UNL     1       1.285   6.377   1.281  1.00  0.00    -0.352 N 
ATOM     17  C   UNL     1       0.042   6.926   1.039  1.00  0.00     0.093 A 
ATOM     18  H   UNL     1       2.019   6.845   1.740  1.00  0.00     0.167 HD
BRANCH  10  19
ATOM     19  O   UNL     1       0.704   1.356  -0.839  1.00  0.00    -0.497 OA
ATOM     20  C   UNL     1       1.193   0.248  -0.084  1.00  0.00     0.278 C 
ENDBRANCH  10  19
BRANCH  17  21
ATOM     21  C   UNL     1      -0.341   8.303   1.336  1.00  0.00     0.227 C 
ATOM     22  O   UNL     1      -1.468   8.752   1.130  1.00  0.00    -0.285 OA
BRANCH  21  23
ATOM     23  C   UNL     1       0.686   9.248   1.850  1.00  0.00     0.113 A 
ATOM     24  C   UNL     1       1.779   9.582   1.053  1.00  0.00     0.036 A 
ATOM     25  N   UNL     1       0.469   9.761   3.086  1.00  0.00    -0.253 NA
ATOM     26  C   UNL     1       2.711  10.493   1.553  1.00  0.00    -0.047 A 
ATOM     27  C   UNL     1       1.369  10.658   3.534  1.00  0.00     0.112 A 
ATOM     28  C   UNL     1       3.909  10.901   0.751  1.00  0.00     0.044 C 
ATOM     29  C   UNL     1       2.490  11.048   2.817  1.00  0.00     0.023 A 
ENDBRANCH  21  23
ENDBRANCH  17  21
ENDBRANCH   8   9
ENDBRANCH   5   8
ENDBRANCH   3   4
ENDBRANCH   2   3
ENDBRANCH   1   2
BRANCH   1  30
ATOM     30  C   UNL     1      -2.769   3.246   5.612  1.00  0.00     0.002 C 
BRANCH  30  31
ATOM     31  C   UNL     1      -2.136   1.853   5.535  1.00  0.00     0.021 C 
BRANCH  31  32
ATOM     32  C   UNL     1      -0.867   1.672   6.365  1.00  0.00     0.116 C 
BRANCH  32  33
ATOM     33  N   UNL     1      -1.118   1.812   7.791  1.00  0.00    -0.352 N 
ATOM     34  C   UNL     1      -0.813   0.959   8.823  1.00  0.00     0.251 C 
ATOM     35  H   UNL     1      -1.576   2.643   8.056  1.00  0.00     0.163 HD
ATOM     36  O   UNL     1      -1.277   1.171   9.941  1.00  0.00    -0.269 OA
BRANCH  34  37
ATOM     37  C   UNL     1       0.051  -0.221   8.589  1.00  0.00     0.039 A 
ATOM     38  C   UNL     1      -0.318  -1.448   9.149  1.00  0.00     0.014 A 
ATOM     39  C   UNL     1       1.228  -0.119   7.843  1.00  0.00     0.014 A 
ATOM     40  C   UNL     1       0.458  -2.585   8.905  1.00  0.00     0.010 A 
ATOM     41  C   UNL     1       1.968  -1.264   7.552  1.00  0.00     0.010 A 
ATOM     42  C   UNL     1       1.589  -2.510   8.077  1.00  0.00    -0.014 A 
BRANCH  42  43
ATOM     43  C   UNL     1       2.376  -3.724   7.737  1.00  0.00     0.031 A 
ATOM     44  C   UNL     1       3.800  -3.860   8.202  1.00  0.00     0.074 A 
ATOM     45  C   UNL     1       1.831  -4.668   6.946  1.00  0.00     0.049 A 
ATOM     46  N   UNL     1       4.672  -4.799   7.937  1.00  0.00    -0.248 NA
ATOM     47  C   UNL     1       4.318  -2.780   9.053  1.00  0.00     0.031 C 
ATOM     48  C   UNL     1       0.474  -4.626   6.394  1.00  0.00     0.029 A 
ATOM     49  N   UNL     1       2.352  -5.838   6.454  1.00  0.00    -0.354 N 
ATOM     50  C   UNL     1       5.848  -4.418   8.575  1.00  0.00     0.074 A 
ATOM     51  C   UNL     1       5.587  -3.134   9.194  1.00  0.00     0.031 C 
ATOM     52  C   UNL     1       0.268  -5.725   5.651  1.00  0.00     0.029 A 
ATOM     53  C   UNL     1       1.486  -6.529   5.639  1.00  0.00     0.049 A 
ATOM     54  H   UNL     1       3.261  -6.153   6.664  1.00  0.00     0.167 HD
ATOM     55  C   UNL     1       7.027  -5.085   8.653  1.00  0.00     0.034 A 
ATOM     56  C   UNL     1       1.656  -7.673   4.947  1.00  0.00     0.034 A 
ATOM     57  C   UNL     1       7.264  -6.371   8.041  1.00  0.00     0.049 A 
ATOM     58  C   UNL     1       2.976  -8.393   5.040  1.00  0.00     0.074 A 
ATOM     59  C   UNL     1       8.394  -7.168   8.119  1.00  0.00     0.029 A 
ATOM     60  N   UNL     1       6.361  -7.046   7.230  1.00  0.00    -0.354 N 
ATOM     61  N   UNL     1       4.061  -8.047   5.694  1.00  0.00    -0.248 NA
ATOM     62  C   UNL     1       3.091  -9.660   4.308  1.00  0.00     0.031 C 
ATOM     63  C   UNL     1       8.198  -8.290   7.304  1.00  0.00     0.029 A 
ATOM     64  C   UNL     1       6.920  -8.230   6.773  1.00  0.00     0.049 A 
ATOM     65  H   UNL     1       5.454  -6.730   7.011  1.00  0.00     0.167 HD
ATOM     66  C   UNL     1       4.980  -9.067   5.469  1.00  0.00     0.074 A 
ATOM     67  C   UNL     1       4.316 -10.046   4.632  1.00  0.00     0.031 C 
ATOM     68  C   UNL     1       6.256  -9.186   5.917  1.00  0.00     0.034 A 
BRANCH  55  69
ATOM     69  C   UNL     1       8.154  -4.415   9.402  1.00  0.00     0.023 A 
ATOM     70  C   UNL     1       8.062  -4.129  10.776  1.00  0.00     0.031 A 
ATOM     71  C   UNL     1       9.325  -4.024   8.727  1.00  0.00     0.131 A 
ATOM     72  C   UNL     1       9.081  -3.403  11.411  1.00  0.00     0.055 A 
ATOM     73  C   UNL     1      10.372  -3.374   9.384  1.00  0.00     0.041 A 
ATOM     74  F   UNL     1       9.464  -4.252   7.412  1.00  0.00    -0.206 F 
ATOM     75  C   UNL     1      10.246  -3.044  10.730  1.00  0.00     0.022 A 
BRANCH  72  76
ATOM     76  S   UNL     1       8.792  -2.801  13.098  1.00  0.00     0.124 S 
ATOM     77  O   UNL     1       7.586  -1.996  12.920  1.00  0.00    -0.237 OA
ATOM     78  O   UNL     1       8.629  -4.039  13.850  1.00  0.00    -0.237 OA
ATOM     79  O   UNL     1      10.001  -2.039  13.402  1.00  0.00    -0.744 OA
ENDBRANCH  72  76
ENDBRANCH  55  69
BRANCH  56  80
ATOM     80  C   UNL     1       0.557  -8.204   4.094  1.00  0.00     0.023 A 
ATOM     81  C   UNL     1      -0.095  -9.403   4.417  1.00  0.00     0.031 A 
ATOM     82  C   UNL     1       0.161  -7.527   2.926  1.00  0.00     0.131 A 
ATOM     83  C   UNL     1      -1.085  -9.911   3.562  1.00  0.00     0.055 A 
ATOM     84  C   UNL     1      -0.856  -8.014   2.103  1.00  0.00     0.041 A 
ATOM     85  F   UNL     1       0.748  -6.371   2.579  1.00  0.00    -0.206 F 
ATOM     86  C   UNL     1      -1.478  -9.219   2.414  1.00  0.00     0.022 A 
BRANCH  83  87
ATOM     87  S   UNL     1      -1.812 -11.529   3.941  1.00  0.00     0.124 S 
ATOM     88  O   UNL     1      -0.638 -12.394   3.925  1.00  0.00    -0.237 OA
ATOM     89  O   UNL     1      -2.416 -11.290   5.248  1.00  0.00    -0.237 OA
ATOM     90  O   UNL     1      -2.760 -11.740   2.849  1.00  0.00    -0.744 OA
ENDBRANCH  83  87
ENDBRANCH  56  80
BRANCH  68  91
ATOM     91  C   UNL     1       7.000 -10.438   5.526  1.00  0.00     0.023 A 
ATOM     92  C   UNL     1       7.381 -10.684   4.195  1.00  0.00     0.031 A 
ATOM     93  C   UNL     1       7.314 -11.407   6.495  1.00  0.00     0.131 A 
ATOM     94  C   UNL     1       8.007 -11.893   3.860  1.00  0.00     0.055 A 
ATOM     95  C   UNL     1       7.987 -12.584   6.164  1.00  0.00     0.041 A 
ATOM     96  F   UNL     1       6.972 -11.225   7.780  1.00  0.00    -0.206 F 
ATOM     97  C   UNL     1       8.326 -12.838   4.838  1.00  0.00     0.022 A 
BRANCH  94  98
ATOM     98  S   UNL     1       8.326 -12.253   2.111  1.00  0.00     0.124 S 
ATOM     99  O   UNL     1       6.983 -12.210   1.542  1.00  0.00    -0.237 OA
ATOM    100  O   UNL     1       9.217 -11.164   1.725  1.00  0.00    -0.237 OA
ATOM    101  O   UNL     1       8.945 -13.577   2.140  1.00  0.00    -0.744 OA
ENDBRANCH  94  98
ENDBRANCH  68  91
ENDBRANCH  42  43
ENDBRANCH  34  37
ENDBRANCH  32  33
ENDBRANCH  31  32
ENDBRANCH  30  31
ENDBRANCH   1  30
TORSDOF 20
