REMARK SMILES CCOc1cccc(C(=O)Nc2ccc(Cl)c(C(=O)NCCCCCCNC(=O)c3ccc(-c4c5nc(c(-c6cc(S(=O)(=O)[O-])ccc6F)c6ccc([nH]6)c(-c6cc(S(=O)(=O)[O-])ccc6F)c6nc(c(-c7cc(S(=O)(=O)[O-])ccc7F)c7ccc4[nH]7)C=C6)C=C5)cc3)c2)c1
REMARK SMILES IDX 23 1 22 2 21 3 20 4 18 5 19 6 17 8 12 9 13 10 93 11 14 12
REMARK SMILES IDX 15 13 16 14 11 15 9 16 10 17 8 19 4 20 5 21 94 22 6 23 7 24
REMARK SMILES IDX 3 25 2 26 1 27 24 28 25 29 26 30 27 31 28 32 29 34 30 35
REMARK SMILES IDX 31 36 92 37 32 38 91 39 33 40 34 41 35 42 85 43 36 44 90 45
REMARK SMILES IDX 84 46 86 47 37 48 89 49 83 50 82 51 38 53 70 54 50 55 69 56
REMARK SMILES IDX 51 57 54 58 68 59 87 60 52 61 53 62 67 64 88 65 55 66 39 67
REMARK SMILES IDX 40 68 48 69 41 70 47 71 49 72 46 73 42 74 43 75 44 76 45 77
REMARK SMILES IDX 71 78 72 79 80 80 73 81 79 82 81 83 78 84 74 85 75 86 76 87
REMARK SMILES IDX 77 88 56 89 57 90 65 91 58 92 64 93 66 94 63 95 59 96 60 97
REMARK SMILES IDX 61 98 62 99
REMARK H PARENT 20 7 11 18 27 33 86 52 54 63
REMARK Flexibility Score: inf
ROOT
ATOM      1  C   UNL     1       1.236  -4.878   4.039  1.00  0.00     0.002 C 
ENDROOT
BRANCH   1   2
ATOM      2  C   UNL     1       1.964  -3.584   3.664  1.00  0.00     0.021 C 
BRANCH   2   3
ATOM      3  C   UNL     1       1.474  -3.022   2.330  1.00  0.00     0.116 C 
BRANCH   3   4
ATOM      4  N   UNL     1       0.335  -2.156   2.555  1.00  0.00    -0.352 N 
ATOM      5  C   UNL     1       0.176  -0.806   2.734  1.00  0.00     0.252 C 
ATOM      6  O   UNL     1      -0.921  -0.460   3.170  1.00  0.00    -0.269 OA
ATOM      7  H   UNL     1      -0.518  -2.648   2.586  1.00  0.00     0.163 HD
BRANCH   5   8
ATOM      8  C   UNL     1       1.212   0.220   2.380  1.00  0.00     0.060 A 
ATOM      9  C   UNL     1       3.513   0.805   1.797  1.00  0.00     0.042 A 
ATOM     10  C   UNL     1       3.131   2.107   1.499  1.00  0.00     0.028 A 
ATOM     11  C   UNL     1       2.584  -0.082   2.350  1.00  0.00     0.041 A 
ATOM     12  C   UNL     1       1.791   2.465   1.604  1.00  0.00     0.023 A 
ATOM     13  C   UNL     1       0.827   1.524   2.002  1.00  0.00     0.053 A 
ATOM     14  Cl  UNL     1      -0.810   2.086   1.907  1.00  0.00    -0.083 Cl
BRANCH   9  15
ATOM     15  N   UNL     1       4.823   0.426   1.481  1.00  0.00    -0.322 N 
ATOM     16  C   UNL     1       5.336  -0.740   0.940  1.00  0.00     0.255 C 
ATOM     17  O   UNL     1       6.555  -0.908   0.998  1.00  0.00    -0.269 OA
ATOM     18  H   UNL     1       5.501   1.112   1.679  1.00  0.00     0.170 HD
BRANCH  16  19
ATOM     19  C   UNL     1       4.515  -1.744   0.187  1.00  0.00     0.043 A 
ATOM     20  C   UNL     1       2.502  -2.483  -0.960  1.00  0.00     0.120 A 
ATOM     21  C   UNL     1       3.038  -3.762  -1.094  1.00  0.00     0.046 A 
ATOM     22  C   UNL     1       3.264  -1.465  -0.381  1.00  0.00     0.060 A 
ATOM     23  C   UNL     1       4.330  -4.026  -0.648  1.00  0.00     0.005 A 
ATOM     24  C   UNL     1       5.057  -3.028   0.008  1.00  0.00     0.014 A 
BRANCH  20  25
ATOM     25  O   UNL     1       1.161  -2.365  -1.201  1.00  0.00    -0.494 OA
BRANCH  25  26
ATOM     26  C   UNL     1       0.743  -1.303  -2.056  1.00  0.00     0.226 C 
ATOM     27  C   UNL     1       0.346  -0.054  -1.287  1.00  0.00     0.049 C 
ENDBRANCH  25  26
ENDBRANCH  20  25
ENDBRANCH  16  19
ENDBRANCH   9  15
ENDBRANCH   5   8
ENDBRANCH   3   4
ENDBRANCH   2   3
ENDBRANCH   1   2
BRANCH   1  28
ATOM     28  C   UNL     1       1.532  -6.055   3.100  1.00  0.00     0.002 C 
BRANCH  28  29
ATOM     29  C   UNL     1       3.017  -6.392   2.942  1.00  0.00     0.021 C 
BRANCH  29  30
ATOM     30  C   UNL     1       3.728  -6.704   4.254  1.00  0.00     0.116 C 
BRANCH  30  31
ATOM     31  N   UNL     1       3.131  -7.849   4.924  1.00  0.00    -0.352 N 
ATOM     32  C   UNL     1       3.724  -9.012   5.337  1.00  0.00     0.251 C 
ATOM     33  H   UNL     1       2.166  -7.778   5.106  1.00  0.00     0.163 HD
ATOM     34  O   UNL     1       3.026  -9.977   5.652  1.00  0.00    -0.269 OA
BRANCH  32  35
ATOM     35  C   UNL     1       5.196  -9.104   5.386  1.00  0.00     0.039 A 
ATOM     36  C   UNL     1       5.822 -10.253   4.899  1.00  0.00     0.014 A 
ATOM     37  C   UNL     1       5.956  -8.056   5.915  1.00  0.00     0.014 A 
ATOM     38  C   UNL     1       7.216 -10.328   4.895  1.00  0.00     0.010 A 
ATOM     39  C   UNL     1       7.344  -8.102   5.840  1.00  0.00     0.010 A 
ATOM     40  C   UNL     1       7.989  -9.241   5.336  1.00  0.00    -0.014 A 
BRANCH  40  41
ATOM     41  C   UNL     1       9.473  -9.283   5.286  1.00  0.00     0.031 A 
ATOM     42  C   UNL     1      10.271  -9.222   6.559  1.00  0.00     0.074 A 
ATOM     43  C   UNL     1      10.097  -9.321   4.092  1.00  0.00     0.049 A 
ATOM     44  N   UNL     1      11.568  -9.178   6.722  1.00  0.00    -0.248 NA
ATOM     45  C   UNL     1       9.506  -9.173   7.815  1.00  0.00     0.031 C 
ATOM     46  C   UNL     1       9.427  -9.346   2.790  1.00  0.00     0.029 A 
ATOM     47  N   UNL     1      11.432  -9.339   3.777  1.00  0.00    -0.354 N 
ATOM     48  C   UNL     1      11.775  -9.087   8.095  1.00  0.00     0.074 A 
ATOM     49  C   UNL     1      10.467  -9.014   8.711  1.00  0.00     0.031 C 
ATOM     50  C   UNL     1      10.353  -9.403   1.820  1.00  0.00     0.029 A 
ATOM     51  C   UNL     1      11.681  -9.367   2.425  1.00  0.00     0.049 A 
ATOM     52  H   UNL     1      12.146  -9.331   4.456  1.00  0.00     0.167 HD
ATOM     53  C   UNL     1      12.947  -9.089   8.777  1.00  0.00     0.034 A 
ATOM     54  C   UNL     1      12.847  -9.351   1.748  1.00  0.00     0.034 A 
ATOM     55  C   UNL     1      14.241  -9.168   8.143  1.00  0.00     0.049 A 
ATOM     56  C   UNL     1      14.137  -9.316   2.527  1.00  0.00     0.074 A 
ATOM     57  C   UNL     1      15.489  -9.227   8.737  1.00  0.00     0.029 A 
ATOM     58  N   UNL     1      14.455  -9.186   6.770  1.00  0.00    -0.354 N 
ATOM     59  N   UNL     1      14.317  -9.281   3.827  1.00  0.00    -0.248 NA
ATOM     60  C   UNL     1      15.381  -9.329   1.747  1.00  0.00     0.031 C 
ATOM     61  C   UNL     1      16.458  -9.204   7.728  1.00  0.00     0.029 A 
ATOM     62  C   UNL     1      15.815  -9.220   6.500  1.00  0.00     0.049 A 
ATOM     63  H   UNL     1      13.745  -9.177   6.088  1.00  0.00     0.167 HD
ATOM     64  C   UNL     1      15.696  -9.301   4.020  1.00  0.00     0.074 A 
ATOM     65  C   UNL     1      16.297  -9.367   2.704  1.00  0.00     0.031 C 
ATOM     66  C   UNL     1      16.402  -9.273   5.180  1.00  0.00     0.034 A 
BRANCH  53  67
ATOM     67  C   UNL     1      12.876  -8.973  10.283  1.00  0.00     0.023 A 
ATOM     68  C   UNL     1      12.230  -9.944  11.070  1.00  0.00     0.031 A 
ATOM     69  C   UNL     1      13.435  -7.863  10.941  1.00  0.00     0.131 A 
ATOM     70  C   UNL     1      12.089  -9.748  12.452  1.00  0.00     0.055 A 
ATOM     71  C   UNL     1      13.368  -7.718  12.328  1.00  0.00     0.041 A 
ATOM     72  F   UNL     1      14.044  -6.891  10.244  1.00  0.00    -0.206 F 
ATOM     73  C   UNL     1      12.678  -8.655  13.091  1.00  0.00     0.022 A 
BRANCH  70  74
ATOM     74  S   UNL     1      10.994 -10.860  13.376  1.00  0.00     0.124 S 
ATOM     75  O   UNL     1       9.726 -10.676  12.674  1.00  0.00    -0.237 OA
ATOM     76  O   UNL     1      11.639 -12.155  13.202  1.00  0.00    -0.237 OA
ATOM     77  O   UNL     1      11.028 -10.322  14.735  1.00  0.00    -0.744 OA
ENDBRANCH  70  74
ENDBRANCH  53  67
BRANCH  54  78
ATOM     78  C   UNL     1      12.854  -9.356   0.256  1.00  0.00     0.023 A 
ATOM     79  C   UNL     1      13.411 -10.425  -0.462  1.00  0.00     0.031 A 
ATOM     80  C   UNL     1      12.337  -8.270  -0.474  1.00  0.00     0.131 A 
ATOM     81  C   UNL     1      13.484 -10.365  -1.863  1.00  0.00     0.055 A 
ATOM     82  C   UNL     1      12.360  -8.241  -1.870  1.00  0.00     0.041 A 
ATOM     83  F   UNL     1      11.789  -7.223   0.162  1.00  0.00    -0.206 F 
ATOM     84  C   UNL     1      12.948  -9.288  -2.572  1.00  0.00     0.022 A 
BRANCH  81  85
ATOM     85  S   UNL     1      14.371 -11.680  -2.744  1.00  0.00     0.124 S 
ATOM     86  O   UNL     1      15.696 -11.599  -2.140  1.00  0.00    -0.237 OA
ATOM     87  O   UNL     1      13.580 -12.858  -2.404  1.00  0.00    -0.237 OA
ATOM     88  O   UNL     1      14.295 -11.263  -4.142  1.00  0.00    -0.744 OA
ENDBRANCH  81  85
ENDBRANCH  54  78
BRANCH  66  89
ATOM     89  C   UNL     1      17.906  -9.364   5.071  1.00  0.00     0.023 A 
ATOM     90  C   UNL     1      18.670  -8.346   4.474  1.00  0.00     0.031 A 
ATOM     91  C   UNL     1      18.582 -10.493   5.567  1.00  0.00     0.131 A 
ATOM     92  C   UNL     1      20.057  -8.505   4.335  1.00  0.00     0.055 A 
ATOM     93  C   UNL     1      19.969 -10.615   5.486  1.00  0.00     0.041 A 
ATOM     94  F   UNL     1      17.903 -11.498   6.143  1.00  0.00    -0.206 F 
ATOM     95  C   UNL     1      20.714  -9.623   4.854  1.00  0.00     0.022 A 
BRANCH  92  96
ATOM     96  S   UNL     1      20.983  -7.275   3.375  1.00  0.00     0.124 S 
ATOM     97  O   UNL     1      20.314  -7.335   2.080  1.00  0.00    -0.237 OA
ATOM     98  O   UNL     1      20.771  -6.054   4.146  1.00  0.00    -0.237 OA
ATOM     99  O   UNL     1      22.352  -7.787   3.390  1.00  0.00    -0.744 OA
ENDBRANCH  92  96
ENDBRANCH  66  89
ENDBRANCH  40  41
ENDBRANCH  32  35
ENDBRANCH  30  31
ENDBRANCH  29  30
ENDBRANCH  28  29
ENDBRANCH   1  28
TORSDOF 20
