REMARK SMILES O=C(NCCCCCCNC(=O)c1cc(-c2cccc(Cl)c2)oc1C(F)(F)F)c1ccc(-c2c3nc(c(-c4cc(S(=O)(=O)[O-])ccc4F)c4ccc([nH]4)c(-c4cc(S(=O)(=O)[O-])ccc4F)c4nc(c(-c5cc(S(=O)(=O)[O-])ccc5F)c5ccc2[nH]5)C=C4)C=C3)cc1
REMARK SMILES IDX 5 1 4 2 3 3 1 4 2 5 29 7 30 8 91 9 31 10 90 11 32 12 33 13
REMARK SMILES IDX 34 14 84 15 35 16 89 17 83 18 85 19 36 20 88 21 82 22 81 23
REMARK SMILES IDX 37 25 69 26 49 27 68 28 50 29 53 30 67 31 86 32 51 33 52 34
REMARK SMILES IDX 66 36 87 37 54 38 38 39 39 40 47 41 40 42 46 43 48 44 45 45
REMARK SMILES IDX 41 46 42 47 43 48 44 49 70 50 71 51 79 52 72 53 78 54 80 55
REMARK SMILES IDX 77 56 73 57 74 58 75 59 76 60 55 61 56 62 64 63 57 64 63 65
REMARK SMILES IDX 65 66 62 67 58 68 59 69 60 70 61 71 6 72 7 73 8 74 9 75
REMARK SMILES IDX 10 76 11 77 12 79 13 80 14 81 24 82 15 83 23 84 25 85 26 86
REMARK SMILES IDX 27 87 28 88 16 89 17 90 22 91 18 92 20 93 19 94 21 95
REMARK H PARENT 3 6 85 24 53 35 10 78
REMARK Flexibility Score: inf
ROOT
ATOM      1  C   UNL     1       4.575   0.032  -2.789  1.00  0.00     0.021 C 
ENDROOT
BRANCH   1   2
ATOM      2  C   UNL     1       4.348   0.392  -1.329  1.00  0.00     0.116 C 
BRANCH   2   3
ATOM      3  N   UNL     1       2.939   0.485  -0.979  1.00  0.00    -0.352 N 
ATOM      4  O   UNL     1       1.048  -0.046   0.137  1.00  0.00    -0.269 OA
ATOM      5  C   UNL     1       2.270  -0.117   0.062  1.00  0.00     0.251 C 
ATOM      6  H   UNL     1       2.390   1.055  -1.566  1.00  0.00     0.163 HD
BRANCH   5   7
ATOM      7  C   UNL     1       3.041  -0.871   1.077  1.00  0.00     0.039 A 
ATOM      8  C   UNL     1       4.219  -0.337   1.599  1.00  0.00     0.014 A 
ATOM      9  C   UNL     1       2.602  -2.134   1.486  1.00  0.00     0.014 A 
ATOM     10  C   UNL     1       5.040  -1.126   2.391  1.00  0.00     0.010 A 
ATOM     11  C   UNL     1       3.379  -2.885   2.376  1.00  0.00     0.010 A 
ATOM     12  C   UNL     1       4.621  -2.400   2.813  1.00  0.00    -0.014 A 
BRANCH  12  13
ATOM     13  C   UNL     1       5.483  -3.146   3.769  1.00  0.00     0.031 A 
ATOM     14  C   UNL     1       6.114  -4.462   3.404  1.00  0.00     0.074 A 
ATOM     15  C   UNL     1       5.749  -2.572   4.960  1.00  0.00     0.049 A 
ATOM     16  N   UNL     1       6.944  -5.196   4.102  1.00  0.00    -0.248 NA
ATOM     17  C   UNL     1       5.765  -5.033   2.096  1.00  0.00     0.031 C 
ATOM     18  C   UNL     1       5.176  -1.304   5.424  1.00  0.00     0.029 A 
ATOM     19  N   UNL     1       6.587  -2.945   5.978  1.00  0.00    -0.354 N 
ATOM     20  C   UNL     1       7.217  -6.316   3.323  1.00  0.00     0.074 A 
ATOM     21  C   UNL     1       6.426  -6.183   2.116  1.00  0.00     0.031 C 
ATOM     22  C   UNL     1       5.728  -0.973   6.598  1.00  0.00     0.029 A 
ATOM     23  C   UNL     1       6.629  -2.040   7.014  1.00  0.00     0.049 A 
ATOM     24  H   UNL     1       7.108  -3.780   5.969  1.00  0.00     0.167 HD
ATOM     25  C   UNL     1       8.057  -7.348   3.588  1.00  0.00     0.034 A 
ATOM     26  C   UNL     1       7.299  -2.070   8.181  1.00  0.00     0.034 A 
ATOM     27  C   UNL     1       8.829  -7.467   4.805  1.00  0.00     0.049 A 
ATOM     28  C   UNL     1       8.200  -3.242   8.459  1.00  0.00     0.074 A 
ATOM     29  C   UNL     1       9.707  -8.472   5.177  1.00  0.00     0.029 A 
ATOM     30  N   UNL     1       8.815  -6.553   5.852  1.00  0.00    -0.354 N 
ATOM     31  N   UNL     1       8.450  -4.287   7.704  1.00  0.00    -0.248 NA
ATOM     32  C   UNL     1       8.916  -3.233   9.739  1.00  0.00     0.031 C 
ATOM     33  C   UNL     1      10.172  -8.199   6.468  1.00  0.00     0.029 A 
ATOM     34  C   UNL     1       9.649  -6.983   6.875  1.00  0.00     0.049 A 
ATOM     35  H   UNL     1       8.290  -5.721   5.866  1.00  0.00     0.167 HD
ATOM     36  C   UNL     1       9.360  -5.058   8.418  1.00  0.00     0.074 A 
ATOM     37  C   UNL     1       9.647  -4.333   9.640  1.00  0.00     0.031 C 
ATOM     38  C   UNL     1       9.904  -6.261   8.101  1.00  0.00     0.034 A 
BRANCH  25  39
ATOM     39  C   UNL     1       8.160  -8.448   2.555  1.00  0.00     0.023 A 
ATOM     40  C   UNL     1       8.683  -8.210   1.271  1.00  0.00     0.031 A 
ATOM     41  C   UNL     1       7.731  -9.754   2.857  1.00  0.00     0.131 A 
ATOM     42  C   UNL     1       8.710  -9.243   0.321  1.00  0.00     0.055 A 
ATOM     43  C   UNL     1       7.830 -10.795   1.931  1.00  0.00     0.041 A 
ATOM     44  F   UNL     1       7.205 -10.040   4.058  1.00  0.00    -0.206 F 
ATOM     45  C   UNL     1       8.311 -10.540   0.650  1.00  0.00     0.022 A 
BRANCH  42  46
ATOM     46  S   UNL     1       9.161  -8.838  -1.389  1.00  0.00     0.124 S 
ATOM     47  O   UNL     1       8.148  -7.845  -1.737  1.00  0.00    -0.237 OA
ATOM     48  O   UNL     1      10.523  -8.336  -1.248  1.00  0.00    -0.237 OA
ATOM     49  O   UNL     1       9.036 -10.115  -2.089  1.00  0.00    -0.744 OA
ENDBRANCH  42  46
ENDBRANCH  25  39
BRANCH  26  50
ATOM     50  C   UNL     1       7.106  -0.986   9.187  1.00  0.00     0.023 A 
ATOM     51  C   UNL     1       8.173  -0.179   9.607  1.00  0.00     0.031 A 
ATOM     52  C   UNL     1       5.845  -0.769   9.774  1.00  0.00     0.131 A 
ATOM     53  C   UNL     1       7.972   0.772  10.620  1.00  0.00     0.055 A 
ATOM     54  C   UNL     1       5.636   0.223  10.731  1.00  0.00     0.041 A 
ATOM     55  F   UNL     1       4.787  -1.511   9.407  1.00  0.00    -0.206 F 
ATOM     56  C   UNL     1       6.708   0.990  11.172  1.00  0.00     0.022 A 
BRANCH  53  57
ATOM     57  S   UNL     1       9.414   1.650  11.284  1.00  0.00     0.124 S 
ATOM     58  O   UNL     1      10.281   0.545  11.676  1.00  0.00    -0.237 OA
ATOM     59  O   UNL     1       9.850   2.429  10.130  1.00  0.00    -0.237 OA
ATOM     60  O   UNL     1       8.857   2.430  12.387  1.00  0.00    -0.744 OA
ENDBRANCH  53  57
ENDBRANCH  26  50
BRANCH  38  61
ATOM     61  C   UNL     1      10.880  -6.840   9.096  1.00  0.00     0.023 A 
ATOM     62  C   UNL     1      10.474  -7.217  10.389  1.00  0.00     0.031 A 
ATOM     63  C   UNL     1      12.241  -6.965   8.768  1.00  0.00     0.131 A 
ATOM     64  C   UNL     1      11.430  -7.622  11.331  1.00  0.00     0.055 A 
ATOM     65  C   UNL     1      13.178  -7.436   9.689  1.00  0.00     0.041 A 
ATOM     66  F   UNL     1      12.686  -6.617   7.550  1.00  0.00    -0.206 F 
ATOM     67  C   UNL     1      12.778  -7.750  10.985  1.00  0.00     0.022 A 
BRANCH  64  68
ATOM     68  S   UNL     1      10.907  -7.857  13.053  1.00  0.00     0.124 S 
ATOM     69  O   UNL     1      10.331  -6.555  13.374  1.00  0.00    -0.237 OA
ATOM     70  O   UNL     1       9.962  -8.963  12.942  1.00  0.00    -0.237 OA
ATOM     71  O   UNL     1      12.153  -8.174  13.749  1.00  0.00    -0.744 OA
ENDBRANCH  64  68
ENDBRANCH  38  61
ENDBRANCH  12  13
ENDBRANCH   5   7
ENDBRANCH   2   3
ENDBRANCH   1   2
BRANCH   1  72
ATOM     72  C   UNL     1       4.115   1.087  -3.793  1.00  0.00     0.002 C 
BRANCH  72  73
ATOM     73  C   UNL     1       4.706   2.486  -3.595  1.00  0.00     0.002 C 
BRANCH  73  74
ATOM     74  C   UNL     1       6.235   2.554  -3.517  1.00  0.00     0.021 C 
BRANCH  74  75
ATOM     75  C   UNL     1       6.971   1.921  -4.695  1.00  0.00     0.116 C 
BRANCH  75  76
ATOM     76  N   UNL     1       6.669   2.596  -5.950  1.00  0.00    -0.352 N 
ATOM     77  C   UNL     1       7.530   3.179  -6.839  1.00  0.00     0.255 C 
ATOM     78  H   UNL     1       5.715   2.639  -6.191  1.00  0.00     0.163 HD
ATOM     79  O   UNL     1       7.097   3.858  -7.770  1.00  0.00    -0.269 OA
BRANCH  77  80
ATOM     80  C   UNL     1       8.943   2.959  -6.648  1.00  0.00     0.091 A 
ATOM     81  C   UNL     1       9.630   1.723  -6.509  1.00  0.00     0.065 A 
ATOM     82  C   UNL     1       9.910   3.947  -6.577  1.00  0.00     0.221 A 
ATOM     83  C   UNL     1      10.947   2.029  -6.259  1.00  0.00     0.135 A 
ATOM     84  O   UNL     1      11.132   3.378  -6.306  1.00  0.00    -0.451 OA
BRANCH  82  85
ATOM     85  C   UNL     1       9.858   5.426  -6.686  1.00  0.00     0.450 C 
ATOM     86  F   UNL     1      10.554   6.034  -5.688  1.00  0.00    -0.163 F 
ATOM     87  F   UNL     1      10.389   5.870  -7.856  1.00  0.00    -0.163 F 
ATOM     88  F   UNL     1       8.596   5.921  -6.615  1.00  0.00    -0.163 F 
ENDBRANCH  82  85
BRANCH  83  89
ATOM     89  C   UNL     1      12.101   1.207  -5.951  1.00  0.00     0.019 A 
ATOM     90  C   UNL     1      12.375   0.071  -6.727  1.00  0.00     0.012 A 
ATOM     91  C   UNL     1      12.888   1.474  -4.825  1.00  0.00     0.032 A 
ATOM     92  C   UNL     1      13.412  -0.794  -6.378  1.00  0.00     0.002 A 
ATOM     93  C   UNL     1      13.916   0.598  -4.474  1.00  0.00     0.041 A 
ATOM     94  C   UNL     1      14.178  -0.535  -5.243  1.00  0.00     0.020 A 
ATOM     95  Cl  UNL     1      14.853   0.906  -3.064  1.00  0.00    -0.084 Cl
ENDBRANCH  83  89
ENDBRANCH  77  80
ENDBRANCH  75  76
ENDBRANCH  74  75
ENDBRANCH  73  74
ENDBRANCH  72  73
ENDBRANCH   1  72
TORSDOF 18
