REMARK SMILES CC[C@H](C(=O)NCCCCCCNC(=O)c1ccc(-c2c3nc(c(-c4cc(S(=O)(=O)[O-])ccc4F)c4ccc([nH]4)c(-c4cc(S(=O)(=O)[O-])ccc4F)c4nc(c(-c5cc(S(=O)(=O)[O-])ccc5F)c5ccc2[nH]5)C=C4)C=C3)cc1)N1C(=O)/C(=C\c2cccs2)SC1=S
REMARK SMILES IDX 10 1 9 2 8 3 7 4 6 5 4 6 5 7 3 9 2 10 1 11 79 12 80 13 90 14
REMARK SMILES IDX 81 15 82 16 89 17 91 18 83 19 84 20 85 21 88 22 86 23 87 24
REMARK SMILES IDX 11 25 12 26 13 27 14 28 15 30 16 31 17 32 78 33 18 34 77 35
REMARK SMILES IDX 19 36 20 37 21 38 71 39 22 40 76 41 70 42 72 43 23 44 75 45
REMARK SMILES IDX 69 46 68 47 24 49 56 50 36 51 55 52 37 53 40 54 54 55 73 56
REMARK SMILES IDX 38 57 39 58 53 60 74 61 41 62 25 63 26 64 34 65 27 66 33 67
REMARK SMILES IDX 35 68 32 69 28 70 29 71 30 72 31 73 57 74 58 75 66 76 59 77
REMARK SMILES IDX 65 78 67 79 64 80 60 81 61 82 62 83 63 84 42 85 43 86 51 87
REMARK SMILES IDX 44 88 50 89 52 90 49 91 45 92 46 93 47 94 48 95
REMARK H PARENT 6 8 13 29 72 48 40 59
REMARK Flexibility Score: inf
ROOT
ATOM      1  C   UNL     1       3.136   0.677  -2.847  1.00  0.00     0.002 C 
ENDROOT
BRANCH   1   2
ATOM      2  C   UNL     1       3.357  -0.607  -2.040  1.00  0.00     0.002 C 
BRANCH   2   3
ATOM      3  C   UNL     1       3.581  -0.412  -0.534  1.00  0.00     0.021 C 
BRANCH   3   4
ATOM      4  C   UNL     1       2.438   0.295   0.195  1.00  0.00     0.116 C 
BRANCH   4   5
ATOM      5  N   UNL     1       1.237  -0.522   0.227  1.00  0.00    -0.354 N 
ATOM      6  C   UNL     1       0.514  -0.975   1.294  1.00  0.00     0.243 C 
ATOM      7  O   UNL     1      -0.458  -1.704   1.072  1.00  0.00    -0.273 OA
ATOM      8  H   UNL     1       0.892  -0.791  -0.655  1.00  0.00     0.163 HD
BRANCH   6   9
ATOM      9  C   UNL     1       0.850  -0.478   2.729  1.00  0.00     0.181 C 
BRANCH   9  10
ATOM     10  C   UNL     1       0.121   0.879   2.855  1.00  0.00     0.032 C 
ATOM     11  C   UNL     1      -1.403   0.810   2.751  1.00  0.00     0.006 C 
ENDBRANCH   9  10
BRANCH   9  12
ATOM     12  N   UNL     1       0.549  -1.563   3.701  1.00  0.00    -0.280 N 
ATOM     13  C   UNL     1       1.137  -2.796   3.409  1.00  0.00     0.266 C 
ATOM     14  C   UNL     1       0.091  -1.475   4.995  1.00  0.00     0.149 C 
ATOM     15  O   UNL     1       1.986  -2.968   2.543  1.00  0.00    -0.268 OA
ATOM     16  C   UNL     1       0.704  -3.846   4.375  1.00  0.00     0.081 C 
ATOM     17  S   UNL     1      -0.187  -3.091   5.642  1.00  0.00    -0.054 SA
ATOM     18  S   UNL     1      -0.140  -0.155   5.989  1.00  0.00    -0.052 S 
ATOM     19  C   UNL     1       0.904  -5.171   4.359  1.00  0.00     0.040 C 
BRANCH  19  20
ATOM     20  C   UNL     1       1.628  -5.880   3.363  1.00  0.00     0.028 A 
ATOM     21  C   UNL     1       2.920  -5.705   2.897  1.00  0.00     0.020 A 
ATOM     22  S   UNL     1       0.898  -7.245   2.606  1.00  0.00    -0.144 S 
ATOM     23  C   UNL     1       3.282  -6.643   1.888  1.00  0.00     0.012 A 
ATOM     24  C   UNL     1       2.267  -7.533   1.628  1.00  0.00     0.065 A 
ENDBRANCH  19  20
ENDBRANCH   9  12
ENDBRANCH   6   9
ENDBRANCH   4   5
ENDBRANCH   3   4
ENDBRANCH   2   3
ENDBRANCH   1   2
BRANCH   1  25
ATOM     25  C   UNL     1       4.234   1.736  -2.719  1.00  0.00     0.021 C 
BRANCH  25  26
ATOM     26  C   UNL     1       5.634   1.272  -3.114  1.00  0.00     0.116 C 
BRANCH  26  27
ATOM     27  N   UNL     1       5.724   0.908  -4.519  1.00  0.00    -0.352 N 
ATOM     28  C   UNL     1       6.631   1.316  -5.470  1.00  0.00     0.251 C 
ATOM     29  H   UNL     1       5.037   0.279  -4.835  1.00  0.00     0.163 HD
ATOM     30  O   UNL     1       6.449   1.030  -6.647  1.00  0.00    -0.269 OA
BRANCH  28  31
ATOM     31  C   UNL     1       7.805   2.127  -5.071  1.00  0.00     0.039 A 
ATOM     32  C   UNL     1       8.126   3.264  -5.819  1.00  0.00     0.014 A 
ATOM     33  C   UNL     1       8.584   1.772  -3.966  1.00  0.00     0.014 A 
ATOM     34  C   UNL     1       9.180   4.087  -5.412  1.00  0.00     0.010 A 
ATOM     35  C   UNL     1       9.595   2.625  -3.528  1.00  0.00     0.010 A 
ATOM     36  C   UNL     1       9.898   3.797  -4.241  1.00  0.00    -0.014 A 
BRANCH  36  37
ATOM     37  C   UNL     1      10.953   4.713  -3.731  1.00  0.00     0.031 A 
ATOM     38  C   UNL     1      12.384   4.255  -3.663  1.00  0.00     0.074 A 
ATOM     39  C   UNL     1      10.608   5.927  -3.257  1.00  0.00     0.049 A 
ATOM     40  N   UNL     1      13.424   4.862  -3.152  1.00  0.00    -0.248 NA
ATOM     41  C   UNL     1      12.675   2.926  -4.219  1.00  0.00     0.031 C 
ATOM     42  C   UNL     1       9.248   6.471  -3.239  1.00  0.00     0.029 A 
ATOM     43  N   UNL     1      11.367   6.917  -2.684  1.00  0.00    -0.354 N 
ATOM     44  C   UNL     1      14.492   3.986  -3.312  1.00  0.00     0.074 A 
ATOM     45  C   UNL     1      13.958   2.784  -3.919  1.00  0.00     0.031 C 
ATOM     46  C   UNL     1       9.273   7.699  -2.695  1.00  0.00     0.029 A 
ATOM     47  C   UNL     1      10.638   8.012  -2.283  1.00  0.00     0.049 A 
ATOM     48  H   UNL     1      12.343   6.849  -2.571  1.00  0.00     0.167 HD
ATOM     49  C   UNL     1      15.799   4.173  -2.998  1.00  0.00     0.034 A 
ATOM     50  C   UNL     1      11.019   9.133  -1.638  1.00  0.00     0.034 A 
ATOM     51  C   UNL     1      16.317   5.382  -2.404  1.00  0.00     0.049 A 
ATOM     52  C   UNL     1      12.470   9.304  -1.268  1.00  0.00     0.074 A 
ATOM     53  C   UNL     1      17.631   5.701  -2.105  1.00  0.00     0.029 A 
ATOM     54  N   UNL     1      15.547   6.468  -2.007  1.00  0.00    -0.354 N 
ATOM     55  N   UNL     1      13.476   8.485  -1.469  1.00  0.00    -0.248 NA
ATOM     56  C   UNL     1      12.837  10.554  -0.589  1.00  0.00     0.031 C 
ATOM     57  C   UNL     1      17.647   6.948  -1.470  1.00  0.00     0.029 A 
ATOM     58  C   UNL     1      16.353   7.441  -1.435  1.00  0.00     0.049 A 
ATOM     59  H   UNL     1      14.571   6.537  -2.117  1.00  0.00     0.167 HD
ATOM     60  C   UNL     1      14.599   9.133  -0.963  1.00  0.00     0.074 A 
ATOM     61  C   UNL     1      14.149  10.415  -0.461  1.00  0.00     0.031 C 
ATOM     62  C   UNL     1      15.888   8.709  -0.923  1.00  0.00     0.034 A 
BRANCH  49  63
ATOM     63  C   UNL     1      16.748   3.031  -3.269  1.00  0.00     0.023 A 
ATOM     64  C   UNL     1      16.991   2.566  -4.573  1.00  0.00     0.031 A 
ATOM     65  C   UNL     1      17.404   2.383  -2.207  1.00  0.00     0.131 A 
ATOM     66  C   UNL     1      17.802   1.440  -4.777  1.00  0.00     0.055 A 
ATOM     67  C   UNL     1      18.274   1.312  -2.423  1.00  0.00     0.041 A 
ATOM     68  F   UNL     1      17.198   2.770  -0.939  1.00  0.00    -0.206 F 
ATOM     69  C   UNL     1      18.466   0.825  -3.713  1.00  0.00     0.022 A 
BRANCH  66  70
ATOM     70  S   UNL     1      17.863   0.705  -6.434  1.00  0.00     0.124 S 
ATOM     71  O   UNL     1      16.457   0.386  -6.666  1.00  0.00    -0.237 OA
ATOM     72  O   UNL     1      18.415   1.789  -7.239  1.00  0.00    -0.237 OA
ATOM     73  O   UNL     1      18.738  -0.453  -6.263  1.00  0.00    -0.744 OA
ENDBRANCH  66  70
ENDBRANCH  49  63
BRANCH  50  74
ATOM     74  C   UNL     1      10.015  10.173  -1.276  1.00  0.00     0.023 A 
ATOM     75  C   UNL     1      10.063  11.454  -1.849  1.00  0.00     0.031 A 
ATOM     76  C   UNL     1       9.015   9.914  -0.321  1.00  0.00     0.131 A 
ATOM     77  C   UNL     1       9.158  12.441  -1.431  1.00  0.00     0.055 A 
ATOM     78  C   UNL     1       8.085  10.885   0.055  1.00  0.00     0.041 A 
ATOM     79  F   UNL     1       8.922   8.704   0.253  1.00  0.00    -0.206 F 
ATOM     80  C   UNL     1       8.161  12.162  -0.492  1.00  0.00     0.022 A 
BRANCH  77  81
ATOM     81  S   UNL     1       9.351  14.125  -2.076  1.00  0.00     0.124 S 
ATOM     82  O   UNL     1      10.711  14.448  -1.661  1.00  0.00    -0.237 OA
ATOM     83  O   UNL     1       9.146  13.926  -3.507  1.00  0.00    -0.237 OA
ATOM     84  O   UNL     1       8.296  14.873  -1.395  1.00  0.00    -0.744 OA
ENDBRANCH  77  81
ENDBRANCH  50  74
BRANCH  62  85
ATOM     85  C   UNL     1      16.904   9.662  -0.345  1.00  0.00     0.023 A 
ATOM     86  C   UNL     1      16.916   9.989   1.022  1.00  0.00     0.031 A 
ATOM     87  C   UNL     1      17.868  10.257  -1.178  1.00  0.00     0.131 A 
ATOM     88  C   UNL     1      17.845  10.922   1.508  1.00  0.00     0.055 A 
ATOM     89  C   UNL     1      18.823  11.143  -0.679  1.00  0.00     0.041 A 
ATOM     90  F   UNL     1      17.898   9.982  -2.492  1.00  0.00    -0.206 F 
ATOM     91  C   UNL     1      18.808  11.489   0.669  1.00  0.00     0.022 A 
BRANCH  88  92
ATOM     92  S   UNL     1      17.730  11.444   3.241  1.00  0.00     0.124 S 
ATOM     93  O   UNL     1      16.393  12.027   3.295  1.00  0.00    -0.237 OA
ATOM     94  O   UNL     1      17.907  10.186   3.960  1.00  0.00    -0.237 OA
ATOM     95  O   UNL     1      18.829  12.398   3.385  1.00  0.00    -0.744 OA
ENDBRANCH  88  92
ENDBRANCH  62  85
ENDBRANCH  36  37
ENDBRANCH  28  31
ENDBRANCH  26  27
ENDBRANCH  25  26
ENDBRANCH   1  25
TORSDOF 19
