REMARK SMILES CC[NH2+][C@]1(C(=O)NCCCCCCNC(=O)c2ccc(-c3c4nc(c(-c5cc(S(=O)(=O)[O-])ccc5F)c5ccc([nH]5)c(-c5cc(S(=O)(=O)[O-])ccc5F)c5nc(c(-c6cc(S(=O)(=O)[O-])ccc6F)c6ccc3[nH]6)C=C5)C=C4)cc2)CCC[C@@H]1CCSc1ccccc1F
REMARK SMILES IDX 10 1 9 2 8 3 7 4 5 5 6 6 4 8 80 9 83 10 81 11 82 12 3 13
REMARK SMILES IDX 2 16 1 17 84 18 85 19 86 20 87 21 88 22 92 23 89 24 91 25
REMARK SMILES IDX 93 26 90 27 11 28 12 29 13 30 14 31 15 32 16 34 17 35 18 36
REMARK SMILES IDX 79 37 19 38 78 39 20 40 21 41 22 42 72 43 23 44 77 45 71 46
REMARK SMILES IDX 73 47 24 48 76 49 70 50 69 51 25 53 57 54 37 55 56 56 38 57
REMARK SMILES IDX 41 58 55 59 74 60 39 61 40 62 54 64 75 65 42 66 26 67 27 68
REMARK SMILES IDX 35 69 28 70 34 71 36 72 33 73 29 74 30 75 31 76 32 77 58 78
REMARK SMILES IDX 59 79 67 80 60 81 66 82 68 83 65 84 61 85 62 86 63 87 64 88
REMARK SMILES IDX 43 89 44 90 52 91 45 92 51 93 53 94 50 95 46 96 47 97 48 98
REMARK SMILES IDX 49 99
REMARK H PARENT 7 7 3 14 3 15 14 33 73 52 41 63
REMARK Flexibility Score: inf
ROOT
ATOM      1  C   UNL     1       4.422   0.740   2.328  1.00  0.00     0.002 C 
ENDROOT
BRANCH   1   2
ATOM      2  C   UNL     1       3.002   0.453   1.814  1.00  0.00     0.021 C 
BRANCH   2   3
ATOM      3  C   UNL     1       2.409   1.454   0.829  1.00  0.00     0.116 C 
BRANCH   3   4
ATOM      4  N   UNL     1       1.890   1.079  -0.467  1.00  0.00    -0.351 N 
ATOM      5  C   UNL     1       1.020   1.822  -1.264  1.00  0.00     0.281 C 
ATOM      6  O   UNL     1       0.744   1.342  -2.370  1.00  0.00    -0.268 OA
ATOM      7  H   UNL     1       2.180   0.209  -0.823  1.00  0.00     0.163 HD
BRANCH   5   8
ATOM      8  C   UNL     1       0.488   3.291  -0.835  1.00  0.00     0.178 C 
ATOM      9  C   UNL     1       1.545   4.284  -1.385  1.00  0.00     0.079 C 
ATOM     10  C   UNL     1      -0.851   3.714  -1.564  1.00  0.00     0.061 C 
ATOM     11  C   UNL     1       0.904   5.130  -2.487  1.00  0.00     0.008 C 
ATOM     12  C   UNL     1      -0.592   4.998  -2.348  1.00  0.00     0.011 C 
BRANCH   8  13
ATOM     13  N   UNL     1       0.131   3.267   0.576  1.00  0.00    -0.334 N 
ATOM     14  H   UNL     1      -0.800   3.680   0.628  1.00  0.00     0.347 HD
ATOM     15  H   UNL     1       0.293   2.284   0.790  1.00  0.00     0.347 HD
BRANCH  13  16
ATOM     16  C   UNL     1       0.888   3.893   1.628  1.00  0.00     0.257 C 
ATOM     17  C   UNL     1       0.293   3.493   2.980  1.00  0.00     0.071 C 
ENDBRANCH  13  16
ENDBRANCH   8  13
BRANCH  10  18
ATOM     18  C   UNL     1      -2.188   3.852  -0.755  1.00  0.00     0.022 C 
BRANCH  18  19
ATOM     19  C   UNL     1      -2.364   4.692   0.551  1.00  0.00     0.075 C 
BRANCH  19  20
ATOM     20  S   UNL     1      -2.246   6.540   0.584  1.00  0.00    -0.123 SA
BRANCH  20  21
ATOM     21  C   UNL     1      -0.609   6.906   1.229  1.00  0.00     0.043 A 
ATOM     22  C   UNL     1       0.390   7.228   0.301  1.00  0.00     0.018 A 
ATOM     23  C   UNL     1      -0.250   6.932   2.588  1.00  0.00     0.136 A 
ATOM     24  C   UNL     1       1.724   7.419   0.687  1.00  0.00     0.001 A 
ATOM     25  C   UNL     1       1.081   7.160   2.988  1.00  0.00     0.040 A 
ATOM     26  F   UNL     1      -1.154   6.667   3.543  1.00  0.00    -0.206 F 
ATOM     27  C   UNL     1       2.076   7.369   2.032  1.00  0.00     0.003 A 
ENDBRANCH  20  21
ENDBRANCH  19  20
ENDBRANCH  18  19
ENDBRANCH  10  18
ENDBRANCH   5   8
ENDBRANCH   3   4
ENDBRANCH   2   3
ENDBRANCH   1   2
BRANCH   1  28
ATOM     28  C   UNL     1       4.867   2.182   2.634  1.00  0.00     0.002 C 
BRANCH  28  29
ATOM     29  C   UNL     1       4.183   2.979   3.752  1.00  0.00     0.021 C 
BRANCH  29  30
ATOM     30  C   UNL     1       4.113   2.362   5.149  1.00  0.00     0.116 C 
BRANCH  30  31
ATOM     31  N   UNL     1       5.383   1.830   5.607  1.00  0.00    -0.352 N 
ATOM     32  C   UNL     1       6.128   2.068   6.735  1.00  0.00     0.251 C 
ATOM     33  H   UNL     1       5.787   1.176   4.992  1.00  0.00     0.163 HD
ATOM     34  O   UNL     1       7.246   1.560   6.808  1.00  0.00    -0.269 OA
BRANCH  32  35
ATOM     35  C   UNL     1       5.646   2.930   7.844  1.00  0.00     0.039 A 
ATOM     36  C   UNL     1       6.579   3.745   8.497  1.00  0.00     0.014 A 
ATOM     37  C   UNL     1       4.326   2.903   8.301  1.00  0.00     0.014 A 
ATOM     38  C   UNL     1       6.183   4.569   9.556  1.00  0.00     0.010 A 
ATOM     39  C   UNL     1       3.917   3.772   9.320  1.00  0.00     0.010 A 
ATOM     40  C   UNL     1       4.839   4.618   9.956  1.00  0.00    -0.014 A 
BRANCH  40  41
ATOM     41  C   UNL     1       4.389   5.556  11.024  1.00  0.00     0.031 A 
ATOM     42  C   UNL     1       3.839   5.033  12.324  1.00  0.00     0.074 A 
ATOM     43  C   UNL     1       4.433   6.886  10.802  1.00  0.00     0.049 A 
ATOM     44  N   UNL     1       3.335   5.693  13.337  1.00  0.00    -0.248 NA
ATOM     45  C   UNL     1       3.834   3.574  12.496  1.00  0.00     0.031 C 
ATOM     46  C   UNL     1       4.924   7.519   9.576  1.00  0.00     0.029 A 
ATOM     47  N   UNL     1       4.054   7.945  11.590  1.00  0.00    -0.354 N 
ATOM     48  C   UNL     1       2.944   4.731  14.264  1.00  0.00     0.074 A 
ATOM     49  C   UNL     1       3.220   3.442  13.663  1.00  0.00     0.031 C 
ATOM     50  C   UNL     1       4.834   8.853   9.702  1.00  0.00     0.029 A 
ATOM     51  C   UNL     1       4.233   9.173  10.993  1.00  0.00     0.049 A 
ATOM     52  H   UNL     1       3.689   7.837  12.498  1.00  0.00     0.167 HD
ATOM     53  C   UNL     1       2.421   4.907  15.504  1.00  0.00     0.034 A 
ATOM     54  C   UNL     1       3.933  10.415  11.425  1.00  0.00     0.034 A 
ATOM     55  C   UNL     1       2.155   6.200  16.090  1.00  0.00     0.049 A 
ATOM     56  C   UNL     1       3.311  10.583  12.788  1.00  0.00     0.074 A 
ATOM     57  C   UNL     1       1.673   6.491  17.355  1.00  0.00     0.029 A 
ATOM     58  N   UNL     1       2.335   7.420  15.449  1.00  0.00    -0.354 N 
ATOM     59  N   UNL     1       2.988   9.663  13.669  1.00  0.00    -0.248 NA
ATOM     60  C   UNL     1       3.021  11.956  13.220  1.00  0.00     0.031 C 
ATOM     61  C   UNL     1       1.490   7.875  17.451  1.00  0.00     0.029 A 
ATOM     62  C   UNL     1       1.939   8.460  16.278  1.00  0.00     0.049 A 
ATOM     63  H   UNL     1       2.692   7.530  14.538  1.00  0.00     0.167 HD
ATOM     64  C   UNL     1       2.487  10.352  14.770  1.00  0.00     0.074 A 
ATOM     65  C   UNL     1       2.566  11.762  14.449  1.00  0.00     0.031 C 
ATOM     66  C   UNL     1       2.009   9.863  15.943  1.00  0.00     0.034 A 
BRANCH  53  67
ATOM     67  C   UNL     1       2.073   3.667  16.297  1.00  0.00     0.023 A 
ATOM     68  C   UNL     1       3.054   2.736  16.683  1.00  0.00     0.031 A 
ATOM     69  C   UNL     1       0.740   3.400  16.656  1.00  0.00     0.131 A 
ATOM     70  C   UNL     1       2.679   1.551  17.334  1.00  0.00     0.055 A 
ATOM     71  C   UNL     1       0.384   2.259  17.378  1.00  0.00     0.041 A 
ATOM     72  F   UNL     1      -0.246   4.239  16.299  1.00  0.00    -0.206 F 
ATOM     73  C   UNL     1       1.354   1.318  17.708  1.00  0.00     0.022 A 
BRANCH  70  74
ATOM     74  S   UNL     1       3.926   0.251  17.550  1.00  0.00     0.124 S 
ATOM     75  O   UNL     1       4.334   0.002  16.170  1.00  0.00    -0.237 OA
ATOM     76  O   UNL     1       4.915   0.900  18.402  1.00  0.00    -0.237 OA
ATOM     77  O   UNL     1       3.180  -0.839  18.177  1.00  0.00    -0.744 OA
ENDBRANCH  70  74
ENDBRANCH  53  67
BRANCH  54  78
ATOM     78  C   UNL     1       4.193  11.601  10.557  1.00  0.00     0.023 A 
ATOM     79  C   UNL     1       5.106  12.595  10.943  1.00  0.00     0.031 A 
ATOM     80  C   UNL     1       3.496  11.781   9.348  1.00  0.00     0.131 A 
ATOM     81  C   UNL     1       5.263  13.745  10.155  1.00  0.00     0.055 A 
ATOM     82  C   UNL     1       3.698  12.900   8.539  1.00  0.00     0.041 A 
ATOM     83  F   UNL     1       2.613  10.860   8.929  1.00  0.00    -0.206 F 
ATOM     84  C   UNL     1       4.576  13.898   8.948  1.00  0.00     0.022 A 
BRANCH  81  85
ATOM     85  S   UNL     1       6.316  15.085  10.777  1.00  0.00     0.124 S 
ATOM     86  O   UNL     1       5.678  15.397  12.050  1.00  0.00    -0.237 OA
ATOM     87  O   UNL     1       7.619  14.437  10.851  1.00  0.00    -0.237 OA
ATOM     88  O   UNL     1       6.193  16.119   9.747  1.00  0.00    -0.744 OA
ENDBRANCH  81  85
ENDBRANCH  54  78
BRANCH  66  89
ATOM     89  C   UNL     1       1.576  10.871  16.982  1.00  0.00     0.023 A 
ATOM     90  C   UNL     1       0.473  11.719  16.781  1.00  0.00     0.031 A 
ATOM     91  C   UNL     1       2.291  10.994  18.188  1.00  0.00     0.131 A 
ATOM     92  C   UNL     1       0.152  12.690  17.742  1.00  0.00     0.055 A 
ATOM     93  C   UNL     1       1.927  11.918  19.169  1.00  0.00     0.041 A 
ATOM     94  F   UNL     1       3.356  10.214  18.433  1.00  0.00    -0.206 F 
ATOM     95  C   UNL     1       0.861  12.783  18.942  1.00  0.00     0.022 A 
BRANCH  92  96
ATOM     96  S   UNL     1      -1.145  13.900  17.360  1.00  0.00     0.124 S 
ATOM     97  O   UNL     1      -0.632  14.520  16.142  1.00  0.00    -0.237 OA
ATOM     98  O   UNL     1      -2.323  13.054  17.197  1.00  0.00    -0.237 OA
ATOM     99  O   UNL     1      -1.163  14.767  18.536  1.00  0.00    -0.744 OA
ENDBRANCH  92  96
ENDBRANCH  66  89
ENDBRANCH  40  41
ENDBRANCH  32  35
ENDBRANCH  30  31
ENDBRANCH  29  30
ENDBRANCH  28  29
ENDBRANCH   1  28
TORSDOF 22
