REMARK SMILES CCOc1ccc(C[N@H+]2CC[NH2+][C@H](C(=O)NCCCCCCNC(=O)c3ccc(-c4c5nc(c(-c6cc(S(=O)(=O)[O-])ccc6F)c6ccc([nH]6)c(-c6cc(S(=O)(=O)[O-])ccc6F)c6nc(c(-c7cc(S(=O)(=O)[O-])ccc7F)c7ccc4[nH]7)C=C6)C=C5)cc3)C2)c(OCC)c1C
REMARK SMILES IDX 19 1 18 2 17 3 16 4 14 5 15 6 13 8 9 9 10 10 89 11 11 13
REMARK SMILES IDX 12 14 8 17 7 18 4 19 5 20 94 21 6 22 90 23 95 24 3 25 2 26
REMARK SMILES IDX 1 27 91 28 92 29 93 30 20 31 21 32 22 33 23 34 24 35 25 37
REMARK SMILES IDX 26 38 27 39 88 40 28 41 87 42 29 43 30 44 31 45 81 46 32 47
REMARK SMILES IDX 86 48 80 49 82 50 33 51 85 52 79 53 78 54 34 56 66 57 46 58
REMARK SMILES IDX 65 59 47 60 50 61 64 62 83 63 48 64 49 65 63 67 84 68 51 69
REMARK SMILES IDX 35 70 36 71 44 72 37 73 43 74 45 75 42 76 38 77 39 78 40 79
REMARK SMILES IDX 41 80 67 81 68 82 76 83 69 84 75 85 77 86 74 87 70 88 71 89
REMARK SMILES IDX 72 90 73 91 52 92 53 93 61 94 54 95 60 96 62 97 59 98 55 99
REMARK SMILES IDX 56 100 57 101 58 102
REMARK H PARENT 16 7 9 12 12 15 12 16 23 36 82 55 50 66
REMARK Flexibility Score: inf
ROOT
ATOM      1  C   UNL     1       1.732   6.940  -6.130  1.00  0.00     0.002 C 
ENDROOT
BRANCH   1   2
ATOM      2  C   UNL     1       2.944   6.004  -6.142  1.00  0.00     0.021 C 
BRANCH   2   3
ATOM      3  C   UNL     1       4.218   6.585  -5.538  1.00  0.00     0.116 C 
BRANCH   3   4
ATOM      4  N   UNL     1       4.109   6.835  -4.128  1.00  0.00    -0.351 N 
ATOM      5  C   UNL     1       4.400   6.050  -3.068  1.00  0.00     0.284 C 
ATOM      6  O   UNL     1       4.339   6.604  -1.960  1.00  0.00    -0.268 OA
ATOM      7  H   UNL     1       3.766   7.728  -3.895  1.00  0.00     0.163 HD
BRANCH   5   8
ATOM      8  C   UNL     1       4.891   4.601  -3.160  1.00  0.00     0.328 C 
ATOM      9  N   UNL     1       6.914   3.195  -2.615  1.00  0.00    -0.321 N 
ATOM     10  C   UNL     1       6.391   2.217  -3.595  1.00  0.00     0.324 C 
ATOM     11  C   UNL     1       6.415   4.541  -2.953  1.00  0.00     0.339 C 
ATOM     12  H   UNL     1       7.930   3.201  -2.712  1.00  0.00     0.348 HD
ATOM     13  C   UNL     1       4.916   2.393  -4.073  1.00  0.00     0.323 C 
ATOM     14  N   UNL     1       4.519   3.792  -4.348  1.00  0.00    -0.327 N 
ATOM     15  H   UNL     1       3.513   3.844  -4.505  1.00  0.00     0.347 HD
ATOM     16  H   UNL     1       4.989   4.141  -5.184  1.00  0.00     0.347 HD
BRANCH   9  17
ATOM     17  C   UNL     1       6.812   2.814  -1.182  1.00  0.00     0.303 C 
BRANCH  17  18
ATOM     18  C   UNL     1       5.434   2.563  -0.591  1.00  0.00     0.049 A 
ATOM     19  C   UNL     1       2.686   1.991  -0.369  1.00  0.00     0.125 A 
ATOM     20  C   UNL     1       3.558   0.988  -0.754  1.00  0.00     0.047 A 
ATOM     21  C   UNL     1       3.174   3.239   0.044  1.00  0.00     0.034 A 
ATOM     22  C   UNL     1       4.915   1.271  -0.854  1.00  0.00     0.017 A 
ATOM     23  C   UNL     1       4.577   3.504   0.021  1.00  0.00     0.134 A 
ATOM     24  C   UNL     1       2.195   4.370   0.282  1.00  0.00     0.052 C 
BRANCH  19  25
ATOM     25  O   UNL     1       1.349   1.796  -0.592  1.00  0.00    -0.493 OA
BRANCH  25  26
ATOM     26  C   UNL     1       0.673   1.222   0.526  1.00  0.00     0.226 C 
ATOM     27  C   UNL     1       0.605  -0.289   0.396  1.00  0.00     0.049 C 
ENDBRANCH  25  26
ENDBRANCH  19  25
BRANCH  23  28
ATOM     28  O   UNL     1       4.856   4.709   0.595  1.00  0.00    -0.493 OA
BRANCH  28  29
ATOM     29  C   UNL     1       6.087   5.396   0.577  1.00  0.00     0.226 C 
ATOM     30  C   UNL     1       7.015   4.974   1.698  1.00  0.00     0.049 C 
ENDBRANCH  28  29
ENDBRANCH  23  28
ENDBRANCH  17  18
ENDBRANCH   9  17
ENDBRANCH   5   8
ENDBRANCH   3   4
ENDBRANCH   2   3
ENDBRANCH   1   2
BRANCH   1  31
ATOM     31  C   UNL     1       1.951   8.355  -6.678  1.00  0.00     0.002 C 
BRANCH  31  32
ATOM     32  C   UNL     1       2.709   8.475  -8.000  1.00  0.00     0.021 C 
BRANCH  32  33
ATOM     33  C   UNL     1       2.123   7.663  -9.147  1.00  0.00     0.116 C 
BRANCH  33  34
ATOM     34  N   UNL     1       1.636   8.485 -10.245  1.00  0.00    -0.352 N 
ATOM     35  C   UNL     1       1.177   8.079 -11.486  1.00  0.00     0.251 C 
ATOM     36  H   UNL     1       1.633   9.456 -10.084  1.00  0.00     0.163 HD
ATOM     37  O   UNL     1       0.803   8.876 -12.326  1.00  0.00    -0.269 OA
BRANCH  35  38
ATOM     38  C   UNL     1       1.014   6.624 -11.721  1.00  0.00     0.039 A 
ATOM     39  C   UNL     1      -0.279   6.174 -12.007  1.00  0.00     0.014 A 
ATOM     40  C   UNL     1       2.033   5.721 -11.423  1.00  0.00     0.014 A 
ATOM     41  C   UNL     1      -0.603   4.843 -11.769  1.00  0.00     0.010 A 
ATOM     42  C   UNL     1       1.695   4.417 -11.110  1.00  0.00     0.010 A 
ATOM     43  C   UNL     1       0.363   4.001 -11.216  1.00  0.00    -0.014 A 
BRANCH  43  44
ATOM     44  C   UNL     1       0.018   2.719 -10.611  1.00  0.00     0.031 A 
ATOM     45  C   UNL     1       0.219   1.462 -11.355  1.00  0.00     0.074 A 
ATOM     46  C   UNL     1      -0.549   2.689  -9.385  1.00  0.00     0.049 A 
ATOM     47  N   UNL     1      -0.463   0.383 -11.167  1.00  0.00    -0.248 NA
ATOM     48  C   UNL     1       1.157   1.363 -12.465  1.00  0.00     0.031 C 
ATOM     49  C   UNL     1      -0.829   1.517  -8.561  1.00  0.00     0.029 A 
ATOM     50  N   UNL     1      -1.249   3.725  -8.771  1.00  0.00    -0.354 N 
ATOM     51  C   UNL     1       0.115  -0.619 -11.913  1.00  0.00     0.074 A 
ATOM     52  C   UNL     1       1.021   0.075 -12.794  1.00  0.00     0.031 C 
ATOM     53  C   UNL     1      -1.829   1.814  -7.717  1.00  0.00     0.029 A 
ATOM     54  C   UNL     1      -2.310   3.142  -8.059  1.00  0.00     0.049 A 
ATOM     55  H   UNL     1      -1.039   4.686  -8.825  1.00  0.00     0.167 HD
ATOM     56  C   UNL     1      -0.149  -1.918 -11.588  1.00  0.00     0.034 A 
ATOM     57  C   UNL     1      -3.605   3.461  -8.342  1.00  0.00     0.034 A 
ATOM     58  C   UNL     1      -1.277  -2.007 -10.649  1.00  0.00     0.049 A 
ATOM     59  C   UNL     1      -4.439   2.280  -8.787  1.00  0.00     0.074 A 
ATOM     60  C   UNL     1      -1.369  -2.267  -9.292  1.00  0.00     0.029 A 
ATOM     61  N   UNL     1      -2.534  -1.547 -11.042  1.00  0.00    -0.354 N 
ATOM     62  N   UNL     1      -3.952   1.132  -9.176  1.00  0.00    -0.248 NA
ATOM     63  C   UNL     1      -5.896   2.318  -8.853  1.00  0.00     0.031 C 
ATOM     64  C   UNL     1      -2.666  -1.879  -8.857  1.00  0.00     0.029 A 
ATOM     65  C   UNL     1      -3.379  -1.424  -9.954  1.00  0.00     0.049 A 
ATOM     66  H   UNL     1      -2.787  -1.338 -11.970  1.00  0.00     0.167 HD
ATOM     67  C   UNL     1      -4.977   0.310  -9.580  1.00  0.00     0.074 A 
ATOM     68  C   UNL     1      -6.176   1.089  -9.316  1.00  0.00     0.031 C 
ATOM     69  C   UNL     1      -4.745  -0.928 -10.116  1.00  0.00     0.034 A 
BRANCH  56  70
ATOM     70  C   UNL     1       0.768  -3.103 -11.891  1.00  0.00     0.023 A 
ATOM     71  C   UNL     1       0.587  -4.309 -11.171  1.00  0.00     0.031 A 
ATOM     72  C   UNL     1       1.886  -3.106 -12.754  1.00  0.00     0.131 A 
ATOM     73  C   UNL     1       1.503  -5.380 -11.266  1.00  0.00     0.055 A 
ATOM     74  C   UNL     1       2.796  -4.168 -12.848  1.00  0.00     0.041 A 
ATOM     75  F   UNL     1       2.177  -2.094 -13.572  1.00  0.00    -0.206 F 
ATOM     76  C   UNL     1       2.618  -5.309 -12.093  1.00  0.00     0.022 A 
BRANCH  73  77
ATOM     77  S   UNL     1       1.256  -6.866 -10.253  1.00  0.00     0.124 S 
ATOM     78  O   UNL     1       1.304  -6.327  -8.898  1.00  0.00    -0.237 OA
ATOM     79  O   UNL     1      -0.040  -7.346 -10.718  1.00  0.00    -0.237 OA
ATOM     80  O   UNL     1       2.392  -7.715 -10.615  1.00  0.00    -0.744 OA
ENDBRANCH  73  77
ENDBRANCH  56  70
BRANCH  57  81
ATOM     81  C   UNL     1      -3.786   4.865  -8.811  1.00  0.00     0.023 A 
ATOM     82  C   UNL     1      -3.376   5.906  -7.949  1.00  0.00     0.031 A 
ATOM     83  C   UNL     1      -3.995   5.177 -10.161  1.00  0.00     0.131 A 
ATOM     84  C   UNL     1      -3.053   7.169  -8.466  1.00  0.00     0.055 A 
ATOM     85  C   UNL     1      -3.721   6.455 -10.664  1.00  0.00     0.041 A 
ATOM     86  F   UNL     1      -4.351   4.225 -11.036  1.00  0.00    -0.206 F 
ATOM     87  C   UNL     1      -3.207   7.444  -9.825  1.00  0.00     0.022 A 
BRANCH  84  88
ATOM     88  S   UNL     1      -2.200   8.379  -7.412  1.00  0.00     0.124 S 
ATOM     89  O   UNL     1      -3.294   9.250  -6.998  1.00  0.00    -0.237 OA
ATOM     90  O   UNL     1      -1.618   7.552  -6.358  1.00  0.00    -0.237 OA
ATOM     91  O   UNL     1      -1.223   8.977  -8.319  1.00  0.00    -0.744 OA
ENDBRANCH  84  88
ENDBRANCH  57  81
BRANCH  69  92
ATOM     92  C   UNL     1      -5.789  -1.822 -10.767  1.00  0.00     0.023 A 
ATOM     93  C   UNL     1      -7.057  -1.377 -11.173  1.00  0.00     0.031 A 
ATOM     94  C   UNL     1      -5.503  -3.178 -11.065  1.00  0.00     0.131 A 
ATOM     95  C   UNL     1      -8.001  -2.258 -11.738  1.00  0.00     0.055 A 
ATOM     96  C   UNL     1      -6.412  -4.032 -11.701  1.00  0.00     0.041 A 
ATOM     97  F   UNL     1      -4.322  -3.736 -10.759  1.00  0.00    -0.206 F 
ATOM     98  C   UNL     1      -7.680  -3.580 -12.024  1.00  0.00     0.022 A 
BRANCH  95  99
ATOM     99  S   UNL     1      -9.685  -1.647 -12.024  1.00  0.00     0.124 S 
ATOM    100  O   UNL     1     -10.118  -1.316 -10.669  1.00  0.00    -0.237 OA
ATOM    101  O   UNL     1      -9.460  -0.511 -12.911  1.00  0.00    -0.237 OA
ATOM    102  O   UNL     1     -10.368  -2.786 -12.632  1.00  0.00    -0.744 OA
ENDBRANCH  95  99
ENDBRANCH  69  92
ENDBRANCH  43  44
ENDBRANCH  35  38
ENDBRANCH  33  34
ENDBRANCH  32  33
ENDBRANCH  31  32
ENDBRANCH   1  31
TORSDOF 22
