REMARK SMILES CCCC1(CCC)C[NH+]([C@H]2C=C[C@@H](C(=O)NCCCCCCNC(=O)c3ccc(-c4c5nc(c(-c6cc(S(=O)(=O)[O-])ccc6F)c6ccc([nH]6)c(-c6cc(S(=O)(=O)[O-])ccc6F)c6nc(c(-c7cc(S(=O)(=O)[O-])ccc7F)c7ccc4[nH]7)C=C6)C=C5)cc3)C2)C1
REMARK SMILES IDX 19 1 18 2 17 3 16 4 14 5 15 6 13 8 10 9 11 10 89 11 12 12
REMARK SMILES IDX 9 13 4 14 8 15 90 16 3 18 2 19 1 20 5 21 6 22 7 23 20 24
REMARK SMILES IDX 21 25 22 26 23 27 24 28 25 30 26 31 27 32 88 33 28 34 87 35
REMARK SMILES IDX 29 36 30 37 31 38 81 39 32 40 86 41 80 42 82 43 33 44 85 45
REMARK SMILES IDX 79 46 78 47 34 49 66 50 46 51 65 52 47 53 50 54 64 55 83 56
REMARK SMILES IDX 48 57 49 58 63 60 84 61 51 62 35 63 36 64 44 65 37 66 43 67
REMARK SMILES IDX 45 68 42 69 38 70 39 71 40 72 41 73 67 74 68 75 76 76 69 77
REMARK SMILES IDX 75 78 77 79 74 80 70 81 71 82 72 83 73 84 52 85 53 86 61 87
REMARK SMILES IDX 54 88 60 89 62 90 59 91 55 92 56 93 57 94 58 95
REMARK H PARENT 16 7 9 17 23 29 82 48 50 59
REMARK Flexibility Score: inf
ROOT
ATOM      1  C   UNL     1       5.278   2.712   0.112  1.00  0.00     0.002 C 
ENDROOT
BRANCH   1   2
ATOM      2  C   UNL     1       4.004   3.557   0.107  1.00  0.00     0.021 C 
BRANCH   2   3
ATOM      3  C   UNL     1       3.776   4.424  -1.135  1.00  0.00     0.116 C 
BRANCH   3   4
ATOM      4  N   UNL     1       3.211   3.672  -2.245  1.00  0.00    -0.356 N 
ATOM      5  C   UNL     1       2.051   3.751  -2.949  1.00  0.00     0.227 C 
ATOM      6  O   UNL     1       1.911   2.901  -3.841  1.00  0.00    -0.274 OA
ATOM      7  H   UNL     1       3.798   2.945  -2.554  1.00  0.00     0.163 HD
BRANCH   5   8
ATOM      8  C   UNL     1       0.913   4.773  -2.729  1.00  0.00     0.107 C 
ATOM      9  C   UNL     1      -0.685   4.741  -0.799  1.00  0.00     0.208 C 
ATOM     10  C   UNL     1       0.231   5.937  -0.799  1.00  0.00     0.033 C 
ATOM     11  C   UNL     1      -0.384   4.128  -2.190  1.00  0.00     0.087 C 
ATOM     12  C   UNL     1       1.075   5.955  -1.839  1.00  0.00    -0.012 C 
BRANCH   9  13
ATOM     13  N   UNL     1      -0.660   3.987   0.461  1.00  0.00    -0.328 N 
ATOM     14  C   UNL     1       0.171   1.992   0.680  1.00  0.00     0.068 C 
ATOM     15  C   UNL     1      -1.236   2.647   0.393  1.00  0.00     0.275 C 
ATOM     16  C   UNL     1       0.625   3.477   0.916  1.00  0.00     0.275 C 
ATOM     17  H   UNL     1      -1.110   4.708   1.025  1.00  0.00     0.348 HD
BRANCH  14  18
ATOM     18  C   UNL     1       0.149   1.145   1.961  1.00  0.00     0.018 C 
BRANCH  18  19
ATOM     19  C   UNL     1      -0.778  -0.078   1.971  1.00  0.00    -0.002 C 
ATOM     20  C   UNL     1      -0.829  -0.968   0.743  1.00  0.00     0.004 C 
ENDBRANCH  18  19
ENDBRANCH  14  18
BRANCH  14  21
ATOM     21  C   UNL     1       0.789   1.355  -0.584  1.00  0.00     0.018 C 
BRANCH  21  22
ATOM     22  C   UNL     1       2.047   0.477  -0.625  1.00  0.00    -0.002 C 
ATOM     23  C   UNL     1       2.737  -0.049   0.611  1.00  0.00     0.004 C 
ENDBRANCH  21  22
ENDBRANCH  14  21
ENDBRANCH   9  13
ENDBRANCH   5   8
ENDBRANCH   3   4
ENDBRANCH   2   3
ENDBRANCH   1   2
BRANCH   1  24
ATOM     24  C   UNL     1       6.351   3.176   1.103  1.00  0.00     0.002 C 
BRANCH  24  25
ATOM     25  C   UNL     1       5.912   3.415   2.557  1.00  0.00     0.021 C 
BRANCH  25  26
ATOM     26  C   UNL     1       5.096   2.303   3.214  1.00  0.00     0.116 C 
BRANCH  26  27
ATOM     27  N   UNL     1       5.865   1.085   3.394  1.00  0.00    -0.352 N 
ATOM     28  C   UNL     1       6.424   0.562   4.537  1.00  0.00     0.251 C 
ATOM     29  H   UNL     1       6.009   0.555   2.577  1.00  0.00     0.163 HD
ATOM     30  O   UNL     1       7.241  -0.349   4.446  1.00  0.00    -0.269 OA
BRANCH  28  31
ATOM     31  C   UNL     1       6.063   1.103   5.870  1.00  0.00     0.039 A 
ATOM     32  C   UNL     1       7.083   1.369   6.786  1.00  0.00     0.014 A 
ATOM     33  C   UNL     1       4.729   1.305   6.236  1.00  0.00     0.014 A 
ATOM     34  C   UNL     1       6.770   1.890   8.046  1.00  0.00     0.010 A 
ATOM     35  C   UNL     1       4.423   1.885   7.471  1.00  0.00     0.010 A 
ATOM     36  C   UNL     1       5.439   2.180   8.392  1.00  0.00    -0.014 A 
BRANCH  36  37
ATOM     37  C   UNL     1       5.119   2.796   9.710  1.00  0.00     0.031 A 
ATOM     38  C   UNL     1       4.309   2.046  10.735  1.00  0.00     0.074 A 
ATOM     39  C   UNL     1       5.535   4.051   9.975  1.00  0.00     0.049 A 
ATOM     40  N   UNL     1       3.954   2.413  11.941  1.00  0.00    -0.248 NA
ATOM     41  C   UNL     1       3.808   0.722  10.341  1.00  0.00     0.031 C 
ATOM     42  C   UNL     1       6.272   4.907   9.043  1.00  0.00     0.029 A 
ATOM     43  N   UNL     1       5.402   4.827  11.100  1.00  0.00    -0.354 N 
ATOM     44  C   UNL     1       3.184   1.370  12.448  1.00  0.00     0.074 A 
ATOM     45  C   UNL     1       3.072   0.387  11.391  1.00  0.00     0.031 C 
ATOM     46  C   UNL     1       6.550   6.075   9.643  1.00  0.00     0.029 A 
ATOM     47  C   UNL     1       5.986   6.068  10.990  1.00  0.00     0.049 A 
ATOM     48  H   UNL     1       4.931   4.523  11.910  1.00  0.00     0.167 HD
ATOM     49  C   UNL     1       2.641   1.235  13.685  1.00  0.00     0.034 A 
ATOM     50  C   UNL     1       6.063   7.085  11.871  1.00  0.00     0.034 A 
ATOM     51  C   UNL     1       2.767   2.223  14.732  1.00  0.00     0.049 A 
ATOM     52  C   UNL     1       5.467   6.907  13.244  1.00  0.00     0.074 A 
ATOM     53  C   UNL     1       2.313   2.159  16.039  1.00  0.00     0.029 A 
ATOM     54  N   UNL     1       3.381   3.462  14.590  1.00  0.00    -0.354 N 
ATOM     55  N   UNL     1       4.811   5.881  13.734  1.00  0.00    -0.248 NA
ATOM     56  C   UNL     1       5.645   8.017  14.189  1.00  0.00     0.031 C 
ATOM     57  C   UNL     1       2.589   3.381  16.662  1.00  0.00     0.029 A 
ATOM     58  C   UNL     1       3.290   4.181  15.774  1.00  0.00     0.049 A 
ATOM     59  H   UNL     1       3.818   3.783  13.768  1.00  0.00     0.167 HD
ATOM     60  C   UNL     1       4.523   6.211  15.056  1.00  0.00     0.074 A 
ATOM     61  C   UNL     1       5.098   7.521  15.289  1.00  0.00     0.031 C 
ATOM     62  C   UNL     1       3.848   5.496  15.993  1.00  0.00     0.034 A 
BRANCH  49  63
ATOM     63  C   UNL     1       1.838  -0.018  13.959  1.00  0.00     0.023 A 
ATOM     64  C   UNL     1       2.417  -1.298  13.899  1.00  0.00     0.031 A 
ATOM     65  C   UNL     1       0.466   0.065  14.258  1.00  0.00     0.131 A 
ATOM     66  C   UNL     1       1.616  -2.441  14.051  1.00  0.00     0.055 A 
ATOM     67  C   UNL     1      -0.309  -1.073  14.493  1.00  0.00     0.041 A 
ATOM     68  F   UNL     1      -0.152   1.256  14.312  1.00  0.00    -0.206 F 
ATOM     69  C   UNL     1       0.262  -2.337  14.373  1.00  0.00     0.022 A 
BRANCH  66  70
ATOM     70  S   UNL     1       2.336  -4.061  13.667  1.00  0.00     0.124 S 
ATOM     71  O   UNL     1       2.764  -3.874  12.283  1.00  0.00    -0.237 OA
ATOM     72  O   UNL     1       3.402  -4.175  14.655  1.00  0.00    -0.237 OA
ATOM     73  O   UNL     1       1.218  -4.985  13.846  1.00  0.00    -0.744 OA
ENDBRANCH  66  70
ENDBRANCH  49  63
BRANCH  50  74
ATOM     74  C   UNL     1       6.731   8.363  11.488  1.00  0.00     0.023 A 
ATOM     75  C   UNL     1       7.910   8.787  12.121  1.00  0.00     0.031 A 
ATOM     76  C   UNL     1       6.178   9.196  10.499  1.00  0.00     0.131 A 
ATOM     77  C   UNL     1       8.473  10.030  11.792  1.00  0.00     0.055 A 
ATOM     78  C   UNL     1       6.770  10.407  10.139  1.00  0.00     0.041 A 
ATOM     79  F   UNL     1       5.056   8.834   9.857  1.00  0.00    -0.206 F 
ATOM     80  C   UNL     1       7.918  10.837  10.796  1.00  0.00     0.022 A 
BRANCH  77  81
ATOM     81  S   UNL     1       9.904  10.617  12.740  1.00  0.00     0.124 S 
ATOM     82  O   UNL     1       9.377  10.626  14.100  1.00  0.00    -0.237 OA
ATOM     83  O   UNL     1      10.902   9.594  12.445  1.00  0.00    -0.237 OA
ATOM     84  O   UNL     1      10.176  11.933  12.166  1.00  0.00    -0.744 OA
ENDBRANCH  77  81
ENDBRANCH  50  74
BRANCH  62  85
ATOM     85  C   UNL     1       3.733   6.109  17.369  1.00  0.00     0.023 A 
ATOM     86  C   UNL     1       3.022   7.301  17.594  1.00  0.00     0.031 A 
ATOM     87  C   UNL     1       4.378   5.511  18.467  1.00  0.00     0.131 A 
ATOM     88  C   UNL     1       3.033   7.896  18.865  1.00  0.00     0.055 A 
ATOM     89  C   UNL     1       4.328   6.071  19.745  1.00  0.00     0.041 A 
ATOM     90  F   UNL     1       5.075   4.374  18.314  1.00  0.00    -0.206 F 
ATOM     91  C   UNL     1       3.668   7.279  19.946  1.00  0.00     0.022 A 
BRANCH  88  92
ATOM     92  S   UNL     1       2.312   9.549  19.060  1.00  0.00     0.124 S 
ATOM     93  O   UNL     1       3.046  10.320  18.061  1.00  0.00    -0.237 OA
ATOM     94  O   UNL     1       0.902   9.310  18.771  1.00  0.00    -0.237 OA
ATOM     95  O   UNL     1       2.611   9.892  20.449  1.00  0.00    -0.744 OA
ENDBRANCH  88  92
ENDBRANCH  62  85
ENDBRANCH  36  37
ENDBRANCH  28  31
ENDBRANCH  26  27
ENDBRANCH  25  26
ENDBRANCH  24  25
ENDBRANCH   1  24
TORSDOF 21
