REMARK SMILES O=C(CCC(=O)N1CCC[C@@]2(CCC(=O)N(Cc3ccncc3)C2)C1)NCCCCCCNC(=O)c1ccc(-c2c3nc(c(-c4cc(S(=O)(=O)[O-])ccc4F)c4ccc([nH]4)c(-c4cc(S(=O)(=O)[O-])ccc4F)c4nc(c(-c5cc(S(=O)(=O)[O-])ccc5F)c5ccc2[nH]5)C=C4)C=C3)cc1
REMARK SMILES IDX 28 1 27 2 26 3 1 4 2 5 3 7 4 8 5 9 6 10 7 11 8 12 25 13 9 14
REMARK SMILES IDX 11 15 10 16 12 17 24 18 13 19 16 20 14 21 15 22 17 23 18 24
REMARK SMILES IDX 19 25 23 26 20 27 22 28 21 29 29 30 30 31 31 32 32 33 33 34
REMARK SMILES IDX 34 35 35 37 36 38 37 39 98 40 38 41 97 42 39 43 40 44 41 45
REMARK SMILES IDX 91 46 42 47 96 48 90 49 92 50 43 51 95 52 89 53 88 54 44 56
REMARK SMILES IDX 76 57 56 58 75 59 57 60 60 61 74 62 93 63 58 64 59 65 73 67
REMARK SMILES IDX 94 68 61 69 45 70 46 71 54 72 47 73 53 74 55 75 52 76 48 77
REMARK SMILES IDX 49 78 50 79 51 80 77 81 78 82 86 83 79 84 85 85 87 86 84 87
REMARK SMILES IDX 80 88 81 89 82 90 83 91 62 92 63 93 71 94 64 95 70 96 72 97
REMARK SMILES IDX 69 98 65 99 66 100 67 101 68 102
REMARK H PARENT 26 6 33 36 92 55 60 66
REMARK Flexibility Score: inf
ROOT
ATOM      1  C   UNL     1       3.542  -2.722  -1.847  1.00  0.00     0.021 C 
ENDROOT
BRANCH   1   2
ATOM      2  C   UNL     1       2.340  -1.754  -1.550  1.00  0.00     0.116 C 
BRANCH   2   3
ATOM      3  N   UNL     1       2.774  -0.472  -0.995  1.00  0.00    -0.356 N 
ATOM      4  O   UNL     1       0.817   0.137   0.070  1.00  0.00    -0.275 OA
ATOM      5  C   UNL     1       1.966   0.388  -0.276  1.00  0.00     0.220 C 
ATOM      6  H   UNL     1       3.709  -0.202  -1.145  1.00  0.00     0.163 HD
BRANCH   5   7
ATOM      7  C   UNL     1       2.641   1.703   0.094  1.00  0.00     0.110 C 
BRANCH   7   8
ATOM      8  C   UNL     1       3.318   1.628   1.462  1.00  0.00     0.110 C 
BRANCH   8   9
ATOM      9  C   UNL     1       4.489   0.694   1.341  1.00  0.00     0.223 C 
ATOM     10  O   UNL     1       5.387   0.979   0.540  1.00  0.00    -0.275 OA
BRANCH   9  11
ATOM     11  N   UNL     1       4.450  -0.521   2.009  1.00  0.00    -0.342 N 
ATOM     12  C   UNL     1       3.854  -0.757   3.321  1.00  0.00     0.119 C 
ATOM     13  C   UNL     1       5.412  -1.483   1.575  1.00  0.00     0.128 C 
ATOM     14  C   UNL     1       3.785  -2.228   3.785  1.00  0.00     0.022 C 
ATOM     15  C   UNL     1       4.858  -2.950   1.630  1.00  0.00     0.006 C 
ATOM     16  C   UNL     1       4.809  -3.184   3.162  1.00  0.00     0.012 C 
ATOM     17  C   UNL     1       3.065  -3.215   0.915  1.00  0.00     0.020 C 
ATOM     18  C   UNL     1       6.294  -3.816   0.761  1.00  0.00     0.128 C 
ATOM     19  C   UNL     1       2.833  -4.612  -0.465  1.00  0.00     0.101 C 
ATOM     20  N   UNL     1       6.026  -5.229  -0.301  1.00  0.00    -0.338 N 
ATOM     21  C   UNL     1       4.509  -5.409  -1.211  1.00  0.00     0.222 C 
ATOM     22  O   UNL     1       4.547  -5.827  -2.363  1.00  0.00    -0.275 OA
BRANCH  20  23
ATOM     23  C   UNL     1       6.800  -6.367   0.394  1.00  0.00     0.155 C 
BRANCH  23  24
ATOM     24  C   UNL     1       7.534  -7.578  -0.097  1.00  0.00    -0.026 A 
ATOM     25  C   UNL     1       8.451  -7.562  -1.133  1.00  0.00     0.025 A 
ATOM     26  C   UNL     1       7.425  -8.769   0.667  1.00  0.00     0.025 A 
ATOM     27  C   UNL     1       9.173  -8.726  -1.385  1.00  0.00     0.111 A 
ATOM     28  C   UNL     1       8.201  -9.871   0.348  1.00  0.00     0.111 A 
ATOM     29  N   UNL     1       9.088  -9.868  -0.658  1.00  0.00    -0.265 NA
ENDBRANCH  23  24
ENDBRANCH  20  23
ENDBRANCH   9  11
ENDBRANCH   8   9
ENDBRANCH   7   8
ENDBRANCH   5   7
ENDBRANCH   2   3
ENDBRANCH   1   2
BRANCH   1  30
ATOM     30  C   UNL     1       4.536  -3.461  -0.589  1.00  0.00     0.002 C 
BRANCH  30  31
ATOM     31  C   UNL     1       4.289  -5.004   0.863  1.00  0.00     0.002 C 
BRANCH  31  32
ATOM     32  C   UNL     1       3.795  -6.733   0.798  1.00  0.00     0.021 C 
BRANCH  32  33
ATOM     33  C   UNL     1       3.763  -7.768  -0.376  1.00  0.00     0.116 C 
BRANCH  33  34
ATOM     34  N   UNL     1       4.990  -7.966  -1.156  1.00  0.00    -0.352 N 
ATOM     35  C   UNL     1       5.337  -8.941  -2.043  1.00  0.00     0.251 C 
ATOM     36  H   UNL     1       5.679  -7.277  -1.015  1.00  0.00     0.163 HD
ATOM     37  O   UNL     1       6.236  -8.841  -2.862  1.00  0.00    -0.269 OA
BRANCH  35  38
ATOM     38  C   UNL     1       4.536 -10.121  -1.950  1.00  0.00     0.039 A 
ATOM     39  C   UNL     1       4.935 -11.077  -1.020  1.00  0.00     0.014 A 
ATOM     40  C   UNL     1       3.278 -10.045  -2.541  1.00  0.00     0.014 A 
ATOM     41  C   UNL     1       4.018 -12.023  -0.660  1.00  0.00     0.010 A 
ATOM     42  C   UNL     1       2.340 -10.950  -2.126  1.00  0.00     0.010 A 
ATOM     43  C   UNL     1       2.735 -11.947  -1.217  1.00  0.00    -0.014 A 
BRANCH  43  44
ATOM     44  C   UNL     1       1.856 -13.086  -1.033  1.00  0.00     0.031 A 
ATOM     45  C   UNL     1       1.684 -13.961  -2.228  1.00  0.00     0.074 A 
ATOM     46  C   UNL     1       1.323 -13.288   0.178  1.00  0.00     0.049 A 
ATOM     47  N   UNL     1       0.840 -14.927  -2.418  1.00  0.00    -0.248 NA
ATOM     48  C   UNL     1       2.551 -13.672  -3.390  1.00  0.00     0.031 C 
ATOM     49  C   UNL     1       1.568 -12.456   1.363  1.00  0.00     0.029 A 
ATOM     50  N   UNL     1       0.490 -14.265   0.619  1.00  0.00    -0.354 N 
ATOM     51  C   UNL     1       1.042 -15.329  -3.733  1.00  0.00     0.074 A 
ATOM     52  C   UNL     1       2.041 -14.467  -4.313  1.00  0.00     0.031 C 
ATOM     53  C   UNL     1       0.922 -12.990   2.410  1.00  0.00     0.029 A 
ATOM     54  C   UNL     1       0.154 -14.136   1.943  1.00  0.00     0.049 A 
ATOM     55  H   UNL     1       0.161 -14.995   0.046  1.00  0.00     0.167 HD
ATOM     56  C   UNL     1       0.433 -16.351  -4.369  1.00  0.00     0.034 A 
ATOM     57  C   UNL     1      -0.720 -14.864   2.657  1.00  0.00     0.034 A 
ATOM     58  C   UNL     1      -0.528 -17.176  -3.689  1.00  0.00     0.049 A 
ATOM     59  C   UNL     1      -1.412 -15.977   1.909  1.00  0.00     0.074 A 
ATOM     60  C   UNL     1      -1.265 -18.235  -4.174  1.00  0.00     0.029 A 
ATOM     61  N   UNL     1      -0.870 -17.023  -2.345  1.00  0.00    -0.354 N 
ATOM     62  N   UNL     1      -1.276 -16.329   0.646  1.00  0.00    -0.248 NA
ATOM     63  C   UNL     1      -2.367 -16.785   2.665  1.00  0.00     0.031 C 
ATOM     64  C   UNL     1      -2.096 -18.680  -3.140  1.00  0.00     0.029 A 
ATOM     65  C   UNL     1      -1.818 -17.958  -1.985  1.00  0.00     0.049 A 
ATOM     66  H   UNL     1      -0.489 -16.346  -1.740  1.00  0.00     0.167 HD
ATOM     67  C   UNL     1      -2.114 -17.418   0.459  1.00  0.00     0.074 A 
ATOM     68  C   UNL     1      -2.726 -17.677   1.753  1.00  0.00     0.031 C 
ATOM     69  C   UNL     1      -2.375 -18.142  -0.663  1.00  0.00     0.034 A 
BRANCH  56  70
ATOM     70  C   UNL     1       0.750 -16.547  -5.828  1.00  0.00     0.023 A 
ATOM     71  C   UNL     1       2.053 -16.835  -6.280  1.00  0.00     0.031 A 
ATOM     72  C   UNL     1      -0.249 -16.350  -6.796  1.00  0.00     0.131 A 
ATOM     73  C   UNL     1       2.333 -16.844  -7.656  1.00  0.00     0.055 A 
ATOM     74  C   UNL     1       0.018 -16.443  -8.163  1.00  0.00     0.041 A 
ATOM     75  F   UNL     1      -1.500 -16.027  -6.430  1.00  0.00    -0.206 F 
ATOM     76  C   UNL     1       1.318 -16.678  -8.601  1.00  0.00     0.022 A 
BRANCH  73  77
ATOM     77  S   UNL     1       4.064 -16.931  -8.194  1.00  0.00     0.124 S 
ATOM     78  O   UNL     1       4.605 -15.691  -7.644  1.00  0.00    -0.237 OA
ATOM     79  O   UNL     1       4.529 -18.164  -7.569  1.00  0.00    -0.237 OA
ATOM     80  O   UNL     1       3.968 -16.970  -9.652  1.00  0.00    -0.744 OA
ENDBRANCH  73  77
ENDBRANCH  56  70
BRANCH  57  81
ATOM     81  C   UNL     1      -1.005 -14.543   4.082  1.00  0.00     0.023 A 
ATOM     82  C   UNL     1      -0.797 -15.493   5.092  1.00  0.00     0.031 A 
ATOM     83  C   UNL     1      -1.515 -13.286   4.463  1.00  0.00     0.131 A 
ATOM     84  C   UNL     1      -1.150 -15.196   6.418  1.00  0.00     0.055 A 
ATOM     85  C   UNL     1      -1.801 -12.972   5.793  1.00  0.00     0.041 A 
ATOM     86  F   UNL     1      -1.731 -12.331   3.544  1.00  0.00    -0.206 F 
ATOM     87  C   UNL     1      -1.636 -13.938   6.779  1.00  0.00     0.022 A 
BRANCH  84  88
ATOM     88  S   UNL     1      -1.076 -16.525   7.649  1.00  0.00     0.124 S 
ATOM     89  O   UNL     1      -1.877 -17.565   7.012  1.00  0.00    -0.237 OA
ATOM     90  O   UNL     1       0.359 -16.779   7.732  1.00  0.00    -0.237 OA
ATOM     91  O   UNL     1      -1.671 -15.919   8.839  1.00  0.00    -0.744 OA
ENDBRANCH  84  88
ENDBRANCH  57  81
BRANCH  69  92
ATOM     92  C   UNL     1      -3.325 -19.291  -0.491  1.00  0.00     0.023 A 
ATOM     93  C   UNL     1      -4.679 -19.077  -0.194  1.00  0.00     0.031 A 
ATOM     94  C   UNL     1      -2.863 -20.611  -0.627  1.00  0.00     0.131 A 
ATOM     95  C   UNL     1      -5.514 -20.174   0.035  1.00  0.00     0.055 A 
ATOM     96  C   UNL     1      -3.720 -21.698  -0.483  1.00  0.00     0.041 A 
ATOM     97  F   UNL     1      -1.575 -20.859  -0.911  1.00  0.00    -0.206 F 
ATOM     98  C   UNL     1      -5.051 -21.483  -0.133  1.00  0.00     0.022 A 
BRANCH  95  99
ATOM     99  S   UNL     1      -7.177 -19.864   0.677  1.00  0.00     0.124 S 
ATOM    100  O   UNL     1      -6.891 -19.148   1.917  1.00  0.00    -0.237 OA
ATOM    101  O   UNL     1      -7.782 -19.073  -0.390  1.00  0.00    -0.237 OA
ATOM    102  O   UNL     1      -7.732 -21.205   0.848  1.00  0.00    -0.744 OA
ENDBRANCH  95  99
ENDBRANCH  69  92
ENDBRANCH  43  44
ENDBRANCH  35  38
ENDBRANCH  33  34
ENDBRANCH  32  33
ENDBRANCH  31  32
ENDBRANCH  30  31
ENDBRANCH   1  30
TORSDOF 21
