REMARK SMILES C=C1C(=O)O[C@H]2[C@@H]1[C@@H](OC(=O)[C@]1(C)O[C@@H]1C)[C@@H](OC(C)=O)/C(C(=O)NCCCCCCNC(=O)c1ccc(-c3c4nc(c(-c5cc(S(=O)(=O)[O-])ccc5F)c5ccc([nH]5)c(-c5cc(S(=O)(=O)[O-])ccc5F)c5nc(c(-c6cc(S(=O)(=O)[O-])ccc6F)c6ccc3[nH]6)C=C5)C=C4)cc1)=C/[C@@H]1O[C@@H]1[C@]1(C)O[C@H]21
REMARK SMILES IDX 27 1 26 2 25 3 23 4 24 5 22 7 98 8 99 9 101 10 100 11 102 12
REMARK SMILES IDX 105 13 104 14 103 15 6 16 1 17 2 18 3 19 7 20 5 21 4 22
REMARK SMILES IDX 17 24 8 25 9 27 10 28 11 29 12 30 14 31 15 32 13 33 16 34
REMARK SMILES IDX 18 35 19 36 20 37 21 38 28 39 29 40 30 41 31 42 32 43 33 44
REMARK SMILES IDX 34 46 35 47 36 48 97 49 37 50 96 51 38 52 39 53 40 54 90 55
REMARK SMILES IDX 41 56 95 57 89 58 91 59 42 60 94 61 88 62 87 63 43 65 75 66
REMARK SMILES IDX 55 67 74 68 56 69 59 70 73 71 92 72 57 73 58 74 72 76 93 77
REMARK SMILES IDX 60 78 44 79 45 80 53 81 46 82 52 83 54 84 51 85 47 86 48 87
REMARK SMILES IDX 49 88 50 89 76 90 77 91 85 92 78 93 84 94 86 95 83 96 79 97
REMARK SMILES IDX 80 98 81 99 82 100 61 101 62 102 70 103 63 104 69 105 71 106
REMARK SMILES IDX 68 107 64 108 65 109 66 110 67 111
REMARK H PARENT 25 6 32 45 91 64 59 75
REMARK Flexibility Score: 90.00
ROOT
ATOM      1  C   UNL     1      -1.870 -10.628   3.684  1.00  0.00     0.021 C 
ENDROOT
BRANCH   1   2
ATOM      2  C   UNL     1      -0.833  -9.563   3.338  1.00  0.00     0.116 C 
BRANCH   2   3
ATOM      3  N   UNL     1      -1.317  -8.623   2.341  1.00  0.00    -0.352 N 
ATOM      4  C   UNL     1      -1.955  -7.437   2.524  1.00  0.00     0.250 C 
ATOM      5  O   UNL     1      -2.527  -6.875   1.596  1.00  0.00    -0.270 OA
ATOM      6  H   UNL     1      -1.160  -8.880   1.404  1.00  0.00     0.163 HD
BRANCH   4   7
ATOM      7  C   UNL     1      -2.005  -6.855   3.874  1.00  0.00     0.060 C 
ATOM      8  C   UNL     1      -0.879  -6.496   4.527  1.00  0.00     0.020 C 
BRANCH   8   9
ATOM      9  C   UNL     1       0.520  -6.475   4.102  1.00  0.00     0.174 C 
ATOM     10  C   UNL     1       1.020  -5.832   2.827  1.00  0.00     0.186 C 
ATOM     11  O   UNL     1       1.173  -5.188   4.091  1.00  0.00    -0.362 OA
BRANCH  10  12
ATOM     12  C   UNL     1       0.102  -5.191   1.785  1.00  0.00     0.125 C 
ATOM     13  C   UNL     1      -1.164  -4.313   1.917  1.00  0.00     0.195 C 
ATOM     14  O   UNL     1       0.157  -3.764   1.733  1.00  0.00    -0.359 OA
ATOM     15  C   UNL     1       0.306  -5.793   0.408  1.00  0.00     0.048 C 
BRANCH  13  16
ATOM     16  C   UNL     1      -1.845  -3.726   3.138  1.00  0.00     0.220 C 
ATOM     17  C   UNL     1      -4.538  -3.351   1.051  1.00  0.00     0.021 C 
ATOM     18  C   UNL     1      -3.794  -3.117   2.137  1.00  0.00     0.041 C 
ATOM     19  C   UNL     1      -2.942  -1.900   2.230  1.00  0.00     0.334 C 
ATOM     20  C   UNL     1      -3.364  -3.954   3.299  1.00  0.00     0.115 CG0
ATOM     21  O   UNL     1      -1.836  -2.270   2.943  1.00  0.00    -0.455 OA
ATOM     22  O   UNL     1      -3.206  -0.791   1.806  1.00  0.00    -0.247 OA
ATOM     23  G   UNL     1      -4.123  -5.242   3.757  1.00  0.00     0.000 G0
ENDBRANCH  13  16
ENDBRANCH  10  12
ENDBRANCH   8   9
BRANCH   7  24
ATOM     24  C   UNL     1      -3.344  -6.428   4.399  1.00  0.00     0.253 C 
BRANCH  24  25
ATOM     25  C   UNL     1      -4.123  -5.242   3.757  1.00  0.00     0.233 CG0
ATOM     26  G   UNL     1      -3.364  -3.954   3.299  1.00  0.00     0.000 G0
BRANCH  25  27
ATOM     27  O   UNL     1      -5.168  -5.676   2.862  1.00  0.00    -0.455 OA
BRANCH  27  28
ATOM     28  C   UNL     1      -6.492  -5.836   3.224  1.00  0.00     0.341 C 
ATOM     29  O   UNL     1      -7.195  -6.644   2.630  1.00  0.00    -0.249 OA
BRANCH  28  30
ATOM     30  C   UNL     1      -7.095  -4.908   4.245  1.00  0.00     0.188 C 
ATOM     31  O   UNL     1      -8.535  -4.754   4.122  1.00  0.00    -0.354 OA
ATOM     32  C   UNL     1      -7.765  -3.636   3.707  1.00  0.00     0.160 C 
ATOM     33  C   UNL     1      -6.765  -5.025   5.714  1.00  0.00     0.058 C 
ATOM     34  C   UNL     1      -7.950  -3.350   2.256  1.00  0.00     0.042 C 
ENDBRANCH  28  30
ENDBRANCH  27  28
ENDBRANCH  25  27
ENDBRANCH  24  25
BRANCH  24  35
ATOM     35  O   UNL     1      -4.175  -7.527   4.885  1.00  0.00    -0.453 OA
BRANCH  35  36
ATOM     36  C   UNL     1      -4.975  -8.441   4.306  1.00  0.00     0.303 C 
ATOM     37  C   UNL     1      -4.861  -8.747   2.847  1.00  0.00     0.139 C 
ATOM     38  O   UNL     1      -5.766  -9.061   5.014  1.00  0.00    -0.253 OA
ENDBRANCH  35  36
ENDBRANCH  24  35
ENDBRANCH   7  24
ENDBRANCH   4   7
ENDBRANCH   2   3
ENDBRANCH   1   2
BRANCH   1  39
ATOM     39  C   UNL     1      -2.307 -11.505   2.503  1.00  0.00     0.002 C 
BRANCH  39  40
ATOM     40  C   UNL     1      -1.171 -12.231   1.780  1.00  0.00     0.002 C 
BRANCH  40  41
ATOM     41  C   UNL     1      -0.182 -12.953   2.695  1.00  0.00     0.021 C 
BRANCH  41  42
ATOM     42  C   UNL     1      -0.822 -13.930   3.671  1.00  0.00     0.116 C 
BRANCH  42  43
ATOM     43  N   UNL     1      -1.356 -15.098   2.998  1.00  0.00    -0.352 N 
ATOM     44  C   UNL     1      -1.098 -16.418   3.280  1.00  0.00     0.251 C 
ATOM     45  H   UNL     1      -1.975 -14.925   2.252  1.00  0.00     0.163 HD
ATOM     46  O   UNL     1      -1.461 -17.300   2.511  1.00  0.00    -0.269 OA
BRANCH  44  47
ATOM     47  C   UNL     1      -0.346 -16.744   4.510  1.00  0.00     0.039 A 
ATOM     48  C   UNL     1       0.790 -17.550   4.418  1.00  0.00     0.014 A 
ATOM     49  C   UNL     1      -0.739 -16.205   5.740  1.00  0.00     0.014 A 
ATOM     50  C   UNL     1       1.563 -17.780   5.558  1.00  0.00     0.010 A 
ATOM     51  C   UNL     1       0.069 -16.381   6.858  1.00  0.00     0.010 A 
ATOM     52  C   UNL     1       1.223 -17.177   6.780  1.00  0.00    -0.014 A 
BRANCH  52  53
ATOM     53  C   UNL     1       2.039 -17.397   8.002  1.00  0.00     0.031 A 
ATOM     54  C   UNL     1       1.437 -18.127   9.172  1.00  0.00     0.074 A 
ATOM     55  C   UNL     1       3.283 -16.888   8.084  1.00  0.00     0.049 A 
ATOM     56  N   UNL     1       1.934 -18.337  10.363  1.00  0.00    -0.248 NA
ATOM     57  C   UNL     1       0.080 -18.663   8.983  1.00  0.00     0.031 C 
ATOM     58  C   UNL     1       3.959 -16.132   7.028  1.00  0.00     0.029 A 
ATOM     59  N   UNL     1       4.198 -16.916   9.107  1.00  0.00    -0.354 N 
ATOM     60  C   UNL     1       0.944 -19.010  11.072  1.00  0.00     0.074 A 
ATOM     61  C   UNL     1      -0.200 -19.120  10.194  1.00  0.00     0.031 C 
ATOM     62  C   UNL     1       5.184 -15.780   7.454  1.00  0.00     0.029 A 
ATOM     63  C   UNL     1       5.367 -16.247   8.825  1.00  0.00     0.049 A 
ATOM     64  H   UNL     1       4.033 -17.372   9.964  1.00  0.00     0.167 HD
ATOM     65  C   UNL     1       0.994 -19.509  12.332  1.00  0.00     0.034 A 
ATOM     66  C   UNL     1       6.454 -16.024   9.589  1.00  0.00     0.034 A 
ATOM     67  C   UNL     1       2.153 -19.411  13.185  1.00  0.00     0.049 A 
ATOM     68  C   UNL     1       6.487 -16.583  10.990  1.00  0.00     0.074 A 
ATOM     69  C   UNL     1       2.336 -19.931  14.455  1.00  0.00     0.029 A 
ATOM     70  N   UNL     1       3.326 -18.744  12.856  1.00  0.00    -0.354 N 
ATOM     71  N   UNL     1       5.559 -17.257  11.630  1.00  0.00    -0.248 NA
ATOM     72  C   UNL     1       7.714 -16.362  11.766  1.00  0.00     0.031 C 
ATOM     73  C   UNL     1       3.594 -19.528  14.916  1.00  0.00     0.029 A 
ATOM     74  C   UNL     1       4.226 -18.817  13.908  1.00  0.00     0.049 A 
ATOM     75  H   UNL     1       3.494 -18.287  12.001  1.00  0.00     0.167 HD
ATOM     76  C   UNL     1       6.106 -17.569  12.872  1.00  0.00     0.074 A 
ATOM     77  C   UNL     1       7.445 -17.015  12.887  1.00  0.00     0.031 C 
ATOM     78  C   UNL     1       5.556 -18.256  13.905  1.00  0.00     0.034 A 
BRANCH  65  79
ATOM     79  C   UNL     1      -0.250 -20.180  12.863  1.00  0.00     0.023 A 
ATOM     80  C   UNL     1      -0.770 -21.345  12.273  1.00  0.00     0.031 A 
ATOM     81  C   UNL     1      -0.945 -19.628  13.954  1.00  0.00     0.131 A 
ATOM     82  C   UNL     1      -1.988 -21.875  12.724  1.00  0.00     0.055 A 
ATOM     83  C   UNL     1      -2.114 -20.209  14.451  1.00  0.00     0.041 A 
ATOM     84  F   UNL     1      -0.509 -18.505  14.545  1.00  0.00    -0.206 F 
ATOM     85  C   UNL     1      -2.651 -21.330  13.825  1.00  0.00     0.022 A 
BRANCH  82  86
ATOM     86  S   UNL     1      -2.765 -23.198  11.758  1.00  0.00     0.124 S 
ATOM     87  O   UNL     1      -2.936 -22.552  10.458  1.00  0.00    -0.237 OA
ATOM     88  O   UNL     1      -1.768 -24.260  11.817  1.00  0.00    -0.237 OA
ATOM     89  O   UNL     1      -4.007 -23.466  12.480  1.00  0.00    -0.744 OA
ENDBRANCH  82  86
ENDBRANCH  65  79
BRANCH  66  90
ATOM     90  C   UNL     1       7.598 -15.228   9.060  1.00  0.00     0.023 A 
ATOM     91  C   UNL     1       8.856 -15.817   8.853  1.00  0.00     0.031 A 
ATOM     92  C   UNL     1       7.460 -13.855   8.790  1.00  0.00     0.131 A 
ATOM     93  C   UNL     1       9.937 -15.027   8.432  1.00  0.00     0.055 A 
ATOM     94  C   UNL     1       8.527 -13.084   8.325  1.00  0.00     0.041 A 
ATOM     95  F   UNL     1       6.277 -13.244   8.963  1.00  0.00    -0.206 F 
ATOM     96  C   UNL     1       9.778 -13.667   8.155  1.00  0.00     0.022 A 
BRANCH  93  97
ATOM     97  S   UNL     1      11.580 -15.789   8.326  1.00  0.00     0.124 S 
ATOM     98  O   UNL     1      11.771 -16.275   9.687  1.00  0.00    -0.237 OA
ATOM     99  O   UNL     1      11.373 -16.808   7.302  1.00  0.00    -0.237 OA
ATOM    100  O   UNL     1      12.444 -14.678   7.931  1.00  0.00    -0.744 OA
ENDBRANCH  93  97
ENDBRANCH  66  90
BRANCH  78 101
ATOM    101  C   UNL     1       6.426 -18.493  15.113  1.00  0.00     0.023 A 
ATOM    102  C   UNL     1       6.804 -17.446  15.970  1.00  0.00     0.031 A 
ATOM    103  C   UNL     1       6.875 -19.792  15.411  1.00  0.00     0.131 A 
ATOM    104  C   UNL     1       7.647 -17.709  17.061  1.00  0.00     0.055 A 
ATOM    105  C   UNL     1       7.668 -20.056  16.527  1.00  0.00     0.041 A 
ATOM    106  F   UNL     1       6.542 -20.827  14.624  1.00  0.00    -0.206 F 
ATOM    107  C   UNL     1       8.067 -19.009  17.354  1.00  0.00     0.022 A 
BRANCH 104 108
ATOM    108  S   UNL     1       8.244 -16.316  18.057  1.00  0.00     0.124 S 
ATOM    109  O   UNL     1       8.967 -15.524  17.067  1.00  0.00    -0.237 OA
ATOM    110  O   UNL     1       7.002 -15.733  18.556  1.00  0.00    -0.237 OA
ATOM    111  O   UNL     1       9.080 -16.953  19.073  1.00  0.00    -0.744 OA
ENDBRANCH 104 108
ENDBRANCH  78 101
ENDBRANCH  52  53
ENDBRANCH  44  47
ENDBRANCH  42  43
ENDBRANCH  41  42
ENDBRANCH  40  41
ENDBRANCH  39  40
ENDBRANCH   1  39
TORSDOF 21
