REMARK SMILES O=C(Cn1cc(/C=C2\SC(=S)N(C[C@H]3CCCO3)C2=O)c2ccccc21)NCCCCCCNC(=O)c1ccc(-c2c3nc(c(-c4cc(S(=O)(=O)[O-])ccc4F)c4ccc([nH]4)c(-c4cc(S(=O)(=O)[O-])ccc4F)c4nc(c(-c5cc(S(=O)(=O)[O-])ccc5F)c5ccc2[nH]5)C=C4)C=C3)cc1
REMARK SMILES IDX 30 1 29 2 28 3 27 4 1 5 2 6 3 8 4 9 5 10 26 11 6 12 21 13
REMARK SMILES IDX 25 14 22 15 24 16 23 17 7 18 8 19 9 20 19 21 10 22 12 23
REMARK SMILES IDX 20 24 11 25 13 26 14 27 15 28 18 29 16 30 17 31 31 32 32 33
REMARK SMILES IDX 33 34 34 35 35 36 36 38 37 39 38 40 99 41 39 42 98 43 40 44
REMARK SMILES IDX 41 45 42 46 92 47 43 48 97 49 91 50 93 51 44 52 96 53 90 54
REMARK SMILES IDX 89 55 45 57 77 58 57 59 76 60 58 61 61 62 75 63 94 64 59 65
REMARK SMILES IDX 60 66 74 68 95 69 62 70 46 71 47 72 55 73 48 74 54 75 56 76
REMARK SMILES IDX 53 77 49 78 50 79 51 80 52 81 78 82 79 83 87 84 80 85 86 86
REMARK SMILES IDX 88 87 85 88 81 89 82 90 83 91 84 92 63 93 64 94 72 95 65 96
REMARK SMILES IDX 71 97 73 98 70 99 66 100 67 101 68 102 69 103
REMARK H PARENT 27 7 34 37 93 56 61 67
REMARK Flexibility Score: inf
ROOT
ATOM      1  C   UNL     1       1.080  18.534  -6.736  1.00  0.00     0.002 C 
ENDROOT
BRANCH   1   2
ATOM      2  C   UNL     1       0.438  19.299  -5.569  1.00  0.00     0.021 C 
BRANCH   2   3
ATOM      3  C   UNL     1       0.283  18.494  -4.277  1.00  0.00     0.116 C 
BRANCH   3   4
ATOM      4  N   UNL     1       1.560  17.986  -3.821  1.00  0.00    -0.355 N 
ATOM      5  O   UNL     1       1.909  19.530  -2.165  1.00  0.00    -0.273 OA
ATOM      6  C   UNL     1       2.308  18.572  -2.825  1.00  0.00     0.239 C 
ATOM      7  H   UNL     1       1.914  17.173  -4.249  1.00  0.00     0.163 HD
BRANCH   6   8
ATOM      8  C   UNL     1       3.734  18.067  -2.688  1.00  0.00     0.222 C 
BRANCH   8   9
ATOM      9  N   UNL     1       3.845  16.622  -2.562  1.00  0.00    -0.337 N 
ATOM     10  C   UNL     1       3.940  15.968  -1.361  1.00  0.00     0.095 A 
ATOM     11  C   UNL     1       3.928  15.718  -3.605  1.00  0.00     0.049 A 
ATOM     12  C   UNL     1       4.021  14.620  -1.623  1.00  0.00     0.001 A 
ATOM     13  C   UNL     1       3.966  14.440  -3.034  1.00  0.00     0.007 A 
ATOM     14  C   UNL     1       3.948  15.909  -4.998  1.00  0.00     0.027 A 
ATOM     15  C   UNL     1       3.959  13.316  -3.888  1.00  0.00     0.011 A 
ATOM     16  C   UNL     1       3.921  14.780  -5.820  1.00  0.00     0.002 A 
ATOM     17  C   UNL     1       3.914  13.501  -5.275  1.00  0.00     0.001 A 
BRANCH  12  18
ATOM     18  C   UNL     1       4.230  13.638  -0.617  1.00  0.00     0.031 C 
ATOM     19  C   UNL     1       3.406  13.317   0.389  1.00  0.00     0.081 C 
ATOM     20  S   UNL     1       1.809  13.858   0.686  1.00  0.00    -0.054 SA
ATOM     21  C   UNL     1       3.834  12.391   1.458  1.00  0.00     0.266 C 
ATOM     22  C   UNL     1       1.616  12.801   2.084  1.00  0.00     0.148 C 
ATOM     23  N   UNL     1       2.787  12.097   2.305  1.00  0.00    -0.290 N 
ATOM     24  O   UNL     1       4.999  12.018   1.592  1.00  0.00    -0.268 OA
ATOM     25  S   UNL     1       0.201  12.758   2.963  1.00  0.00    -0.052 S 
BRANCH  23  26
ATOM     26  C   UNL     1       3.022  11.199   3.441  1.00  0.00     0.159 C 
BRANCH  26  27
ATOM     27  C   UNL     1       3.031   9.693   3.088  1.00  0.00     0.138 C 
ATOM     28  C   UNL     1       4.350   9.132   2.570  1.00  0.00     0.036 C 
ATOM     29  O   UNL     1       2.802   8.964   4.320  1.00  0.00    -0.376 OA
ATOM     30  C   UNL     1       5.127   8.904   3.842  1.00  0.00     0.031 C 
ATOM     31  C   UNL     1       4.043   8.390   4.764  1.00  0.00     0.160 C 
ENDBRANCH  26  27
ENDBRANCH  23  26
ENDBRANCH  12  18
ENDBRANCH   8   9
ENDBRANCH   6   8
ENDBRANCH   3   4
ENDBRANCH   2   3
ENDBRANCH   1   2
BRANCH   1  32
ATOM     32  C   UNL     1       0.313  17.301  -7.223  1.00  0.00     0.002 C 
BRANCH  32  33
ATOM     33  C   UNL     1      -1.123  17.557  -7.698  1.00  0.00     0.021 C 
BRANCH  33  34
ATOM     34  C   UNL     1      -1.266  18.657  -8.753  1.00  0.00     0.116 C 
BRANCH  34  35
ATOM     35  N   UNL     1      -0.501  18.404  -9.957  1.00  0.00    -0.352 N 
ATOM     36  C   UNL     1      -0.732  17.727 -11.123  1.00  0.00     0.251 C 
ATOM     37  H   UNL     1       0.393  18.814  -9.929  1.00  0.00     0.163 HD
ATOM     38  O   UNL     1       0.162  17.814 -11.971  1.00  0.00    -0.269 OA
BRANCH  36  39
ATOM     39  C   UNL     1      -1.931  16.889 -11.420  1.00  0.00     0.039 A 
ATOM     40  C   UNL     1      -3.019  16.694 -10.570  1.00  0.00     0.014 A 
ATOM     41  C   UNL     1      -1.925  16.211 -12.656  1.00  0.00     0.014 A 
ATOM     42  C   UNL     1      -4.038  15.806 -10.912  1.00  0.00     0.010 A 
ATOM     43  C   UNL     1      -2.948  15.331 -13.007  1.00  0.00     0.010 A 
ATOM     44  C   UNL     1      -3.990  15.099 -12.115  1.00  0.00    -0.014 A 
BRANCH  44  45
ATOM     45  C   UNL     1      -5.071  14.149 -12.381  1.00  0.00     0.031 A 
ATOM     46  C   UNL     1      -6.447  14.713 -12.526  1.00  0.00     0.074 A 
ATOM     47  C   UNL     1      -4.875  12.833 -12.588  1.00  0.00     0.049 A 
ATOM     48  N   UNL     1      -7.498  14.492 -11.802  1.00  0.00    -0.248 NA
ATOM     49  C   UNL     1      -6.652  15.699 -13.593  1.00  0.00     0.031 C 
ATOM     50  C   UNL     1      -3.610  12.136 -12.838  1.00  0.00     0.029 A 
ATOM     51  N   UNL     1      -5.808  11.847 -12.721  1.00  0.00    -0.354 N 
ATOM     52  C   UNL     1      -8.547  15.189 -12.410  1.00  0.00     0.074 A 
ATOM     53  C   UNL     1      -7.942  15.998 -13.440  1.00  0.00     0.031 C 
ATOM     54  C   UNL     1      -3.875  10.899 -13.315  1.00  0.00     0.029 A 
ATOM     55  C   UNL     1      -5.309  10.669 -13.246  1.00  0.00     0.049 A 
ATOM     56  H   UNL     1      -6.752  11.964 -12.466  1.00  0.00     0.167 HD
ATOM     57  C   UNL     1      -9.861  14.947 -12.125  1.00  0.00     0.034 A 
ATOM     58  C   UNL     1      -6.026   9.604 -13.672  1.00  0.00     0.034 A 
ATOM     59  C   UNL     1     -10.012  14.176 -10.924  1.00  0.00     0.049 A 
ATOM     60  C   UNL     1      -7.382   9.670 -13.082  1.00  0.00     0.074 A 
ATOM     61  C   UNL     1      -9.764  14.379  -9.583  1.00  0.00     0.029 A 
ATOM     62  N   UNL     1     -10.270  12.836 -11.061  1.00  0.00    -0.354 N 
ATOM     63  N   UNL     1      -7.657   9.479 -11.822  1.00  0.00    -0.248 NA
ATOM     64  C   UNL     1      -8.437  10.296 -13.862  1.00  0.00     0.031 C 
ATOM     65  C   UNL     1      -9.456  13.091  -9.061  1.00  0.00     0.029 A 
ATOM     66  C   UNL     1      -9.541  12.174 -10.112  1.00  0.00     0.049 A 
ATOM     67  H   UNL     1     -10.872  12.425 -11.724  1.00  0.00     0.167 HD
ATOM     68  C   UNL     1      -8.717  10.333 -11.562  1.00  0.00     0.074 A 
ATOM     69  C   UNL     1      -9.243  10.690 -12.874  1.00  0.00     0.031 C 
ATOM     70  C   UNL     1      -8.895  10.893 -10.328  1.00  0.00     0.034 A 
BRANCH  57  71
ATOM     71  C   UNL     1     -11.021  15.168 -13.075  1.00  0.00     0.023 A 
ATOM     72  C   UNL     1     -10.848  15.425 -14.447  1.00  0.00     0.031 A 
ATOM     73  C   UNL     1     -12.348  14.899 -12.668  1.00  0.00     0.131 A 
ATOM     74  C   UNL     1     -11.931  15.423 -15.339  1.00  0.00     0.055 A 
ATOM     75  C   UNL     1     -13.419  14.831 -13.569  1.00  0.00     0.041 A 
ATOM     76  F   UNL     1     -12.641  14.635 -11.385  1.00  0.00    -0.206 F 
ATOM     77  C   UNL     1     -13.214  15.095 -14.915  1.00  0.00     0.022 A 
BRANCH  74  78
ATOM     78  S   UNL     1     -11.679  15.851 -17.083  1.00  0.00     0.124 S 
ATOM     79  O   UNL     1     -11.979  14.586 -17.746  1.00  0.00    -0.237 OA
ATOM     80  O   UNL     1     -12.662  16.915 -17.275  1.00  0.00    -0.237 OA
ATOM     81  O   UNL     1     -10.287  16.284 -17.128  1.00  0.00    -0.744 OA
ENDBRANCH  74  78
ENDBRANCH  57  71
BRANCH  58  82
ATOM     82  C   UNL     1      -5.733   8.788 -14.870  1.00  0.00     0.023 A 
ATOM     83  C   UNL     1      -5.130   9.393 -15.990  1.00  0.00     0.031 A 
ATOM     84  C   UNL     1      -6.292   7.513 -15.042  1.00  0.00     0.131 A 
ATOM     85  C   UNL     1      -5.131   8.748 -17.232  1.00  0.00     0.055 A 
ATOM     86  C   UNL     1      -6.282   6.865 -16.282  1.00  0.00     0.041 A 
ATOM     87  F   UNL     1      -6.912   6.899 -14.022  1.00  0.00    -0.206 F 
ATOM     88  C   UNL     1      -5.709   7.488 -17.388  1.00  0.00     0.022 A 
BRANCH  85  89
ATOM     89  S   UNL     1      -4.431   9.570 -18.690  1.00  0.00     0.124 S 
ATOM     90  O   UNL     1      -3.626   8.507 -19.287  1.00  0.00    -0.237 OA
ATOM     91  O   UNL     1      -5.633   9.939 -19.429  1.00  0.00    -0.237 OA
ATOM     92  O   UNL     1      -3.666  10.677 -18.124  1.00  0.00    -0.744 OA
ENDBRANCH  85  89
ENDBRANCH  58  82
BRANCH  70  93
ATOM     93  C   UNL     1      -8.136  10.333  -9.146  1.00  0.00     0.023 A 
ATOM     94  C   UNL     1      -8.865  10.073  -7.970  1.00  0.00     0.031 A 
ATOM     95  C   UNL     1      -6.732  10.276  -9.067  1.00  0.00     0.131 A 
ATOM     96  C   UNL     1      -8.198   9.809  -6.767  1.00  0.00     0.055 A 
ATOM     97  C   UNL     1      -6.073   9.939  -7.881  1.00  0.00     0.041 A 
ATOM     98  F   UNL     1      -5.956  10.633 -10.100  1.00  0.00    -0.206 F 
ATOM     99  C   UNL     1      -6.805   9.721  -6.719  1.00  0.00     0.022 A 
BRANCH  96 100
ATOM    100  S   UNL     1      -9.113   9.742  -5.204  1.00  0.00     0.124 S 
ATOM    101  O   UNL     1      -8.896   8.362  -4.778  1.00  0.00    -0.237 OA
ATOM    102  O   UNL     1      -8.432  10.758  -4.404  1.00  0.00    -0.237 OA
ATOM    103  O   UNL     1     -10.484  10.072  -5.581  1.00  0.00    -0.744 OA
ENDBRANCH  96 100
ENDBRANCH  70  93
ENDBRANCH  44  45
ENDBRANCH  36  39
ENDBRANCH  34  35
ENDBRANCH  33  34
ENDBRANCH  32  33
ENDBRANCH   1  32
TORSDOF 20
