REMARK SMILES COc1ccc(C2=NN(C(=O)CCC(=O)NCCCCCCNC(=O)c3ccc(-c4c5nc(c(-c6cc(S(=O)(=O)[O-])ccc6F)c6ccc([nH]6)c(-c6cc(S(=O)(=O)[O-])ccc6F)c6nc(c(-c7cc(S(=O)(=O)[O-])ccc7F)c7ccc4[nH]7)C=C6)C=C5)cc3)[C@H](c3ccc(Cl)cc3Cl)C2)cc1
REMARK SMILES IDX 18 1 17 2 16 3 14 4 15 5 13 7 12 8 10 9 11 10 9 11 7 12 8 13
REMARK SMILES IDX 98 14 89 15 6 16 3 17 4 18 100 19 5 20 99 21 2 22 1 23 90 24
REMARK SMILES IDX 91 25 96 26 92 27 95 28 97 29 93 30 94 31 19 32 20 33 21 34
REMARK SMILES IDX 22 35 23 36 24 37 25 39 26 40 27 41 88 42 28 43 87 44 29 45
REMARK SMILES IDX 30 46 31 47 81 48 32 49 86 50 80 51 82 52 33 53 85 54 79 55
REMARK SMILES IDX 78 56 34 58 66 59 46 60 65 61 47 62 50 63 64 64 83 65 48 66
REMARK SMILES IDX 49 67 63 69 84 70 51 71 35 72 36 73 44 74 37 75 43 76 45 77
REMARK SMILES IDX 42 78 38 79 39 80 40 81 41 82 67 83 68 84 76 85 69 86 75 87
REMARK SMILES IDX 77 88 74 89 70 90 71 91 72 92 73 93 52 94 53 95 61 96 54 97
REMARK SMILES IDX 60 98 62 99 59 100 55 101 56 102 57 103 58 104
REMARK H PARENT 16 6 23 38 82 57 50 68
REMARK Flexibility Score: inf
ROOT
ATOM      1  C   UNL     1       2.322   6.314   4.137  1.00  0.00     0.021 C 
ENDROOT
BRANCH   1   2
ATOM      2  C   UNL     1       4.403   6.041   4.910  1.00  0.00     0.116 C 
BRANCH   2   3
ATOM      3  N   UNL     1       5.418   6.858   5.720  1.00  0.00    -0.356 N 
ATOM      4  C   UNL     1       5.588   7.140   7.044  1.00  0.00     0.220 C 
ATOM      5  O   UNL     1       6.666   7.684   7.318  1.00  0.00    -0.275 OA
ATOM      6  H   UNL     1       6.105   7.276   5.153  1.00  0.00     0.163 HD
BRANCH   4   7
ATOM      7  C   UNL     1       4.622   6.793   8.182  1.00  0.00     0.110 C 
BRANCH   7   8
ATOM      8  C   UNL     1       3.123   7.061   8.114  1.00  0.00     0.112 C 
BRANCH   8   9
ATOM      9  C   UNL     1       2.511   6.041   7.226  1.00  0.00     0.243 C 
ATOM     10  O   UNL     1       1.892   5.077   7.656  1.00  0.00    -0.273 OA
BRANCH   9  11
ATOM     11  N   UNL     1       2.837   6.280   5.913  1.00  0.00    -0.225 N 
ATOM     12  C   UNL     1       3.596   5.139   3.300  1.00  0.00     0.071 C 
ATOM     13  N   UNL     1       3.102   4.739   4.788  1.00  0.00    -0.174 NA
ATOM     14  C   UNL     1       4.022   7.061   3.178  1.00  0.00     0.091 C 
ATOM     15  C   UNL     1       3.416   7.848   4.886  1.00  0.00     0.149 C 
BRANCH  12  16
ATOM     16  C   UNL     1       3.445   4.394   1.998  1.00  0.00    -0.002 A 
ATOM     17  C   UNL     1       2.594   2.698  -0.089  1.00  0.00     0.118 A 
ATOM     18  C   UNL     1       2.017   3.958   0.048  1.00  0.00     0.047 A 
ATOM     19  C   UNL     1       3.666   2.342   0.732  1.00  0.00     0.047 A 
ATOM     20  C   UNL     1       2.440   4.806   1.086  1.00  0.00     0.014 A 
ATOM     21  C   UNL     1       4.084   3.178   1.785  1.00  0.00     0.014 A 
BRANCH  17  22
ATOM     22  O   UNL     1       2.066   1.861  -1.034  1.00  0.00    -0.497 OA
ATOM     23  C   UNL     1       1.803   0.538  -0.549  1.00  0.00     0.278 C 
ENDBRANCH  17  22
ENDBRANCH  12  16
BRANCH  15  24
ATOM     24  C   UNL     1       2.719   9.241   4.794  1.00  0.00    -0.004 A 
ATOM     25  C   UNL     1       2.273   9.686   3.532  1.00  0.00     0.009 A 
ATOM     26  C   UNL     1       2.923  10.274   5.761  1.00  0.00     0.047 A 
ATOM     27  C   UNL     1       2.063  11.049   3.251  1.00  0.00     0.021 A 
ATOM     28  C   UNL     1       2.584  11.614   5.515  1.00  0.00     0.041 A 
ATOM     29  Cl  UNL     1       3.910  10.124   7.180  1.00  0.00    -0.084 Cl
ATOM     30  C   UNL     1       2.195  12.002   4.249  1.00  0.00     0.042 A 
ATOM     31  Cl  UNL     1       1.996  13.673   3.894  1.00  0.00    -0.084 Cl
ENDBRANCH  15  24
ENDBRANCH   9  11
ENDBRANCH   8   9
ENDBRANCH   7   8
ENDBRANCH   4   7
ENDBRANCH   2   3
ENDBRANCH   1   2
BRANCH   1  32
ATOM     32  C   UNL     1       1.052   4.904   4.062  1.00  0.00     0.002 C 
BRANCH  32  33
ATOM     33  C   UNL     1       1.465   3.321   4.004  1.00  0.00     0.002 C 
BRANCH  33  34
ATOM     34  C   UNL     1       0.487   2.243   4.351  1.00  0.00     0.021 C 
BRANCH  34  35
ATOM     35  C   UNL     1      -0.659   2.215   3.401  1.00  0.00     0.116 C 
BRANCH  35  36
ATOM     36  N   UNL     1      -0.308   2.383   1.981  1.00  0.00    -0.352 N 
ATOM     37  C   UNL     1      -1.058   2.025   0.890  1.00  0.00     0.251 C 
ATOM     38  H   UNL     1       0.564   2.800   1.794  1.00  0.00     0.163 HD
ATOM     39  O   UNL     1      -0.789   2.326  -0.261  1.00  0.00    -0.269 OA
BRANCH  37  40
ATOM     40  C   UNL     1      -2.198   1.189   1.204  1.00  0.00     0.039 A 
ATOM     41  C   UNL     1      -2.081  -0.175   0.932  1.00  0.00     0.014 A 
ATOM     42  C   UNL     1      -3.091   1.729   2.129  1.00  0.00     0.014 A 
ATOM     43  C   UNL     1      -2.893  -1.034   1.635  1.00  0.00     0.010 A 
ATOM     44  C   UNL     1      -3.712   0.857   2.981  1.00  0.00     0.010 A 
ATOM     45  C   UNL     1      -3.677  -0.509   2.672  1.00  0.00    -0.014 A 
BRANCH  45  46
ATOM     46  C   UNL     1      -4.670  -1.339   3.336  1.00  0.00     0.031 A 
ATOM     47  C   UNL     1      -6.096  -0.955   3.104  1.00  0.00     0.074 A 
ATOM     48  C   UNL     1      -4.257  -2.348   4.114  1.00  0.00     0.049 A 
ATOM     49  N   UNL     1      -7.169  -1.413   3.673  1.00  0.00    -0.248 NA
ATOM     50  C   UNL     1      -6.346   0.150   2.151  1.00  0.00     0.031 C 
ATOM     51  C   UNL     1      -2.858  -2.724   4.354  1.00  0.00     0.029 A 
ATOM     52  N   UNL     1      -4.976  -3.250   4.832  1.00  0.00    -0.354 N 
ATOM     53  C   UNL     1      -8.202  -0.641   3.162  1.00  0.00     0.074 A 
ATOM     54  C   UNL     1      -7.627   0.396   2.348  1.00  0.00     0.031 C 
ATOM     55  C   UNL     1      -2.830  -3.825   5.121  1.00  0.00     0.029 A 
ATOM     56  C   UNL     1      -4.197  -4.173   5.481  1.00  0.00     0.049 A 
ATOM     57  H   UNL     1      -5.959  -3.242   4.882  1.00  0.00     0.167 HD
ATOM     58  C   UNL     1      -9.526  -0.835   3.324  1.00  0.00     0.034 A 
ATOM     59  C   UNL     1      -4.583  -5.175   6.287  1.00  0.00     0.034 A 
ATOM     60  C   UNL     1     -10.027  -1.908   4.130  1.00  0.00     0.049 A 
ATOM     61  C   UNL     1      -6.067  -5.329   6.507  1.00  0.00     0.074 A 
ATOM     62  C   UNL     1     -11.335  -2.247   4.401  1.00  0.00     0.029 A 
ATOM     63  N   UNL     1      -9.218  -2.824   4.800  1.00  0.00    -0.354 N 
ATOM     64  N   UNL     1      -7.053  -4.604   6.019  1.00  0.00    -0.248 NA
ATOM     65  C   UNL     1      -6.493  -6.433   7.366  1.00  0.00     0.031 C 
ATOM     66  C   UNL     1     -11.315  -3.312   5.304  1.00  0.00     0.029 A 
ATOM     67  C   UNL     1     -10.000  -3.712   5.508  1.00  0.00     0.049 A 
ATOM     68  H   UNL     1      -8.234  -2.836   4.770  1.00  0.00     0.167 HD
ATOM     69  C   UNL     1      -8.223  -5.194   6.480  1.00  0.00     0.074 A 
ATOM     70  C   UNL     1      -7.810  -6.341   7.270  1.00  0.00     0.031 C 
ATOM     71  C   UNL     1      -9.519  -4.838   6.276  1.00  0.00     0.034 A 
BRANCH  58  72
ATOM     72  C   UNL     1     -10.455   0.136   2.649  1.00  0.00     0.023 A 
ATOM     73  C   UNL     1     -10.461   0.310   1.251  1.00  0.00     0.031 A 
ATOM     74  C   UNL     1     -11.295   0.956   3.418  1.00  0.00     0.131 A 
ATOM     75  C   UNL     1     -11.233   1.329   0.676  1.00  0.00     0.055 A 
ATOM     76  C   UNL     1     -12.134   1.903   2.829  1.00  0.00     0.041 A 
ATOM     77  F   UNL     1     -11.291   0.874   4.757  1.00  0.00    -0.206 F 
ATOM     78  C   UNL     1     -12.097   2.103   1.452  1.00  0.00     0.022 A 
BRANCH  75  79
ATOM     79  S   UNL     1     -10.968   1.736  -1.072  1.00  0.00     0.124 S 
ATOM     80  O   UNL     1      -9.559   2.127  -1.073  1.00  0.00    -0.237 OA
ATOM     81  O   UNL     1     -11.282   0.480  -1.742  1.00  0.00    -0.237 OA
ATOM     82  O   UNL     1     -11.909   2.827  -1.315  1.00  0.00    -0.744 OA
ENDBRANCH  75  79
ENDBRANCH  58  72
BRANCH  59  83
ATOM     83  C   UNL     1      -3.585  -6.078   6.915  1.00  0.00     0.023 A 
ATOM     84  C   UNL     1      -3.617  -7.457   6.665  1.00  0.00     0.031 A 
ATOM     85  C   UNL     1      -2.611  -5.593   7.806  1.00  0.00     0.131 A 
ATOM     86  C   UNL     1      -2.752  -8.312   7.360  1.00  0.00     0.055 A 
ATOM     87  C   UNL     1      -1.698  -6.440   8.435  1.00  0.00     0.041 A 
ATOM     88  F   UNL     1      -2.527  -4.280   8.075  1.00  0.00    -0.206 F 
ATOM     89  C   UNL     1      -1.780  -7.814   8.230  1.00  0.00     0.022 A 
BRANCH  86  90
ATOM     90  S   UNL     1      -3.022 -10.098   7.219  1.00  0.00     0.124 S 
ATOM     91  O   UNL     1      -4.424 -10.213   7.605  1.00  0.00    -0.237 OA
ATOM     92  O   UNL     1      -2.722 -10.340   5.812  1.00  0.00    -0.237 OA
ATOM     93  O   UNL     1      -2.064 -10.662   8.167  1.00  0.00    -0.744 OA
ENDBRANCH  86  90
ENDBRANCH  59  83
BRANCH  71  94
ATOM     94  C   UNL     1     -10.562  -5.748   6.862  1.00  0.00     0.023 A 
ATOM     95  C   UNL     1     -10.696  -5.919   8.247  1.00  0.00     0.031 A 
ATOM     96  C   UNL     1     -11.432  -6.451   6.010  1.00  0.00     0.131 A 
ATOM     97  C   UNL     1     -11.625  -6.842   8.738  1.00  0.00     0.055 A 
ATOM     98  C   UNL     1     -12.422  -7.290   6.510  1.00  0.00     0.041 A 
ATOM     99  F   UNL     1     -11.339  -6.320   4.676  1.00  0.00    -0.206 F 
ATOM    100  C   UNL     1     -12.509  -7.505   7.882  1.00  0.00     0.022 A 
BRANCH  97 101
ATOM    101  S   UNL     1     -11.558  -7.271  10.495  1.00  0.00     0.124 S 
ATOM    102  O   UNL     1     -10.180  -7.730  10.639  1.00  0.00    -0.237 OA
ATOM    103  O   UNL     1     -11.877  -6.002  11.140  1.00  0.00    -0.237 OA
ATOM    104  O   UNL     1     -12.576  -8.310  10.631  1.00  0.00    -0.744 OA
ENDBRANCH  97 101
ENDBRANCH  71  94
ENDBRANCH  45  46
ENDBRANCH  37  40
ENDBRANCH  35  36
ENDBRANCH  34  35
ENDBRANCH  33  34
ENDBRANCH  32  33
ENDBRANCH   1  32
TORSDOF 22
