REMARK SMILES C[C@H](Oc1ccc(/C=C2\SC(=S)N(N)C2=O)cc1)C(=O)NCCCCCCNC(=O)c1ccc(-c2c3nc(c(-c4cc(S(=O)(=O)[O-])ccc4F)c4ccc([nH]4)c(-c4cc(S(=O)(=O)[O-])ccc4F)c4nc(c(-c5cc(S(=O)(=O)[O-])ccc5F)c5ccc2[nH]5)C=C4)C=C3)cc1
REMARK SMILES IDX 24 1 23 2 22 3 21 4 19 5 20 6 2 8 1 9 3 10 4 11 5 12 18 13
REMARK SMILES IDX 6 14 17 15 7 16 8 17 9 18 10 19 15 20 11 21 13 22 16 23
REMARK SMILES IDX 12 24 14 25 25 28 26 29 27 30 28 31 29 32 30 34 31 35 32 36
REMARK SMILES IDX 93 37 33 38 92 39 34 40 35 41 36 42 86 43 37 44 91 45 85 46
REMARK SMILES IDX 87 47 38 48 90 49 84 50 83 51 39 53 71 54 51 55 70 56 52 57
REMARK SMILES IDX 55 58 69 59 88 60 53 61 54 62 68 64 89 65 56 66 40 67 41 68
REMARK SMILES IDX 49 69 42 70 48 71 50 72 47 73 43 74 44 75 45 76 46 77 72 78
REMARK SMILES IDX 73 79 81 80 74 81 80 82 82 83 79 84 75 85 76 86 77 87 78 88
REMARK SMILES IDX 57 89 58 90 66 91 59 92 65 93 67 94 64 95 60 96 61 97 62 98
REMARK SMILES IDX 63 99
REMARK H PARENT 21 7 14 26 14 27 28 33 87 52 55 63
REMARK Flexibility Score: inf
ROOT
ATOM      1  C   UNL     1      -3.217   2.099  -1.927  1.00  0.00     0.002 C 
ENDROOT
BRANCH   1   2
ATOM      2  C   UNL     1      -1.722   1.792  -1.821  1.00  0.00     0.021 C 
BRANCH   2   3
ATOM      3  C   UNL     1      -1.173   1.935  -0.408  1.00  0.00     0.116 C 
BRANCH   3   4
ATOM      4  N   UNL     1      -1.739   0.926   0.473  1.00  0.00    -0.353 N 
ATOM      5  C   UNL     1      -1.084   0.023   1.265  1.00  0.00     0.260 C 
ATOM      6  O   UNL     1      -1.745  -0.793   1.909  1.00  0.00    -0.271 OA
ATOM      7  H   UNL     1      -2.722   0.887   0.503  1.00  0.00     0.163 HD
BRANCH   5   8
ATOM      8  C   UNL     1       0.436   0.125   1.411  1.00  0.00     0.258 C 
ATOM      9  C   UNL     1       0.718   1.486   2.085  1.00  0.00     0.064 C 
BRANCH   8  10
ATOM     10  O   UNL     1       1.001  -0.107   0.105  1.00  0.00    -0.481 OA
BRANCH  10  11
ATOM     11  C   UNL     1       2.337   0.077  -0.087  1.00  0.00     0.120 A 
ATOM     12  C   UNL     1       3.228   0.349   0.927  1.00  0.00     0.047 A 
ATOM     13  C   UNL     1       2.819   0.045  -1.398  1.00  0.00     0.047 A 
ATOM     14  C   UNL     1       4.524   0.750   0.637  1.00  0.00     0.012 A 
ATOM     15  C   UNL     1       4.162   0.376  -1.682  1.00  0.00     0.012 A 
ATOM     16  C   UNL     1       5.037   0.777  -0.659  1.00  0.00    -0.024 A 
BRANCH  16  17
ATOM     17  C   UNL     1       6.414   1.247  -0.971  1.00  0.00     0.029 C 
ATOM     18  C   UNL     1       7.388   1.687  -0.148  1.00  0.00     0.082 C 
ATOM     19  S   UNL     1       7.387   1.823   1.575  1.00  0.00    -0.053 SA
ATOM     20  C   UNL     1       8.665   2.276  -0.657  1.00  0.00     0.280 C 
ATOM     21  C   UNL     1       8.630   3.040   1.595  1.00  0.00     0.162 C 
ATOM     22  N   UNL     1       9.227   3.065   0.351  1.00  0.00    -0.226 N 
ATOM     23  O   UNL     1       9.138   2.059  -1.766  1.00  0.00    -0.267 OA
ATOM     24  S   UNL     1       8.998   3.944   2.946  1.00  0.00    -0.050 S 
BRANCH  22  25
ATOM     25  N   UNL     1      10.373   3.854   0.087  1.00  0.00    -0.239 NA
ATOM     26  H   UNL     1      10.640   4.358   0.932  1.00  0.00     0.144 HD
ATOM     27  H   UNL     1      10.163   4.521  -0.655  1.00  0.00     0.144 HD
ENDBRANCH  22  25
ENDBRANCH  16  17
ENDBRANCH  10  11
ENDBRANCH   8  10
ENDBRANCH   5   8
ENDBRANCH   3   4
ENDBRANCH   2   3
ENDBRANCH   1   2
BRANCH   1  28
ATOM     28  C   UNL     1      -3.619   3.494  -1.437  1.00  0.00     0.002 C 
BRANCH  28  29
ATOM     29  C   UNL     1      -2.866   4.650  -2.099  1.00  0.00     0.021 C 
BRANCH  29  30
ATOM     30  C   UNL     1      -2.956   4.671  -3.620  1.00  0.00     0.116 C 
BRANCH  30  31
ATOM     31  N   UNL     1      -4.326   4.829  -4.082  1.00  0.00    -0.352 N 
ATOM     32  C   UNL     1      -4.829   5.728  -4.989  1.00  0.00     0.251 C 
ATOM     33  H   UNL     1      -4.981   4.206  -3.691  1.00  0.00     0.163 HD
ATOM     34  O   UNL     1      -6.041   5.857  -5.120  1.00  0.00    -0.269 OA
BRANCH  32  35
ATOM     35  C   UNL     1      -3.893   6.553  -5.782  1.00  0.00     0.039 A 
ATOM     36  C   UNL     1      -4.119   7.927  -5.886  1.00  0.00     0.014 A 
ATOM     37  C   UNL     1      -2.783   5.971  -6.401  1.00  0.00     0.014 A 
ATOM     38  C   UNL     1      -3.195   8.729  -6.562  1.00  0.00     0.010 A 
ATOM     39  C   UNL     1      -1.829   6.780  -7.010  1.00  0.00     0.010 A 
ATOM     40  C   UNL     1      -2.026   8.168  -7.099  1.00  0.00    -0.014 A 
BRANCH  40  41
ATOM     41  C   UNL     1      -0.999   9.003  -7.777  1.00  0.00     0.031 A 
ATOM     42  C   UNL     1      -0.696   8.773  -9.234  1.00  0.00     0.074 A 
ATOM     43  C   UNL     1      -0.290   9.907  -7.070  1.00  0.00     0.049 A 
ATOM     44  N   UNL     1       0.244   9.296  -9.977  1.00  0.00    -0.248 NA
ATOM     45  C   UNL     1      -1.548   7.802  -9.941  1.00  0.00     0.031 C 
ATOM     46  C   UNL     1      -0.477  10.204  -5.647  1.00  0.00     0.029 A 
ATOM     47  N   UNL     1       0.742  10.733  -7.444  1.00  0.00    -0.354 N 
ATOM     48  C   UNL     1       0.115   8.702 -11.228  1.00  0.00     0.074 A 
ATOM     49  C   UNL     1      -0.966   7.746 -11.130  1.00  0.00     0.031 C 
ATOM     50  C   UNL     1       0.398  11.154  -5.276  1.00  0.00     0.029 A 
ATOM     51  C   UNL     1       1.247  11.495  -6.413  1.00  0.00     0.049 A 
ATOM     52  H   UNL     1       1.088  10.777  -8.365  1.00  0.00     0.167 HD
ATOM     53  C   UNL     1       0.826   8.943 -12.356  1.00  0.00     0.034 A 
ATOM     54  C   UNL     1       2.290  12.350  -6.383  1.00  0.00     0.034 A 
ATOM     55  C   UNL     1       1.880   9.923 -12.445  1.00  0.00     0.049 A 
ATOM     56  C   UNL     1       3.081  12.578  -7.651  1.00  0.00     0.074 A 
ATOM     57  C   UNL     1       2.614  10.294 -13.558  1.00  0.00     0.029 A 
ATOM     58  N   UNL     1       2.355  10.681 -11.384  1.00  0.00    -0.354 N 
ATOM     59  N   UNL     1       2.910  12.044  -8.839  1.00  0.00    -0.248 NA
ATOM     60  C   UNL     1       4.198  13.530  -7.578  1.00  0.00     0.031 C 
ATOM     61  C   UNL     1       3.582  11.218 -13.155  1.00  0.00     0.029 A 
ATOM     62  C   UNL     1       3.395  11.492 -11.810  1.00  0.00     0.049 A 
ATOM     63  H   UNL     1       2.005  10.648 -10.464  1.00  0.00     0.167 HD
ATOM     64  C   UNL     1       3.867  12.635  -9.661  1.00  0.00     0.074 A 
ATOM     65  C   UNL     1       4.604  13.569  -8.838  1.00  0.00     0.031 C 
ATOM     66  C   UNL     1       4.110  12.431 -10.980  1.00  0.00     0.034 A 
BRANCH  53  67
ATOM     67  C   UNL     1       0.510   8.120 -13.581  1.00  0.00     0.023 A 
ATOM     68  C   UNL     1      -0.729   8.208 -14.237  1.00  0.00     0.031 A 
ATOM     69  C   UNL     1       1.479   7.250 -14.113  1.00  0.00     0.131 A 
ATOM     70  C   UNL     1      -0.984   7.403 -15.358  1.00  0.00     0.055 A 
ATOM     71  C   UNL     1       1.246   6.509 -15.272  1.00  0.00     0.041 A 
ATOM     72  F   UNL     1       2.673   7.109 -13.514  1.00  0.00    -0.206 F 
ATOM     73  C   UNL     1       0.005   6.576 -15.896  1.00  0.00     0.022 A 
BRANCH  70  74
ATOM     74  S   UNL     1      -2.663   7.374 -16.042  1.00  0.00     0.124 S 
ATOM     75  O   UNL     1      -3.435   6.877 -14.905  1.00  0.00    -0.237 OA
ATOM     76  O   UNL     1      -2.882   8.770 -16.402  1.00  0.00    -0.237 OA
ATOM     77  O   UNL     1      -2.558   6.448 -17.168  1.00  0.00    -0.744 OA
ENDBRANCH  70  74
ENDBRANCH  53  67
BRANCH  54  78
ATOM     78  C   UNL     1       2.681  13.042  -5.118  1.00  0.00     0.023 A 
ATOM     79  C   UNL     1       2.683  14.444  -5.036  1.00  0.00     0.031 A 
ATOM     80  C   UNL     1       3.148  12.320  -4.005  1.00  0.00     0.131 A 
ATOM     81  C   UNL     1       3.214  15.080  -3.902  1.00  0.00     0.055 A 
ATOM     82  C   UNL     1       3.609  12.957  -2.851  1.00  0.00     0.041 A 
ATOM     83  F   UNL     1       3.171  10.978  -4.026  1.00  0.00    -0.206 F 
ATOM     84  C   UNL     1       3.663  14.346  -2.803  1.00  0.00     0.022 A 
BRANCH  81  85
ATOM     85  S   UNL     1       3.441  16.880  -3.947  1.00  0.00     0.124 S 
ATOM     86  O   UNL     1       4.246  17.044  -5.153  1.00  0.00    -0.237 OA
ATOM     87  O   UNL     1       2.064  17.356  -4.024  1.00  0.00    -0.237 OA
ATOM     88  O   UNL     1       4.131  17.166  -2.692  1.00  0.00    -0.744 OA
ENDBRANCH  81  85
ENDBRANCH  54  78
BRANCH  66  89
ATOM     89  C   UNL     1       5.165  13.290 -11.634  1.00  0.00     0.023 A 
ATOM     90  C   UNL     1       6.527  13.179 -11.308  1.00  0.00     0.031 A 
ATOM     91  C   UNL     1       4.792  14.227 -12.615  1.00  0.00     0.131 A 
ATOM     92  C   UNL     1       7.462  14.026 -11.924  1.00  0.00     0.055 A 
ATOM     93  C   UNL     1       5.734  15.022 -13.268  1.00  0.00     0.041 A 
ATOM     94  F   UNL     1       3.504  14.376 -12.964  1.00  0.00    -0.206 F 
ATOM     95  C   UNL     1       7.076  14.932 -12.915  1.00  0.00     0.022 A 
BRANCH  92  96
ATOM     96  S   UNL     1       9.184  13.982 -11.357  1.00  0.00     0.124 S 
ATOM     97  O   UNL     1       9.048  14.327  -9.945  1.00  0.00    -0.237 OA
ATOM     98  O   UNL     1       9.573  12.605 -11.642  1.00  0.00    -0.237 OA
ATOM     99  O   UNL     1       9.843  14.994 -12.181  1.00  0.00    -0.744 OA
ENDBRANCH  92  96
ENDBRANCH  66  89
ENDBRANCH  40  41
ENDBRANCH  32  35
ENDBRANCH  30  31
ENDBRANCH  29  30
ENDBRANCH  28  29
ENDBRANCH   1  28
TORSDOF 20
