REMARK SMILES O=C(/C=C/c1c(Cl)cccc1Cl)NCC(=O)NCCCCCCNC(=O)c1ccc(-c2c3nc(c(-c4cc(S(=O)(=O)[O-])ccc4F)c4ccc([nH]4)c(-c4cc(S(=O)(=O)[O-])ccc4F)c4nc(c(-c5cc(S(=O)(=O)[O-])ccc5F)c5ccc2[nH]5)C=C4)C=C3)cc1
REMARK SMILES IDX 20 1 19 2 18 3 17 4 15 5 16 6 14 8 13 9 1 10 2 11 3 13 4 14
REMARK SMILES IDX 5 15 6 16 11 17 7 18 8 19 10 20 12 21 9 22 21 23 22 24 23 25
REMARK SMILES IDX 24 26 25 27 26 29 27 30 28 31 89 32 29 33 88 34 30 35 31 36
REMARK SMILES IDX 32 37 82 38 33 39 87 40 81 41 83 42 34 43 86 44 80 45 79 46
REMARK SMILES IDX 35 48 67 49 47 50 66 51 48 52 51 53 65 54 84 55 49 56 50 57
REMARK SMILES IDX 64 59 85 60 52 61 36 62 37 63 45 64 38 65 44 66 46 67 43 68
REMARK SMILES IDX 39 69 40 70 41 71 42 72 68 73 69 74 77 75 70 76 76 77 78 78
REMARK SMILES IDX 75 79 71 80 72 81 73 82 74 83 53 84 54 85 62 86 55 87 61 88
REMARK SMILES IDX 63 89 60 90 56 91 57 92 58 93 59 94
REMARK H PARENT 17 7 13 12 24 28 83 47 51 58
REMARK Flexibility Score: inf
ROOT
ATOM      1  C   UNL     1       2.911   3.865   3.293  1.00  0.00     0.002 C 
ENDROOT
BRANCH   1   2
ATOM      2  C   UNL     1       2.570   2.643   2.430  1.00  0.00     0.021 C 
BRANCH   2   3
ATOM      3  C   UNL     1       1.574   2.943   1.310  1.00  0.00     0.116 C 
BRANCH   3   4
ATOM      4  N   UNL     1       2.180   3.771   0.284  1.00  0.00    -0.355 N 
ATOM      5  C   UNL     1       2.561   3.428  -0.981  1.00  0.00     0.239 C 
ATOM      6  O   UNL     1       3.038   4.302  -1.708  1.00  0.00    -0.273 OA
ATOM      7  H   UNL     1       2.338   4.710   0.534  1.00  0.00     0.163 HD
BRANCH   5   8
ATOM      8  C   UNL     1       2.305   2.013  -1.505  1.00  0.00     0.216 C 
BRANCH   8   9
ATOM      9  N   UNL     1       2.964   0.986  -0.714  1.00  0.00    -0.343 N 
ATOM     10  O   UNL     1       1.079  -0.282  -0.430  1.00  0.00    -0.270 OA
ATOM     11  C   UNL     1       2.276  -0.098  -0.242  1.00  0.00     0.244 C 
ATOM     12  H   UNL     1       3.924   1.072  -0.515  1.00  0.00     0.164 HD
BRANCH  11  13
ATOM     13  C   UNL     1       3.030  -1.041   0.616  1.00  0.00     0.072 C 
ATOM     14  C   UNL     1       4.353  -1.256   0.573  1.00  0.00     0.017 C 
BRANCH  14  15
ATOM     15  C   UNL     1       5.001  -2.279   1.420  1.00  0.00     0.012 A 
ATOM     16  C   UNL     1       4.705  -3.652   1.292  1.00  0.00     0.049 A 
ATOM     17  C   UNL     1       5.965  -1.904   2.377  1.00  0.00     0.049 A 
ATOM     18  Cl  UNL     1       3.601  -4.256   0.099  1.00  0.00    -0.084 Cl
ATOM     19  C   UNL     1       5.325  -4.604   2.110  1.00  0.00     0.021 A 
ATOM     20  C   UNL     1       6.592  -2.862   3.185  1.00  0.00     0.021 A 
ATOM     21  Cl  UNL     1       6.427  -0.249   2.607  1.00  0.00    -0.084 Cl
ATOM     22  C   UNL     1       6.267  -4.210   3.056  1.00  0.00     0.003 A 
ENDBRANCH  14  15
ENDBRANCH  11  13
ENDBRANCH   8   9
ENDBRANCH   5   8
ENDBRANCH   3   4
ENDBRANCH   2   3
ENDBRANCH   1   2
BRANCH   1  23
ATOM     23  C   UNL     1       1.709   4.536   3.970  1.00  0.00     0.002 C 
BRANCH  23  24
ATOM     24  C   UNL     1       0.853   3.609   4.837  1.00  0.00     0.021 C 
BRANCH  24  25
ATOM     25  C   UNL     1       1.597   2.973   6.006  1.00  0.00     0.116 C 
BRANCH  25  26
ATOM     26  N   UNL     1       2.055   3.970   6.960  1.00  0.00    -0.352 N 
ATOM     27  C   UNL     1       1.886   4.013   8.318  1.00  0.00     0.251 C 
ATOM     28  H   UNL     1       2.560   4.722   6.574  1.00  0.00     0.163 HD
ATOM     29  O   UNL     1       2.151   5.052   8.927  1.00  0.00    -0.269 OA
BRANCH  27  30
ATOM     30  C   UNL     1       1.377   2.832   9.048  1.00  0.00     0.039 A 
ATOM     31  C   UNL     1       0.471   3.022  10.095  1.00  0.00     0.014 A 
ATOM     32  C   UNL     1       1.819   1.543   8.733  1.00  0.00     0.014 A 
ATOM     33  C   UNL     1      -0.012   1.920  10.804  1.00  0.00     0.010 A 
ATOM     34  C   UNL     1       1.277   0.440   9.388  1.00  0.00     0.010 A 
ATOM     35  C   UNL     1       0.375   0.618  10.448  1.00  0.00    -0.014 A 
BRANCH  35  36
ATOM     36  C   UNL     1      -0.106  -0.561  11.216  1.00  0.00     0.031 A 
ATOM     37  C   UNL     1       0.876  -1.405  11.986  1.00  0.00     0.074 A 
ATOM     38  C   UNL     1      -1.412  -0.889  11.196  1.00  0.00     0.049 A 
ATOM     39  N   UNL     1       0.670  -2.493  12.682  1.00  0.00    -0.248 NA
ATOM     40  C   UNL     1       2.285  -0.984  11.937  1.00  0.00     0.031 C 
ATOM     41  C   UNL     1      -2.453  -0.173  10.454  1.00  0.00     0.029 A 
ATOM     42  N   UNL     1      -2.090  -1.909  11.814  1.00  0.00    -0.354 N 
ATOM     43  C   UNL     1       1.921  -2.894  13.142  1.00  0.00     0.074 A 
ATOM     44  C   UNL     1       2.886  -1.972  12.581  1.00  0.00     0.031 C 
ATOM     45  C   UNL     1      -3.639  -0.757  10.687  1.00  0.00     0.029 A 
ATOM     46  C   UNL     1      -3.442  -1.911  11.559  1.00  0.00     0.049 A 
ATOM     47  H   UNL     1      -1.650  -2.578  12.387  1.00  0.00     0.167 HD
ATOM     48  C   UNL     1       2.235  -3.916  13.976  1.00  0.00     0.034 A 
ATOM     49  C   UNL     1      -4.410  -2.748  11.980  1.00  0.00     0.034 A 
ATOM     50  C   UNL     1       1.257  -4.817  14.538  1.00  0.00     0.049 A 
ATOM     51  C   UNL     1      -4.039  -3.879  12.906  1.00  0.00     0.074 A 
ATOM     52  C   UNL     1       1.453  -5.864  15.422  1.00  0.00     0.029 A 
ATOM     53  N   UNL     1      -0.107  -4.778  14.270  1.00  0.00    -0.354 N 
ATOM     54  N   UNL     1      -2.856  -4.220  13.367  1.00  0.00    -0.248 NA
ATOM     55  C   UNL     1      -5.139  -4.723  13.388  1.00  0.00     0.031 C 
ATOM     56  C   UNL     1       0.223  -6.496  15.636  1.00  0.00     0.029 A 
ATOM     57  C   UNL     1      -0.758  -5.793  14.954  1.00  0.00     0.049 A 
ATOM     58  H   UNL     1      -0.546  -4.124  13.680  1.00  0.00     0.167 HD
ATOM     59  C   UNL     1      -3.079  -5.295  14.224  1.00  0.00     0.074 A 
ATOM     60  C   UNL     1      -4.509  -5.529  14.228  1.00  0.00     0.031 C 
ATOM     61  C   UNL     1      -2.185  -6.021  14.945  1.00  0.00     0.034 A 
BRANCH  48  62
ATOM     62  C   UNL     1       3.697  -4.121  14.304  1.00  0.00     0.023 A 
ATOM     63  C   UNL     1       4.455  -3.131  14.956  1.00  0.00     0.031 A 
ATOM     64  C   UNL     1       4.357  -5.303  13.923  1.00  0.00     0.131 A 
ATOM     65  C   UNL     1       5.837  -3.302  15.126  1.00  0.00     0.055 A 
ATOM     66  C   UNL     1       5.715  -5.506  14.179  1.00  0.00     0.041 A 
ATOM     67  F   UNL     1       3.696  -6.277  13.277  1.00  0.00    -0.206 F 
ATOM     68  C   UNL     1       6.468  -4.494  14.768  1.00  0.00     0.022 A 
BRANCH  65  69
ATOM     69  S   UNL     1       6.825  -1.881  15.671  1.00  0.00     0.124 S 
ATOM     70  O   UNL     1       6.541  -0.906  14.620  1.00  0.00    -0.237 OA
ATOM     71  O   UNL     1       6.262  -1.589  16.983  1.00  0.00    -0.237 OA
ATOM     72  O   UNL     1       8.193  -2.396  15.678  1.00  0.00    -0.744 OA
ENDBRANCH  65  69
ENDBRANCH  48  62
BRANCH  49  73
ATOM     73  C   UNL     1      -5.824  -2.552  11.546  1.00  0.00     0.023 A 
ATOM     74  C   UNL     1      -6.831  -2.243  12.474  1.00  0.00     0.031 A 
ATOM     75  C   UNL     1      -6.198  -2.721  10.201  1.00  0.00     0.131 A 
ATOM     76  C   UNL     1      -8.169  -2.167  12.058  1.00  0.00     0.055 A 
ATOM     77  C   UNL     1      -7.523  -2.589   9.781  1.00  0.00     0.041 A 
ATOM     78  F   UNL     1      -5.274  -3.011   9.270  1.00  0.00    -0.206 F 
ATOM     79  C   UNL     1      -8.520  -2.325  10.715  1.00  0.00     0.022 A 
BRANCH  76  80
ATOM     80  S   UNL     1      -9.459  -1.950  13.315  1.00  0.00     0.124 S 
ATOM     81  O   UNL     1      -9.232  -3.105  14.175  1.00  0.00    -0.237 OA
ATOM     82  O   UNL     1      -9.113  -0.650  13.881  1.00  0.00    -0.237 OA
ATOM     83  O   UNL     1     -10.697  -1.981  12.540  1.00  0.00    -0.744 OA
ENDBRANCH  76  80
ENDBRANCH  49  73
BRANCH  61  84
ATOM     84  C   UNL     1      -2.747  -7.098  15.844  1.00  0.00     0.023 A 
ATOM     85  C   UNL     1      -3.432  -8.213  15.330  1.00  0.00     0.031 A 
ATOM     86  C   UNL     1      -2.632  -6.982  17.241  1.00  0.00     0.131 A 
ATOM     87  C   UNL     1      -4.044  -9.123  16.206  1.00  0.00     0.055 A 
ATOM     88  C   UNL     1      -3.180  -7.930  18.106  1.00  0.00     0.041 A 
ATOM     89  F   UNL     1      -1.990  -5.938  17.790  1.00  0.00    -0.206 F 
ATOM     90  C   UNL     1      -3.908  -8.997  17.590  1.00  0.00     0.022 A 
BRANCH  87  91
ATOM     91  S   UNL     1      -5.136 -10.395  15.512  1.00  0.00     0.124 S 
ATOM     92  O   UNL     1      -6.078  -9.597  14.735  1.00  0.00    -0.237 OA
ATOM     93  O   UNL     1      -4.207 -11.215  14.741  1.00  0.00    -0.237 OA
ATOM     94  O   UNL     1      -5.700 -11.043  16.695  1.00  0.00    -0.744 OA
ENDBRANCH  87  91
ENDBRANCH  61  84
ENDBRANCH  35  36
ENDBRANCH  27  30
ENDBRANCH  25  26
ENDBRANCH  24  25
ENDBRANCH  23  24
ENDBRANCH   1  23
TORSDOF 19
