REMARK SMILES O=C(NCCCCCCNC(=O)C1CCN(c2ccc(C(F)(F)F)cc2[N+](=O)[O-])CC1)c1ccc(-c2c3nc(c(-c4cc(S(=O)(=O)[O-])ccc4F)c4ccc([nH]4)c(-c4cc(S(=O)(=O)[O-])ccc4F)c4nc(c(-c5cc(S(=O)(=O)[O-])ccc5F)c5ccc2[nH]5)C=C4)C=C3)cc1
REMARK SMILES IDX 6 1 5 2 4 3 3 4 1 5 2 6 32 8 33 9 94 10 34 11 93 12 35 13
REMARK SMILES IDX 36 14 37 15 87 16 38 17 92 18 86 19 88 20 39 21 91 22 85 23
REMARK SMILES IDX 84 24 40 26 72 27 52 28 71 29 53 30 56 31 70 32 89 33 54 34
REMARK SMILES IDX 55 35 69 37 90 38 57 39 41 40 42 41 50 42 43 43 49 44 51 45
REMARK SMILES IDX 48 46 44 47 45 48 46 49 47 50 73 51 74 52 82 53 75 54 81 55
REMARK SMILES IDX 83 56 80 57 76 58 77 59 78 60 79 61 58 62 59 63 67 64 60 65
REMARK SMILES IDX 66 66 68 67 65 68 61 69 62 70 63 71 64 72 7 73 8 74 9 75
REMARK SMILES IDX 10 76 11 77 12 79 13 80 14 81 31 82 15 83 30 84 16 85 17 86
REMARK SMILES IDX 18 87 26 88 19 89 25 90 20 91 27 92 28 93 29 94 21 95 22 96
REMARK SMILES IDX 23 97 24 98
REMARK H PARENT 3 7 88 25 56 36 10 78
REMARK Flexibility Score: inf
ROOT
ATOM      1  C   UNL     1       4.219   2.648  -3.064  1.00  0.00     0.002 C 
ENDROOT
BRANCH   1   2
ATOM      2  C   UNL     1       4.585   1.220  -2.662  1.00  0.00     0.021 C 
BRANCH   2   3
ATOM      3  C   UNL     1       4.417   0.915  -1.181  1.00  0.00     0.116 C 
BRANCH   3   4
ATOM      4  N   UNL     1       3.023   0.899  -0.767  1.00  0.00    -0.352 N 
ATOM      5  O   UNL     1       1.158   0.010   0.147  1.00  0.00    -0.269 OA
ATOM      6  C   UNL     1       2.377  -0.034   0.010  1.00  0.00     0.251 C 
ATOM      7  H   UNL     1       2.472   1.651  -1.083  1.00  0.00     0.163 HD
BRANCH   6   8
ATOM      8  C   UNL     1       3.166  -1.105   0.660  1.00  0.00     0.039 A 
ATOM      9  C   UNL     1       4.355  -0.797   1.325  1.00  0.00     0.014 A 
ATOM     10  C   UNL     1       2.720  -2.428   0.592  1.00  0.00     0.014 A 
ATOM     11  C   UNL     1       5.163  -1.822   1.802  1.00  0.00     0.010 A 
ATOM     12  C   UNL     1       3.494  -3.451   1.152  1.00  0.00     0.010 A 
ATOM     13  C   UNL     1       4.733  -3.158   1.742  1.00  0.00    -0.014 A 
BRANCH  13  14
ATOM     14  C   UNL     1       5.573  -4.205   2.379  1.00  0.00     0.031 A 
ATOM     15  C   UNL     1       6.242  -5.279   1.567  1.00  0.00     0.074 A 
ATOM     16  C   UNL     1       5.772  -4.133   3.711  1.00  0.00     0.049 A 
ATOM     17  N   UNL     1       7.050  -6.228   1.967  1.00  0.00    -0.248 NA
ATOM     18  C   UNL     1       5.963  -5.298   0.124  1.00  0.00     0.031 C 
ATOM     19  C   UNL     1       5.156  -3.140   4.597  1.00  0.00     0.029 A 
ATOM     20  N   UNL     1       6.561  -4.877   4.548  1.00  0.00    -0.354 N 
ATOM     21  C   UNL     1       7.374  -6.962   0.831  1.00  0.00     0.074 A 
ATOM     22  C   UNL     1       6.646  -6.365  -0.270  1.00  0.00     0.031 C 
ATOM     23  C   UNL     1       5.636  -3.299   5.838  1.00  0.00     0.029 A 
ATOM     24  C   UNL     1       6.537  -4.444   5.854  1.00  0.00     0.049 A 
ATOM     25  H   UNL     1       7.094  -5.647   4.245  1.00  0.00     0.167 HD
ATOM     26  C   UNL     1       8.207  -8.027   0.721  1.00  0.00     0.034 A 
ATOM     27  C   UNL     1       7.158  -4.923   6.948  1.00  0.00     0.034 A 
ATOM     28  C   UNL     1       8.921  -8.612   1.833  1.00  0.00     0.049 A 
ATOM     29  C   UNL     1       8.066  -6.112   6.795  1.00  0.00     0.074 A 
ATOM     30  C   UNL     1       9.791  -9.690   1.831  1.00  0.00     0.029 A 
ATOM     31  N   UNL     1       8.848  -8.169   3.148  1.00  0.00    -0.354 N 
ATOM     32  N   UNL     1       8.363  -6.788   5.709  1.00  0.00    -0.248 NA
ATOM     33  C   UNL     1       8.725  -6.598   8.011  1.00  0.00     0.031 C 
ATOM     34  C   UNL     1      10.199  -9.931   3.149  1.00  0.00     0.029 A 
ATOM     35  C   UNL     1       9.638  -8.964   3.966  1.00  0.00     0.049 A 
ATOM     36  H   UNL     1       8.312  -7.402   3.455  1.00  0.00     0.167 HD
ATOM     37  C   UNL     1       9.248  -7.780   6.114  1.00  0.00     0.074 A 
ATOM     38  C   UNL     1       9.468  -7.584   7.534  1.00  0.00     0.031 C 
ATOM     39  C   UNL     1       9.820  -8.772   5.385  1.00  0.00     0.034 A 
BRANCH  26  40
ATOM     40  C   UNL     1       8.362  -8.653  -0.644  1.00  0.00     0.023 A 
ATOM     41  C   UNL     1       8.983  -7.970  -1.705  1.00  0.00     0.031 A 
ATOM     42  C   UNL     1       7.887  -9.954  -0.889  1.00  0.00     0.131 A 
ATOM     43  C   UNL     1       9.067  -8.569  -2.971  1.00  0.00     0.055 A 
ATOM     44  C   UNL     1       8.033 -10.571  -2.133  1.00  0.00     0.041 A 
ATOM     45  F   UNL     1       7.269 -10.649   0.080  1.00  0.00    -0.206 F 
ATOM     46  C   UNL     1       8.617  -9.874  -3.187  1.00  0.00     0.022 A 
BRANCH  43  47
ATOM     47  S   UNL     1       9.682  -7.580  -4.362  1.00  0.00     0.124 S 
ATOM     48  O   UNL     1       8.706  -6.494  -4.408  1.00  0.00    -0.237 OA
ATOM     49  O   UNL     1      11.023  -7.213  -3.922  1.00  0.00    -0.237 OA
ATOM     50  O   UNL     1       9.628  -8.505  -5.492  1.00  0.00    -0.744 OA
ENDBRANCH  43  47
ENDBRANCH  26  40
BRANCH  27  51
ATOM     51  C   UNL     1       6.916  -4.305   8.282  1.00  0.00     0.023 A 
ATOM     52  C   UNL     1       7.954  -3.694   9.002  1.00  0.00     0.031 A 
ATOM     53  C   UNL     1       5.639  -4.349   8.873  1.00  0.00     0.131 A 
ATOM     54  C   UNL     1       7.709  -3.192  10.289  1.00  0.00     0.055 A 
ATOM     55  C   UNL     1       5.388  -3.797  10.129  1.00  0.00     0.041 A 
ATOM     56  F   UNL     1       4.610  -4.918   8.225  1.00  0.00    -0.206 F 
ATOM     57  C   UNL     1       6.430  -3.227  10.851  1.00  0.00     0.022 A 
BRANCH  54  58
ATOM     58  S   UNL     1       9.110  -2.575  11.260  1.00  0.00     0.124 S 
ATOM     59  O   UNL     1      10.023  -3.712  11.226  1.00  0.00    -0.237 OA
ATOM     60  O   UNL     1       9.516  -1.403  10.491  1.00  0.00    -0.237 OA
ATOM     61  O   UNL     1       8.519  -2.288  12.566  1.00  0.00    -0.744 OA
ENDBRANCH  54  58
ENDBRANCH  27  51
BRANCH  39  62
ATOM     62  C   UNL     1      10.744  -9.700   6.131  1.00  0.00     0.023 A 
ATOM     63  C   UNL     1      10.260 -10.569   7.126  1.00  0.00     0.031 A 
ATOM     64  C   UNL     1      12.128  -9.676   5.888  1.00  0.00     0.131 A 
ATOM     65  C   UNL     1      11.159 -11.323   7.892  1.00  0.00     0.055 A 
ATOM     66  C   UNL     1      13.013 -10.476   6.613  1.00  0.00     0.041 A 
ATOM     67  F   UNL     1      12.643  -8.864   4.951  1.00  0.00    -0.206 F 
ATOM     68  C   UNL     1      12.531 -11.292   7.633  1.00  0.00     0.022 A 
BRANCH  65  69
ATOM     69  S   UNL     1      10.520 -12.258   9.310  1.00  0.00     0.124 S 
ATOM     70  O   UNL     1       9.875 -11.211  10.097  1.00  0.00    -0.237 OA
ATOM     71  O   UNL     1       9.626 -13.218   8.672  1.00  0.00    -0.237 OA
ATOM     72  O   UNL     1      11.722 -12.834   9.910  1.00  0.00    -0.744 OA
ENDBRANCH  65  69
ENDBRANCH  39  62
ENDBRANCH  13  14
ENDBRANCH   6   8
ENDBRANCH   3   4
ENDBRANCH   2   3
ENDBRANCH   1   2
BRANCH   1  73
ATOM     73  C   UNL     1       5.004   3.751  -2.346  1.00  0.00     0.002 C 
BRANCH  73  74
ATOM     74  C   UNL     1       6.535   3.622  -2.407  1.00  0.00     0.021 C 
BRANCH  74  75
ATOM     75  C   UNL     1       7.100   3.490  -3.823  1.00  0.00     0.116 C 
BRANCH  75  76
ATOM     76  N   UNL     1       6.744   4.648  -4.621  1.00  0.00    -0.356 N 
ATOM     77  C   UNL     1       7.477   5.759  -4.903  1.00  0.00     0.223 C 
ATOM     78  H   UNL     1       5.842   4.628  -5.014  1.00  0.00     0.163 HD
ATOM     79  O   UNL     1       6.889   6.743  -5.348  1.00  0.00    -0.275 OA
BRANCH  77  80
ATOM     80  C   UNL     1       8.990   5.708  -4.737  1.00  0.00     0.082 C 
ATOM     81  C   UNL     1       9.586   7.103  -4.501  1.00  0.00     0.035 C 
ATOM     82  C   UNL     1       9.607   5.022  -5.968  1.00  0.00     0.035 C 
ATOM     83  C   UNL     1       9.642   7.960  -5.763  1.00  0.00     0.117 C 
ATOM     84  C   UNL     1       9.607   5.935  -7.199  1.00  0.00     0.117 C 
ATOM     85  N   UNL     1      10.264   7.185  -6.835  1.00  0.00    -0.366 N 
BRANCH  85  86
ATOM     86  C   UNL     1      11.159   7.824  -7.668  1.00  0.00     0.116 A 
ATOM     87  C   UNL     1      12.417   8.146  -7.126  1.00  0.00     0.034 A 
ATOM     88  C   UNL     1      10.954   8.178  -9.009  1.00  0.00     0.293 A 
ATOM     89  C   UNL     1      13.419   8.766  -7.881  1.00  0.00     0.016 A 
ATOM     90  C   UNL     1      11.950   8.802  -9.786  1.00  0.00     0.101 A 
ATOM     91  C   UNL     1      13.198   9.098  -9.222  1.00  0.00     0.062 A 
BRANCH  88  92
ATOM     92  N   UNL     1       9.666   7.977  -9.649  1.00  0.00     0.064 N 
ATOM     93  O   UNL     1       9.663   7.312 -10.697  1.00  0.00    -0.258 OA
ATOM     94  O   UNL     1       8.681   8.546  -9.160  1.00  0.00    -0.258 OA
ENDBRANCH  88  92
BRANCH  91  95
ATOM     95  C   UNL     1      14.288   9.770 -10.018  1.00  0.00     0.416 C 
ATOM     96  F   UNL     1      14.654  10.969  -9.486  1.00  0.00    -0.166 F 
ATOM     97  F   UNL     1      15.425   9.025 -10.080  1.00  0.00    -0.166 F 
ATOM     98  F   UNL     1      13.938  10.028 -11.309  1.00  0.00    -0.166 F 
ENDBRANCH  91  95
ENDBRANCH  85  86
ENDBRANCH  77  80
ENDBRANCH  75  76
ENDBRANCH  74  75
ENDBRANCH  73  74
ENDBRANCH   1  73
TORSDOF 19
