REMARK SMILES NS(=O)(=O)c1ccc(-n2nc(C(=O)NCCCCCCNC(=O)c3ccc(-c4c5nc(c(-c6cc(S(=O)(=O)[O-])ccc6F)c6ccc([nH]6)c(-c6cc(S(=O)(=O)[O-])ccc6F)c6nc(c(-c7cc(S(=O)(=O)[O-])ccc7F)c7ccc4[nH]7)C=C6)C=C5)cc3)cc2-c2ccc(Cl)s2)cc1
REMARK SMILES IDX 17 1 16 2 15 3 14 4 12 5 13 6 11 8 9 9 10 10 88 11 87 12
REMARK SMILES IDX 8 13 5 14 6 15 96 16 7 17 95 18 2 19 3 20 4 21 1 22 89 25
REMARK SMILES IDX 90 26 94 27 91 28 92 29 93 30 18 31 19 32 20 33 21 34 22 35
REMARK SMILES IDX 23 37 24 38 25 39 86 40 26 41 85 42 27 43 28 44 29 45 79 46
REMARK SMILES IDX 30 47 84 48 78 49 80 50 31 51 83 52 77 53 76 54 32 56 64 57
REMARK SMILES IDX 44 58 63 59 45 60 48 61 62 62 81 63 46 64 47 65 61 67 82 68
REMARK SMILES IDX 49 69 33 70 34 71 42 72 35 73 41 74 43 75 40 76 36 77 37 78
REMARK SMILES IDX 38 79 39 80 65 81 66 82 74 83 67 84 73 85 75 86 72 87 68 88
REMARK SMILES IDX 69 89 70 90 71 91 50 92 51 93 59 94 52 95 58 96 60 97 57 98
REMARK SMILES IDX 53 99 54 100 55 101 56 102
REMARK H PARENT 14 7 1 23 1 24 21 36 80 55 48 66
REMARK Flexibility Score: inf
ROOT
ATOM      1  C   UNL     1       3.220  13.492   3.426  1.00  0.00     0.002 C 
ENDROOT
BRANCH   1   2
ATOM      2  C   UNL     1       3.632  12.102   2.922  1.00  0.00     0.021 C 
BRANCH   2   3
ATOM      3  C   UNL     1       2.904  10.959   3.625  1.00  0.00     0.116 C 
BRANCH   3   4
ATOM      4  N   UNL     1       1.578  10.760   3.079  1.00  0.00    -0.351 N 
ATOM      5  C   UNL     1       0.997   9.766   2.327  1.00  0.00     0.271 C 
ATOM      6  O   UNL     1      -0.203   9.927   2.083  1.00  0.00    -0.267 OA
ATOM      7  H   UNL     1       0.959  11.496   3.292  1.00  0.00     0.163 HD
BRANCH   5   8
ATOM      8  C   UNL     1       1.731   8.556   1.892  1.00  0.00     0.151 A 
ATOM      9  N   UNL     1       1.943   6.532   1.171  1.00  0.00    -0.231 N 
ATOM     10  N   UNL     1       1.055   7.541   1.311  1.00  0.00    -0.162 NA
ATOM     11  C   UNL     1       3.212   6.905   1.561  1.00  0.00     0.085 A 
ATOM     12  C   UNL     1       3.105   8.222   1.951  1.00  0.00     0.066 A 
BRANCH   9  13
ATOM     13  C   UNL     1       1.509   5.272   0.698  1.00  0.00     0.065 A 
ATOM     14  C   UNL     1       0.842   2.805  -0.388  1.00  0.00     0.082 A 
ATOM     15  C   UNL     1       1.603   2.860   0.784  1.00  0.00     0.024 A 
ATOM     16  C   UNL     1       0.371   3.978  -0.992  1.00  0.00     0.024 A 
ATOM     17  C   UNL     1       1.951   4.098   1.320  1.00  0.00     0.030 A 
ATOM     18  C   UNL     1       0.680   5.218  -0.429  1.00  0.00     0.030 A 
BRANCH  14  19
ATOM     19  S   UNL     1       0.484   1.262  -1.169  1.00  0.00     0.238 S 
ATOM     20  O   UNL     1       1.203   1.210  -2.430  1.00  0.00    -0.207 OA
ATOM     21  O   UNL     1      -0.921   0.999  -1.060  1.00  0.00    -0.207 OA
BRANCH  19  22
ATOM     22  N   UNL     1       1.235   0.109  -0.198  1.00  0.00    -0.225 NA
ATOM     23  H   UNL     1       1.073  -0.820  -0.587  1.00  0.00     0.137 HD
ATOM     24  H   UNL     1       0.849   0.155   0.745  1.00  0.00     0.137 HD
ENDBRANCH  19  22
ENDBRANCH  14  19
ENDBRANCH   9  13
BRANCH  11  25
ATOM     25  C   UNL     1       4.417   6.136   1.469  1.00  0.00     0.054 A 
ATOM     26  C   UNL     1       5.274   5.827   2.510  1.00  0.00     0.024 A 
ATOM     27  S   UNL     1       5.017   5.569  -0.033  1.00  0.00    -0.122 S 
ATOM     28  C   UNL     1       6.430   5.120   2.063  1.00  0.00     0.033 A 
ATOM     29  C   UNL     1       6.398   4.932   0.706  1.00  0.00     0.094 A 
ATOM     30  Cl  UNL     1       7.593   4.148  -0.245  1.00  0.00    -0.072 Cl
ENDBRANCH  11  25
ENDBRANCH   5   8
ENDBRANCH   3   4
ENDBRANCH   2   3
ENDBRANCH   1   2
BRANCH   1  31
ATOM     31  C   UNL     1       3.314  13.712   4.947  1.00  0.00     0.002 C 
BRANCH  31  32
ATOM     32  C   UNL     1       4.630  13.299   5.626  1.00  0.00     0.021 C 
BRANCH  32  33
ATOM     33  C   UNL     1       5.818  14.163   5.239  1.00  0.00     0.116 C 
BRANCH  33  34
ATOM     34  N   UNL     1       5.689  15.544   5.717  1.00  0.00    -0.352 N 
ATOM     35  C   UNL     1       6.499  16.633   5.435  1.00  0.00     0.251 C 
ATOM     36  H   UNL     1       4.928  15.720   6.316  1.00  0.00     0.163 HD
ATOM     37  O   UNL     1       6.513  17.610   6.174  1.00  0.00    -0.269 OA
BRANCH  35  38
ATOM     38  C   UNL     1       7.341  16.576   4.229  1.00  0.00     0.039 A 
ATOM     39  C   UNL     1       8.657  17.047   4.193  1.00  0.00     0.014 A 
ATOM     40  C   UNL     1       6.783  15.953   3.122  1.00  0.00     0.014 A 
ATOM     41  C   UNL     1       9.423  16.800   3.052  1.00  0.00     0.010 A 
ATOM     42  C   UNL     1       7.600  15.497   2.131  1.00  0.00     0.010 A 
ATOM     43  C   UNL     1       8.887  16.004   2.029  1.00  0.00    -0.014 A 
BRANCH  43  44
ATOM     44  C   UNL     1       9.627  15.658   0.823  1.00  0.00     0.031 A 
ATOM     45  C   UNL     1      10.951  15.025   1.018  1.00  0.00     0.074 A 
ATOM     46  C   UNL     1       9.058  15.710  -0.402  1.00  0.00     0.049 A 
ATOM     47  N   UNL     1      12.100  15.562   0.787  1.00  0.00    -0.248 NA
ATOM     48  C   UNL     1      11.035  13.696   1.637  1.00  0.00     0.031 C 
ATOM     49  C   UNL     1       7.679  16.069  -0.764  1.00  0.00     0.029 A 
ATOM     50  N   UNL     1       9.581  15.318  -1.592  1.00  0.00    -0.354 N 
ATOM     51  C   UNL     1      13.052  14.577   1.014  1.00  0.00     0.074 A 
ATOM     52  C   UNL     1      12.359  13.519   1.706  1.00  0.00     0.031 C 
ATOM     53  C   UNL     1       7.410  15.638  -2.015  1.00  0.00     0.029 A 
ATOM     54  C   UNL     1       8.644  15.161  -2.606  1.00  0.00     0.049 A 
ATOM     55  H   UNL     1      10.543  15.158  -1.725  1.00  0.00     0.167 HD
ATOM     56  C   UNL     1      14.281  14.640   0.429  1.00  0.00     0.034 A 
ATOM     57  C   UNL     1       8.859  14.672  -3.853  1.00  0.00     0.034 A 
ATOM     58  C   UNL     1      14.484  15.922  -0.211  1.00  0.00     0.049 A 
ATOM     59  C   UNL     1      10.294  14.914  -4.149  1.00  0.00     0.074 A 
ATOM     60  C   UNL     1      14.501  17.231   0.230  1.00  0.00     0.029 A 
ATOM     61  N   UNL     1      14.293  15.995  -1.575  1.00  0.00    -0.354 N 
ATOM     62  N   UNL     1      10.800  16.117  -4.239  1.00  0.00    -0.248 NA
ATOM     63  C   UNL     1      11.260  13.872  -3.827  1.00  0.00     0.031 C 
ATOM     64  C   UNL     1      13.803  17.961  -0.778  1.00  0.00     0.029 A 
ATOM     65  C   UNL     1      13.480  17.079  -1.813  1.00  0.00     0.049 A 
ATOM     66  H   UNL     1      14.668  15.385  -2.251  1.00  0.00     0.167 HD
ATOM     67  C   UNL     1      11.998  16.058  -3.542  1.00  0.00     0.074 A 
ATOM     68  C   UNL     1      12.287  14.628  -3.420  1.00  0.00     0.031 C 
ATOM     69  C   UNL     1      12.495  17.147  -2.879  1.00  0.00     0.034 A 
BRANCH  56  70
ATOM     70  C   UNL     1      15.195  13.477   0.141  1.00  0.00     0.023 A 
ATOM     71  C   UNL     1      16.492  13.771  -0.325  1.00  0.00     0.031 A 
ATOM     72  C   UNL     1      14.789  12.131   0.036  1.00  0.00     0.131 A 
ATOM     73  C   UNL     1      17.282  12.784  -0.937  1.00  0.00     0.055 A 
ATOM     74  C   UNL     1      15.606  11.136  -0.510  1.00  0.00     0.041 A 
ATOM     75  F   UNL     1      13.553  11.727   0.356  1.00  0.00    -0.206 F 
ATOM     76  C   UNL     1      16.848  11.464  -1.028  1.00  0.00     0.022 A 
BRANCH  73  77
ATOM     77  S   UNL     1      18.806  13.296  -1.773  1.00  0.00     0.124 S 
ATOM     78  O   UNL     1      18.326  14.363  -2.645  1.00  0.00    -0.237 OA
ATOM     79  O   UNL     1      19.641  13.708  -0.650  1.00  0.00    -0.237 OA
ATOM     80  O   UNL     1      19.239  12.081  -2.459  1.00  0.00    -0.744 OA
ENDBRANCH  73  77
ENDBRANCH  56  70
BRANCH  57  81
ATOM     81  C   UNL     1       7.952  13.771  -4.610  1.00  0.00     0.023 A 
ATOM     82  C   UNL     1       8.027  13.595  -6.005  1.00  0.00     0.031 A 
ATOM     83  C   UNL     1       7.107  12.881  -3.903  1.00  0.00     0.131 A 
ATOM     84  C   UNL     1       7.278  12.570  -6.633  1.00  0.00     0.055 A 
ATOM     85  C   UNL     1       6.366  11.877  -4.529  1.00  0.00     0.041 A 
ATOM     86  F   UNL     1       7.037  12.905  -2.562  1.00  0.00    -0.206 F 
ATOM     87  C   UNL     1       6.456  11.712  -5.900  1.00  0.00     0.022 A 
BRANCH  84  88
ATOM     88  S   UNL     1       7.444  12.274  -8.424  1.00  0.00     0.124 S 
ATOM     89  O   UNL     1       6.798  13.449  -8.995  1.00  0.00    -0.237 OA
ATOM     90  O   UNL     1       8.890  12.181  -8.592  1.00  0.00    -0.237 OA
ATOM     91  O   UNL     1       6.725  11.016  -8.629  1.00  0.00    -0.744 OA
ENDBRANCH  84  88
ENDBRANCH  57  81
BRANCH  69  92
ATOM     92  C   UNL     1      11.817  18.491  -3.096  1.00  0.00     0.023 A 
ATOM     93  C   UNL     1      10.449  18.746  -2.840  1.00  0.00     0.031 A 
ATOM     94  C   UNL     1      12.622  19.588  -3.444  1.00  0.00     0.131 A 
ATOM     95  C   UNL     1       9.933  20.052  -2.954  1.00  0.00     0.055 A 
ATOM     96  C   UNL     1      12.115  20.885  -3.533  1.00  0.00     0.041 A 
ATOM     97  F   UNL     1      13.937  19.424  -3.666  1.00  0.00    -0.206 F 
ATOM     98  C   UNL     1      10.765  21.121  -3.295  1.00  0.00     0.022 A 
BRANCH  95  99
ATOM     99  S   UNL     1       8.162  20.374  -2.666  1.00  0.00     0.124 S 
ATOM    100  O   UNL     1       7.495  19.392  -3.514  1.00  0.00    -0.237 OA
ATOM    101  O   UNL     1       8.028  20.170  -1.226  1.00  0.00    -0.237 OA
ATOM    102  O   UNL     1       7.995  21.764  -3.099  1.00  0.00    -0.744 OA
ENDBRANCH  95  99
ENDBRANCH  69  92
ENDBRANCH  43  44
ENDBRANCH  35  38
ENDBRANCH  33  34
ENDBRANCH  32  33
ENDBRANCH  31  32
ENDBRANCH   1  31
TORSDOF 20
