REMARK SMILES O=C(NCCCCCCNC(=O)c1nccnc1C(=O)Nc1n[nH]c2ncccc12)c1ccc(-c2c3nc(c(-c4cc(S(=O)(=O)[O-])ccc4F)c4ccc([nH]4)c(-c4cc(S(=O)(=O)[O-])ccc4F)c4nc(c(-c5cc(S(=O)(=O)[O-])ccc5F)c5ccc2[nH]5)C=C4)C=C3)cc1
REMARK SMILES IDX 6 1 5 2 4 3 3 4 1 5 2 6 31 8 32 9 93 10 33 11 92 12 34 13
REMARK SMILES IDX 35 14 36 15 86 16 37 17 91 18 85 19 87 20 38 21 90 22 84 23
REMARK SMILES IDX 83 24 39 26 71 27 51 28 70 29 52 30 55 31 69 32 88 33 53 34
REMARK SMILES IDX 54 35 68 37 89 38 56 39 40 40 41 41 49 42 42 43 48 44 50 45
REMARK SMILES IDX 47 46 43 47 44 48 45 49 46 50 72 51 73 52 81 53 74 54 80 55
REMARK SMILES IDX 82 56 79 57 75 58 76 59 77 60 78 61 57 62 58 63 66 64 59 65
REMARK SMILES IDX 65 66 67 67 64 68 60 69 61 70 62 71 63 72 7 73 8 74 9 75
REMARK SMILES IDX 10 76 11 77 12 79 13 80 14 81 18 82 15 83 17 84 16 85 19 86
REMARK SMILES IDX 20 87 21 88 22 90 23 91 30 92 24 93 25 94 29 95 26 97 28 98
REMARK SMILES IDX 27 99
REMARK H PARENT 3 7 87 25 55 36 10 78 21 89 24 96
REMARK Flexibility Score: inf
ROOT
ATOM      1  C   UNL     1       3.852   3.296  -1.440  1.00  0.00     0.002 C 
ENDROOT
BRANCH   1   2
ATOM      2  C   UNL     1       4.385   1.876  -1.280  1.00  0.00     0.021 C 
BRANCH   2   3
ATOM      3  C   UNL     1       4.237   1.323   0.121  1.00  0.00     0.116 C 
BRANCH   3   4
ATOM      4  N   UNL     1       2.845   1.021   0.409  1.00  0.00    -0.352 N 
ATOM      5  O   UNL     1       0.957  -0.194   0.190  1.00  0.00    -0.269 OA
ATOM      6  C   UNL     1       2.183  -0.173   0.250  1.00  0.00     0.251 C 
ATOM      7  H   UNL     1       2.309   1.767   0.764  1.00  0.00     0.163 HD
BRANCH   6   8
ATOM      8  C   UNL     1       2.963  -1.426   0.150  1.00  0.00     0.039 A 
ATOM      9  C   UNL     1       4.089  -1.608   0.954  1.00  0.00     0.014 A 
ATOM     10  C   UNL     1       2.560  -2.437  -0.726  1.00  0.00     0.014 A 
ATOM     11  C   UNL     1       4.903  -2.713   0.769  1.00  0.00     0.010 A 
ATOM     12  C   UNL     1       3.304  -3.619  -0.805  1.00  0.00     0.010 A 
ATOM     13  C   UNL     1       4.489  -3.761  -0.064  1.00  0.00    -0.014 A 
BRANCH  13  14
ATOM     14  C   UNL     1       5.253  -5.034  -0.036  1.00  0.00     0.031 A 
ATOM     15  C   UNL     1       5.901  -5.587  -1.271  1.00  0.00     0.074 A 
ATOM     16  C   UNL     1       5.369  -5.678   1.145  1.00  0.00     0.049 A 
ATOM     17  N   UNL     1       6.583  -6.695  -1.412  1.00  0.00    -0.248 NA
ATOM     18  C   UNL     1       5.759  -4.806  -2.507  1.00  0.00     0.031 C 
ATOM     19  C   UNL     1       4.780  -5.225   2.411  1.00  0.00     0.029 A 
ATOM     20  N   UNL     1       6.028  -6.829   1.487  1.00  0.00    -0.354 N 
ATOM     21  C   UNL     1       6.939  -6.756  -2.754  1.00  0.00     0.074 A 
ATOM     22  C   UNL     1       6.365  -5.588  -3.390  1.00  0.00     0.031 C 
ATOM     23  C   UNL     1       5.153  -6.052   3.394  1.00  0.00     0.029 A 
ATOM     24  C   UNL     1       5.913  -7.152   2.820  1.00  0.00     0.049 A 
ATOM     25  H   UNL     1       6.535  -7.373   0.842  1.00  0.00     0.167 HD
ATOM     26  C   UNL     1       7.681  -7.699  -3.386  1.00  0.00     0.034 A 
ATOM     27  C   UNL     1       6.332  -8.234   3.502  1.00  0.00     0.034 A 
ATOM     28  C   UNL     1       8.229  -8.862  -2.728  1.00  0.00     0.049 A 
ATOM     29  C   UNL     1       7.079  -9.304   2.755  1.00  0.00     0.074 A 
ATOM     30  C   UNL     1       9.012  -9.867  -3.269  1.00  0.00     0.029 A 
ATOM     31  N   UNL     1       8.039  -9.190  -1.390  1.00  0.00    -0.354 N 
ATOM     32  N   UNL     1       7.421  -9.338   1.488  1.00  0.00    -0.248 NA
ATOM     33  C   UNL     1       7.499 -10.477   3.528  1.00  0.00     0.031 C 
ATOM     34  C   UNL     1       9.214 -10.844  -2.290  1.00  0.00     0.029 A 
ATOM     35  C   UNL     1       8.653 -10.400  -1.103  1.00  0.00     0.049 A 
ATOM     36  H   UNL     1       7.541  -8.642  -0.741  1.00  0.00     0.167 HD
ATOM     37  C   UNL     1       8.127 -10.525   1.321  1.00  0.00     0.074 A 
ATOM     38  C   UNL     1       8.175 -11.164   2.620  1.00  0.00     0.031 C 
ATOM     39  C   UNL     1       8.688 -11.035   0.195  1.00  0.00     0.034 A 
BRANCH  26  40
ATOM     40  C   UNL     1       7.897  -7.541  -4.873  1.00  0.00     0.023 A 
ATOM     41  C   UNL     1       8.589  -6.442  -5.409  1.00  0.00     0.031 A 
ATOM     42  C   UNL     1       7.396  -8.501  -5.771  1.00  0.00     0.131 A 
ATOM     43  C   UNL     1       8.700  -6.293  -6.800  1.00  0.00     0.055 A 
ATOM     44  C   UNL     1       7.587  -8.394  -7.149  1.00  0.00     0.041 A 
ATOM     45  F   UNL     1       6.704  -9.561  -5.322  1.00  0.00    -0.206 F 
ATOM     46  C   UNL     1       8.230  -7.277  -7.673  1.00  0.00     0.022 A 
BRANCH  43  47
ATOM     47  S   UNL     1       9.329  -4.723  -7.453  1.00  0.00     0.124 S 
ATOM     48  O   UNL     1       8.401  -3.762  -6.860  1.00  0.00    -0.237 OA
ATOM     49  O   UNL     1      10.693  -4.689  -6.939  1.00  0.00    -0.237 OA
ATOM     50  O   UNL     1       9.209  -4.880  -8.901  1.00  0.00    -0.744 OA
ENDBRANCH  43  47
ENDBRANCH  26  40
BRANCH  27  51
ATOM     51  C   UNL     1       6.012  -8.382   4.951  1.00  0.00     0.023 A 
ATOM     52  C   UNL     1       7.030  -8.485   5.909  1.00  0.00     0.031 A 
ATOM     53  C   UNL     1       4.679  -8.467   5.394  1.00  0.00     0.131 A 
ATOM     54  C   UNL     1       6.702  -8.725   7.252  1.00  0.00     0.055 A 
ATOM     55  C   UNL     1       4.356  -8.630   6.741  1.00  0.00     0.041 A 
ATOM     56  F   UNL     1       3.663  -8.376   4.520  1.00  0.00    -0.206 F 
ATOM     57  C   UNL     1       5.373  -8.778   7.678  1.00  0.00     0.022 A 
BRANCH  54  58
ATOM     58  S   UNL     1       8.044  -9.088   8.415  1.00  0.00     0.124 S 
ATOM     59  O   UNL     1       8.680 -10.237   7.780  1.00  0.00    -0.237 OA
ATOM     60  O   UNL     1       8.804  -7.843   8.399  1.00  0.00    -0.237 OA
ATOM     61  O   UNL     1       7.342  -9.373   9.664  1.00  0.00    -0.744 OA
ENDBRANCH  54  58
ENDBRANCH  27  51
BRANCH  39  62
ATOM     62  C   UNL     1       9.459 -12.325   0.338  1.00  0.00     0.023 A 
ATOM     63  C   UNL     1       8.837 -13.529   0.713  1.00  0.00     0.031 A 
ATOM     64  C   UNL     1      10.847 -12.344   0.108  1.00  0.00     0.131 A 
ATOM     65  C   UNL     1       9.610 -14.682   0.910  1.00  0.00     0.055 A 
ATOM     66  C   UNL     1      11.598 -13.513   0.228  1.00  0.00     0.041 A 
ATOM     67  F   UNL     1      11.498 -11.222  -0.241  1.00  0.00    -0.206 F 
ATOM     68  C   UNL     1      10.982 -14.688   0.645  1.00  0.00     0.022 A 
BRANCH  65  69
ATOM     69  S   UNL     1       8.820 -16.146   1.632  1.00  0.00     0.124 S 
ATOM     70  O   UNL     1       8.307 -15.620   2.893  1.00  0.00    -0.237 OA
ATOM     71  O   UNL     1       7.817 -16.487   0.629  1.00  0.00    -0.237 OA
ATOM     72  O   UNL     1       9.920 -17.101   1.760  1.00  0.00    -0.744 OA
ENDBRANCH  65  69
ENDBRANCH  39  62
ENDBRANCH  13  14
ENDBRANCH   6   8
ENDBRANCH   3   4
ENDBRANCH   2   3
ENDBRANCH   1   2
BRANCH   1  73
ATOM     73  C   UNL     1       4.468   4.393  -0.540  1.00  0.00     0.002 C 
BRANCH  73  74
ATOM     74  C   UNL     1       6.189   4.757  -0.505  1.00  0.00     0.021 C 
BRANCH  74  75
ATOM     75  C   UNL     1       7.569   5.561  -2.021  1.00  0.00     0.116 C 
BRANCH  75  76
ATOM     76  N   UNL     1       7.570   6.944  -2.842  1.00  0.00    -0.351 N 
ATOM     77  C   UNL     1       8.478   7.980  -2.789  1.00  0.00     0.272 C 
ATOM     78  H   UNL     1       6.820   7.067  -3.467  1.00  0.00     0.163 HD
ATOM     79  O   UNL     1       8.277   9.061  -3.328  1.00  0.00    -0.267 OA
BRANCH  77  80
ATOM     80  C   UNL     1       9.736   7.693  -2.085  1.00  0.00     0.159 A 
ATOM     81  N   UNL     1      10.551   6.846  -2.800  1.00  0.00    -0.247 NA
ATOM     82  C   UNL     1       9.984   8.056  -0.769  1.00  0.00     0.159 A 
ATOM     83  C   UNL     1      11.637   6.386  -2.156  1.00  0.00     0.132 A 
ATOM     84  N   UNL     1      11.104   7.578  -0.136  1.00  0.00    -0.247 NA
ATOM     85  C   UNL     1      11.908   6.748  -0.852  1.00  0.00     0.132 A 
BRANCH  82  86
ATOM     86  C   UNL     1       9.194   9.040   0.037  1.00  0.00     0.277 C 
ATOM     87  O   UNL     1       9.823   9.945   0.596  1.00  0.00    -0.267 OA
ATOM     88  N   UNL     1       7.820   9.052   0.157  1.00  0.00    -0.303 N 
ATOM     89  H   UNL     1       7.452   9.866   0.572  1.00  0.00     0.172 HD
BRANCH  88  90
ATOM     90  C   UNL     1       6.882   8.121  -0.204  1.00  0.00     0.164 A 
ATOM     91  N   UNL     1       5.679   8.562  -0.619  1.00  0.00    -0.155 NA
ATOM     92  C   UNL     1       7.043   6.727  -0.335  1.00  0.00     0.063 A 
ATOM     93  N   UNL     1       5.130   7.627  -1.453  1.00  0.00    -0.259 N 
ATOM     94  C   UNL     1       5.798   6.437  -1.499  1.00  0.00     0.157 A 
ATOM     95  C   UNL     1       8.167   5.401   0.055  1.00  0.00     0.017 A 
ATOM     96  H   UNL     1       4.316   7.799  -1.979  1.00  0.00     0.192 HD
ATOM     97  N   UNL     1       5.701   4.991  -2.469  1.00  0.00    -0.237 NA
ATOM     98  C   UNL     1       8.111   3.867  -0.839  1.00  0.00     0.021 A 
ATOM     99  C   UNL     1       6.856   3.683  -2.053  1.00  0.00     0.113 A 
ENDBRANCH  88  90
ENDBRANCH  82  86
ENDBRANCH  77  80
ENDBRANCH  75  76
ENDBRANCH  74  75
ENDBRANCH  73  74
ENDBRANCH   1  73
TORSDOF 18
