REMARK SMILES Cc1c(CC(=O)NCCCCCCNC(=O)c2ccc(-c3c4nc(c(-c5cc(S(=O)(=O)[O-])ccc5F)c5ccc([nH]5)c(-c5cc(S(=O)(=O)[O-])ccc5F)c5nc(c(-c6cc(S(=O)(=O)[O-])ccc6F)c6ccc3[nH]6)C=C5)C=C4)cc2)cc(-c2ccc(S(C)(=O)=O)cc2)n1-c1ccccc1
REMARK SMILES IDX 10 1 9 2 8 3 7 4 5 5 6 6 4 8 3 9 1 10 2 11 92 12 80 13 81 14
REMARK SMILES IDX 93 15 94 16 98 17 95 18 97 19 96 20 82 21 83 22 91 23 84 24
REMARK SMILES IDX 90 25 85 26 86 27 87 28 88 29 89 30 11 31 12 32 13 33 14 34
REMARK SMILES IDX 15 35 16 37 17 38 18 39 79 40 19 41 78 42 20 43 21 44 22 45
REMARK SMILES IDX 72 46 23 47 77 48 71 49 73 50 24 51 76 52 70 53 69 54 25 56
REMARK SMILES IDX 57 57 37 58 56 59 38 60 41 61 55 62 74 63 39 64 40 65 54 67
REMARK SMILES IDX 75 68 42 69 26 70 27 71 35 72 28 73 34 74 36 75 33 76 29 77
REMARK SMILES IDX 30 78 31 79 32 80 58 81 59 82 67 83 60 84 66 85 68 86 65 87
REMARK SMILES IDX 61 88 62 89 63 90 64 91 43 92 44 93 52 94 45 95 51 96 53 97
REMARK SMILES IDX 50 98 46 99 47 100 48 101 49 102
REMARK H PARENT 7 7 14 36 73 55 41 66
REMARK Flexibility Score: inf
ROOT
ATOM      1  C   UNL     1       5.158  -1.308  -2.990  1.00  0.00     0.002 C 
ENDROOT
BRANCH   1   2
ATOM      2  C   UNL     1       3.715  -1.816  -2.883  1.00  0.00     0.021 C 
BRANCH   2   3
ATOM      3  C   UNL     1       3.549  -3.023  -1.960  1.00  0.00     0.116 C 
BRANCH   3   4
ATOM      4  N   UNL     1       3.668  -2.647  -0.564  1.00  0.00    -0.356 N 
ATOM      5  C   UNL     1       2.685  -2.561   0.382  1.00  0.00     0.224 C 
ATOM      6  O   UNL     1       2.995  -2.191   1.517  1.00  0.00    -0.275 OA
ATOM      7  H   UNL     1       4.576  -2.424  -0.258  1.00  0.00     0.163 HD
BRANCH   5   8
ATOM      8  C   UNL     1       1.260  -2.970   0.041  1.00  0.00     0.137 C 
BRANCH   8   9
ATOM      9  C   UNL     1       0.630  -2.102  -1.006  1.00  0.00    -0.017 A 
ATOM     10  C   UNL     1       0.909   0.218   0.096  1.00  0.00     0.065 C 
ATOM     11  C   UNL     1       0.511  -0.718  -0.998  1.00  0.00     0.024 A 
ATOM     12  N   UNL     1      -0.111  -0.327  -2.180  1.00  0.00    -0.314 N 
ATOM     13  C   UNL     1       0.049  -2.557  -2.217  1.00  0.00     0.033 A 
ATOM     14  C   UNL     1      -0.346  -1.460  -2.958  1.00  0.00     0.053 A 
BRANCH  12  15
ATOM     15  C   UNL     1      -0.477   0.996  -2.538  1.00  0.00     0.046 A 
ATOM     16  C   UNL     1      -1.786   1.248  -2.967  1.00  0.00     0.026 A 
ATOM     17  C   UNL     1       0.478   2.016  -2.526  1.00  0.00     0.026 A 
ATOM     18  C   UNL     1      -2.140   2.527  -3.388  1.00  0.00     0.002 A 
ATOM     19  C   UNL     1       0.117   3.291  -2.961  1.00  0.00     0.002 A 
ATOM     20  C   UNL     1      -1.187   3.545  -3.390  1.00  0.00     0.000 A 
ENDBRANCH  12  15
BRANCH  14  21
ATOM     21  C   UNL     1      -0.870  -1.449  -4.330  1.00  0.00    -0.001 A 
ATOM     22  C   UNL     1      -0.286  -0.657  -5.332  1.00  0.00     0.011 A 
ATOM     23  C   UNL     1      -1.982  -2.239  -4.646  1.00  0.00     0.011 A 
ATOM     24  C   UNL     1      -0.831  -0.626  -6.617  1.00  0.00     0.021 A 
ATOM     25  C   UNL     1      -2.526  -2.217  -5.929  1.00  0.00     0.021 A 
ATOM     26  C   UNL     1      -1.951  -1.406  -6.906  1.00  0.00     0.067 A 
BRANCH  26  27
ATOM     27  S   UNL     1      -2.613  -1.430  -8.558  1.00  0.00     0.175 S 
ATOM     28  C   UNL     1      -3.232   0.216  -8.773  1.00  0.00     0.163 C 
ATOM     29  O   UNL     1      -1.480  -1.658  -9.431  1.00  0.00    -0.224 OA
ATOM     30  O   UNL     1      -3.742  -2.342  -8.538  1.00  0.00    -0.224 OA
ENDBRANCH  26  27
ENDBRANCH  14  21
ENDBRANCH   8   9
ENDBRANCH   5   8
ENDBRANCH   3   4
ENDBRANCH   2   3
ENDBRANCH   1   2
BRANCH   1  31
ATOM     31  C   UNL     1       6.144  -2.296  -3.623  1.00  0.00     0.002 C 
BRANCH  31  32
ATOM     32  C   UNL     1       5.712  -2.906  -4.971  1.00  0.00     0.021 C 
BRANCH  32  33
ATOM     33  C   UNL     1       5.061  -1.978  -6.028  1.00  0.00     0.116 C 
BRANCH  33  34
ATOM     34  N   UNL     1       5.958  -1.385  -6.978  1.00  0.00    -0.352 N 
ATOM     35  C   UNL     1       5.677  -0.938  -8.261  1.00  0.00     0.251 C 
ATOM     36  H   UNL     1       6.891  -1.283  -6.681  1.00  0.00     0.163 HD
ATOM     37  O   UNL     1       6.686  -0.820  -8.968  1.00  0.00    -0.269 OA
BRANCH  35  38
ATOM     38  C   UNL     1       4.273  -0.704  -8.883  1.00  0.00     0.039 A 
ATOM     39  C   UNL     1       4.172  -1.113 -10.174  1.00  0.00     0.014 A 
ATOM     40  C   UNL     1       3.086  -0.019  -8.501  1.00  0.00     0.014 A 
ATOM     41  C   UNL     1       2.972  -0.862 -10.958  1.00  0.00     0.010 A 
ATOM     42  C   UNL     1       1.794   0.241  -9.409  1.00  0.00     0.010 A 
ATOM     43  C   UNL     1       1.632  -0.191 -10.740  1.00  0.00    -0.014 A 
BRANCH  43  44
ATOM     44  C   UNL     1       0.362  -0.212 -12.093  1.00  0.00     0.031 A 
ATOM     45  C   UNL     1       1.095  -1.316 -12.751  1.00  0.00     0.074 A 
ATOM     46  C   UNL     1      -0.894   0.453 -12.942  1.00  0.00     0.049 A 
ATOM     47  N   UNL     1       2.169  -0.938 -13.370  1.00  0.00    -0.248 NA
ATOM     48  C   UNL     1       1.208  -2.771 -12.480  1.00  0.00     0.031 C 
ATOM     49  C   UNL     1      -2.216   1.061 -11.669  1.00  0.00     0.029 A 
ATOM     50  N   UNL     1      -2.031   0.306 -14.598  1.00  0.00    -0.354 N 
ATOM     51  C   UNL     1       2.438  -1.921 -14.243  1.00  0.00     0.074 A 
ATOM     52  C   UNL     1       2.122  -3.098 -13.425  1.00  0.00     0.031 C 
ATOM     53  C   UNL     1      -3.730   1.174 -12.318  1.00  0.00     0.029 A 
ATOM     54  C   UNL     1      -3.861   0.739 -14.214  1.00  0.00     0.049 A 
ATOM     55  H   UNL     1      -1.694   0.048 -15.486  1.00  0.00     0.167 HD
ATOM     56  C   UNL     1       1.843  -1.391 -15.359  1.00  0.00     0.034 A 
ATOM     57  C   UNL     1      -5.155   0.225 -14.825  1.00  0.00     0.034 A 
ATOM     58  C   UNL     1       0.417  -2.033 -15.350  1.00  0.00     0.049 A 
ATOM     59  C   UNL     1      -5.142  -0.914 -13.818  1.00  0.00     0.074 A 
ATOM     60  C   UNL     1      -0.175  -3.270 -14.989  1.00  0.00     0.029 A 
ATOM     61  N   UNL     1      -0.631  -1.229 -15.074  1.00  0.00    -0.354 N 
ATOM     62  N   UNL     1      -4.916  -0.795 -12.536  1.00  0.00    -0.248 NA
ATOM     63  C   UNL     1      -4.914  -2.267 -14.289  1.00  0.00     0.031 C 
ATOM     64  C   UNL     1      -1.260  -3.007 -13.999  1.00  0.00     0.029 A 
ATOM     65  C   UNL     1      -1.530  -1.642 -13.965  1.00  0.00     0.049 A 
ATOM     66  H   UNL     1      -0.793  -0.404 -15.585  1.00  0.00     0.167 HD
ATOM     67  C   UNL     1      -3.644  -1.296 -12.629  1.00  0.00     0.074 A 
ATOM     68  C   UNL     1      -4.008  -2.551 -13.344  1.00  0.00     0.031 C 
ATOM     69  C   UNL     1      -2.575  -0.393 -13.106  1.00  0.00     0.034 A 
BRANCH  56  70
ATOM     70  C   UNL     1       2.492   0.286 -15.274  1.00  0.00     0.023 A 
ATOM     71  C   UNL     1       3.892   0.419 -15.451  1.00  0.00     0.031 A 
ATOM     72  C   UNL     1       2.071   1.360 -14.372  1.00  0.00     0.131 A 
ATOM     73  C   UNL     1       4.697   1.430 -14.768  1.00  0.00     0.055 A 
ATOM     74  C   UNL     1       2.852   2.331 -13.677  1.00  0.00     0.041 A 
ATOM     75  F   UNL     1       0.858   1.423 -13.888  1.00  0.00    -0.206 F 
ATOM     76  C   UNL     1       4.195   2.363 -13.865  1.00  0.00     0.022 A 
BRANCH  73  77
ATOM     77  S   UNL     1       6.483   1.508 -15.055  1.00  0.00     0.124 S 
ATOM     78  O   UNL     1       6.974   0.398 -14.245  1.00  0.00    -0.237 OA
ATOM     79  O   UNL     1       6.560   1.331 -16.502  1.00  0.00    -0.237 OA
ATOM     80  O   UNL     1       6.862   2.840 -14.581  1.00  0.00    -0.744 OA
ENDBRANCH  73  77
ENDBRANCH  56  70
BRANCH  57  81
ATOM     81  C   UNL     1      -6.903   0.097 -15.031  1.00  0.00     0.023 A 
ATOM     82  C   UNL     1      -7.695  -0.115 -16.263  1.00  0.00     0.031 A 
ATOM     83  C   UNL     1      -7.689  -0.253 -13.885  1.00  0.00     0.131 A 
ATOM     84  C   UNL     1      -9.060  -0.705 -16.246  1.00  0.00     0.055 A 
ATOM     85  C   UNL     1      -8.917  -0.966 -13.903  1.00  0.00     0.041 A 
ATOM     86  F   UNL     1      -7.261   0.044 -12.652  1.00  0.00    -0.206 F 
ATOM     87  C   UNL     1      -9.598  -1.217 -15.072  1.00  0.00     0.022 A 
BRANCH  84  88
ATOM     88  S   UNL     1     -10.284  -0.830 -17.689  1.00  0.00     0.124 S 
ATOM     89  O   UNL     1     -10.693   0.556 -17.884  1.00  0.00    -0.237 OA
ATOM     90  O   UNL     1      -9.499  -1.436 -18.756  1.00  0.00    -0.237 OA
ATOM     91  O   UNL     1     -11.357  -1.694 -17.178  1.00  0.00    -0.744 OA
ENDBRANCH  84  88
ENDBRANCH  57  81
BRANCH  69  92
ATOM     92  C   UNL     1      -2.221   1.743 -13.582  1.00  0.00     0.023 A 
ATOM     93  C   UNL     1      -2.867   3.126 -13.325  1.00  0.00     0.031 A 
ATOM     94  C   UNL     1      -1.155   2.305 -14.740  1.00  0.00     0.131 A 
ATOM     95  C   UNL     1      -2.638   4.407 -14.039  1.00  0.00     0.055 A 
ATOM     96  C   UNL     1      -0.923   3.555 -15.368  1.00  0.00     0.041 A 
ATOM     97  F   UNL     1      -0.455   1.406 -15.498  1.00  0.00    -0.206 F 
ATOM     98  C   UNL     1      -1.707   4.610 -15.050  1.00  0.00     0.022 A 
BRANCH  95  99
ATOM     99  S   UNL     1      -3.702   5.850 -13.662  1.00  0.00     0.124 S 
ATOM    100  O   UNL     1      -5.015   5.366 -14.068  1.00  0.00    -0.237 OA
ATOM    101  O   UNL     1      -3.487   6.014 -12.228  1.00  0.00    -0.237 OA
ATOM    102  O   UNL     1      -3.158   6.926 -14.492  1.00  0.00    -0.744 OA
ENDBRANCH  95  99
ENDBRANCH  69  92
ENDBRANCH  43  44
ENDBRANCH  35  38
ENDBRANCH  33  34
ENDBRANCH  32  33
ENDBRANCH  31  32
ENDBRANCH   1  31
TORSDOF 20
