REMARK SMILES O=C(NCCCCCCNC(=O)[C@@H]1C=C[C@@H](Nc2ccc3ccccc3n2)C1)c1ccc(-c2c3nc(c(-c4cc(S(=O)(=O)[O-])ccc4F)c4ccc([nH]4)c(-c4cc(S(=O)(=O)[O-])ccc4F)c4nc(c(-c5cc(S(=O)(=O)[O-])ccc5F)c5ccc2[nH]5)C=C4)C=C3)cc1
REMARK SMILES IDX 6 1 5 2 4 3 3 4 1 5 2 6 29 8 30 9 91 10 31 11 90 12 32 13
REMARK SMILES IDX 33 14 34 15 84 16 35 17 89 18 83 19 85 20 36 21 88 22 82 23
REMARK SMILES IDX 81 24 37 26 69 27 49 28 68 29 50 30 53 31 67 32 86 33 51 34
REMARK SMILES IDX 52 35 66 37 87 38 54 39 38 40 39 41 47 42 40 43 46 44 48 45
REMARK SMILES IDX 45 46 41 47 42 48 43 49 44 50 70 51 71 52 79 53 72 54 78 55
REMARK SMILES IDX 80 56 77 57 73 58 74 59 75 60 76 61 55 62 56 63 64 64 57 65
REMARK SMILES IDX 63 66 65 67 62 68 58 69 59 70 60 71 61 72 7 73 8 74 9 75
REMARK SMILES IDX 10 76 11 77 12 79 13 80 14 81 28 82 15 83 16 84 17 85 18 87
REMARK SMILES IDX 19 88 27 89 20 90 26 91 21 92 25 93 22 94 24 95 23 96
REMARK H PARENT 3 7 85 25 53 36 10 78 17 86
REMARK Flexibility Score: inf
ROOT
ATOM      1  C   UNL     1      13.605   4.915  -9.112  1.00  0.00     0.002 C 
ENDROOT
BRANCH   1   2
ATOM      2  C   UNL     1      14.129   5.825  -8.001  1.00  0.00     0.021 C 
BRANCH   2   3
ATOM      3  C   UNL     1      15.496   5.454  -7.444  1.00  0.00     0.116 C 
BRANCH   3   4
ATOM      4  N   UNL     1      16.569   5.640  -8.406  1.00  0.00    -0.352 N 
ATOM      5  O   UNL     1      18.502   6.484  -9.209  1.00  0.00    -0.269 OA
ATOM      6  C   UNL     1      17.764   6.303  -8.245  1.00  0.00     0.251 C 
ATOM      7  H   UNL     1      16.422   5.237  -9.292  1.00  0.00     0.163 HD
BRANCH   6   8
ATOM      8  C   UNL     1      18.144   6.817  -6.908  1.00  0.00     0.039 A 
ATOM      9  C   UNL     1      17.984   6.023  -5.771  1.00  0.00     0.014 A 
ATOM     10  C   UNL     1      18.664   8.110  -6.791  1.00  0.00     0.014 A 
ATOM     11  C   UNL     1      18.206   6.568  -4.511  1.00  0.00     0.010 A 
ATOM     12  C   UNL     1      18.973   8.626  -5.527  1.00  0.00     0.010 A 
ATOM     13  C   UNL     1      18.720   7.868  -4.373  1.00  0.00    -0.014 A 
BRANCH  13  14
ATOM     14  C   UNL     1      19.041   8.370  -3.010  1.00  0.00     0.031 A 
ATOM     15  C   UNL     1      18.299   9.529  -2.405  1.00  0.00     0.074 A 
ATOM     16  C   UNL     1      19.981   7.718  -2.296  1.00  0.00     0.049 A 
ATOM     17  N   UNL     1      18.419  10.050  -1.209  1.00  0.00    -0.248 NA
ATOM     18  C   UNL     1      17.301  10.198  -3.252  1.00  0.00     0.031 C 
ATOM     19  C   UNL     1      20.777   6.591  -2.791  1.00  0.00     0.029 A 
ATOM     20  N   UNL     1      20.409   7.881  -1.004  1.00  0.00    -0.354 N 
ATOM     21  C   UNL     1      17.516  11.107  -1.157  1.00  0.00     0.074 A 
ATOM     22  C   UNL     1      16.886  11.178  -2.460  1.00  0.00     0.031 C 
ATOM     23  C   UNL     1      21.553   6.130  -1.800  1.00  0.00     0.029 A 
ATOM     24  C   UNL     1      21.362   6.966  -0.621  1.00  0.00     0.049 A 
ATOM     25  H   UNL     1      20.066   8.585  -0.407  1.00  0.00     0.167 HD
ATOM     26  C   UNL     1      17.234  11.932  -0.117  1.00  0.00     0.034 A 
ATOM     27  C   UNL     1      22.023   6.822   0.543  1.00  0.00     0.034 A 
ATOM     28  C   UNL     1      17.880  11.852   1.173  1.00  0.00     0.049 A 
ATOM     29  C   UNL     1      21.700   7.758   1.674  1.00  0.00     0.074 A 
ATOM     30  C   UNL     1      17.676  12.639   2.294  1.00  0.00     0.029 A 
ATOM     31  N   UNL     1      18.862  10.929   1.517  1.00  0.00    -0.354 N 
ATOM     32  N   UNL     1      20.839   8.749   1.704  1.00  0.00    -0.248 NA
ATOM     33  C   UNL     1      22.430   7.551   2.930  1.00  0.00     0.031 C 
ATOM     34  C   UNL     1      18.568  12.230   3.293  1.00  0.00     0.029 A 
ATOM     35  C   UNL     1      19.283  11.140   2.823  1.00  0.00     0.049 A 
ATOM     36  H   UNL     1      19.208  10.226   0.921  1.00  0.00     0.167 HD
ATOM     37  C   UNL     1      20.920   9.280   2.986  1.00  0.00     0.074 A 
ATOM     38  C   UNL     1      21.884   8.473   3.708  1.00  0.00     0.031 C 
ATOM     39  C   UNL     1      20.265  10.343   3.519  1.00  0.00     0.034 A 
BRANCH  26  40
ATOM     40  C   UNL     1      16.204  13.014  -0.346  1.00  0.00     0.023 A 
ATOM     41  C   UNL     1      14.855  12.707  -0.599  1.00  0.00     0.031 A 
ATOM     42  C   UNL     1      16.576  14.370  -0.320  1.00  0.00     0.131 A 
ATOM     43  C   UNL     1      13.941  13.737  -0.873  1.00  0.00     0.055 A 
ATOM     44  C   UNL     1      15.647  15.393  -0.523  1.00  0.00     0.041 A 
ATOM     45  F   UNL     1      17.852  14.725  -0.102  1.00  0.00    -0.206 F 
ATOM     46  C   UNL     1      14.322  15.079  -0.814  1.00  0.00     0.022 A 
BRANCH  43  47
ATOM     47  S   UNL     1      12.272  13.292  -1.427  1.00  0.00     0.124 S 
ATOM     48  O   UNL     1      12.556  12.531  -2.642  1.00  0.00    -0.237 OA
ATOM     49  O   UNL     1      11.758  12.524  -0.299  1.00  0.00    -0.237 OA
ATOM     50  O   UNL     1      11.627  14.585  -1.647  1.00  0.00    -0.744 OA
ENDBRANCH  43  47
ENDBRANCH  26  40
BRANCH  27  51
ATOM     51  C   UNL     1      23.076   5.775   0.683  1.00  0.00     0.023 A 
ATOM     52  C   UNL     1      22.942   4.722   1.600  1.00  0.00     0.031 A 
ATOM     53  C   UNL     1      24.251   5.834  -0.088  1.00  0.00     0.131 A 
ATOM     54  C   UNL     1      23.984   3.795   1.754  1.00  0.00     0.055 A 
ATOM     55  C   UNL     1      25.259   4.878   0.028  1.00  0.00     0.041 A 
ATOM     56  F   UNL     1      24.427   6.818  -0.985  1.00  0.00    -0.206 F 
ATOM     57  C   UNL     1      25.135   3.857   0.965  1.00  0.00     0.022 A 
BRANCH  54  58
ATOM     58  S   UNL     1      23.853   2.553   3.069  1.00  0.00     0.124 S 
ATOM     59  O   UNL     1      23.631   3.385   4.246  1.00  0.00    -0.237 OA
ATOM     60  O   UNL     1      22.714   1.758   2.621  1.00  0.00    -0.237 OA
ATOM     61  O   UNL     1      25.145   1.870   3.022  1.00  0.00    -0.744 OA
ENDBRANCH  54  58
ENDBRANCH  27  51
BRANCH  39  62
ATOM     62  C   UNL     1      20.571  10.666   4.960  1.00  0.00     0.023 A 
ATOM     63  C   UNL     1      21.842  11.119   5.357  1.00  0.00     0.031 A 
ATOM     64  C   UNL     1      19.597  10.469   5.955  1.00  0.00     0.131 A 
ATOM     65  C   UNL     1      22.128  11.292   6.719  1.00  0.00     0.055 A 
ATOM     66  C   UNL     1      19.870  10.702   7.303  1.00  0.00     0.041 A 
ATOM     67  F   UNL     1      18.369  10.035   5.632  1.00  0.00    -0.206 F 
ATOM     68  C   UNL     1      21.146  11.099   7.694  1.00  0.00     0.022 A 
BRANCH  65  69
ATOM     69  S   UNL     1      23.835  11.662   7.207  1.00  0.00     0.124 S 
ATOM     70  O   UNL     1      24.566  10.535   6.636  1.00  0.00    -0.237 OA
ATOM     71  O   UNL     1      24.066  12.957   6.577  1.00  0.00    -0.237 OA
ATOM     72  O   UNL     1      23.776  11.686   8.668  1.00  0.00    -0.744 OA
ENDBRANCH  65  69
ENDBRANCH  39  62
ENDBRANCH  13  14
ENDBRANCH   6   8
ENDBRANCH   3   4
ENDBRANCH   2   3
ENDBRANCH   1   2
BRANCH   1  73
ATOM     73  C   UNL     1      13.521   3.422  -8.776  1.00  0.00     0.002 C 
BRANCH  73  74
ATOM     74  C   UNL     1      12.821   3.061  -7.460  1.00  0.00     0.021 C 
BRANCH  74  75
ATOM     75  C   UNL     1      11.415   3.627  -7.290  1.00  0.00     0.116 C 
BRANCH  75  76
ATOM     76  N   UNL     1      10.475   3.067  -8.239  1.00  0.00    -0.356 N 
ATOM     77  C   UNL     1       9.292   2.424  -8.071  1.00  0.00     0.227 C 
ATOM     78  H   UNL     1      10.744   3.172  -9.180  1.00  0.00     0.163 HD
ATOM     79  O   UNL     1       8.665   2.146  -9.102  1.00  0.00    -0.274 OA
BRANCH  77  80
ATOM     80  C   UNL     1       8.761   1.937  -6.717  1.00  0.00     0.103 C 
ATOM     81  C   UNL     1       8.838   2.826  -5.518  1.00  0.00    -0.016 C 
ATOM     82  C   UNL     1       9.466   0.653  -6.268  1.00  0.00     0.046 C 
ATOM     83  C   UNL     1       9.567   2.276  -4.538  1.00  0.00    -0.006 C 
ATOM     84  C   UNL     1      10.170   0.969  -4.939  1.00  0.00     0.104 C 
BRANCH  84  85
ATOM     85  N   UNL     1       9.823  -0.041  -3.976  1.00  0.00    -0.364 N 
ATOM     86  H   UNL     1       8.875  -0.208  -3.771  1.00  0.00     0.162 HD
BRANCH  85  87
ATOM     87  C   UNL     1      10.796  -0.780  -3.334  1.00  0.00     0.127 A 
ATOM     88  C   UNL     1      10.496  -2.088  -2.978  1.00  0.00     0.047 A 
ATOM     89  N   UNL     1      12.014  -0.249  -3.114  1.00  0.00    -0.231 NA
ATOM     90  C   UNL     1      11.474  -2.878  -2.383  1.00  0.00     0.014 A 
ATOM     91  C   UNL     1      12.951  -0.989  -2.486  1.00  0.00     0.073 A 
ATOM     92  C   UNL     1      12.728  -2.331  -2.115  1.00  0.00     0.000 A 
ATOM     93  C   UNL     1      14.185  -0.429  -2.176  1.00  0.00     0.029 A 
ATOM     94  C   UNL     1      13.739  -3.079  -1.486  1.00  0.00     0.010 A 
ATOM     95  C   UNL     1      15.187  -1.161  -1.529  1.00  0.00     0.002 A 
ATOM     96  C   UNL     1      14.967  -2.492  -1.192  1.00  0.00     0.001 A 
ENDBRANCH  85  87
ENDBRANCH  84  85
ENDBRANCH  77  80
ENDBRANCH  75  76
ENDBRANCH  74  75
ENDBRANCH  73  74
ENDBRANCH   1  73
TORSDOF 18
