REMARK SMILES COc1ccc2c(c1)c(CC(=O)NCCCCCCNC(=O)c1ccc(-c3c4nc(c(-c5cc(S(=O)(=O)[O-])ccc5F)c5ccc([nH]5)c(-c5cc(S(=O)(=O)[O-])ccc5F)c5nc(c(-c6cc(S(=O)(=O)[O-])ccc6F)c6ccc3[nH]6)C=C5)C=C4)cc1)c(C)n2Cc1ccn(C(F)F)c(=O)c1
REMARK SMILES IDX 16 1 15 2 14 3 13 4 11 5 12 6 10 8 9 9 3 10 4 11 8 12 5 13
REMARK SMILES IDX 7 14 6 15 88 16 86 17 87 18 2 19 1 20 89 21 90 22 91 23
REMARK SMILES IDX 99 24 92 25 97 26 93 27 98 28 94 29 95 30 96 31 17 32 18 33
REMARK SMILES IDX 19 34 20 35 21 36 22 38 23 39 24 40 85 41 25 42 84 43 26 44
REMARK SMILES IDX 27 45 28 46 78 47 29 48 83 49 77 50 79 51 30 52 82 53 76 54
REMARK SMILES IDX 75 55 31 57 63 58 43 59 62 60 44 61 47 62 61 63 80 64 45 65
REMARK SMILES IDX 46 66 60 68 81 69 48 70 32 71 33 72 41 73 34 74 40 75 42 76
REMARK SMILES IDX 39 77 35 78 36 79 37 80 38 81 64 82 65 83 73 84 66 85 72 86
REMARK SMILES IDX 74 87 71 88 67 89 68 90 69 91 70 92 49 93 50 94 58 95 51 96
REMARK SMILES IDX 57 97 59 98 56 99 52 100 53 101 54 102 55 103
REMARK H PARENT 13 7 20 37 79 56 47 67
REMARK Flexibility Score: inf
ROOT
ATOM      1  C   UNL     1       0.502   1.097  -8.367  1.00  0.00     0.002 C 
ENDROOT
BRANCH   1   2
ATOM      2  C   UNL     1       0.583   2.333  -7.462  1.00  0.00     0.021 C 
BRANCH   2   3
ATOM      3  C   UNL     1      -0.739   3.092  -7.334  1.00  0.00     0.116 C 
BRANCH   3   4
ATOM      4  N   UNL     1      -1.716   2.332  -6.574  1.00  0.00    -0.356 N 
ATOM      5  C   UNL     1      -2.192   2.541  -5.312  1.00  0.00     0.224 C 
ATOM      6  O   UNL     1      -2.974   1.713  -4.837  1.00  0.00    -0.275 OA
ATOM      7  H   UNL     1      -2.091   1.549  -7.039  1.00  0.00     0.163 HD
BRANCH   5   8
ATOM      8  C   UNL     1      -1.837   3.808  -4.547  1.00  0.00     0.138 C 
BRANCH   8   9
ATOM      9  C   UNL     1      -0.378   3.936  -4.231  1.00  0.00    -0.010 A 
ATOM     10  C   UNL     1       1.151   1.113  -2.177  1.00  0.00     0.119 A 
ATOM     11  C   UNL     1       2.464   1.562  -2.247  1.00  0.00     0.048 A 
ATOM     12  C   UNL     1       0.133   1.792  -2.846  1.00  0.00     0.057 A 
ATOM     13  C   UNL     1       2.786   2.734  -2.947  1.00  0.00     0.031 A 
ATOM     14  C   UNL     1       0.425   2.997  -3.520  1.00  0.00     0.007 A 
ATOM     15  C   UNL     1       1.745   3.458  -3.559  1.00  0.00     0.049 A 
ATOM     16  N   UNL     1       1.740   4.644  -4.284  1.00  0.00    -0.340 N 
ATOM     17  C   UNL     1       0.430   5.031  -4.509  1.00  0.00     0.020 A 
ATOM     18  C   UNL     1       0.002   6.367  -5.014  1.00  0.00     0.065 C 
BRANCH  10  19
ATOM     19  O   UNL     1       0.800  -0.034  -1.515  1.00  0.00    -0.497 OA
ATOM     20  C   UNL     1       1.135   0.022  -0.129  1.00  0.00     0.278 C 
ENDBRANCH  10  19
BRANCH  16  21
ATOM     21  C   UNL     1       2.939   5.404  -4.656  1.00  0.00     0.158 C 
BRANCH  21  22
ATOM     22  C   UNL     1       3.346   5.258  -6.110  1.00  0.00    -0.021 A 
ATOM     23  C   UNL     1       2.638   6.010  -7.129  1.00  0.00     0.024 A 
ATOM     24  C   UNL     1       4.413   4.534  -6.489  1.00  0.00     0.077 A 
ATOM     25  C   UNL     1       2.980   5.920  -8.420  1.00  0.00     0.095 A 
ATOM     26  C   UNL     1       4.855   4.472  -7.918  1.00  0.00     0.255 A 
ATOM     27  N   UNL     1       4.048   5.145  -8.825  1.00  0.00    -0.258 N 
ATOM     28  O   UNL     1       5.873   3.853  -8.177  1.00  0.00    -0.269 OA
BRANCH  27  29
ATOM     29  C   UNL     1       4.470   5.188 -10.207  1.00  0.00     0.451 C 
ATOM     30  F   UNL     1       5.449   6.110 -10.366  1.00  0.00    -0.185 F 
ATOM     31  F   UNL     1       4.950   3.995 -10.630  1.00  0.00    -0.185 F 
ENDBRANCH  27  29
ENDBRANCH  21  22
ENDBRANCH  16  21
ENDBRANCH   8   9
ENDBRANCH   5   8
ENDBRANCH   3   4
ENDBRANCH   2   3
ENDBRANCH   1   2
BRANCH   1  32
ATOM     32  C   UNL     1       0.152   1.385  -9.833  1.00  0.00     0.002 C 
BRANCH  32  33
ATOM     33  C   UNL     1       1.117   2.329 -10.562  1.00  0.00     0.021 C 
BRANCH  33  34
ATOM     34  C   UNL     1       2.571   1.857 -10.549  1.00  0.00     0.116 C 
BRANCH  34  35
ATOM     35  N   UNL     1       2.775   0.588 -11.208  1.00  0.00    -0.352 N 
ATOM     36  C   UNL     1       3.103   0.206 -12.481  1.00  0.00     0.251 C 
ATOM     37  H   UNL     1       2.650  -0.179 -10.603  1.00  0.00     0.163 HD
ATOM     38  O   UNL     1       3.343  -0.996 -12.631  1.00  0.00    -0.269 OA
BRANCH  36  39
ATOM     39  C   UNL     1       3.114   1.098 -13.676  1.00  0.00     0.039 A 
ATOM     40  C   UNL     1       2.942   2.482 -13.666  1.00  0.00     0.014 A 
ATOM     41  C   UNL     1       3.241   0.453 -14.922  1.00  0.00     0.014 A 
ATOM     42  C   UNL     1       2.782   3.183 -14.857  1.00  0.00     0.010 A 
ATOM     43  C   UNL     1       3.101   1.153 -16.117  1.00  0.00     0.010 A 
ATOM     44  C   UNL     1       2.807   2.511 -16.080  1.00  0.00    -0.014 A 
BRANCH  44  45
ATOM     45  C   UNL     1       2.539   3.295 -17.284  1.00  0.00     0.031 A 
ATOM     46  C   UNL     1       3.474   4.427 -17.550  1.00  0.00     0.074 A 
ATOM     47  C   UNL     1       1.558   2.994 -18.158  1.00  0.00     0.049 A 
ATOM     48  N   UNL     1       3.216   5.695 -17.612  1.00  0.00    -0.248 NA
ATOM     49  C   UNL     1       4.902   4.101 -17.662  1.00  0.00     0.031 C 
ATOM     50  C   UNL     1       0.750   1.774 -18.238  1.00  0.00     0.029 A 
ATOM     51  N   UNL     1       1.151   3.703 -19.247  1.00  0.00    -0.354 N 
ATOM     52  C   UNL     1       4.423   6.324 -17.930  1.00  0.00     0.074 A 
ATOM     53  C   UNL     1       5.442   5.309 -17.824  1.00  0.00     0.031 C 
ATOM     54  C   UNL     1       0.142   1.725 -19.446  1.00  0.00     0.029 A 
ATOM     55  C   UNL     1       0.390   2.974 -20.146  1.00  0.00     0.049 A 
ATOM     56  H   UNL     1       1.379   4.651 -19.384  1.00  0.00     0.167 HD
ATOM     57  C   UNL     1       4.492   7.603 -18.403  1.00  0.00     0.034 A 
ATOM     58  C   UNL     1       0.073   3.335 -21.413  1.00  0.00     0.034 A 
ATOM     59  C   UNL     1       3.269   8.320 -18.181  1.00  0.00     0.049 A 
ATOM     60  C   UNL     1       0.254   4.802 -21.539  1.00  0.00     0.074 A 
ATOM     61  C   UNL     1       2.578   8.735 -17.061  1.00  0.00     0.029 A 
ATOM     62  N   UNL     1       2.390   8.448 -19.228  1.00  0.00    -0.354 N 
ATOM     63  N   UNL     1      -0.509   5.691 -20.968  1.00  0.00    -0.248 NA
ATOM     64  C   UNL     1       1.558   5.281 -21.972  1.00  0.00     0.031 C 
ATOM     65  C   UNL     1       1.204   8.610 -17.410  1.00  0.00     0.029 A 
ATOM     66  C   UNL     1       1.141   8.171 -18.735  1.00  0.00     0.049 A 
ATOM     67  H   UNL     1       2.614   8.692 -20.155  1.00  0.00     0.167 HD
ATOM     68  C   UNL     1       0.363   6.691 -20.567  1.00  0.00     0.074 A 
ATOM     69  C   UNL     1       1.599   6.436 -21.305  1.00  0.00     0.031 C 
ATOM     70  C   UNL     1       0.110   7.468 -19.473  1.00  0.00     0.034 A 
BRANCH  57  71
ATOM     71  C   UNL     1       5.588   8.128 -19.300  1.00  0.00     0.023 A 
ATOM     72  C   UNL     1       6.489   7.280 -19.970  1.00  0.00     0.031 A 
ATOM     73  C   UNL     1       5.628   9.487 -19.680  1.00  0.00     0.131 A 
ATOM     74  C   UNL     1       7.386   7.768 -20.929  1.00  0.00     0.055 A 
ATOM     75  C   UNL     1       6.477   9.963 -20.689  1.00  0.00     0.041 A 
ATOM     76  F   UNL     1       4.804  10.387 -19.121  1.00  0.00    -0.206 F 
ATOM     77  C   UNL     1       7.366   9.102 -21.318  1.00  0.00     0.022 A 
BRANCH  74  78
ATOM     78  S   UNL     1       8.600   6.655 -21.691  1.00  0.00     0.124 S 
ATOM     79  O   UNL     1       8.211   6.709 -23.098  1.00  0.00    -0.237 OA
ATOM     80  O   UNL     1       9.859   7.320 -21.358  1.00  0.00    -0.237 OA
ATOM     81  O   UNL     1       8.373   5.387 -21.012  1.00  0.00    -0.744 OA
ENDBRANCH  74  78
ENDBRANCH  57  71
BRANCH  58  82
ATOM     82  C   UNL     1       0.132   2.448 -22.599  1.00  0.00     0.023 A 
ATOM     83  C   UNL     1       1.014   1.351 -22.607  1.00  0.00     0.031 A 
ATOM     84  C   UNL     1      -0.416   2.847 -23.829  1.00  0.00     0.131 A 
ATOM     85  C   UNL     1       1.369   0.732 -23.812  1.00  0.00     0.055 A 
ATOM     86  C   UNL     1      -0.072   2.217 -25.031  1.00  0.00     0.041 A 
ATOM     87  F   UNL     1      -1.237   3.907 -23.896  1.00  0.00    -0.206 F 
ATOM     88  C   UNL     1       0.837   1.162 -25.027  1.00  0.00     0.022 A 
BRANCH  85  89
ATOM     89  S   UNL     1       2.603  -0.597 -23.819  1.00  0.00     0.124 S 
ATOM     90  O   UNL     1       2.016  -1.562 -24.747  1.00  0.00    -0.237 OA
ATOM     91  O   UNL     1       3.787   0.102 -24.304  1.00  0.00    -0.237 OA
ATOM     92  O   UNL     1       2.643  -1.030 -22.425  1.00  0.00    -0.744 OA
ENDBRANCH  85  89
ENDBRANCH  58  82
BRANCH  70  93
ATOM     93  C   UNL     1      -1.246   7.387 -18.802  1.00  0.00     0.023 A 
ATOM     94  C   UNL     1      -1.869   8.598 -18.450  1.00  0.00     0.031 A 
ATOM     95  C   UNL     1      -1.808   6.200 -18.293  1.00  0.00     0.131 A 
ATOM     96  C   UNL     1      -2.971   8.605 -17.586  1.00  0.00     0.055 A 
ATOM     97  C   UNL     1      -2.956   6.206 -17.494  1.00  0.00     0.041 A 
ATOM     98  F   UNL     1      -1.218   5.011 -18.468  1.00  0.00    -0.206 F 
ATOM     99  C   UNL     1      -3.533   7.414 -17.121  1.00  0.00     0.022 A 
BRANCH  96 100
ATOM    100  S   UNL     1      -3.590  10.165 -16.904  1.00  0.00     0.124 S 
ATOM    101  O   UNL     1      -4.941  10.228 -17.453  1.00  0.00    -0.237 OA
ATOM    102  O   UNL     1      -3.511   9.925 -15.463  1.00  0.00    -0.237 OA
ATOM    103  O   UNL     1      -2.660  11.169 -17.411  1.00  0.00    -0.744 OA
ENDBRANCH  96 100
ENDBRANCH  70  93
ENDBRANCH  44  45
ENDBRANCH  36  39
ENDBRANCH  34  35
ENDBRANCH  33  34
ENDBRANCH  32  33
ENDBRANCH   1  32
TORSDOF 21
