REMARK SMILES COc1cccc(Cn2c(=O)c(=O)n(CC(=O)NCCCCCCNC(=O)c3ccc(-c4c5nc(c(-c6cc(S(=O)(=O)[O-])ccc6F)c6ccc([nH]6)c(-c6cc(S(=O)(=O)[O-])ccc6F)c6nc(c(-c7cc(S(=O)(=O)[O-])ccc7F)c7ccc4[nH]7)C=C6)C=C5)cc3)c3ccccc32)c1
REMARK SMILES IDX 21 1 20 2 19 3 18 4 16 5 17 6 15 8 14 9 9 10 10 11 96 12
REMARK SMILES IDX 11 13 12 14 91 15 95 16 13 17 92 18 94 19 93 20 8 21 7 22
REMARK SMILES IDX 3 23 4 24 97 25 5 26 6 27 2 28 1 29 22 30 23 31 24 32 25 33
REMARK SMILES IDX 26 34 27 36 28 37 29 38 90 39 30 40 89 41 31 42 32 43 33 44
REMARK SMILES IDX 83 45 34 46 88 47 82 48 84 49 35 50 87 51 81 52 80 53 36 55
REMARK SMILES IDX 68 56 48 57 67 58 49 59 52 60 66 61 85 62 50 63 51 64 65 66
REMARK SMILES IDX 86 67 53 68 37 69 38 70 46 71 39 72 45 73 47 74 44 75 40 76
REMARK SMILES IDX 41 77 42 78 43 79 69 80 70 81 78 82 71 83 77 84 79 85 76 86
REMARK SMILES IDX 72 87 73 88 74 89 75 90 54 91 55 92 63 93 56 94 62 95 64 96
REMARK SMILES IDX 61 97 57 98 58 99 59 100 60 101
REMARK H PARENT 18 7 25 35 84 54 52 65
REMARK Flexibility Score: inf
ROOT
ATOM      1  C   UNL     1      -0.641  -8.105   3.294  1.00  0.00     0.002 C 
ENDROOT
BRANCH   1   2
ATOM      2  C   UNL     1       0.559  -7.186   3.023  1.00  0.00     0.021 C 
BRANCH   2   3
ATOM      3  C   UNL     1       0.508  -5.889   3.829  1.00  0.00     0.116 C 
BRANCH   3   4
ATOM      4  N   UNL     1       0.966  -6.115   5.184  1.00  0.00    -0.355 N 
ATOM      5  C   UNL     1       2.207  -6.041   5.726  1.00  0.00     0.240 C 
ATOM      6  O   UNL     1       2.295  -6.319   6.930  1.00  0.00    -0.273 OA
ATOM      7  H   UNL     1       0.256  -6.365   5.819  1.00  0.00     0.163 HD
BRANCH   5   8
ATOM      8  C   UNL     1       3.419  -5.419   5.021  1.00  0.00     0.226 C 
BRANCH   8   9
ATOM      9  N   UNL     1       3.826  -5.636   3.641  1.00  0.00    -0.293 N 
ATOM     10  N   UNL     1       4.911  -5.679   1.041  1.00  0.00    -0.298 N 
ATOM     11  C   UNL     1       4.745  -4.471   1.696  1.00  0.00     0.317 A 
ATOM     12  C   UNL     1       5.136  -6.794   1.887  1.00  0.00     0.068 A 
ATOM     13  O   UNL     1       5.360  -3.438   1.472  1.00  0.00    -0.263 OA
ATOM     14  C   UNL     1       3.703  -4.530   2.803  1.00  0.00     0.317 A 
ATOM     15  C   UNL     1       4.629  -6.752   3.221  1.00  0.00     0.069 A 
ATOM     16  C   UNL     1       5.991  -7.831   1.490  1.00  0.00     0.028 A 
ATOM     17  O   UNL     1       2.919  -3.604   2.953  1.00  0.00    -0.263 OA
ATOM     18  C   UNL     1       4.955  -7.792   4.097  1.00  0.00     0.028 A 
ATOM     19  C   UNL     1       6.365  -8.812   2.408  1.00  0.00     0.002 A 
ATOM     20  C   UNL     1       5.839  -8.801   3.699  1.00  0.00     0.002 A 
BRANCH  10  21
ATOM     21  C   UNL     1       5.015  -5.669  -0.419  1.00  0.00     0.162 C 
BRANCH  21  22
ATOM     22  C   UNL     1       3.745  -5.027  -0.977  1.00  0.00    -0.024 A 
ATOM     23  C   UNL     1       2.342  -3.034  -0.863  1.00  0.00     0.119 A 
ATOM     24  C   UNL     1       1.221  -3.800  -1.157  1.00  0.00     0.046 A 
ATOM     25  C   UNL     1       3.597  -3.635  -0.865  1.00  0.00     0.052 A 
ATOM     26  C   UNL     1       1.372  -5.163  -1.445  1.00  0.00     0.004 A 
ATOM     27  C   UNL     1       2.623  -5.784  -1.326  1.00  0.00     0.006 A 
BRANCH  23  28
ATOM     28  O   UNL     1       2.354  -1.757  -0.388  1.00  0.00    -0.497 OA
ATOM     29  C   UNL     1       1.385  -0.843  -0.865  1.00  0.00     0.278 C 
ENDBRANCH  23  28
ENDBRANCH  21  22
ENDBRANCH  10  21
ENDBRANCH   8   9
ENDBRANCH   5   8
ENDBRANCH   3   4
ENDBRANCH   2   3
ENDBRANCH   1   2
BRANCH   1  30
ATOM     30  C   UNL     1      -1.953  -7.634   2.653  1.00  0.00     0.002 C 
BRANCH  30  31
ATOM     31  C   UNL     1      -1.971  -7.663   1.120  1.00  0.00     0.021 C 
BRANCH  31  32
ATOM     32  C   UNL     1      -1.805  -9.055   0.510  1.00  0.00     0.116 C 
BRANCH  32  33
ATOM     33  N   UNL     1      -2.887  -9.940   0.909  1.00  0.00    -0.352 N 
ATOM     34  C   UNL     1      -3.902 -10.469   0.152  1.00  0.00     0.251 C 
ATOM     35  H   UNL     1      -2.892 -10.197   1.860  1.00  0.00     0.163 HD
ATOM     36  O   UNL     1      -4.899 -10.926   0.705  1.00  0.00    -0.269 OA
BRANCH  34  37
ATOM     37  C   UNL     1      -3.789 -10.494  -1.321  1.00  0.00     0.039 A 
ATOM     38  C   UNL     1      -4.904 -10.168  -2.099  1.00  0.00     0.014 A 
ATOM     39  C   UNL     1      -2.598 -10.894  -1.933  1.00  0.00     0.014 A 
ATOM     40  C   UNL     1      -4.811 -10.203  -3.493  1.00  0.00     0.010 A 
ATOM     41  C   UNL     1      -2.490 -10.877  -3.321  1.00  0.00     0.010 A 
ATOM     42  C   UNL     1      -3.599 -10.541  -4.113  1.00  0.00    -0.014 A 
BRANCH  42  43
ATOM     43  C   UNL     1      -3.470 -10.581  -5.591  1.00  0.00     0.031 A 
ATOM     44  C   UNL     1      -3.233 -11.894  -6.285  1.00  0.00     0.074 A 
ATOM     45  C   UNL     1      -3.488  -9.431  -6.293  1.00  0.00     0.049 A 
ATOM     46  N   UNL     1      -2.975 -12.131  -7.545  1.00  0.00    -0.248 NA
ATOM     47  C   UNL     1      -3.256 -13.096  -5.438  1.00  0.00     0.031 C 
ATOM     48  C   UNL     1      -3.672  -8.096  -5.721  1.00  0.00     0.029 A 
ATOM     49  N   UNL     1      -3.330  -9.200  -7.635  1.00  0.00    -0.354 N 
ATOM     50  C   UNL     1      -2.785 -13.506  -7.641  1.00  0.00     0.074 A 
ATOM     51  C   UNL     1      -2.910 -14.040  -6.300  1.00  0.00     0.031 C 
ATOM     52  C   UNL     1      -3.620  -7.186  -6.708  1.00  0.00     0.029 A 
ATOM     53  C   UNL     1      -3.364  -7.867  -7.973  1.00  0.00     0.049 A 
ATOM     54  H   UNL     1      -3.205  -9.920  -8.295  1.00  0.00     0.167 HD
ATOM     55  C   UNL     1      -2.544 -14.253  -8.746  1.00  0.00     0.034 A 
ATOM     56  C   UNL     1      -3.192  -7.264  -9.165  1.00  0.00     0.034 A 
ATOM     57  C   UNL     1      -2.443 -13.705 -10.077  1.00  0.00     0.049 A 
ATOM     58  C   UNL     1      -2.939  -8.114 -10.382  1.00  0.00     0.074 A 
ATOM     59  C   UNL     1      -2.257 -14.373 -11.275  1.00  0.00     0.029 A 
ATOM     60  N   UNL     1      -2.518 -12.353 -10.386  1.00  0.00    -0.354 N 
ATOM     61  N   UNL     1      -2.797  -9.417 -10.462  1.00  0.00    -0.248 NA
ATOM     62  C   UNL     1      -2.836  -7.414 -11.669  1.00  0.00     0.031 C 
ATOM     63  C   UNL     1      -2.169 -13.423 -12.299  1.00  0.00     0.029 A 
ATOM     64  C   UNL     1      -2.362 -12.165 -11.750  1.00  0.00     0.049 A 
ATOM     65  H   UNL     1      -2.662 -11.632  -9.730  1.00  0.00     0.167 HD
ATOM     66  C   UNL     1      -2.611  -9.694 -11.813  1.00  0.00     0.074 A 
ATOM     67  C   UNL     1      -2.671  -8.425 -12.510  1.00  0.00     0.031 C 
ATOM     68  C   UNL     1      -2.411 -10.890 -12.424  1.00  0.00     0.034 A 
BRANCH  55  69
ATOM     69  C   UNL     1      -2.347 -15.737  -8.550  1.00  0.00     0.023 A 
ATOM     70  C   UNL     1      -3.379 -16.562  -8.070  1.00  0.00     0.031 A 
ATOM     71  C   UNL     1      -1.101 -16.331  -8.819  1.00  0.00     0.131 A 
ATOM     72  C   UNL     1      -3.126 -17.915  -7.800  1.00  0.00     0.055 A 
ATOM     73  C   UNL     1      -0.878 -17.695  -8.622  1.00  0.00     0.041 A 
ATOM     74  F   UNL     1      -0.072 -15.591  -9.261  1.00  0.00    -0.206 F 
ATOM     75  C   UNL     1      -1.889 -18.494  -8.096  1.00  0.00     0.022 A 
BRANCH  72  76
ATOM     76  S   UNL     1      -4.395 -18.878  -6.933  1.00  0.00     0.124 S 
ATOM     77  O   UNL     1      -4.510 -18.145  -5.675  1.00  0.00    -0.237 OA
ATOM     78  O   UNL     1      -5.536 -18.782  -7.836  1.00  0.00    -0.237 OA
ATOM     79  O   UNL     1      -3.799 -20.207  -6.819  1.00  0.00    -0.744 OA
ENDBRANCH  72  76
ENDBRANCH  55  69
BRANCH  56  80
ATOM     80  C   UNL     1      -3.240  -5.779  -9.266  1.00  0.00     0.023 A 
ATOM     81  C   UNL     1      -4.286  -5.134  -9.943  1.00  0.00     0.031 A 
ATOM     82  C   UNL     1      -2.225  -4.985  -8.703  1.00  0.00     0.131 A 
ATOM     83  C   UNL     1      -4.276  -3.737 -10.073  1.00  0.00     0.055 A 
ATOM     84  C   UNL     1      -2.242  -3.593  -8.799  1.00  0.00     0.041 A 
ATOM     85  F   UNL     1      -1.210  -5.556  -8.036  1.00  0.00    -0.206 F 
ATOM     86  C   UNL     1      -3.267  -2.962  -9.497  1.00  0.00     0.022 A 
BRANCH  83  87
ATOM     87  S   UNL     1      -5.577  -2.949 -11.061  1.00  0.00     0.124 S 
ATOM     88  O   UNL     1      -5.395  -3.590 -12.358  1.00  0.00    -0.237 OA
ATOM     89  O   UNL     1      -6.781  -3.318 -10.325  1.00  0.00    -0.237 OA
ATOM     90  O   UNL     1      -5.229  -1.530 -11.011  1.00  0.00    -0.744 OA
ENDBRANCH  83  87
ENDBRANCH  56  80
BRANCH  68  91
ATOM     91  C   UNL     1      -2.284 -10.873 -13.925  1.00  0.00     0.023 A 
ATOM     92  C   UNL     1      -1.158 -10.323 -14.562  1.00  0.00     0.031 A 
ATOM     93  C   UNL     1      -3.308 -11.405 -14.726  1.00  0.00     0.131 A 
ATOM     94  C   UNL     1      -1.105 -10.274 -15.963  1.00  0.00     0.055 A 
ATOM     95  C   UNL     1      -3.228 -11.399 -16.119  1.00  0.00     0.041 A 
ATOM     96  F   UNL     1      -4.404 -11.941 -14.165  1.00  0.00    -0.206 F 
ATOM     97  C   UNL     1      -2.127 -10.821 -16.745  1.00  0.00     0.022 A 
BRANCH  94  98
ATOM     98  S   UNL     1       0.285  -9.418 -16.753  1.00  0.00     0.124 S 
ATOM     99  O   UNL     1       0.152  -8.067 -16.218  1.00  0.00    -0.237 OA
ATOM    100  O   UNL     1       1.433 -10.182 -16.277  1.00  0.00    -0.237 OA
ATOM    101  O   UNL     1       0.002  -9.550 -18.181  1.00  0.00    -0.744 OA
ENDBRANCH  94  98
ENDBRANCH  68  91
ENDBRANCH  42  43
ENDBRANCH  34  37
ENDBRANCH  32  33
ENDBRANCH  31  32
ENDBRANCH  30  31
ENDBRANCH   1  30
TORSDOF 20
