REMARK SMILES COc1cc2c(cc1OC)[C@@H](CC(=O)NCCCCCCNC(=O)c1ccc(-c3c4nc(c(-c5cc(S(=O)(=O)[O-])ccc5F)c5ccc([nH]5)c(-c5cc(S(=O)(=O)[O-])ccc5F)c5nc(c(-c6cc(S(=O)(=O)[O-])ccc6F)c6ccc3[nH]6)C=C5)C=C4)cc1)N(C(=O)Nc1ccc(Cl)cc1)CC2
REMARK SMILES IDX 18 1 17 2 16 3 15 4 13 5 14 6 12 8 11 9 3 10 4 11 8 12 5 13
REMARK SMILES IDX 7 14 6 15 100 16 99 17 88 18 2 19 1 20 9 21 10 22 89 23
REMARK SMILES IDX 90 24 91 25 92 27 93 28 98 29 94 30 97 31 95 32 96 33 19 34
REMARK SMILES IDX 20 35 21 36 22 37 23 38 24 40 25 41 26 42 87 43 27 44 86 45
REMARK SMILES IDX 28 46 29 47 30 48 80 49 31 50 85 51 79 52 81 53 32 54 84 55
REMARK SMILES IDX 78 56 77 57 33 59 65 60 45 61 64 62 46 63 49 64 63 65 82 66
REMARK SMILES IDX 47 67 48 68 62 70 83 71 50 72 34 73 35 74 43 75 36 76 42 77
REMARK SMILES IDX 44 78 41 79 37 80 38 81 39 82 40 83 66 84 67 85 75 86 68 87
REMARK SMILES IDX 74 88 76 89 73 90 69 91 70 92 71 93 72 94 51 95 52 96 60 97
REMARK SMILES IDX 53 98 59 99 61 100 58 101 54 102 55 103 56 104 57 105
REMARK H PARENT 15 7 91 26 22 39 81 58 49 69
REMARK Flexibility Score: inf
ROOT
ATOM      1  C   UNL     1       2.088   3.682  11.891  1.00  0.00     0.002 C 
ENDROOT
BRANCH   1   2
ATOM      2  C   UNL     1       1.921   2.973  10.547  1.00  0.00     0.021 C 
BRANCH   2   3
ATOM      3  C   UNL     1       3.124   2.995   9.589  1.00  0.00     0.116 C 
BRANCH   3   4
ATOM      4  N   UNL     1       3.464   1.638   9.156  1.00  0.00    -0.356 N 
ATOM      5  C   UNL     1       3.378   0.991   7.961  1.00  0.00     0.222 C 
ATOM      6  O   UNL     1       3.612  -0.222   7.951  1.00  0.00    -0.275 OA
ATOM      7  H   UNL     1       3.831   1.078   9.878  1.00  0.00     0.163 HD
BRANCH   5   8
ATOM      8  C   UNL     1       3.105   1.714   6.652  1.00  0.00     0.130 C 
BRANCH   8   9
ATOM      9  C   UNL     1       1.730   1.327   6.040  1.00  0.00     0.127 C 
ATOM     10  C   UNL     1       1.374   0.652   1.728  1.00  0.00     0.161 A 
ATOM     11  C   UNL     1       0.254   0.832   2.518  1.00  0.00     0.054 A 
ATOM     12  C   UNL     1       2.648   0.550   2.306  1.00  0.00     0.161 A 
ATOM     13  C   UNL     1       0.411   0.995   3.894  1.00  0.00    -0.037 A 
ATOM     14  C   UNL     1       2.793   0.672   3.707  1.00  0.00     0.056 A 
ATOM     15  C   UNL     1       1.686   0.961   4.524  1.00  0.00    -0.018 A 
ATOM     16  C   UNL     1      -0.758   1.498   4.689  1.00  0.00     0.057 C 
ATOM     17  C   UNL     1      -0.220   2.787   5.281  1.00  0.00     0.127 C 
ATOM     18  N   UNL     1       0.786   2.464   6.299  1.00  0.00    -0.317 N 
BRANCH  10  19
ATOM     19  O   UNL     1       1.178   0.775   0.376  1.00  0.00    -0.493 OA
ATOM     20  C   UNL     1       1.221  -0.486  -0.278  1.00  0.00     0.278 C 
ENDBRANCH  10  19
BRANCH  12  21
ATOM     21  O   UNL     1       3.675   0.384   1.414  1.00  0.00    -0.493 OA
ATOM     22  C   UNL     1       4.986   0.245   1.934  1.00  0.00     0.278 C 
ENDBRANCH  12  21
BRANCH  18  23
ATOM     23  C   UNL     1       0.368   2.774   7.580  1.00  0.00     0.322 C 
ATOM     24  O   UNL     1       0.115   1.924   8.428  1.00  0.00    -0.248 OA
ATOM     25  N   UNL     1       0.220   4.141   7.708  1.00  0.00    -0.308 N 
ATOM     26  H   UNL     1       1.028   4.696   7.612  1.00  0.00     0.171 HD
BRANCH  25  27
ATOM     27  C   UNL     1      -0.990   4.801   7.964  1.00  0.00     0.042 A 
ATOM     28  C   UNL     1      -1.036   6.172   7.684  1.00  0.00     0.028 A 
ATOM     29  C   UNL     1      -2.161   4.110   8.279  1.00  0.00     0.028 A 
ATOM     30  C   UNL     1      -2.264   6.829   7.620  1.00  0.00     0.022 A 
ATOM     31  C   UNL     1      -3.389   4.768   8.207  1.00  0.00     0.022 A 
ATOM     32  C   UNL     1      -3.438   6.113   7.844  1.00  0.00     0.041 A 
ATOM     33  Cl  UNL     1      -4.964   6.871   7.621  1.00  0.00    -0.084 Cl
ENDBRANCH  25  27
ENDBRANCH  18  23
ENDBRANCH   8   9
ENDBRANCH   5   8
ENDBRANCH   3   4
ENDBRANCH   2   3
ENDBRANCH   1   2
BRANCH   1  34
ATOM     34  C   UNL     1       2.282   5.200  11.846  1.00  0.00     0.002 C 
BRANCH  34  35
ATOM     35  C   UNL     1       1.270   6.019  11.033  1.00  0.00     0.021 C 
BRANCH  35  36
ATOM     36  C   UNL     1      -0.213   5.824  11.365  1.00  0.00     0.116 C 
BRANCH  36  37
ATOM     37  N   UNL     1      -0.535   6.142  12.744  1.00  0.00    -0.352 N 
ATOM     38  C   UNL     1      -1.243   7.182  13.296  1.00  0.00     0.251 C 
ATOM     39  H   UNL     1      -0.184   5.498  13.401  1.00  0.00     0.163 HD
ATOM     40  O   UNL     1      -1.239   7.315  14.518  1.00  0.00    -0.269 OA
BRANCH  38  41
ATOM     41  C   UNL     1      -1.985   8.161  12.463  1.00  0.00     0.039 A 
ATOM     42  C   UNL     1      -1.891   9.519  12.793  1.00  0.00     0.014 A 
ATOM     43  C   UNL     1      -2.833   7.768  11.425  1.00  0.00     0.014 A 
ATOM     44  C   UNL     1      -2.574  10.482  12.039  1.00  0.00     0.010 A 
ATOM     45  C   UNL     1      -3.486   8.736  10.653  1.00  0.00     0.010 A 
ATOM     46  C   UNL     1      -3.348  10.104  10.933  1.00  0.00    -0.014 A 
BRANCH  46  47
ATOM     47  C   UNL     1      -3.960  11.120  10.029  1.00  0.00     0.031 A 
ATOM     48  C   UNL     1      -5.454  11.267   9.915  1.00  0.00     0.074 A 
ATOM     49  C   UNL     1      -3.157  11.875   9.251  1.00  0.00     0.049 A 
ATOM     50  N   UNL     1      -6.150  12.054   9.133  1.00  0.00    -0.248 NA
ATOM     51  C   UNL     1      -6.270  10.410  10.786  1.00  0.00     0.031 C 
ATOM     52  C   UNL     1      -1.694  11.814   9.245  1.00  0.00     0.029 A 
ATOM     53  N   UNL     1      -3.451  12.829   8.307  1.00  0.00    -0.354 N 
ATOM     54  C   UNL     1      -7.487  11.788   9.412  1.00  0.00     0.074 A 
ATOM     55  C   UNL     1      -7.499  10.733  10.406  1.00  0.00     0.031 C 
ATOM     56  C   UNL     1      -1.220  12.699   8.354  1.00  0.00     0.029 A 
ATOM     57  C   UNL     1      -2.340  13.355   7.686  1.00  0.00     0.049 A 
ATOM     58  H   UNL     1      -4.370  13.112   8.095  1.00  0.00     0.167 HD
ATOM     59  C   UNL     1      -8.598  12.377   8.899  1.00  0.00     0.034 A 
ATOM     60  C   UNL     1      -2.229  14.242   6.677  1.00  0.00     0.034 A 
ATOM     61  C   UNL     1      -8.574  13.425   7.904  1.00  0.00     0.049 A 
ATOM     62  C   UNL     1      -3.479  14.829   6.072  1.00  0.00     0.074 A 
ATOM     63  C   UNL     1      -9.639  14.139   7.378  1.00  0.00     0.029 A 
ATOM     64  N   UNL     1      -7.434  13.895   7.266  1.00  0.00    -0.354 N 
ATOM     65  N   UNL     1      -4.732  14.610   6.395  1.00  0.00    -0.248 NA
ATOM     66  C   UNL     1      -3.299  15.779   4.967  1.00  0.00     0.031 C 
ATOM     67  C   UNL     1      -9.152  14.979   6.370  1.00  0.00     0.029 A 
ATOM     68  C   UNL     1      -7.774  14.848   6.316  1.00  0.00     0.049 A 
ATOM     69  H   UNL     1      -6.516  13.595   7.459  1.00  0.00     0.167 HD
ATOM     70  C   UNL     1      -5.488  15.408   5.541  1.00  0.00     0.074 A 
ATOM     71  C   UNL     1      -4.550  16.127   4.704  1.00  0.00     0.031 C 
ATOM     72  C   UNL     1      -6.837  15.536   5.460  1.00  0.00     0.034 A 
BRANCH  59  73
ATOM     73  C   UNL     1      -9.940  11.879   9.382  1.00  0.00     0.023 A 
ATOM     74  C   UNL     1     -10.345  12.023  10.720  1.00  0.00     0.031 A 
ATOM     75  C   UNL     1     -10.829  11.251   8.490  1.00  0.00     0.131 A 
ATOM     76  C   UNL     1     -11.572  11.488  11.143  1.00  0.00     0.055 A 
ATOM     77  C   UNL     1     -12.080  10.786   8.901  1.00  0.00     0.041 A 
ATOM     78  F   UNL     1     -10.493  11.073   7.202  1.00  0.00    -0.206 F 
ATOM     79  C   UNL     1     -12.453  10.891  10.238  1.00  0.00     0.022 A 
BRANCH  76  80
ATOM     80  S   UNL     1     -11.946  11.470  12.918  1.00  0.00     0.124 S 
ATOM     81  O   UNL     1     -10.811  10.721  13.452  1.00  0.00    -0.237 OA
ATOM     82  O   UNL     1     -11.986  12.890  13.246  1.00  0.00    -0.237 OA
ATOM     83  O   UNL     1     -13.230  10.776  12.991  1.00  0.00    -0.744 OA
ENDBRANCH  76  80
ENDBRANCH  59  73
BRANCH  60  84
ATOM     84  C   UNL     1      -0.886  14.603   6.139  1.00  0.00     0.023 A 
ATOM     85  C   UNL     1      -0.387  15.910   6.247  1.00  0.00     0.031 A 
ATOM     86  C   UNL     1      -0.097  13.648   5.472  1.00  0.00     0.131 A 
ATOM     87  C   UNL     1       0.848  16.237   5.665  1.00  0.00     0.055 A 
ATOM     88  C   UNL     1       1.153  13.966   4.939  1.00  0.00     0.041 A 
ATOM     89  F   UNL     1      -0.525  12.382   5.343  1.00  0.00    -0.206 F 
ATOM     90  C   UNL     1       1.627  15.271   5.024  1.00  0.00     0.022 A 
BRANCH  87  91
ATOM     91  S   UNL     1       1.390  17.968   5.692  1.00  0.00     0.124 S 
ATOM     92  O   UNL     1       0.296  18.633   4.993  1.00  0.00    -0.237 OA
ATOM     93  O   UNL     1       1.493  18.230   7.124  1.00  0.00    -0.237 OA
ATOM     94  O   UNL     1       2.663  17.935   4.974  1.00  0.00    -0.744 OA
ENDBRANCH  87  91
ENDBRANCH  60  84
BRANCH  72  95
ATOM     95  C   UNL     1      -7.373  16.502   4.433  1.00  0.00     0.023 A 
ATOM     96  C   UNL     1      -7.260  16.246   3.054  1.00  0.00     0.031 A 
ATOM     97  C   UNL     1      -8.000  17.694   4.835  1.00  0.00     0.131 A 
ATOM     98  C   UNL     1      -7.727  17.191   2.127  1.00  0.00     0.055 A 
ATOM     99  C   UNL     1      -8.511  18.605   3.909  1.00  0.00     0.041 A 
ATOM    100  F   UNL     1      -8.130  17.991   6.138  1.00  0.00    -0.206 F 
ATOM    101  C   UNL     1      -8.367  18.360   2.546  1.00  0.00     0.022 A 
BRANCH  98 102
ATOM    102  S   UNL     1      -7.425  16.904   0.361  1.00  0.00     0.124 S 
ATOM    103  O   UNL     1      -5.967  16.892   0.301  1.00  0.00    -0.237 OA
ATOM    104  O   UNL     1      -8.083  15.622   0.134  1.00  0.00    -0.237 OA
ATOM    105  O   UNL     1      -8.063  18.049  -0.286  1.00  0.00    -0.744 OA
ENDBRANCH  98 102
ENDBRANCH  72  95
ENDBRANCH  46  47
ENDBRANCH  38  41
ENDBRANCH  36  37
ENDBRANCH  35  36
ENDBRANCH  34  35
ENDBRANCH   1  34
TORSDOF 21
