REMARK SMILES CS(=O)(=O)c1ccc(-c2cc(Cl)cc3c2O[C@H](C(F)(F)F)C(C(=O)NCCCCCCNC(=O)c2ccc(-c4c5nc(c(-c6cc(S(=O)(=O)[O-])ccc6F)c6ccc([nH]6)c(-c6cc(S(=O)(=O)[O-])ccc6F)c6nc(c(-c7cc(S(=O)(=O)[O-])ccc7F)c7ccc4[nH]7)C=C6)C=C5)cc2)=C3)cc1
REMARK SMILES IDX 29 1 28 2 27 3 26 4 25 5 23 6 24 7 22 9 9 10 10 11 15 12
REMARK SMILES IDX 11 13 14 14 16 15 12 16 13 17 98 18 17 19 8 20 5 21 6 22
REMARK SMILES IDX 100 23 7 24 99 25 2 26 1 27 3 28 4 29 18 30 19 31 20 32
REMARK SMILES IDX 21 33 30 34 31 35 32 36 33 37 34 39 35 40 36 41 97 42 37 43
REMARK SMILES IDX 96 44 38 45 39 46 40 47 90 48 41 49 95 50 89 51 91 52 42 53
REMARK SMILES IDX 94 54 88 55 87 56 43 58 75 59 55 60 74 61 56 62 59 63 73 64
REMARK SMILES IDX 92 65 57 66 58 67 72 69 93 70 60 71 44 72 45 73 53 74 46 75
REMARK SMILES IDX 52 76 54 77 51 78 47 79 48 80 49 81 50 82 76 83 77 84 85 85
REMARK SMILES IDX 78 86 84 87 86 88 83 89 79 90 80 91 81 92 82 93 61 94 62 95
REMARK SMILES IDX 70 96 63 97 69 98 71 99 68 100 64 101 65 102 66 103 67 104
REMARK H PARENT 25 8 32 38 91 57 59 68
REMARK Flexibility Score: inf
ROOT
ATOM      1  C   UNL     1       1.957 -14.618   8.336  1.00  0.00     0.002 C 
ENDROOT
BRANCH   1   2
ATOM      2  C   UNL     1       0.788 -14.095   7.498  1.00  0.00     0.002 C 
BRANCH   2   3
ATOM      3  C   UNL     1       0.086 -12.851   8.069  1.00  0.00     0.021 C 
BRANCH   3   4
ATOM      4  C   UNL     1       1.007 -11.646   8.315  1.00  0.00     0.116 C 
BRANCH   4   5
ATOM      5  N   UNL     1       1.609 -11.229   7.064  1.00  0.00    -0.352 N 
ATOM      6  C   UNL     1       1.452 -10.015   6.480  1.00  0.00     0.251 C 
ATOM      7  O   UNL     1       1.177  -9.933   5.288  1.00  0.00    -0.270 OA
ATOM      8  H   UNL     1       2.180 -11.882   6.598  1.00  0.00     0.163 HD
BRANCH   6   9
ATOM      9  C   UNL     1       1.786  -8.822   7.315  1.00  0.00     0.067 C 
ATOM     10  C   UNL     1       1.706  -6.026   4.361  1.00  0.00     0.026 A 
ATOM     11  C   UNL     1       2.480  -6.510   3.274  1.00  0.00     0.033 A 
ATOM     12  C   UNL     1       1.851  -6.703   5.584  1.00  0.00     0.135 A 
ATOM     13  C   UNL     1       3.436  -7.513   3.423  1.00  0.00     0.042 A 
ATOM     14  C   UNL     1       2.901  -7.642   5.740  1.00  0.00     0.019 A 
ATOM     15  O   UNL     1       0.975  -6.526   6.645  1.00  0.00    -0.475 OA
ATOM     16  Cl  UNL     1       4.308  -8.067   2.049  1.00  0.00    -0.084 Cl
ATOM     17  C   UNL     1       3.697  -8.044   4.671  1.00  0.00     0.032 A 
ATOM     18  C   UNL     1       3.016  -8.343   7.038  1.00  0.00     0.025 C 
ATOM     19  C   UNL     1       0.675  -7.783   7.391  1.00  0.00     0.314 C 
BRANCH  10  20
ATOM     20  C   UNL     1       0.983  -4.756   4.100  1.00  0.00    -0.015 A 
ATOM     21  C   UNL     1       0.447  -2.211   2.991  1.00  0.00     0.067 A 
ATOM     22  C   UNL     1      -0.093  -3.351   2.396  1.00  0.00     0.021 A 
ATOM     23  C   UNL     1       1.146  -2.315   4.196  1.00  0.00     0.021 A 
ATOM     24  C   UNL     1       0.167  -4.611   2.957  1.00  0.00     0.010 A 
ATOM     25  C   UNL     1       1.401  -3.580   4.750  1.00  0.00     0.010 A 
BRANCH  21  26
ATOM     26  S   UNL     1       0.263  -0.628   2.194  1.00  0.00     0.175 S 
ATOM     27  C   UNL     1       1.091  -0.789   0.631  1.00  0.00     0.163 C 
ATOM     28  O   UNL     1       1.012   0.347   2.967  1.00  0.00    -0.224 OA
ATOM     29  O   UNL     1      -1.151  -0.446   1.935  1.00  0.00    -0.224 OA
ENDBRANCH  21  26
ENDBRANCH  10  20
BRANCH  19  30
ATOM     30  C   UNL     1       0.367  -7.505   8.878  1.00  0.00     0.429 C 
ATOM     31  F   UNL     1       0.861  -6.317   9.295  1.00  0.00    -0.167 F 
ATOM     32  F   UNL     1      -0.967  -7.500   9.110  1.00  0.00    -0.167 F 
ATOM     33  F   UNL     1       0.892  -8.452   9.699  1.00  0.00    -0.167 F 
ENDBRANCH  19  30
ENDBRANCH   6   9
ENDBRANCH   4   5
ENDBRANCH   3   4
ENDBRANCH   2   3
ENDBRANCH   1   2
BRANCH   1  34
ATOM     34  C   UNL     1       1.587 -15.018   9.764  1.00  0.00     0.021 C 
BRANCH  34  35
ATOM     35  C   UNL     1       0.475 -16.057   9.868  1.00  0.00     0.116 C 
BRANCH  35  36
ATOM     36  N   UNL     1       0.823 -17.311   9.220  1.00  0.00    -0.352 N 
ATOM     37  C   UNL     1       0.677 -18.594   9.688  1.00  0.00     0.251 C 
ATOM     38  H   UNL     1       1.216 -17.230   8.321  1.00  0.00     0.163 HD
ATOM     39  O   UNL     1       1.179 -19.530   9.074  1.00  0.00    -0.269 OA
BRANCH  37  40
ATOM     40  C   UNL     1      -0.057 -18.832  10.950  1.00  0.00     0.039 A 
ATOM     41  C   UNL     1       0.501 -19.684  11.906  1.00  0.00     0.014 A 
ATOM     42  C   UNL     1      -1.283 -18.206  11.196  1.00  0.00     0.014 A 
ATOM     43  C   UNL     1      -0.141 -19.860  13.134  1.00  0.00     0.010 A 
ATOM     44  C   UNL     1      -1.884 -18.326  12.446  1.00  0.00     0.010 A 
ATOM     45  C   UNL     1      -1.321 -19.156  13.428  1.00  0.00    -0.014 A 
BRANCH  45  46
ATOM     46  C   UNL     1      -1.980 -19.280  14.755  1.00  0.00     0.031 A 
ATOM     47  C   UNL     1      -3.360 -19.871  14.858  1.00  0.00     0.074 A 
ATOM     48  C   UNL     1      -1.361 -18.806  15.854  1.00  0.00     0.049 A 
ATOM     49  N   UNL     1      -4.129 -19.999  15.909  1.00  0.00    -0.248 NA
ATOM     50  C   UNL     1      -3.965 -20.356  13.608  1.00  0.00     0.031 C 
ATOM     51  C   UNL     1      -0.039 -18.173  15.873  1.00  0.00     0.029 A 
ATOM     52  N   UNL     1      -1.761 -18.771  17.167  1.00  0.00    -0.354 N 
ATOM     53  C   UNL     1      -5.314 -20.563  15.446  1.00  0.00     0.074 A 
ATOM     54  C   UNL     1      -5.180 -20.698  14.011  1.00  0.00     0.031 C 
ATOM     55  C   UNL     1       0.269 -17.833  17.135  1.00  0.00     0.029 A 
ATOM     56  C   UNL     1      -0.847 -18.179  18.010  1.00  0.00     0.049 A 
ATOM     57  H   UNL     1      -2.621 -19.136  17.477  1.00  0.00     0.167 HD
ATOM     58  C   UNL     1      -6.402 -20.951  16.155  1.00  0.00     0.034 A 
ATOM     59  C   UNL     1      -0.908 -17.929  19.333  1.00  0.00     0.034 A 
ATOM     60  C   UNL     1      -6.511 -20.825  17.589  1.00  0.00     0.049 A 
ATOM     61  C   UNL     1      -2.135 -18.358  20.098  1.00  0.00     0.074 A 
ATOM     62  C   UNL     1      -7.540 -21.243  18.415  1.00  0.00     0.029 A 
ATOM     63  N   UNL     1      -5.562 -20.229  18.410  1.00  0.00    -0.354 N 
ATOM     64  N   UNL     1      -3.223 -18.944  19.653  1.00  0.00    -0.248 NA
ATOM     65  C   UNL     1      -2.136 -18.106  21.545  1.00  0.00     0.031 C 
ATOM     66  C   UNL     1      -7.248 -20.837  19.721  1.00  0.00     0.029 A 
ATOM     67  C   UNL     1      -5.998 -20.238  19.727  1.00  0.00     0.049 A 
ATOM     68  H   UNL     1      -4.706 -19.854  18.103  1.00  0.00     0.167 HD
ATOM     69  C   UNL     1      -4.023 -19.158  20.773  1.00  0.00     0.074 A 
ATOM     70  C   UNL     1      -3.285 -18.654  21.912  1.00  0.00     0.031 C 
ATOM     71  C   UNL     1      -5.255 -19.724  20.853  1.00  0.00     0.034 A 
BRANCH  58  72
ATOM     72  C   UNL     1      -7.569 -21.524  15.386  1.00  0.00     0.023 A 
ATOM     73  C   UNL     1      -7.458 -22.716  14.649  1.00  0.00     0.031 A 
ATOM     74  C   UNL     1      -8.809 -20.861  15.379  1.00  0.00     0.131 A 
ATOM     75  C   UNL     1      -8.540 -23.169  13.879  1.00  0.00     0.055 A 
ATOM     76  C   UNL     1      -9.908 -21.361  14.677  1.00  0.00     0.041 A 
ATOM     77  F   UNL     1      -8.972 -19.708  16.046  1.00  0.00    -0.206 F 
ATOM     78  C   UNL     1      -9.774 -22.514  13.909  1.00  0.00     0.022 A 
BRANCH  75  79
ATOM     79  S   UNL     1      -8.272 -24.547  12.732  1.00  0.00     0.124 S 
ATOM     80  O   UNL     1      -7.215 -24.015  11.875  1.00  0.00    -0.237 OA
ATOM     81  O   UNL     1      -7.884 -25.632  13.626  1.00  0.00    -0.237 OA
ATOM     82  O   UNL     1      -9.570 -24.709  12.080  1.00  0.00    -0.744 OA
ENDBRANCH  75  79
ENDBRANCH  58  72
BRANCH  59  83
ATOM     83  C   UNL     1       0.212 -17.226  20.024  1.00  0.00     0.023 A 
ATOM     84  C   UNL     1       0.959 -17.863  21.028  1.00  0.00     0.031 A 
ATOM     85  C   UNL     1       0.520 -15.887  19.725  1.00  0.00     0.131 A 
ATOM     86  C   UNL     1       1.939 -17.147  21.733  1.00  0.00     0.055 A 
ATOM     87  C   UNL     1       1.535 -15.196  20.390  1.00  0.00     0.041 A 
ATOM     88  F   UNL     1      -0.159 -15.230  18.771  1.00  0.00    -0.206 F 
ATOM     89  C   UNL     1       2.241 -15.822  21.412  1.00  0.00     0.022 A 
BRANCH  86  90
ATOM     90  S   UNL     1       2.749 -17.946  23.146  1.00  0.00     0.124 S 
ATOM     91  O   UNL     1       1.608 -18.289  23.987  1.00  0.00    -0.237 OA
ATOM     92  O   UNL     1       3.436 -19.063  22.508  1.00  0.00    -0.237 OA
ATOM     93  O   UNL     1       3.622 -16.899  23.673  1.00  0.00    -0.744 OA
ENDBRANCH  86  90
ENDBRANCH  59  83
BRANCH  71  94
ATOM     94  C   UNL     1      -5.855 -19.868  22.231  1.00  0.00     0.023 A 
ATOM     95  C   UNL     1      -6.225 -18.751  23.000  1.00  0.00     0.031 A 
ATOM     96  C   UNL     1      -6.048 -21.146  22.786  1.00  0.00     0.131 A 
ATOM     97  C   UNL     1      -6.713 -18.930  24.303  1.00  0.00     0.055 A 
ATOM     98  C   UNL     1      -6.594 -21.320  24.058  1.00  0.00     0.041 A 
ATOM     99  F   UNL     1      -5.710 -22.248  22.098  1.00  0.00    -0.206 F 
ATOM    100  C   UNL     1      -6.917 -20.208  24.830  1.00  0.00     0.022 A 
BRANCH  97 101
ATOM    101  S   UNL     1      -6.990 -17.467  25.339  1.00  0.00     0.124 S 
ATOM    102  O   UNL     1      -5.666 -16.852  25.354  1.00  0.00    -0.237 OA
ATOM    103  O   UNL     1      -8.018 -16.747  24.595  1.00  0.00    -0.237 OA
ATOM    104  O   UNL     1      -7.428 -18.028  26.616  1.00  0.00    -0.744 OA
ENDBRANCH  97 101
ENDBRANCH  71  94
ENDBRANCH  45  46
ENDBRANCH  37  40
ENDBRANCH  35  36
ENDBRANCH  34  35
ENDBRANCH   1  34
TORSDOF 19
