REMARK SMILES Cc1c[nH]c(C[N@@H+](C)[C@@H](C(=O)NCCCCCCNC(=O)c2ccc(-c3c4nc(c(-c5cc(S(=O)(=O)[O-])ccc5F)c5ccc([nH]5)c(-c5cc(S(=O)(=O)[O-])ccc5F)c5nc(c(-c6cc(S(=O)(=O)[O-])ccc6F)c6ccc3[nH]6)C=C5)C=C4)cc2)c2ccc(NC(=O)N3CCCC3)cc2)n1
REMARK SMILES IDX 15 1 14 2 13 3 12 4 10 5 11 6 9 8 7 9 8 10 6 12 5 13 1 14
REMARK SMILES IDX 2 15 3 16 99 17 4 18 85 20 86 21 98 22 87 23 97 24 88 25
REMARK SMILES IDX 89 26 90 27 91 29 92 30 93 31 96 32 94 33 95 34 16 35 17 36
REMARK SMILES IDX 18 37 19 38 20 39 21 41 22 42 23 43 84 44 24 45 83 46 25 47
REMARK SMILES IDX 26 48 27 49 77 50 28 51 82 52 76 53 78 54 29 55 81 56 75 57
REMARK SMILES IDX 74 58 30 60 62 61 42 62 61 63 43 64 46 65 60 66 79 67 44 68
REMARK SMILES IDX 45 69 59 71 80 72 47 73 31 74 32 75 40 76 33 77 39 78 41 79
REMARK SMILES IDX 38 80 34 81 35 82 36 83 37 84 63 85 64 86 72 87 65 88 71 89
REMARK SMILES IDX 73 90 70 91 66 92 67 93 68 94 69 95 48 96 49 97 57 98 50 99
REMARK SMILES IDX 56 100 58 101 55 102 51 103 52 104 53 105 54 106
REMARK H PARENT 12 7 7 11 4 19 89 28 19 40 78 59 46 70
REMARK Flexibility Score: inf
ROOT
ATOM      1  C   UNL     1      -7.509   2.851   1.466  1.00  0.00     0.002 C 
ENDROOT
BRANCH   1   2
ATOM      2  C   UNL     1      -6.068   3.371   1.461  1.00  0.00     0.021 C 
BRANCH   2   3
ATOM      3  C   UNL     1      -5.270   2.980   2.708  1.00  0.00     0.116 C 
BRANCH   3   4
ATOM      4  N   UNL     1      -4.921   1.579   2.623  1.00  0.00    -0.351 N 
ATOM      5  C   UNL     1      -3.759   1.039   2.145  1.00  0.00     0.283 C 
ATOM      6  O   UNL     1      -3.836  -0.096   1.657  1.00  0.00    -0.268 OA
ATOM      7  H   UNL     1      -5.597   0.941   2.946  1.00  0.00     0.163 HD
BRANCH   5   8
ATOM      8  C   UNL     1      -2.411   1.825   2.281  1.00  0.00     0.305 C 
BRANCH   8   9
ATOM      9  N   UNL     1      -2.031   2.496   1.006  1.00  0.00    -0.317 N 
ATOM     10  C   UNL     1      -2.516   3.853   0.844  1.00  0.00     0.334 C 
ATOM     11  H   UNL     1      -1.025   2.561   1.159  1.00  0.00     0.349 HD
BRANCH   9  12
ATOM     12  C   UNL     1      -2.150   1.719  -0.237  1.00  0.00     0.339 C 
BRANCH  12  13
ATOM     13  C   UNL     1      -0.994   0.798  -0.469  1.00  0.00     0.161 A 
ATOM     14  C   UNL     1       2.445  -0.058  -0.673  1.00  0.00     0.068 C 
ATOM     15  C   UNL     1       0.968  -0.051  -0.703  1.00  0.00     0.056 A 
ATOM     16  C   UNL     1       0.088  -1.106  -0.790  1.00  0.00     0.107 A 
ATOM     17  N   UNL     1       0.279   1.129  -0.584  1.00  0.00    -0.233 NA
ATOM     18  N   UNL     1      -1.151  -0.558  -0.601  1.00  0.00    -0.344 N 
ATOM     19  H   UNL     1      -2.004  -1.050  -0.566  1.00  0.00     0.167 HD
ENDBRANCH  12  13
ENDBRANCH   9  12
ENDBRANCH   8   9
BRANCH   8  20
ATOM     20  C   UNL     1      -1.281   0.926   2.818  1.00  0.00     0.019 A 
ATOM     21  C   UNL     1      -1.540  -0.262   3.514  1.00  0.00     0.012 A 
ATOM     22  C   UNL     1       0.063   1.262   2.602  1.00  0.00     0.012 A 
ATOM     23  C   UNL     1      -0.528  -1.201   3.708  1.00  0.00     0.027 A 
ATOM     24  C   UNL     1       1.072   0.311   2.777  1.00  0.00     0.027 A 
ATOM     25  C   UNL     1       0.741  -0.978   3.185  1.00  0.00     0.042 A 
BRANCH  25  26
ATOM     26  N   UNL     1       1.692  -1.998   3.009  1.00  0.00    -0.308 N 
ATOM     27  C   UNL     1       1.559  -3.354   3.033  1.00  0.00     0.321 C 
ATOM     28  H   UNL     1       2.608  -1.679   2.840  1.00  0.00     0.171 HD
ATOM     29  O   UNL     1       2.555  -4.040   3.278  1.00  0.00    -0.248 OA
ATOM     30  N   UNL     1       0.346  -3.931   2.783  1.00  0.00    -0.325 N 
ATOM     31  C   UNL     1      -0.601  -3.582   1.740  1.00  0.00     0.121 C 
ATOM     32  C   UNL     1       0.010  -5.228   3.321  1.00  0.00     0.121 C 
ATOM     33  C   UNL     1      -1.906  -4.159   2.254  1.00  0.00     0.023 C 
ATOM     34  C   UNL     1      -1.477  -5.413   3.019  1.00  0.00     0.023 C 
ENDBRANCH  25  26
ENDBRANCH   8  20
ENDBRANCH   5   8
ENDBRANCH   3   4
ENDBRANCH   2   3
ENDBRANCH   1   2
BRANCH   1  35
ATOM     35  C   UNL     1      -8.379   3.399   2.600  1.00  0.00     0.002 C 
BRANCH  35  36
ATOM     36  C   UNL     1      -8.408   4.926   2.701  1.00  0.00     0.021 C 
BRANCH  36  37
ATOM     37  C   UNL     1      -8.850   5.631   1.423  1.00  0.00     0.116 C 
BRANCH  37  38
ATOM     38  N   UNL     1     -10.208   5.268   1.053  1.00  0.00    -0.352 N 
ATOM     39  C   UNL     1     -11.315   6.069   0.950  1.00  0.00     0.251 C 
ATOM     40  H   UNL     1     -10.352   4.316   0.848  1.00  0.00     0.163 HD
ATOM     41  O   UNL     1     -12.435   5.559   0.883  1.00  0.00    -0.269 OA
BRANCH  39  42
ATOM     42  C   UNL     1     -11.159   7.537   0.936  1.00  0.00     0.039 A 
ATOM     43  C   UNL     1     -12.007   8.320   1.720  1.00  0.00     0.014 A 
ATOM     44  C   UNL     1     -10.171   8.137   0.148  1.00  0.00     0.014 A 
ATOM     45  C   UNL     1     -11.827   9.704   1.757  1.00  0.00     0.010 A 
ATOM     46  C   UNL     1      -9.945   9.507   0.246  1.00  0.00     0.010 A 
ATOM     47  C   UNL     1     -10.774  10.306   1.048  1.00  0.00    -0.014 A 
BRANCH  47  48
ATOM     48  C   UNL     1     -10.533  11.771   1.128  1.00  0.00     0.031 A 
ATOM     49  C   UNL     1     -10.666  12.626  -0.103  1.00  0.00     0.074 A 
ATOM     50  C   UNL     1     -10.144  12.319   2.297  1.00  0.00     0.049 A 
ATOM     51  N   UNL     1     -10.439  13.905  -0.250  1.00  0.00    -0.248 NA
ATOM     52  C   UNL     1     -11.084  11.944  -1.338  1.00  0.00     0.031 C 
ATOM     53  C   UNL     1      -9.946  11.584   3.549  1.00  0.00     0.029 A 
ATOM     54  N   UNL     1      -9.841  13.616   2.625  1.00  0.00    -0.354 N 
ATOM     55  C   UNL     1     -10.678  14.182  -1.592  1.00  0.00     0.074 A 
ATOM     56  C   UNL     1     -11.002  12.922  -2.227  1.00  0.00     0.031 C 
ATOM     57  C   UNL     1      -9.583  12.446   4.512  1.00  0.00     0.029 A 
ATOM     58  C   UNL     1      -9.471  13.784   3.940  1.00  0.00     0.049 A 
ATOM     59  H   UNL     1      -9.883  14.358   1.979  1.00  0.00     0.167 HD
ATOM     60  C   UNL     1     -10.653  15.379  -2.230  1.00  0.00     0.034 A 
ATOM     61  C   UNL     1      -9.073  14.886   4.605  1.00  0.00     0.034 A 
ATOM     62  C   UNL     1     -10.335  16.626  -1.578  1.00  0.00     0.049 A 
ATOM     63  C   UNL     1      -9.013  16.199   3.864  1.00  0.00     0.074 A 
ATOM     64  C   UNL     1     -10.333  17.902  -2.114  1.00  0.00     0.029 A 
ATOM     65  N   UNL     1      -9.951  16.755  -0.248  1.00  0.00    -0.354 N 
ATOM     66  N   UNL     1      -9.296  16.452   2.607  1.00  0.00    -0.248 NA
ATOM     67  C   UNL     1      -8.588  17.376   4.633  1.00  0.00     0.031 C 
ATOM     68  C   UNL     1      -9.874  18.788  -1.135  1.00  0.00     0.029 A 
ATOM     69  C   UNL     1      -9.672  18.082   0.040  1.00  0.00     0.049 A 
ATOM     70  H   UNL     1      -9.887  16.012   0.395  1.00  0.00     0.167 HD
ATOM     71  C   UNL     1      -9.112  17.823   2.445  1.00  0.00     0.074 A 
ATOM     72  C   UNL     1      -8.713  18.343   3.736  1.00  0.00     0.031 C 
ATOM     73  C   UNL     1      -9.262  18.584   1.331  1.00  0.00     0.034 A 
BRANCH  60  74
ATOM     74  C   UNL     1     -10.955  15.387  -3.710  1.00  0.00     0.023 A 
ATOM     75  C   UNL     1     -12.202  14.977  -4.213  1.00  0.00     0.031 A 
ATOM     76  C   UNL     1      -9.976  15.793  -4.635  1.00  0.00     0.131 A 
ATOM     77  C   UNL     1     -12.413  14.912  -5.599  1.00  0.00     0.055 A 
ATOM     78  C   UNL     1     -10.221  15.807  -6.009  1.00  0.00     0.041 A 
ATOM     79  F   UNL     1      -8.758  16.174  -4.218  1.00  0.00    -0.206 F 
ATOM     80  C   UNL     1     -11.441  15.350  -6.500  1.00  0.00     0.022 A 
BRANCH  77  81
ATOM     81  S   UNL     1     -13.920  14.107  -6.207  1.00  0.00     0.124 S 
ATOM     82  O   UNL     1     -13.797  12.772  -5.625  1.00  0.00    -0.237 OA
ATOM     83  O   UNL     1     -14.973  14.950  -5.655  1.00  0.00    -0.237 OA
ATOM     84  O   UNL     1     -13.774  14.159  -7.660  1.00  0.00    -0.744 OA
ENDBRANCH  77  81
ENDBRANCH  60  74
BRANCH  61  85
ATOM     85  C   UNL     1      -8.682  14.806   6.043  1.00  0.00     0.023 A 
ATOM     86  C   UNL     1      -9.396  15.507   7.028  1.00  0.00     0.031 A 
ATOM     87  C   UNL     1      -7.556  14.066   6.449  1.00  0.00     0.131 A 
ATOM     88  C   UNL     1      -8.947  15.499   8.358  1.00  0.00     0.055 A 
ATOM     89  C   UNL     1      -7.149  14.012   7.783  1.00  0.00     0.041 A 
ATOM     90  F   UNL     1      -6.838  13.374   5.550  1.00  0.00    -0.206 F 
ATOM     91  C   UNL     1      -7.837  14.744   8.744  1.00  0.00     0.022 A 
BRANCH  88  92
ATOM     92  S   UNL     1      -9.777  16.573   9.560  1.00  0.00     0.124 S 
ATOM     93  O   UNL     1      -9.624  17.885   8.941  1.00  0.00    -0.237 OA
ATOM     94  O   UNL     1     -11.129  16.023   9.574  1.00  0.00    -0.237 OA
ATOM     95  O   UNL     1      -9.010  16.367  10.787  1.00  0.00    -0.744 OA
ENDBRANCH  88  92
ENDBRANCH  61  85
BRANCH  73  96
ATOM     96  C   UNL     1      -9.030  20.069   1.477  1.00  0.00     0.023 A 
ATOM     97  C   UNL     1      -7.761  20.595   1.776  1.00  0.00     0.031 A 
ATOM     98  C   UNL     1     -10.099  20.971   1.321  1.00  0.00     0.131 A 
ATOM     99  C   UNL     1      -7.603  21.976   1.964  1.00  0.00     0.055 A 
ATOM    100  C   UNL     1      -9.922  22.349   1.443  1.00  0.00     0.041 A 
ATOM    101  F   UNL     1     -11.334  20.525   1.039  1.00  0.00    -0.206 F 
ATOM    102  C   UNL     1      -8.671  22.858   1.780  1.00  0.00     0.022 A 
BRANCH  99 103
ATOM    103  S   UNL     1      -6.002  22.598   2.546  1.00  0.00     0.124 S 
ATOM    104  O   UNL     1      -5.842  21.885   3.810  1.00  0.00    -0.237 OA
ATOM    105  O   UNL     1      -5.101  22.198   1.470  1.00  0.00    -0.237 OA
ATOM    106  O   UNL     1      -6.217  24.038   2.670  1.00  0.00    -0.744 OA
ENDBRANCH  99 103
ENDBRANCH  73  96
ENDBRANCH  47  48
ENDBRANCH  39  42
ENDBRANCH  37  38
ENDBRANCH  36  37
ENDBRANCH  35  36
ENDBRANCH   1  35
TORSDOF 21
