REMARK SMILES CC(C)Cc1ccc(-c2cc(Cl)cc3c2O[C@H](C(F)(F)F)C(C(=O)NCCCCCCNC(=O)c2ccc(-c4c5nc(c(-c6cc(S(=O)(=O)[O-])ccc6F)c6ccc([nH]6)c(-c6cc(S(=O)(=O)[O-])ccc6F)c6nc(c(-c7cc(S(=O)(=O)[O-])ccc7F)c7ccc4[nH]7)C=C6)C=C5)cc2)=C3)cc1
REMARK SMILES IDX 28 1 27 2 26 3 25 4 23 5 24 6 22 8 9 9 10 10 15 11 11 12
REMARK SMILES IDX 14 13 16 14 12 15 13 16 98 17 17 18 8 19 5 20 6 21 100 22
REMARK SMILES IDX 7 23 99 24 4 25 2 26 1 27 3 28 18 29 19 30 20 31 21 32 29 33
REMARK SMILES IDX 30 34 31 35 32 36 33 37 34 39 35 40 36 41 97 42 37 43 96 44
REMARK SMILES IDX 38 45 39 46 40 47 90 48 41 49 95 50 89 51 91 52 42 53 94 54
REMARK SMILES IDX 88 55 87 56 43 58 75 59 55 60 74 61 56 62 59 63 73 64 92 65
REMARK SMILES IDX 57 66 58 67 72 69 93 70 60 71 44 72 45 73 53 74 46 75 52 76
REMARK SMILES IDX 54 77 51 78 47 79 48 80 49 81 50 82 76 83 77 84 85 85 78 86
REMARK SMILES IDX 84 87 86 88 83 89 79 90 80 91 81 92 82 93 61 94 62 95 70 96
REMARK SMILES IDX 63 97 69 98 71 99 68 100 64 101 65 102 66 103 67 104
REMARK H PARENT 25 7 32 38 91 57 59 68
REMARK Flexibility Score: inf
ROOT
ATOM      1  C   UNL     1      -1.276  13.378   4.359  1.00  0.00     0.002 C 
ENDROOT
BRANCH   1   2
ATOM      2  C   UNL     1      -0.547  12.143   4.913  1.00  0.00     0.021 C 
BRANCH   2   3
ATOM      3  C   UNL     1      -1.457  10.944   5.215  1.00  0.00     0.116 C 
BRANCH   3   4
ATOM      4  N   UNL     1      -2.146  10.539   4.006  1.00  0.00    -0.352 N 
ATOM      5  C   UNL     1      -2.012   9.334   3.401  1.00  0.00     0.251 C 
ATOM      6  O   UNL     1      -1.790   9.268   2.198  1.00  0.00    -0.270 OA
ATOM      7  H   UNL     1      -2.759  11.189   3.593  1.00  0.00     0.163 HD
BRANCH   5   8
ATOM      8  C   UNL     1      -2.317   8.139   4.242  1.00  0.00     0.067 C 
ATOM      9  C   UNL     1      -2.188   5.372   1.289  1.00  0.00     0.026 A 
ATOM     10  C   UNL     1      -2.953   5.887   0.207  1.00  0.00     0.033 A 
ATOM     11  C   UNL     1      -2.345   6.019   2.527  1.00  0.00     0.135 A 
ATOM     12  C   UNL     1      -3.920   6.874   0.369  1.00  0.00     0.042 A 
ATOM     13  C   UNL     1      -3.415   6.935   2.693  1.00  0.00     0.019 A 
ATOM     14  O   UNL     1      -1.462   5.858   3.589  1.00  0.00    -0.475 OA
ATOM     15  Cl  UNL     1      -4.763   7.476  -1.002  1.00  0.00    -0.084 Cl
ATOM     16  C   UNL     1      -4.209   7.355   1.629  1.00  0.00     0.032 A 
ATOM     17  C   UNL     1      -3.537   7.624   3.995  1.00  0.00     0.025 C 
ATOM     18  C   UNL     1      -1.191   7.123   4.341  1.00  0.00     0.314 C 
BRANCH   9  19
ATOM     19  C   UNL     1      -1.472   4.108   0.985  1.00  0.00    -0.015 A 
ATOM     20  C   UNL     1      -1.021   1.580  -0.255  1.00  0.00    -0.048 A 
ATOM     21  C   UNL     1      -0.526   2.755  -0.829  1.00  0.00     0.004 A 
ATOM     22  C   UNL     1      -1.658   1.667   0.989  1.00  0.00     0.004 A 
ATOM     23  C   UNL     1      -0.719   3.993  -0.202  1.00  0.00     0.009 A 
ATOM     24  C   UNL     1      -1.874   2.913   1.605  1.00  0.00     0.009 A 
BRANCH  20  25
ATOM     25  C   UNL     1      -0.872   0.253  -0.972  1.00  0.00     0.038 C 
BRANCH  25  26
ATOM     26  C   UNL     1       0.597  -0.151  -1.203  1.00  0.00    -0.013 C 
ATOM     27  C   UNL     1       1.354  -0.271   0.121  1.00  0.00     0.008 C 
ATOM     28  C   UNL     1       0.694  -1.468  -1.976  1.00  0.00     0.008 C 
ENDBRANCH  25  26
ENDBRANCH  20  25
ENDBRANCH   9  19
BRANCH  18  29
ATOM     29  C   UNL     1      -0.916   6.870   5.841  1.00  0.00     0.429 C 
ATOM     30  F   UNL     1      -1.334   5.651   6.250  1.00  0.00    -0.167 F 
ATOM     31  F   UNL     1       0.405   6.970   6.123  1.00  0.00    -0.167 F 
ATOM     32  F   UNL     1      -1.540   7.777   6.641  1.00  0.00    -0.167 F 
ENDBRANCH  18  29
ENDBRANCH   5   8
ENDBRANCH   3   4
ENDBRANCH   2   3
ENDBRANCH   1   2
BRANCH   1  33
ATOM     33  C   UNL     1      -2.432  13.883   5.226  1.00  0.00     0.002 C 
BRANCH  33  34
ATOM     34  C   UNL     1      -2.030  14.273   6.648  1.00  0.00     0.021 C 
BRANCH  34  35
ATOM     35  C   UNL     1      -0.915  15.309   6.728  1.00  0.00     0.116 C 
BRANCH  35  36
ATOM     36  N   UNL     1      -1.281  16.564   6.091  1.00  0.00    -0.352 N 
ATOM     37  C   UNL     1      -1.161  17.841   6.577  1.00  0.00     0.251 C 
ATOM     38  H   UNL     1      -1.668  16.486   5.189  1.00  0.00     0.163 HD
ATOM     39  O   UNL     1      -1.692  18.777   5.981  1.00  0.00    -0.269 OA
BRANCH  37  40
ATOM     40  C   UNL     1      -0.418  18.076   7.833  1.00  0.00     0.039 A 
ATOM     41  C   UNL     1      -0.980  18.903   8.807  1.00  0.00     0.014 A 
ATOM     42  C   UNL     1       0.819  17.463   8.056  1.00  0.00     0.014 A 
ATOM     43  C   UNL     1      -0.328  19.069  10.030  1.00  0.00     0.010 A 
ATOM     44  C   UNL     1       1.427  17.567   9.304  1.00  0.00     0.010 A 
ATOM     45  C   UNL     1       0.863  18.374  10.303  1.00  0.00    -0.014 A 
BRANCH  45  46
ATOM     46  C   UNL     1       1.531  18.487  11.626  1.00  0.00     0.031 A 
ATOM     47  C   UNL     1       2.912  19.078  11.725  1.00  0.00     0.074 A 
ATOM     48  C   UNL     1       0.916  18.009  12.727  1.00  0.00     0.049 A 
ATOM     49  N   UNL     1       3.684  19.204  12.773  1.00  0.00    -0.248 NA
ATOM     50  C   UNL     1       3.515  19.563  10.474  1.00  0.00     0.031 C 
ATOM     51  C   UNL     1      -0.406  17.379  12.749  1.00  0.00     0.029 A 
ATOM     52  N   UNL     1       1.321  17.971  14.038  1.00  0.00    -0.354 N 
ATOM     53  C   UNL     1       4.866  19.772  12.308  1.00  0.00     0.074 A 
ATOM     54  C   UNL     1       4.730  19.907  10.874  1.00  0.00     0.031 C 
ATOM     55  C   UNL     1      -0.713  17.043  14.012  1.00  0.00     0.029 A 
ATOM     56  C   UNL     1       0.408  17.382  14.883  1.00  0.00     0.049 A 
ATOM     57  H   UNL     1       2.184  18.331  14.346  1.00  0.00     0.167 HD
ATOM     58  C   UNL     1       5.955  20.163  13.016  1.00  0.00     0.034 A 
ATOM     59  C   UNL     1       0.471  17.130  16.206  1.00  0.00     0.034 A 
ATOM     60  C   UNL     1       6.067  20.032  14.448  1.00  0.00     0.049 A 
ATOM     61  C   UNL     1       1.705  17.551  16.967  1.00  0.00     0.074 A 
ATOM     62  C   UNL     1       7.098  20.451  15.272  1.00  0.00     0.029 A 
ATOM     63  N   UNL     1       5.123  19.430  15.271  1.00  0.00    -0.354 N 
ATOM     64  N   UNL     1       2.790  18.140  16.520  1.00  0.00    -0.248 NA
ATOM     65  C   UNL     1       1.716  17.286  18.411  1.00  0.00     0.031 C 
ATOM     66  C   UNL     1       6.816  20.030  16.576  1.00  0.00     0.029 A 
ATOM     67  C   UNL     1       5.567  19.431  16.585  1.00  0.00     0.049 A 
ATOM     68  H   UNL     1       4.266  19.056  14.966  1.00  0.00     0.167 HD
ATOM     69  C   UNL     1       3.598  18.346  17.636  1.00  0.00     0.074 A 
ATOM     70  C   UNL     1       2.865  17.834  18.776  1.00  0.00     0.031 C 
ATOM     71  C   UNL     1       4.830  18.909  17.713  1.00  0.00     0.034 A 
BRANCH  58  72
ATOM     72  C   UNL     1       7.119  20.743  12.247  1.00  0.00     0.023 A 
ATOM     73  C   UNL     1       7.002  21.932  11.506  1.00  0.00     0.031 A 
ATOM     74  C   UNL     1       8.365  20.090  12.248  1.00  0.00     0.131 A 
ATOM     75  C   UNL     1       8.087  22.393  10.745  1.00  0.00     0.055 A 
ATOM     76  C   UNL     1       9.465  20.600  11.555  1.00  0.00     0.041 A 
ATOM     77  F   UNL     1       8.533  18.938  12.916  1.00  0.00    -0.206 F 
ATOM     78  C   UNL     1       9.326  21.751  10.786  1.00  0.00     0.022 A 
BRANCH  75  79
ATOM     79  S   UNL     1       7.814  23.766   9.590  1.00  0.00     0.124 S 
ATOM     80  O   UNL     1       6.761  23.224   8.733  1.00  0.00    -0.237 OA
ATOM     81  O   UNL     1       7.419  24.852  10.479  1.00  0.00    -0.237 OA
ATOM     82  O   UNL     1       9.112  23.930   8.940  1.00  0.00    -0.744 OA
ENDBRANCH  75  79
ENDBRANCH  58  72
BRANCH  59  83
ATOM     83  C   UNL     1      -0.648  16.428  16.901  1.00  0.00     0.023 A 
ATOM     84  C   UNL     1      -1.374  17.054  17.927  1.00  0.00     0.031 A 
ATOM     85  C   UNL     1      -0.974  15.096  16.584  1.00  0.00     0.131 A 
ATOM     86  C   UNL     1      -2.346  16.333  18.638  1.00  0.00     0.055 A 
ATOM     87  C   UNL     1      -1.986  14.404  17.252  1.00  0.00     0.041 A 
ATOM     88  F   UNL     1      -0.315  14.448  15.611  1.00  0.00    -0.206 F 
ATOM     89  C   UNL     1      -2.668  15.018  18.297  1.00  0.00     0.022 A 
BRANCH  86  90
ATOM     90  S   UNL     1      -3.113  17.108  20.089  1.00  0.00     0.124 S 
ATOM     91  O   UNL     1      -1.947  17.419  20.908  1.00  0.00    -0.237 OA
ATOM     92  O   UNL     1      -3.803  18.247  19.494  1.00  0.00    -0.237 OA
ATOM     93  O   UNL     1      -3.983  16.058  20.614  1.00  0.00    -0.744 OA
ENDBRANCH  86  90
ENDBRANCH  59  83
BRANCH  71  94
ATOM     94  C   UNL     1       5.440  19.047  19.088  1.00  0.00     0.023 A 
ATOM     95  C   UNL     1       5.796  17.927  19.859  1.00  0.00     0.031 A 
ATOM     96  C   UNL     1       5.657  20.323  19.639  1.00  0.00     0.131 A 
ATOM     97  C   UNL     1       6.293  18.103  21.160  1.00  0.00     0.055 A 
ATOM     98  C   UNL     1       6.217  20.493  20.905  1.00  0.00     0.041 A 
ATOM     99  F   UNL     1       5.333  21.430  18.950  1.00  0.00    -0.206 F 
ATOM    100  C   UNL     1       6.525  19.379  21.680  1.00  0.00     0.022 A 
BRANCH  97 101
ATOM    101  S   UNL     1       6.536  16.640  22.204  1.00  0.00     0.124 S 
ATOM    102  O   UNL     1       5.200  16.053  22.220  1.00  0.00    -0.237 OA
ATOM    103  O   UNL     1       7.551  15.895  21.466  1.00  0.00    -0.237 OA
ATOM    104  O   UNL     1       6.983  17.199  23.479  1.00  0.00    -0.744 OA
ENDBRANCH  97 101
ENDBRANCH  71  94
ENDBRANCH  45  46
ENDBRANCH  37  40
ENDBRANCH  35  36
ENDBRANCH  34  35
ENDBRANCH  33  34
ENDBRANCH   1  33
TORSDOF 20
