REMARK SMILES O=C(NCCCCCCNC(=O)c1cc(S[C@H]2CCO[C@@]3(CCOC3)C2)cs1)c1ccc(-c2c3nc(c(-c4cc(S(=O)(=O)[O-])ccc4F)c4ccc([nH]4)c(-c4cc(S(=O)(=O)[O-])ccc4F)c4nc(c(-c5cc(S(=O)(=O)[O-])ccc5F)c5ccc2[nH]5)C=C4)C=C3)cc1
REMARK SMILES IDX 6 1 5 2 4 3 3 4 1 5 2 6 29 8 30 9 91 10 31 11 90 12 32 13
REMARK SMILES IDX 33 14 34 15 84 16 35 17 89 18 83 19 85 20 36 21 88 22 82 23
REMARK SMILES IDX 81 24 37 26 69 27 49 28 68 29 50 30 53 31 67 32 86 33 51 34
REMARK SMILES IDX 52 35 66 37 87 38 54 39 38 40 39 41 47 42 40 43 46 44 48 45
REMARK SMILES IDX 45 46 41 47 42 48 43 49 44 50 70 51 71 52 79 53 72 54 78 55
REMARK SMILES IDX 80 56 77 57 73 58 74 59 75 60 76 61 55 62 56 63 64 64 57 65
REMARK SMILES IDX 63 66 65 67 62 68 58 69 59 70 60 71 61 72 7 73 8 74 9 75
REMARK SMILES IDX 10 76 11 77 12 79 13 80 14 81 28 82 15 83 27 84 16 85 17 86
REMARK SMILES IDX 18 87 26 88 19 89 21 90 20 91 22 92 25 93 23 94 24 95
REMARK H PARENT 3 7 85 25 53 36 10 78
REMARK Flexibility Score: inf
ROOT
ATOM      1  C   UNL     1      15.055   1.311  10.862  1.00  0.00     0.002 C 
ENDROOT
BRANCH   1   2
ATOM      2  C   UNL     1      14.779  -0.013  10.147  1.00  0.00     0.021 C 
BRANCH   2   3
ATOM      3  C   UNL     1      15.991  -0.915   9.942  1.00  0.00     0.116 C 
BRANCH   3   4
ATOM      4  N   UNL     1      16.582  -1.356  11.194  1.00  0.00    -0.352 N 
ATOM      5  O   UNL     1      17.277  -2.829  12.748  1.00  0.00    -0.269 OA
ATOM      6  C   UNL     1      16.917  -2.627  11.592  1.00  0.00     0.251 C 
ATOM      7  H   UNL     1      16.767  -0.644  11.848  1.00  0.00     0.163 HD
BRANCH   6   8
ATOM      8  C   UNL     1      16.825  -3.753  10.635  1.00  0.00     0.039 A 
ATOM      9  C   UNL     1      17.332  -3.638   9.337  1.00  0.00     0.014 A 
ATOM     10  C   UNL     1      16.240  -4.951  11.055  1.00  0.00     0.014 A 
ATOM     11  C   UNL     1      17.155  -4.678   8.428  1.00  0.00     0.010 A 
ATOM     12  C   UNL     1      16.124  -6.019  10.160  1.00  0.00     0.010 A 
ATOM     13  C   UNL     1      16.561  -5.884   8.833  1.00  0.00    -0.014 A 
BRANCH  13  14
ATOM     14  C   UNL     1      16.463  -7.016   7.877  1.00  0.00     0.031 A 
ATOM     15  C   UNL     1      15.127  -7.512   7.399  1.00  0.00     0.074 A 
ATOM     16  C   UNL     1      17.598  -7.602   7.449  1.00  0.00     0.049 A 
ATOM     17  N   UNL     1      14.856  -8.504   6.590  1.00  0.00    -0.248 NA
ATOM     18  C   UNL     1      13.942  -6.808   7.907  1.00  0.00     0.031 C 
ATOM     19  C   UNL     1      18.949  -7.215   7.864  1.00  0.00     0.029 A 
ATOM     20  N   UNL     1      17.802  -8.644   6.582  1.00  0.00    -0.354 N 
ATOM     21  C   UNL     1      13.469  -8.557   6.501  1.00  0.00     0.074 A 
ATOM     22  C   UNL     1      12.958  -7.515   7.370  1.00  0.00     0.031 C 
ATOM     23  C   UNL     1      19.840  -7.999   7.241  1.00  0.00     0.029 A 
ATOM     24  C   UNL     1      19.126  -8.978   6.429  1.00  0.00     0.049 A 
ATOM     25  H   UNL     1      17.070  -9.107   6.114  1.00  0.00     0.167 HD
ATOM     26  C   UNL     1      12.698  -9.392   5.759  1.00  0.00     0.034 A 
ATOM     27  C   UNL     1      19.704  -9.980   5.740  1.00  0.00     0.034 A 
ATOM     28  C   UNL     1      13.232 -10.429   4.904  1.00  0.00     0.049 A 
ATOM     29  C   UNL     1      18.832 -10.915   4.951  1.00  0.00     0.074 A 
ATOM     30  C   UNL     1      12.549 -11.297   4.069  1.00  0.00     0.029 A 
ATOM     31  N   UNL     1      14.579 -10.752   4.788  1.00  0.00    -0.354 N 
ATOM     32  N   UNL     1      17.523 -10.928   4.846  1.00  0.00    -0.248 NA
ATOM     33  C   UNL     1      19.512 -11.966   4.185  1.00  0.00     0.031 C 
ATOM     34  C   UNL     1      13.473 -12.185   3.504  1.00  0.00     0.029 A 
ATOM     35  C   UNL     1      14.743 -11.828   3.927  1.00  0.00     0.049 A 
ATOM     36  H   UNL     1      15.312 -10.284   5.250  1.00  0.00     0.167 HD
ATOM     37  C   UNL     1      17.223 -11.982   3.990  1.00  0.00     0.074 A 
ATOM     38  C   UNL     1      18.489 -12.569   3.596  1.00  0.00     0.031 C 
ATOM     39  C   UNL     1      16.011 -12.422   3.567  1.00  0.00     0.034 A 
BRANCH  26  40
ATOM     40  C   UNL     1      11.198  -9.248   5.884  1.00  0.00     0.023 A 
ATOM     41  C   UNL     1      10.527  -8.073   5.499  1.00  0.00     0.031 A 
ATOM     42  C   UNL     1      10.430 -10.291   6.434  1.00  0.00     0.131 A 
ATOM     43  C   UNL     1       9.150  -7.939   5.741  1.00  0.00     0.055 A 
ATOM     44  C   UNL     1       9.047 -10.183   6.598  1.00  0.00     0.041 A 
ATOM     45  F   UNL     1      11.014 -11.430   6.838  1.00  0.00    -0.206 F 
ATOM     46  C   UNL     1       8.402  -8.995   6.266  1.00  0.00     0.022 A 
BRANCH  43  47
ATOM     47  S   UNL     1       8.378  -6.313   5.502  1.00  0.00     0.124 S 
ATOM     48  O   UNL     1       9.169  -5.472   6.396  1.00  0.00    -0.237 OA
ATOM     49  O   UNL     1       8.563  -6.078   4.074  1.00  0.00    -0.237 OA
ATOM     50  O   UNL     1       6.994  -6.524   5.923  1.00  0.00    -0.744 OA
ENDBRANCH  43  47
ENDBRANCH  26  40
BRANCH  27  51
ATOM     51  C   UNL     1      21.179 -10.169   5.813  1.00  0.00     0.023 A 
ATOM     52  C   UNL     1      22.000  -9.949   4.698  1.00  0.00     0.031 A 
ATOM     53  C   UNL     1      21.788 -10.561   7.019  1.00  0.00     0.131 A 
ATOM     54  C   UNL     1      23.386 -10.144   4.805  1.00  0.00     0.055 A 
ATOM     55  C   UNL     1      23.170 -10.711   7.133  1.00  0.00     0.041 A 
ATOM     56  F   UNL     1      21.045 -10.772   8.117  1.00  0.00    -0.206 F 
ATOM     57  C   UNL     1      23.977 -10.510   6.018  1.00  0.00     0.022 A 
BRANCH  54  58
ATOM     58  S   UNL     1      24.408  -9.954   3.320  1.00  0.00     0.124 S 
ATOM     59  O   UNL     1      23.835 -10.959   2.432  1.00  0.00    -0.237 OA
ATOM     60  O   UNL     1      24.160  -8.562   2.957  1.00  0.00    -0.237 OA
ATOM     61  O   UNL     1      25.759 -10.239   3.798  1.00  0.00    -0.744 OA
ENDBRANCH  54  58
ENDBRANCH  27  51
BRANCH  39  62
ATOM     62  C   UNL     1      16.011 -13.583   2.605  1.00  0.00     0.023 A 
ATOM     63  C   UNL     1      16.390 -14.875   3.009  1.00  0.00     0.031 A 
ATOM     64  C   UNL     1      15.644 -13.389   1.262  1.00  0.00     0.131 A 
ATOM     65  C   UNL     1      16.441 -15.914   2.067  1.00  0.00     0.055 A 
ATOM     66  C   UNL     1      15.646 -14.437   0.341  1.00  0.00     0.041 A 
ATOM     67  F   UNL     1      15.277 -12.174   0.823  1.00  0.00    -0.206 F 
ATOM     68  C   UNL     1      16.057 -15.706   0.739  1.00  0.00     0.022 A 
BRANCH  65  69
ATOM     69  S   UNL     1      17.091 -17.528   2.581  1.00  0.00     0.124 S 
ATOM     70  O   UNL     1      18.450 -17.191   2.990  1.00  0.00    -0.237 OA
ATOM     71  O   UNL     1      16.176 -17.907   3.653  1.00  0.00    -0.237 OA
ATOM     72  O   UNL     1      16.992 -18.339   1.369  1.00  0.00    -0.744 OA
ENDBRANCH  65  69
ENDBRANCH  39  62
ENDBRANCH  13  14
ENDBRANCH   6   8
ENDBRANCH   3   4
ENDBRANCH   2   3
ENDBRANCH   1   2
BRANCH   1  73
ATOM     73  C   UNL     1      16.159   2.182  10.255  1.00  0.00     0.002 C 
BRANCH  73  74
ATOM     74  C   UNL     1      16.035   2.468   8.755  1.00  0.00     0.021 C 
BRANCH  74  75
ATOM     75  C   UNL     1      14.738   3.149   8.325  1.00  0.00     0.116 C 
BRANCH  75  76
ATOM     76  N   UNL     1      14.645   4.507   8.833  1.00  0.00    -0.351 N 
ATOM     77  C   UNL     1      14.406   5.677   8.148  1.00  0.00     0.261 C 
ATOM     78  H   UNL     1      14.771   4.605   9.804  1.00  0.00     0.163 HD
ATOM     79  O   UNL     1      14.592   6.735   8.754  1.00  0.00    -0.268 OA
BRANCH  77  80
ATOM     80  C   UNL     1      13.919   5.605   6.784  1.00  0.00     0.093 A 
ATOM     81  C   UNL     1      12.963   4.759   6.253  1.00  0.00     0.040 A 
ATOM     82  S   UNL     1      14.487   6.706   5.606  1.00  0.00    -0.137 S 
ATOM     83  C   UNL     1      12.722   4.982   4.870  1.00  0.00     0.019 A 
ATOM     84  C   UNL     1      13.505   6.006   4.387  1.00  0.00     0.080 A 
BRANCH  83  85
ATOM     85  S   UNL     1      11.577   4.096   3.857  1.00  0.00    -0.122 SA
BRANCH  85  86
ATOM     86  C   UNL     1      10.835   2.877   5.000  1.00  0.00     0.057 C 
ATOM     87  C   UNL     1       9.822   3.545   5.931  1.00  0.00     0.043 C 
ATOM     88  C   UNL     1      10.136   1.737   4.244  1.00  0.00     0.053 C 
ATOM     89  C   UNL     1       9.274   2.497   6.885  1.00  0.00     0.162 C 
ATOM     90  C   UNL     1       9.477   0.755   5.246  1.00  0.00     0.095 C 
ATOM     91  O   UNL     1       8.627   1.461   6.155  1.00  0.00    -0.372 OA
ATOM     92  C   UNL     1       8.651  -0.303   4.525  1.00  0.00     0.066 C 
ATOM     93  C   UNL     1      10.494  -0.151   5.942  1.00  0.00     0.195 C 
ATOM     94  C   UNL     1       9.651  -1.401   4.199  1.00  0.00     0.163 C 
ATOM     95  O   UNL     1      10.837  -1.139   4.970  1.00  0.00    -0.378 OA
ENDBRANCH  85  86
ENDBRANCH  83  85
ENDBRANCH  77  80
ENDBRANCH  75  76
ENDBRANCH  74  75
ENDBRANCH  73  74
ENDBRANCH   1  73
TORSDOF 18
