REMARK SMILES CC1(C)[C@@]2(C(=O)NCCCCCCNC(=O)c3ccc(-c4c5nc(c(-c6cc(S(=O)(=O)[O-])ccc6F)c6ccc([nH]6)c(-c6cc(S(=O)(=O)[O-])ccc6F)c6nc(c(-c7cc(S(=O)(=O)[O-])ccc7F)c7ccc4[nH]7)C=C6)C=C5)cc3)CC[C@]1(C)/C(=N/NC(=O)c1ccc(Cl)cc1)C2
REMARK SMILES IDX 11 1 10 2 9 3 8 4 7 5 5 6 6 7 4 9 1 10 2 11 3 12 82 13 80 14
REMARK SMILES IDX 96 15 81 16 83 17 84 18 85 19 86 20 87 21 88 23 89 24 90 25
REMARK SMILES IDX 95 26 91 27 94 28 92 29 93 30 12 31 13 32 14 33 15 34 16 36
REMARK SMILES IDX 17 37 18 38 79 39 19 40 78 41 20 42 21 43 22 44 72 45 23 46
REMARK SMILES IDX 77 47 71 48 73 49 24 50 76 51 70 52 69 53 25 55 57 56 37 57
REMARK SMILES IDX 56 58 38 59 41 60 55 61 74 62 39 63 40 64 54 66 75 67 42 68
REMARK SMILES IDX 26 69 27 70 35 71 28 72 34 73 36 74 33 75 29 76 30 77 31 78
REMARK SMILES IDX 32 79 58 80 59 81 67 82 60 83 66 84 68 85 65 86 61 87 62 88
REMARK SMILES IDX 63 89 64 90 43 91 44 92 52 93 45 94 51 95 53 96 50 97 46 98
REMARK SMILES IDX 47 99 48 100 49 101
REMARK H PARENT 7 8 86 22 14 35 73 54 41 65
REMARK Flexibility Score: inf
ROOT
ATOM      1  C   UNL     1      -6.759   2.016   1.120  1.00  0.00     0.002 C 
ENDROOT
BRANCH   1   2
ATOM      2  C   UNL     1      -5.567   1.046   1.160  1.00  0.00     0.002 C 
BRANCH   2   3
ATOM      3  C   UNL     1      -4.909   0.817  -0.204  1.00  0.00     0.021 C 
BRANCH   3   4
ATOM      4  C   UNL     1      -3.381   0.954  -0.300  1.00  0.00     0.116 C 
BRANCH   4   5
ATOM      5  N   UNL     1      -2.567   0.413   0.782  1.00  0.00    -0.356 N 
ATOM      6  C   UNL     1      -1.249   0.024   0.796  1.00  0.00     0.227 C 
ATOM      7  O   UNL     1      -0.626   0.254   1.837  1.00  0.00    -0.274 OA
ATOM      8  H   UNL     1      -3.037   0.309   1.641  1.00  0.00     0.163 HD
BRANCH   6   9
ATOM      9  C   UNL     1      -0.613  -0.823  -0.318  1.00  0.00     0.060 C 
ATOM     10  C   UNL     1       1.674   0.372  -0.571  1.00  0.00     0.013 C 
ATOM     11  C   UNL     1       0.948  -0.976  -0.358  1.00  0.00    -0.010 C 
ATOM     12  C   UNL     1       1.642  -1.666   0.838  1.00  0.00     0.013 C 
ATOM     13  C   UNL     1       0.889  -1.918  -1.610  1.00  0.00     0.014 C 
ATOM     14  C   UNL     1      -0.940  -0.397  -1.787  1.00  0.00     0.019 C 
ATOM     15  C   UNL     1      -1.060  -2.295  -0.152  1.00  0.00     0.071 C 
ATOM     16  C   UNL     1       0.150  -1.060  -2.647  1.00  0.00     0.014 C 
ATOM     17  C   UNL     1       2.184  -2.519  -2.109  1.00  0.00     0.018 C 
ATOM     18  C   UNL     1      -0.208  -2.944  -1.190  1.00  0.00     0.046 C 
ATOM     19  N   UNL     1      -0.322  -4.049  -1.848  1.00  0.00    -0.181 NA
BRANCH  19  20
ATOM     20  N   UNL     1      -1.215  -5.071  -1.849  1.00  0.00    -0.243 N 
ATOM     21  C   UNL     1      -2.373  -5.507  -1.243  1.00  0.00     0.271 C 
ATOM     22  H   UNL     1      -0.936  -5.736  -2.520  1.00  0.00     0.194 HD
ATOM     23  O   UNL     1      -2.810  -6.623  -1.541  1.00  0.00    -0.267 OA
BRANCH  21  24
ATOM     24  C   UNL     1      -3.127  -4.776  -0.232  1.00  0.00     0.041 A 
ATOM     25  C   UNL     1      -3.204  -5.307   1.062  1.00  0.00     0.015 A 
ATOM     26  C   UNL     1      -3.829  -3.620  -0.552  1.00  0.00     0.015 A 
ATOM     27  C   UNL     1      -3.770  -4.555   2.091  1.00  0.00     0.021 A 
ATOM     28  C   UNL     1      -4.344  -2.848   0.494  1.00  0.00     0.021 A 
ATOM     29  C   UNL     1      -4.264  -3.287   1.812  1.00  0.00     0.041 A 
ATOM     30  Cl  UNL     1      -4.704  -2.233   3.097  1.00  0.00    -0.084 Cl
ENDBRANCH  21  24
ENDBRANCH  19  20
ENDBRANCH   6   9
ENDBRANCH   4   5
ENDBRANCH   3   4
ENDBRANCH   2   3
ENDBRANCH   1   2
BRANCH   1  31
ATOM     31  C   UNL     1      -7.853   1.714   0.088  1.00  0.00     0.021 C 
BRANCH  31  32
ATOM     32  C   UNL     1      -8.557   0.373   0.271  1.00  0.00     0.116 C 
BRANCH  32  33
ATOM     33  N   UNL     1      -9.525   0.431   1.353  1.00  0.00    -0.352 N 
ATOM     34  C   UNL     1     -10.898   0.522   1.266  1.00  0.00     0.251 C 
ATOM     35  H   UNL     1      -9.154   0.401   2.264  1.00  0.00     0.163 HD
ATOM     36  O   UNL     1     -11.556   0.870   2.234  1.00  0.00    -0.269 OA
BRANCH  34  37
ATOM     37  C   UNL     1     -11.562   0.201  -0.019  1.00  0.00     0.039 A 
ATOM     38  C   UNL     1     -12.489   1.095  -0.559  1.00  0.00     0.014 A 
ATOM     39  C   UNL     1     -11.269  -0.996  -0.678  1.00  0.00     0.014 A 
ATOM     40  C   UNL     1     -13.085   0.812  -1.793  1.00  0.00     0.010 A 
ATOM     41  C   UNL     1     -11.820  -1.248  -1.933  1.00  0.00     0.010 A 
ATOM     42  C   UNL     1     -12.738  -0.350  -2.501  1.00  0.00    -0.014 A 
BRANCH  42  43
ATOM     43  C   UNL     1     -13.336  -0.662  -3.827  1.00  0.00     0.031 A 
ATOM     44  C   UNL     1     -14.213  -1.875  -3.986  1.00  0.00     0.074 A 
ATOM     45  C   UNL     1     -13.022   0.089  -4.901  1.00  0.00     0.049 A 
ATOM     46  N   UNL     1     -14.739  -2.384  -5.070  1.00  0.00    -0.248 NA
ATOM     47  C   UNL     1     -14.506  -2.634  -2.761  1.00  0.00     0.031 C 
ATOM     48  C   UNL     1     -12.145   1.261  -4.883  1.00  0.00     0.029 A 
ATOM     49  N   UNL     1     -13.382  -0.035  -6.220  1.00  0.00    -0.354 N 
ATOM     50  C   UNL     1     -15.403  -3.537  -4.664  1.00  0.00     0.074 A 
ATOM     51  C   UNL     1     -15.165  -3.677  -3.243  1.00  0.00     0.031 C 
ATOM     52  C   UNL     1     -12.037   1.748  -6.129  1.00  0.00     0.029 A 
ATOM     53  C   UNL     1     -12.800   0.902  -7.043  1.00  0.00     0.049 A 
ATOM     54  H   UNL     1     -13.999  -0.729  -6.547  1.00  0.00     0.167 HD
ATOM     55  C   UNL     1     -16.156  -4.390  -5.405  1.00  0.00     0.034 A 
ATOM     56  C   UNL     1     -12.855   1.052  -8.382  1.00  0.00     0.034 A 
ATOM     57  C   UNL     1     -16.395  -4.222  -6.818  1.00  0.00     0.049 A 
ATOM     58  C   UNL     1     -13.693   0.094  -9.190  1.00  0.00     0.074 A 
ATOM     59  C   UNL     1     -17.208  -4.972  -7.650  1.00  0.00     0.029 A 
ATOM     60  N   UNL     1     -15.809  -3.244  -7.614  1.00  0.00    -0.354 N 
ATOM     61  N   UNL     1     -14.376  -0.951  -8.781  1.00  0.00    -0.248 NA
ATOM     62  C   UNL     1     -13.779   0.341 -10.635  1.00  0.00     0.031 C 
ATOM     63  C   UNL     1     -17.057  -4.496  -8.957  1.00  0.00     0.029 A 
ATOM     64  C   UNL     1     -16.213  -3.397  -8.932  1.00  0.00     0.049 A 
ATOM     65  H   UNL     1     -15.197  -2.545  -7.289  1.00  0.00     0.167 HD
ATOM     66  C   UNL     1     -14.993  -1.470  -9.916  1.00  0.00     0.074 A 
ATOM     67  C   UNL     1     -14.609  -0.617 -11.023  1.00  0.00     0.031 C 
ATOM     68  C   UNL     1     -15.810  -2.548 -10.030  1.00  0.00     0.034 A 
BRANCH  55  69
ATOM     69  C   UNL     1     -16.739  -5.594  -4.701  1.00  0.00     0.023 A 
ATOM     70  C   UNL     1     -17.643  -5.463  -3.632  1.00  0.00     0.031 A 
ATOM     71  C   UNL     1     -16.354  -6.893  -5.077  1.00  0.00     0.131 A 
ATOM     72  C   UNL     1     -18.056  -6.599  -2.919  1.00  0.00     0.055 A 
ATOM     73  C   UNL     1     -16.839  -8.026  -4.420  1.00  0.00     0.041 A 
ATOM     74  F   UNL     1     -15.480  -7.085  -6.079  1.00  0.00    -0.206 F 
ATOM     75  C   UNL     1     -17.680  -7.882  -3.321  1.00  0.00     0.022 A 
BRANCH  72  76
ATOM     76  S   UNL     1     -18.952  -6.361  -1.359  1.00  0.00     0.124 S 
ATOM     77  O   UNL     1     -18.017  -5.530  -0.605  1.00  0.00    -0.237 OA
ATOM     78  O   UNL     1     -20.179  -5.706  -1.798  1.00  0.00    -0.237 OA
ATOM     79  O   UNL     1     -19.118  -7.720  -0.848  1.00  0.00    -0.744 OA
ENDBRANCH  72  76
ENDBRANCH  55  69
BRANCH  56  80
ATOM     80  C   UNL     1     -12.073   2.135  -9.044  1.00  0.00     0.023 A 
ATOM     81  C   UNL     1     -12.712   3.211  -9.680  1.00  0.00     0.031 A 
ATOM     82  C   UNL     1     -10.667   2.099  -9.058  1.00  0.00     0.131 A 
ATOM     83  C   UNL     1     -11.946   4.192 -10.331  1.00  0.00     0.055 A 
ATOM     84  C   UNL     1      -9.909   3.101  -9.667  1.00  0.00     0.041 A 
ATOM     85  F   UNL     1     -10.007   1.096  -8.457  1.00  0.00    -0.206 F 
ATOM     86  C   UNL     1     -10.550   4.151 -10.317  1.00  0.00     0.022 A 
BRANCH  83  87
ATOM     87  S   UNL     1     -12.804   5.500 -11.249  1.00  0.00     0.124 S 
ATOM     88  O   UNL     1     -13.559   4.728 -12.229  1.00  0.00    -0.237 OA
ATOM     89  O   UNL     1     -13.585   6.144 -10.199  1.00  0.00    -0.237 OA
ATOM     90  O   UNL     1     -11.713   6.305 -11.793  1.00  0.00    -0.744 OA
ENDBRANCH  83  87
ENDBRANCH  56  80
BRANCH  68  91
ATOM     91  C   UNL     1     -16.380  -2.841 -11.396  1.00  0.00     0.023 A 
ATOM     92  C   UNL     1     -15.573  -3.288 -12.457  1.00  0.00     0.031 A 
ATOM     93  C   UNL     1     -17.757  -2.682 -11.633  1.00  0.00     0.131 A 
ATOM     94  C   UNL     1     -16.144  -3.522 -13.718  1.00  0.00     0.055 A 
ATOM     95  C   UNL     1     -18.328  -2.970 -12.873  1.00  0.00     0.041 A 
ATOM     96  F   UNL     1     -18.573  -2.255 -10.656  1.00  0.00    -0.206 F 
ATOM     97  C   UNL     1     -17.519  -3.384 -13.927  1.00  0.00     0.022 A 
BRANCH  94  98
ATOM     98  S   UNL     1     -15.055  -3.945 -15.105  1.00  0.00     0.124 S 
ATOM     99  O   UNL     1     -14.188  -2.773 -15.178  1.00  0.00    -0.237 OA
ATOM    100  O   UNL     1     -14.424  -5.178 -14.645  1.00  0.00    -0.237 OA
ATOM    101  O   UNL     1     -15.977  -4.105 -16.229  1.00  0.00    -0.744 OA
ENDBRANCH  94  98
ENDBRANCH  68  91
ENDBRANCH  42  43
ENDBRANCH  34  37
ENDBRANCH  32  33
ENDBRANCH  31  32
ENDBRANCH   1  31
TORSDOF 18
