REMARK SMILES O=C(NCCCCCCNC(=O)[C@H]1C=C[C@H](NS(=O)(=O)c2ccc(F)c(F)c2F)C1)c1ccc(-c2c3nc(c(-c4cc(S(=O)(=O)[O-])ccc4F)c4ccc([nH]4)c(-c4cc(S(=O)(=O)[O-])ccc4F)c4nc(c(-c5cc(S(=O)(=O)[O-])ccc5F)c5ccc2[nH]5)C=C4)C=C3)cc1
REMARK SMILES IDX 6 1 5 2 4 3 3 4 1 5 2 6 31 8 32 9 93 10 33 11 92 12 34 13
REMARK SMILES IDX 35 14 36 15 86 16 37 17 91 18 85 19 87 20 38 21 90 22 84 23
REMARK SMILES IDX 83 24 39 26 71 27 51 28 70 29 52 30 55 31 69 32 88 33 53 34
REMARK SMILES IDX 54 35 68 37 89 38 56 39 40 40 41 41 49 42 42 43 48 44 50 45
REMARK SMILES IDX 47 46 43 47 44 48 45 49 46 50 72 51 73 52 81 53 74 54 80 55
REMARK SMILES IDX 82 56 79 57 75 58 76 59 77 60 78 61 57 62 58 63 66 64 59 65
REMARK SMILES IDX 65 66 67 67 64 68 60 69 61 70 62 71 63 72 7 73 8 74 9 75
REMARK SMILES IDX 10 76 11 77 12 79 13 80 14 81 30 82 15 83 16 84 17 85 18 87
REMARK SMILES IDX 19 88 20 89 21 90 22 91 28 92 23 93 26 94 29 95 24 96 27 97
REMARK SMILES IDX 25 98
REMARK H PARENT 3 7 87 25 55 36 10 78 17 86
REMARK Flexibility Score: inf
ROOT
ATOM      1  C   UNL     1       4.148  -3.826  -0.248  1.00  0.00     0.002 C 
ENDROOT
BRANCH   1   2
ATOM      2  C   UNL     1       4.589  -2.599   0.549  1.00  0.00     0.021 C 
BRANCH   2   3
ATOM      3  C   UNL     1       4.427  -1.286  -0.204  1.00  0.00     0.116 C 
BRANCH   3   4
ATOM      4  N   UNL     1       3.029  -0.984  -0.472  1.00  0.00    -0.352 N 
ATOM      5  O   UNL     1       1.076   0.117  -0.204  1.00  0.00    -0.269 OA
ATOM      6  C   UNL     1       2.296   0.111  -0.081  1.00  0.00     0.251 C 
ATOM      7  H   UNL     1       2.542  -1.653  -1.006  1.00  0.00     0.163 HD
BRANCH   6   8
ATOM      8  C   UNL     1       2.999   1.271   0.504  1.00  0.00     0.039 A 
ATOM      9  C   UNL     1       4.171   1.748  -0.087  1.00  0.00     0.014 A 
ATOM     10  C   UNL     1       2.503   1.863   1.667  1.00  0.00     0.014 A 
ATOM     11  C   UNL     1       4.931   2.705   0.570  1.00  0.00     0.010 A 
ATOM     12  C   UNL     1       3.219   2.901   2.270  1.00  0.00     0.010 A 
ATOM     13  C   UNL     1       4.458   3.306   1.747  1.00  0.00    -0.014 A 
BRANCH  13  14
ATOM     14  C   UNL     1       5.264   4.378   2.388  1.00  0.00     0.031 A 
ATOM     15  C   UNL     1       5.819   4.209   3.775  1.00  0.00     0.074 A 
ATOM     16  C   UNL     1       5.520   5.501   1.687  1.00  0.00     0.049 A 
ATOM     17  N   UNL     1       6.553   5.036   4.477  1.00  0.00    -0.248 NA
ATOM     18  C   UNL     1       5.499   2.955   4.470  1.00  0.00     0.031 C 
ATOM     19  C   UNL     1       5.038   5.772   0.330  1.00  0.00     0.029 A 
ATOM     20  N   UNL     1       6.262   6.609   2.001  1.00  0.00    -0.354 N 
ATOM     21  C   UNL     1       6.763   4.416   5.704  1.00  0.00     0.074 A 
ATOM     22  C   UNL     1       6.044   3.159   5.661  1.00  0.00     0.031 C 
ATOM     23  C   UNL     1       5.545   6.937  -0.093  1.00  0.00     0.029 A 
ATOM     24  C   UNL     1       6.317   7.537   0.988  1.00  0.00     0.049 A 
ATOM     25  H   UNL     1       6.712   6.729   2.868  1.00  0.00     0.167 HD
ATOM     26  C   UNL     1       7.492   4.854   6.763  1.00  0.00     0.034 A 
ATOM     27  C   UNL     1       6.905   8.747   0.938  1.00  0.00     0.034 A 
ATOM     28  C   UNL     1       8.200   6.114   6.782  1.00  0.00     0.049 A 
ATOM     29  C   UNL     1       7.659   9.234   2.145  1.00  0.00     0.074 A 
ATOM     30  C   UNL     1       8.996   6.640   7.785  1.00  0.00     0.029 A 
ATOM     31  N   UNL     1       8.185   7.056   5.760  1.00  0.00    -0.354 N 
ATOM     32  N   UNL     1       7.864   8.628   3.292  1.00  0.00    -0.248 NA
ATOM     33  C   UNL     1       8.264  10.566   2.047  1.00  0.00     0.031 C 
ATOM     34  C   UNL     1       9.387   7.930   7.409  1.00  0.00     0.029 A 
ATOM     35  C   UNL     1       8.923   8.174   6.126  1.00  0.00     0.049 A 
ATOM     36  H   UNL     1       7.718   6.947   4.900  1.00  0.00     0.167 HD
ATOM     37  C   UNL     1       8.659   9.493   4.038  1.00  0.00     0.074 A 
ATOM     38  C   UNL     1       8.901  10.654   3.205  1.00  0.00     0.031 C 
ATOM     39  C   UNL     1       9.152   9.335   5.294  1.00  0.00     0.034 A 
BRANCH  26  40
ATOM     40  C   UNL     1       7.507   3.989   8.005  1.00  0.00     0.023 A 
ATOM     41  C   UNL     1       8.011   2.676   7.994  1.00  0.00     0.031 A 
ATOM     42  C   UNL     1       6.971   4.472   9.212  1.00  0.00     0.131 A 
ATOM     43  C   UNL     1       7.885   1.866   9.134  1.00  0.00     0.055 A 
ATOM     44  C   UNL     1       6.935   3.692  10.370  1.00  0.00     0.041 A 
ATOM     45  F   UNL     1       6.453   5.709   9.285  1.00  0.00    -0.206 F 
ATOM     46  C   UNL     1       7.375   2.373  10.330  1.00  0.00     0.022 A 
BRANCH  43  47
ATOM     47  S   UNL     1       8.230   0.091   8.975  1.00  0.00     0.124 S 
ATOM     48  O   UNL     1       7.335  -0.287   7.882  1.00  0.00    -0.237 OA
ATOM     49  O   UNL     1       9.655   0.074   8.667  1.00  0.00    -0.237 OA
ATOM     50  O   UNL     1       7.865  -0.448  10.283  1.00  0.00    -0.744 OA
ENDBRANCH  43  47
ENDBRANCH  26  40
BRANCH  27  51
ATOM     51  C   UNL     1       6.792   9.585  -0.289  1.00  0.00     0.023 A 
ATOM     52  C   UNL     1       7.930   9.931  -1.033  1.00  0.00     0.031 A 
ATOM     53  C   UNL     1       5.546  10.074  -0.723  1.00  0.00     0.131 A 
ATOM     54  C   UNL     1       7.806  10.776  -2.146  1.00  0.00     0.055 A 
ATOM     55  C   UNL     1       5.420  10.864  -1.866  1.00  0.00     0.041 A 
ATOM     56  F   UNL     1       4.425   9.769  -0.050  1.00  0.00    -0.206 F 
ATOM     57  C   UNL     1       6.558  11.231  -2.578  1.00  0.00     0.022 A 
BRANCH  54  58
ATOM     58  S   UNL     1       9.316  11.342  -2.976  1.00  0.00     0.124 S 
ATOM     59  O   UNL     1      10.016  12.016  -1.888  1.00  0.00    -0.237 OA
ATOM     60  O   UNL     1       9.899  10.085  -3.433  1.00  0.00    -0.237 OA
ATOM     61  O   UNL     1       8.814  12.216  -4.034  1.00  0.00    -0.744 OA
ENDBRANCH  54  58
ENDBRANCH  27  51
BRANCH  39  62
ATOM     62  C   UNL     1      10.061  10.424   5.814  1.00  0.00     0.023 A 
ATOM     63  C   UNL     1       9.610  11.739   6.028  1.00  0.00     0.031 A 
ATOM     64  C   UNL     1      11.416  10.143   6.071  1.00  0.00     0.131 A 
ATOM     65  C   UNL     1      10.519  12.736   6.413  1.00  0.00     0.055 A 
ATOM     66  C   UNL     1      12.299  11.123   6.527  1.00  0.00     0.041 A 
ATOM     67  F   UNL     1      11.907   8.909   5.878  1.00  0.00    -0.206 F 
ATOM     68  C   UNL     1      11.856  12.432   6.684  1.00  0.00     0.022 A 
BRANCH  65  69
ATOM     69  S   UNL     1       9.962  14.463   6.433  1.00  0.00     0.124 S 
ATOM     70  O   UNL     1       9.479  14.641   5.067  1.00  0.00    -0.237 OA
ATOM     71  O   UNL     1       8.939  14.448   7.473  1.00  0.00    -0.237 OA
ATOM     72  O   UNL     1      11.173  15.210   6.764  1.00  0.00    -0.744 OA
ENDBRANCH  65  69
ENDBRANCH  39  62
ENDBRANCH  13  14
ENDBRANCH   6   8
ENDBRANCH   3   4
ENDBRANCH   2   3
ENDBRANCH   1   2
BRANCH   1  73
ATOM     73  C   UNL     1       4.876  -4.009  -1.586  1.00  0.00     0.002 C 
BRANCH  73  74
ATOM     74  C   UNL     1       6.409  -3.981  -1.488  1.00  0.00     0.021 C 
BRANCH  74  75
ATOM     75  C   UNL     1       6.966  -5.082  -0.586  1.00  0.00     0.116 C 
BRANCH  75  76
ATOM     76  N   UNL     1       6.827  -6.356  -1.258  1.00  0.00    -0.356 N 
ATOM     77  C   UNL     1       7.696  -7.005  -2.074  1.00  0.00     0.226 C 
ATOM     78  H   UNL     1       5.975  -6.822  -1.099  1.00  0.00     0.163 HD
ATOM     79  O   UNL     1       7.227  -7.866  -2.827  1.00  0.00    -0.274 OA
BRANCH  77  80
ATOM     80  C   UNL     1       9.218  -6.872  -1.937  1.00  0.00     0.103 C 
ATOM     81  C   UNL     1       9.906  -5.591  -1.609  1.00  0.00    -0.016 C 
ATOM     82  C   UNL     1       9.635  -7.799  -0.791  1.00  0.00     0.042 C 
ATOM     83  C   UNL     1      10.690  -5.702  -0.527  1.00  0.00    -0.011 C 
ATOM     84  C   UNL     1      10.626  -7.055   0.105  1.00  0.00     0.093 C 
BRANCH  84  85
ATOM     85  N   UNL     1      11.937  -7.689   0.034  1.00  0.00    -0.204 NA
ATOM     86  H   UNL     1      12.628  -6.945   0.124  1.00  0.00     0.142 HD
BRANCH  85  87
ATOM     87  S   UNL     1      12.359  -8.881   1.140  1.00  0.00     0.244 S 
ATOM     88  O   UNL     1      13.760  -9.144   0.896  1.00  0.00    -0.207 OA
ATOM     89  O   UNL     1      11.894  -8.508   2.456  1.00  0.00    -0.207 OA
BRANCH  87  90
ATOM     90  C   UNL     1      11.472 -10.312   0.604  1.00  0.00     0.121 A 
ATOM     91  C   UNL     1      12.121 -11.324  -0.116  1.00  0.00     0.028 A 
ATOM     92  C   UNL     1      10.116 -10.423   0.895  1.00  0.00     0.181 A 
ATOM     93  C   UNL     1      11.382 -12.406  -0.604  1.00  0.00     0.044 A 
ATOM     94  C   UNL     1       9.378 -11.476   0.370  1.00  0.00     0.195 A 
ATOM     95  F   UNL     1       9.481  -9.486   1.611  1.00  0.00    -0.202 F 
ATOM     96  C   UNL     1      10.009 -12.460  -0.380  1.00  0.00     0.161 A 
ATOM     97  F   UNL     1       8.052 -11.525   0.561  1.00  0.00    -0.200 F 
ATOM     98  F   UNL     1       9.299 -13.471  -0.899  1.00  0.00    -0.204 F 
ENDBRANCH  87  90
ENDBRANCH  85  87
ENDBRANCH  84  85
ENDBRANCH  77  80
ENDBRANCH  75  76
ENDBRANCH  74  75
ENDBRANCH  73  74
ENDBRANCH   1  73
TORSDOF 19
