REMARK SMILES CC1(C)Oc2ccc(NC(=O)[C@H]3CC=CC[C@@H]3C(=O)NCCCCCCNC(=O)c3ccc(-c4c5nc(c(-c6cc(S(=O)(=O)[O-])ccc6F)c6ccc([nH]6)c(-c6cc(S(=O)(=O)[O-])ccc6F)c6nc(c(-c7cc(S(=O)(=O)[O-])ccc7F)c7ccc4[nH]7)C=C6)C=C5)cc3)cc2NC1=O
REMARK SMILES IDX 24 1 23 2 22 3 21 4 20 5 18 6 19 7 17 9 12 10 13 11 14 12
REMARK SMILES IDX 16 13 15 14 10 15 9 16 11 18 8 19 1 20 2 21 3 22 4 23 96 24
REMARK SMILES IDX 5 25 95 26 97 27 6 28 94 29 7 31 93 32 25 33 26 34 27 35
REMARK SMILES IDX 28 36 29 38 30 39 31 40 92 41 32 42 91 43 33 44 34 45 35 46
REMARK SMILES IDX 85 47 36 48 90 49 84 50 86 51 37 52 89 53 83 54 82 55 38 57
REMARK SMILES IDX 70 58 50 59 69 60 51 61 54 62 68 63 87 64 52 65 53 66 67 68
REMARK SMILES IDX 88 69 55 70 39 71 40 72 48 73 41 74 47 75 49 76 46 77 42 78
REMARK SMILES IDX 43 79 44 80 45 81 71 82 72 83 80 84 73 85 79 86 81 87 78 88
REMARK SMILES IDX 74 89 75 90 76 91 77 92 56 93 57 94 65 95 58 96 64 97 66 98
REMARK SMILES IDX 63 99 59 100 60 101 61 102 62 103
REMARK H PARENT 20 8 9 17 95 30 27 37 86 56 54 67
REMARK Flexibility Score: inf
ROOT
ATOM      1  C   UNL     1       5.996  -3.095  -1.470  1.00  0.00     0.002 C 
ENDROOT
BRANCH   1   2
ATOM      2  C   UNL     1       6.221  -4.349  -0.615  1.00  0.00     0.002 C 
BRANCH   2   3
ATOM      3  C   UNL     1       4.961  -5.122  -0.225  1.00  0.00     0.021 C 
BRANCH   3   4
ATOM      4  C   UNL     1       4.083  -5.597  -1.386  1.00  0.00     0.116 C 
BRANCH   4   5
ATOM      5  N   UNL     1       4.451  -6.936  -1.785  1.00  0.00    -0.356 N 
ATOM      6  C   UNL     1       3.739  -8.087  -1.887  1.00  0.00     0.224 C 
ATOM      7  O   UNL     1       4.384  -9.064  -2.277  1.00  0.00    -0.275 OA
ATOM      8  H   UNL     1       5.400  -7.032  -2.030  1.00  0.00     0.163 HD
BRANCH   6   9
ATOM      9  C   UNL     1       2.235  -8.173  -1.538  1.00  0.00     0.095 C 
ATOM     10  C   UNL     1       2.000  -8.845  -0.159  1.00  0.00     0.095 C 
ATOM     11  C   UNL     1       2.495 -10.318  -0.192  1.00  0.00     0.041 C 
ATOM     12  C   UNL     1       2.136 -11.062  -1.449  1.00  0.00    -0.030 C 
ATOM     13  C   UNL     1       1.520  -8.964  -2.658  1.00  0.00     0.041 C 
ATOM     14  C   UNL     1       1.670 -10.455  -2.550  1.00  0.00    -0.030 C 
BRANCH  10  15
ATOM     15  C   UNL     1       0.519  -8.814   0.296  1.00  0.00     0.228 C 
ATOM     16  N   UNL     1      -0.191  -7.689   0.604  1.00  0.00    -0.326 N 
ATOM     17  H   UNL     1      -1.147  -7.879   0.744  1.00  0.00     0.169 HD
ATOM     18  O   UNL     1      -0.137  -9.863   0.382  1.00  0.00    -0.274 OA
BRANCH  16  19
ATOM     19  C   UNL     1       0.109  -6.330   0.770  1.00  0.00     0.043 A 
ATOM     20  C   UNL     1       0.414  -0.005   0.350  1.00  0.00     0.067 C 
ATOM     21  C   UNL     1      -0.081  -1.428   0.082  1.00  0.00     0.182 C 
ATOM     22  C   UNL     1      -0.270  -1.598  -1.440  1.00  0.00     0.067 C 
ATOM     23  O   UNL     1       0.973  -2.280   0.554  1.00  0.00    -0.476 OA
ATOM     24  C   UNL     1      -1.439  -1.727   0.761  1.00  0.00     0.268 C 
ATOM     25  C   UNL     1       0.607  -3.580   0.733  1.00  0.00     0.144 A 
ATOM     26  N   UNL     1      -1.721  -3.077   0.879  1.00  0.00    -0.319 N 
ATOM     27  O   UNL     1      -2.264  -0.880   1.081  1.00  0.00    -0.270 OA
ATOM     28  C   UNL     1       1.636  -4.476   0.930  1.00  0.00     0.051 A 
ATOM     29  C   UNL     1      -0.703  -4.031   0.779  1.00  0.00     0.086 A 
ATOM     30  H   UNL     1      -2.648  -3.369   1.035  1.00  0.00     0.170 HD
ATOM     31  C   UNL     1       1.397  -5.847   0.943  1.00  0.00     0.030 A 
ATOM     32  C   UNL     1      -0.960  -5.408   0.796  1.00  0.00     0.056 A 
ENDBRANCH  16  19
ENDBRANCH  10  15
ENDBRANCH   6   9
ENDBRANCH   4   5
ENDBRANCH   3   4
ENDBRANCH   2   3
ENDBRANCH   1   2
BRANCH   1  33
ATOM     33  C   UNL     1       4.944  -2.101  -0.967  1.00  0.00     0.021 C 
BRANCH  33  34
ATOM     34  C   UNL     1       5.196  -1.509   0.418  1.00  0.00     0.116 C 
BRANCH  34  35
ATOM     35  N   UNL     1       6.469  -0.810   0.508  1.00  0.00    -0.352 N 
ATOM     36  C   UNL     1       6.752   0.511   0.770  1.00  0.00     0.251 C 
ATOM     37  H   UNL     1       7.259  -1.377   0.356  1.00  0.00     0.163 HD
ATOM     38  O   UNL     1       7.895   0.922   0.619  1.00  0.00    -0.269 OA
BRANCH  36  39
ATOM     39  C   UNL     1       5.678   1.438   1.199  1.00  0.00     0.039 A 
ATOM     40  C   UNL     1       4.721   1.050   2.138  1.00  0.00     0.014 A 
ATOM     41  C   UNL     1       5.634   2.724   0.652  1.00  0.00     0.014 A 
ATOM     42  C   UNL     1       3.623   1.869   2.387  1.00  0.00     0.010 A 
ATOM     43  C   UNL     1       4.575   3.581   0.971  1.00  0.00     0.010 A 
ATOM     44  C   UNL     1       3.528   3.138   1.794  1.00  0.00    -0.014 A 
BRANCH  44  45
ATOM     45  C   UNL     1       2.318   3.976   2.023  1.00  0.00     0.031 A 
ATOM     46  C   UNL     1       1.410   4.333   0.875  1.00  0.00     0.074 A 
ATOM     47  C   UNL     1       2.015   4.383   3.271  1.00  0.00     0.049 A 
ATOM     48  N   UNL     1       0.313   5.045   0.883  1.00  0.00    -0.248 NA
ATOM     49  C   UNL     1       1.782   3.830  -0.458  1.00  0.00     0.031 C 
ATOM     50  C   UNL     1       2.812   4.088   4.461  1.00  0.00     0.029 A 
ATOM     51  N   UNL     1       0.956   5.113   3.753  1.00  0.00    -0.354 N 
ATOM     52  C   UNL     1      -0.125   5.092  -0.436  1.00  0.00     0.074 A 
ATOM     53  C   UNL     1       0.846   4.371  -1.226  1.00  0.00     0.031 C 
ATOM     54  C   UNL     1       2.195   4.592   5.539  1.00  0.00     0.029 A 
ATOM     55  C   UNL     1       0.995   5.311   5.114  1.00  0.00     0.049 A 
ATOM     56  H   UNL     1       0.236   5.462   3.179  1.00  0.00     0.167 HD
ATOM     57  C   UNL     1      -1.244   5.669  -0.936  1.00  0.00     0.034 A 
ATOM     58  C   UNL     1       0.173   6.003   5.931  1.00  0.00     0.034 A 
ATOM     59  C   UNL     1      -2.217   6.362  -0.128  1.00  0.00     0.049 A 
ATOM     60  C   UNL     1      -1.044   6.671   5.343  1.00  0.00     0.074 A 
ATOM     61  C   UNL     1      -3.402   6.946  -0.539  1.00  0.00     0.029 A 
ATOM     62  N   UNL     1      -2.128   6.563   1.242  1.00  0.00    -0.354 N 
ATOM     63  N   UNL     1      -1.471   6.659   4.102  1.00  0.00    -0.248 NA
ATOM     64  C   UNL     1      -1.897   7.441   6.259  1.00  0.00     0.031 C 
ATOM     65  C   UNL     1      -3.986   7.569   0.562  1.00  0.00     0.029 A 
ATOM     66  C   UNL     1      -3.219   7.295   1.683  1.00  0.00     0.049 A 
ATOM     67  H   UNL     1      -1.398   6.234   1.815  1.00  0.00     0.167 HD
ATOM     68  C   UNL     1      -2.655   7.393   4.095  1.00  0.00     0.074 A 
ATOM     69  C   UNL     1      -2.888   7.815   5.460  1.00  0.00     0.031 C 
ATOM     70  C   UNL     1      -3.466   7.691   3.050  1.00  0.00     0.034 A 
BRANCH  57  71
ATOM     71  C   UNL     1      -1.513   5.585  -2.420  1.00  0.00     0.023 A 
ATOM     72  C   UNL     1      -1.618   6.766  -3.180  1.00  0.00     0.031 A 
ATOM     73  C   UNL     1      -1.819   4.364  -3.047  1.00  0.00     0.131 A 
ATOM     74  C   UNL     1      -2.067   6.707  -4.505  1.00  0.00     0.055 A 
ATOM     75  C   UNL     1      -2.218   4.306  -4.384  1.00  0.00     0.041 A 
ATOM     76  F   UNL     1      -1.733   3.207  -2.370  1.00  0.00    -0.206 F 
ATOM     77  C   UNL     1      -2.360   5.482  -5.113  1.00  0.00     0.022 A 
BRANCH  74  78
ATOM     78  S   UNL     1      -2.370   8.217  -5.463  1.00  0.00     0.124 S 
ATOM     79  O   UNL     1      -1.485   8.026  -6.610  1.00  0.00    -0.237 OA
ATOM     80  O   UNL     1      -3.798   8.113  -5.753  1.00  0.00    -0.237 OA
ATOM     81  O   UNL     1      -1.986   9.292  -4.555  1.00  0.00    -0.744 OA
ENDBRANCH  74  78
ENDBRANCH  57  71
BRANCH  58  82
ATOM     82  C   UNL     1       0.472   6.052   7.394  1.00  0.00     0.023 A 
ATOM     83  C   UNL     1       1.686   6.585   7.868  1.00  0.00     0.031 A 
ATOM     84  C   UNL     1      -0.399   5.470   8.330  1.00  0.00     0.131 A 
ATOM     85  C   UNL     1       2.028   6.453   9.219  1.00  0.00     0.055 A 
ATOM     86  C   UNL     1      -0.090   5.414   9.691  1.00  0.00     0.041 A 
ATOM     87  F   UNL     1      -1.563   4.936   7.930  1.00  0.00    -0.206 F 
ATOM     88  C   UNL     1       1.139   5.888  10.138  1.00  0.00     0.022 A 
BRANCH  85  89
ATOM     89  S   UNL     1       3.695   6.872   9.800  1.00  0.00     0.124 S 
ATOM     90  O   UNL     1       3.420   7.896  10.803  1.00  0.00    -0.237 OA
ATOM     91  O   UNL     1       4.161   5.588  10.320  1.00  0.00    -0.237 OA
ATOM     92  O   UNL     1       4.374   7.335   8.595  1.00  0.00    -0.744 OA
ENDBRANCH  85  89
ENDBRANCH  58  82
BRANCH  70  93
ATOM     93  C   UNL     1      -4.717   8.503   3.301  1.00  0.00     0.023 A 
ATOM     94  C   UNL     1      -5.979   7.956   2.991  1.00  0.00     0.031 A 
ATOM     95  C   UNL     1      -4.653   9.859   3.664  1.00  0.00     0.131 A 
ATOM     96  C   UNL     1      -7.114   8.776   2.991  1.00  0.00     0.055 A 
ATOM     97  C   UNL     1      -5.797  10.657   3.720  1.00  0.00     0.041 A 
ATOM     98  F   UNL     1      -3.475  10.432   3.956  1.00  0.00    -0.206 F 
ATOM     99  C   UNL     1      -7.032  10.121   3.364  1.00  0.00     0.022 A 
BRANCH  96 100
ATOM    100  S   UNL     1      -8.715   8.158   2.401  1.00  0.00     0.124 S 
ATOM    101  O   UNL     1      -9.565   8.349   3.574  1.00  0.00    -0.237 OA
ATOM    102  O   UNL     1      -8.993   9.050   1.278  1.00  0.00    -0.237 OA
ATOM    103  O   UNL     1      -8.449   6.767   2.047  1.00  0.00    -0.744 OA
ENDBRANCH  96 100
ENDBRANCH  70  93
ENDBRANCH  44  45
ENDBRANCH  36  39
ENDBRANCH  34  35
ENDBRANCH  33  34
ENDBRANCH   1  33
TORSDOF 18
