REMARK SMILES O=C(NCCCCCCNC(=O)c1cc2n(n1)[C@@H](C(F)(F)F)C[C@H](c1ccc3c(c1)OCO3)N2)c1ccc(-c2c3nc(c(-c4cc(S(=O)(=O)[O-])ccc4F)c4ccc([nH]4)c(-c4cc(S(=O)(=O)[O-])ccc4F)c4nc(c(-c5cc(S(=O)(=O)[O-])ccc5F)c5ccc2[nH]5)C=C4)C=C3)cc1
REMARK SMILES IDX 5 1 4 2 3 3 1 4 2 5 35 7 36 8 97 9 37 10 96 11 38 12 39 13
REMARK SMILES IDX 40 14 90 15 41 16 95 17 89 18 91 19 42 20 94 21 88 22 87 23
REMARK SMILES IDX 43 25 75 26 55 27 74 28 56 29 59 30 73 31 92 32 57 33 58 34
REMARK SMILES IDX 72 36 93 37 60 38 44 39 45 40 53 41 46 42 52 43 54 44 51 45
REMARK SMILES IDX 47 46 48 47 49 48 50 49 76 50 77 51 85 52 78 53 84 54 86 55
REMARK SMILES IDX 83 56 79 57 80 58 81 59 82 60 61 61 62 62 70 63 63 64 69 65
REMARK SMILES IDX 71 66 68 67 64 68 65 69 66 70 67 71 6 72 7 73 8 74 9 75
REMARK SMILES IDX 10 76 11 77 12 79 13 80 14 81 17 82 15 83 16 84 34 85 18 86
REMARK SMILES IDX 24 87 23 89 19 90 20 91 21 92 22 93 25 94 26 95 30 96 27 97
REMARK SMILES IDX 29 98 28 99 31 100 33 101 32 102
REMARK H PARENT 3 6 91 24 59 35 10 78 34 88
REMARK Flexibility Score: inf
ROOT
ATOM      1  C   UNL     1       4.611   0.652  -2.602  1.00  0.00     0.021 C 
ENDROOT
BRANCH   1   2
ATOM      2  C   UNL     1       4.353   0.723  -1.106  1.00  0.00     0.116 C 
BRANCH   2   3
ATOM      3  N   UNL     1       2.935   0.725  -0.774  1.00  0.00    -0.352 N 
ATOM      4  O   UNL     1       1.028  -0.067   0.149  1.00  0.00    -0.269 OA
ATOM      5  C   UNL     1       2.253  -0.105   0.087  1.00  0.00     0.251 C 
ATOM      6  H   UNL     1       2.392   1.412  -1.224  1.00  0.00     0.163 HD
BRANCH   5   7
ATOM      7  C   UNL     1       3.018  -1.061   0.918  1.00  0.00     0.039 A 
ATOM      8  C   UNL     1       4.181  -0.639   1.562  1.00  0.00     0.014 A 
ATOM      9  C   UNL     1       2.601  -2.391   1.019  1.00  0.00     0.014 A 
ATOM     10  C   UNL     1       5.020  -1.577   2.142  1.00  0.00     0.010 A 
ATOM     11  C   UNL     1       3.389  -3.313   1.720  1.00  0.00     0.010 A 
ATOM     12  C   UNL     1       4.621  -2.920   2.263  1.00  0.00    -0.014 A 
BRANCH  12  13
ATOM     13  C   UNL     1       5.489  -3.840   3.046  1.00  0.00     0.031 A 
ATOM     14  C   UNL     1       6.133  -5.048   2.425  1.00  0.00     0.074 A 
ATOM     15  C   UNL     1       5.750  -3.514   4.330  1.00  0.00     0.049 A 
ATOM     16  N   UNL     1       6.965  -5.903   2.966  1.00  0.00    -0.248 NA
ATOM     17  C   UNL     1       5.800  -5.344   1.024  1.00  0.00     0.031 C 
ATOM     18  C   UNL     1       5.166  -2.369   5.038  1.00  0.00     0.029 A 
ATOM     19  N   UNL     1       6.591  -4.075   5.255  1.00  0.00    -0.354 N 
ATOM     20  C   UNL     1       7.256  -6.838   1.979  1.00  0.00     0.074 A 
ATOM     21  C   UNL     1       6.474  -6.468   0.816  1.00  0.00     0.031 C 
ATOM     22  C   UNL     1       5.720  -2.270   6.252  1.00  0.00     0.029 A 
ATOM     23  C   UNL     1       6.621  -3.397   6.452  1.00  0.00     0.049 A 
ATOM     24  H   UNL     1       7.122  -4.886   5.080  1.00  0.00     0.167 HD
ATOM     25  C   UNL     1       8.105  -7.895   2.037  1.00  0.00     0.034 A 
ATOM     26  C   UNL     1       7.274  -3.663   7.598  1.00  0.00     0.034 A 
ATOM     27  C   UNL     1       8.867  -8.252   3.212  1.00  0.00     0.049 A 
ATOM     28  C   UNL     1       8.169  -4.870   7.645  1.00  0.00     0.074 A 
ATOM     29  C   UNL     1       9.755  -9.302   3.378  1.00  0.00     0.029 A 
ATOM     30  N   UNL     1       8.831  -7.575   4.426  1.00  0.00    -0.354 N 
ATOM     31  N   UNL     1       8.438  -5.735   6.693  1.00  0.00    -0.248 NA
ATOM     32  C   UNL     1       8.852  -5.133   8.915  1.00  0.00     0.031 C 
ATOM     33  C   UNL     1      10.198  -9.302   4.705  1.00  0.00     0.029 A 
ATOM     34  C   UNL     1       9.658  -8.202   5.349  1.00  0.00     0.049 A 
ATOM     35  H   UNL     1       8.296  -6.769   4.606  1.00  0.00     0.167 HD
ATOM     36  C   UNL     1       9.336  -6.639   7.251  1.00  0.00     0.074 A 
ATOM     37  C   UNL     1       9.595  -6.184   8.602  1.00  0.00     0.031 C 
ATOM     38  C   UNL     1       9.889  -7.750   6.702  1.00  0.00     0.034 A 
BRANCH  25  39
ATOM     39  C   UNL     1       8.233  -8.762   0.805  1.00  0.00     0.023 A 
ATOM     40  C   UNL     1       8.768  -8.265  -0.396  1.00  0.00     0.031 A 
ATOM     41  C   UNL     1       7.830 -10.110   0.836  1.00  0.00     0.131 A 
ATOM     42  C   UNL     1       8.839  -9.091  -1.529  1.00  0.00     0.055 A 
ATOM     43  C   UNL     1       7.972 -10.948  -0.273  1.00  0.00     0.041 A 
ATOM     44  F   UNL     1       7.293 -10.638   1.947  1.00  0.00    -0.206 F 
ATOM     45  C   UNL     1       8.470 -10.437  -1.468  1.00  0.00     0.022 A 
BRANCH  42  46
ATOM     46  S   UNL     1       9.311  -8.350  -3.116  1.00  0.00     0.124 S 
ATOM     47  O   UNL     1       8.281  -7.327  -3.283  1.00  0.00    -0.237 OA
ATOM     48  O   UNL     1      10.658  -7.860  -2.848  1.00  0.00    -0.237 OA
ATOM     49  O   UNL     1       9.229  -9.467  -4.055  1.00  0.00    -0.744 OA
ENDBRANCH  42  46
ENDBRANCH  25  39
BRANCH  26  50
ATOM     50  C   UNL     1       7.061  -2.810   8.803  1.00  0.00     0.023 A 
ATOM     51  C   UNL     1       8.126  -2.139   9.422  1.00  0.00     0.031 A 
ATOM     52  C   UNL     1       5.786  -2.701   9.390  1.00  0.00     0.131 A 
ATOM     53  C   UNL     1       7.910  -1.443  10.621  1.00  0.00     0.055 A 
ATOM     54  C   UNL     1       5.562  -1.944  10.540  1.00  0.00     0.041 A 
ATOM     55  F   UNL     1       4.729  -3.324   8.843  1.00  0.00    -0.206 F 
ATOM     56  C   UNL     1       6.633  -1.325  11.174  1.00  0.00     0.022 A 
BRANCH  53  57
ATOM     57  S   UNL     1       9.348  -0.801  11.519  1.00  0.00     0.124 S 
ATOM     58  O   UNL     1      10.167  -2.000  11.663  1.00  0.00    -0.237 OA
ATOM     59  O   UNL     1       9.851   0.213  10.598  1.00  0.00    -0.237 OA
ATOM     60  O   UNL     1       8.772  -0.285  12.759  1.00  0.00    -0.744 OA
ENDBRANCH  53  57
ENDBRANCH  26  50
BRANCH  38  61
ATOM     61  C   UNL     1      10.853  -8.523   7.572  1.00  0.00     0.023 A 
ATOM     62  C   UNL     1      10.435  -9.136   8.767  1.00  0.00     0.031 A 
ATOM     63  C   UNL     1      12.216  -8.596   7.234  1.00  0.00     0.131 A 
ATOM     64  C   UNL     1      11.382  -9.716   9.623  1.00  0.00     0.055 A 
ATOM     65  C   UNL     1      13.141  -9.245   8.052  1.00  0.00     0.041 A 
ATOM     66  F   UNL     1      12.674  -8.025   6.109  1.00  0.00    -0.206 F 
ATOM     67  C   UNL     1      12.730  -9.792   9.265  1.00  0.00     0.022 A 
BRANCH  64  68
ATOM     68  S   UNL     1      10.849 -10.243  11.275  1.00  0.00     0.124 S 
ATOM     69  O   UNL     1      10.288  -9.010  11.818  1.00  0.00    -0.237 OA
ATOM     70  O   UNL     1       9.890 -11.300  10.970  1.00  0.00    -0.237 OA
ATOM     71  O   UNL     1      12.087 -10.693  11.907  1.00  0.00    -0.744 OA
ENDBRANCH  64  68
ENDBRANCH  38  61
ENDBRANCH  12  13
ENDBRANCH   5   7
ENDBRANCH   2   3
ENDBRANCH   1   2
BRANCH   1  72
ATOM     72  C   UNL     1       4.153   1.880  -3.385  1.00  0.00     0.002 C 
BRANCH  72  73
ATOM     73  C   UNL     1       4.728   3.215  -2.901  1.00  0.00     0.002 C 
BRANCH  73  74
ATOM     74  C   UNL     1       6.255   3.273  -2.794  1.00  0.00     0.021 C 
BRANCH  74  75
ATOM     75  C   UNL     1       7.000   2.918  -4.077  1.00  0.00     0.116 C 
BRANCH  75  76
ATOM     76  N   UNL     1       6.701   3.848  -5.154  1.00  0.00    -0.351 N 
ATOM     77  C   UNL     1       7.558   4.662  -5.860  1.00  0.00     0.271 C 
ATOM     78  H   UNL     1       5.753   3.902  -5.416  1.00  0.00     0.163 HD
ATOM     79  O   UNL     1       7.072   5.528  -6.593  1.00  0.00    -0.267 OA
BRANCH  77  80
ATOM     80  C   UNL     1       9.002   4.449  -5.713  1.00  0.00     0.152 A 
ATOM     81  C   UNL     1       9.686   3.197  -5.704  1.00  0.00     0.082 A 
ATOM     82  N   UNL     1       9.872   5.472  -5.566  1.00  0.00    -0.165 NA
ATOM     83  C   UNL     1      10.985   3.499  -5.409  1.00  0.00     0.126 A 
ATOM     84  N   UNL     1      11.045   4.860  -5.352  1.00  0.00    -0.237 N 
ATOM     85  N   UNL     1      12.070   2.731  -5.191  1.00  0.00    -0.363 N 
ATOM     86  C   UNL     1      12.269   5.596  -5.113  1.00  0.00     0.217 C 
ATOM     87  C   UNL     1      13.384   3.304  -4.915  1.00  0.00     0.113 C 
ATOM     88  H   UNL     1      11.974   1.752  -5.220  1.00  0.00     0.162 HD
ATOM     89  C   UNL     1      13.473   4.724  -5.518  1.00  0.00     0.066 C 
BRANCH  86  90
ATOM     90  C   UNL     1      12.337   6.040  -3.668  1.00  0.00     0.410 C 
ATOM     91  F   UNL     1      13.514   6.688  -3.449  1.00  0.00    -0.169 F 
ATOM     92  F   UNL     1      11.360   6.910  -3.337  1.00  0.00    -0.169 F 
ATOM     93  F   UNL     1      12.296   5.016  -2.790  1.00  0.00    -0.169 F 
ENDBRANCH  86  90
BRANCH  87  94
ATOM     94  C   UNL     1      14.508   2.415  -5.437  1.00  0.00    -0.022 A 
ATOM     95  C   UNL     1      15.843   2.706  -5.054  1.00  0.00     0.010 A 
ATOM     96  C   UNL     1      14.275   1.304  -6.270  1.00  0.00     0.056 A 
ATOM     97  C   UNL     1      16.916   1.915  -5.481  1.00  0.00     0.051 A 
ATOM     98  C   UNL     1      15.349   0.529  -6.655  1.00  0.00     0.166 A 
ATOM     99  C   UNL     1      16.633   0.826  -6.274  1.00  0.00     0.165 A 
ATOM    100  O   UNL     1      15.281  -0.587  -7.429  1.00  0.00    -0.454 OA
ATOM    101  O   UNL     1      17.539  -0.061  -6.764  1.00  0.00    -0.454 OA
ATOM    102  C   UNL     1      16.666  -0.986  -7.449  1.00  0.00     0.468 C 
ENDBRANCH  87  94
ENDBRANCH  77  80
ENDBRANCH  75  76
ENDBRANCH  74  75
ENDBRANCH  73  74
ENDBRANCH  72  73
ENDBRANCH   1  72
TORSDOF 18
