REMARK SMILES CO[C@@H]1C[C@@H](C(=O)NCCCCCCNC(=O)c2ccc(-c3c4nc(c(-c5cc(S(=O)(=O)[O-])ccc5F)c5ccc([nH]5)c(-c5cc(S(=O)(=O)[O-])ccc5F)c5nc(c(-c6cc(S(=O)(=O)[O-])ccc6F)c6ccc3[nH]6)C=C5)C=C4)cc2)N(C(=O)c2nc(C(C)C)n[nH]2)C1
REMARK SMILES IDX 11 1 10 2 9 3 8 4 6 5 7 6 5 8 3 9 4 10 92 11 81 12 2 13 1 14
REMARK SMILES IDX 82 15 83 16 84 17 85 18 91 19 86 20 90 21 87 23 88 24 89 25
REMARK SMILES IDX 12 26 13 27 14 28 15 29 16 30 17 32 18 33 19 34 80 35 20 36
REMARK SMILES IDX 79 37 21 38 22 39 23 40 73 41 24 42 78 43 72 44 74 45 25 46
REMARK SMILES IDX 77 47 71 48 70 49 26 51 58 52 38 53 57 54 39 55 42 56 56 57
REMARK SMILES IDX 75 58 40 59 41 60 55 62 76 63 43 64 27 65 28 66 36 67 29 68
REMARK SMILES IDX 35 69 37 70 34 71 30 72 31 73 32 74 33 75 59 76 60 77 68 78
REMARK SMILES IDX 61 79 67 80 69 81 66 82 62 83 63 84 64 85 65 86 44 87 45 88
REMARK SMILES IDX 53 89 46 90 52 91 54 92 51 93 47 94 48 95 49 96 50 97
REMARK H PARENT 8 7 91 22 15 31 74 50 42 61
REMARK Flexibility Score: inf
ROOT
ATOM      1  C   UNL     1      -5.546  -0.677  -4.247  1.00  0.00     0.002 C 
ENDROOT
BRANCH   1   2
ATOM      2  C   UNL     1      -4.533  -0.561  -3.104  1.00  0.00     0.021 C 
BRANCH   2   3
ATOM      3  C   UNL     1      -3.829  -1.873  -2.774  1.00  0.00     0.116 C 
BRANCH   3   4
ATOM      4  N   UNL     1      -3.003  -2.292  -3.896  1.00  0.00    -0.354 N 
ATOM      5  C   UNL     1      -1.662  -2.512  -3.938  1.00  0.00     0.242 C 
ATOM      6  O   UNL     1      -1.106  -2.671  -5.029  1.00  0.00    -0.273 OA
ATOM      7  H   UNL     1      -3.483  -2.438  -4.743  1.00  0.00     0.163 HD
BRANCH   5   8
ATOM      8  C   UNL     1      -0.900  -2.652  -2.628  1.00  0.00     0.177 C 
ATOM      9  C   UNL     1       1.100  -1.937  -1.515  1.00  0.00     0.139 C 
ATOM     10  C   UNL     1       0.091  -1.487  -2.562  1.00  0.00     0.069 C 
ATOM     11  C   UNL     1       1.111  -3.472  -1.655  1.00  0.00     0.153 C 
ATOM     12  N   UNL     1      -0.034  -3.823  -2.492  1.00  0.00    -0.321 N 
BRANCH   9  13
ATOM     13  O   UNL     1       0.642  -1.546  -0.217  1.00  0.00    -0.380 OA
ATOM     14  C   UNL     1       0.964  -0.190   0.089  1.00  0.00     0.195 C 
ENDBRANCH   9  13
BRANCH  12  15
ATOM     15  C   UNL     1      -0.379  -5.169  -2.643  1.00  0.00     0.291 C 
ATOM     16  O   UNL     1       0.322  -6.037  -2.119  1.00  0.00    -0.265 OA
BRANCH  15  17
ATOM     17  C   UNL     1      -1.503  -5.520  -3.494  1.00  0.00     0.214 A 
ATOM     18  N   UNL     1      -2.541  -6.265  -3.151  1.00  0.00    -0.207 NA
ATOM     19  N   UNL     1      -1.593  -5.255  -4.832  1.00  0.00    -0.255 N 
ATOM     20  C   UNL     1      -3.258  -6.380  -4.319  1.00  0.00     0.153 A 
ATOM     21  N   UNL     1      -2.717  -5.754  -5.370  1.00  0.00    -0.158 NA
ATOM     22  H   UNL     1      -0.914  -4.756  -5.341  1.00  0.00     0.192 HD
BRANCH  20  23
ATOM     23  C   UNL     1      -4.519  -7.173  -4.439  1.00  0.00     0.053 C 
ATOM     24  C   UNL     1      -4.219  -8.671  -4.483  1.00  0.00     0.016 C 
ATOM     25  C   UNL     1      -5.511  -6.850  -3.323  1.00  0.00     0.016 C 
ENDBRANCH  20  23
ENDBRANCH  15  17
ENDBRANCH  12  15
ENDBRANCH   5   8
ENDBRANCH   3   4
ENDBRANCH   2   3
ENDBRANCH   1   2
BRANCH   1  26
ATOM     26  C   UNL     1      -6.681  -1.674  -3.994  1.00  0.00     0.002 C 
BRANCH  26  27
ATOM     27  C   UNL     1      -7.487  -1.413  -2.720  1.00  0.00     0.021 C 
BRANCH  27  28
ATOM     28  C   UNL     1      -8.089  -0.015  -2.631  1.00  0.00     0.116 C 
BRANCH  28  29
ATOM     29  N   UNL     1      -9.028   0.243  -3.711  1.00  0.00    -0.352 N 
ATOM     30  C   UNL     1     -10.322   0.693  -3.640  1.00  0.00     0.251 C 
ATOM     31  H   UNL     1      -8.688   0.070  -4.619  1.00  0.00     0.163 HD
ATOM     32  O   UNL     1     -11.039   0.653  -4.638  1.00  0.00    -0.269 OA
BRANCH  30  33
ATOM     33  C   UNL     1     -10.850   1.199  -2.356  1.00  0.00     0.039 A 
ATOM     34  C   UNL     1     -12.115   0.787  -1.934  1.00  0.00     0.014 A 
ATOM     35  C   UNL     1     -10.092   2.068  -1.565  1.00  0.00     0.014 A 
ATOM     36  C   UNL     1     -12.595   1.199  -0.689  1.00  0.00     0.010 A 
ATOM     37  C   UNL     1     -10.538   2.413  -0.292  1.00  0.00     0.010 A 
ATOM     38  C   UNL     1     -11.796   1.985   0.159  1.00  0.00    -0.014 A 
BRANCH  38  39
ATOM     39  C   UNL     1     -12.262   2.368   1.517  1.00  0.00     0.031 A 
ATOM     40  C   UNL     1     -12.472   3.817   1.863  1.00  0.00     0.074 A 
ATOM     41  C   UNL     1     -12.447   1.415   2.453  1.00  0.00     0.049 A 
ATOM     42  N   UNL     1     -12.812   4.354   3.007  1.00  0.00    -0.248 NA
ATOM     43  C   UNL     1     -12.243   4.793   0.787  1.00  0.00     0.031 C 
ATOM     44  C   UNL     1     -12.246  -0.022   2.245  1.00  0.00     0.029 A 
ATOM     45  N   UNL     1     -12.841   1.506   3.764  1.00  0.00    -0.354 N 
ATOM     46  C   UNL     1     -12.829   5.728   2.791  1.00  0.00     0.074 A 
ATOM     47  C   UNL     1     -12.401   5.942   1.425  1.00  0.00     0.031 C 
ATOM     48  C   UNL     1     -12.552  -0.677   3.376  1.00  0.00     0.029 A 
ATOM     49  C   UNL     1     -12.916   0.291   4.406  1.00  0.00     0.049 A 
ATOM     50  H   UNL     1     -13.051   2.361   4.205  1.00  0.00     0.167 HD
ATOM     51  C   UNL     1     -13.190   6.717   3.646  1.00  0.00     0.034 A 
ATOM     52  C   UNL     1     -13.229  -0.009   5.683  1.00  0.00     0.034 A 
ATOM     53  C   UNL     1     -13.622   6.484   5.004  1.00  0.00     0.049 A 
ATOM     54  C   UNL     1     -13.582   1.113   6.628  1.00  0.00     0.074 A 
ATOM     55  C   UNL     1     -14.056   7.408   5.939  1.00  0.00     0.029 A 
ATOM     56  N   UNL     1     -13.664   5.242   5.626  1.00  0.00    -0.354 N 
ATOM     57  N   UNL     1     -13.636   2.404   6.395  1.00  0.00    -0.248 NA
ATOM     58  C   UNL     1     -13.924   0.735   8.005  1.00  0.00     0.031 C 
ATOM     59  C   UNL     1     -14.282   6.738   7.145  1.00  0.00     0.029 A 
ATOM     60  C   UNL     1     -14.080   5.383   6.941  1.00  0.00     0.049 A 
ATOM     61  H   UNL     1     -13.433   4.388   5.195  1.00  0.00     0.167 HD
ATOM     62  C   UNL     1     -14.055   2.987   7.588  1.00  0.00     0.074 A 
ATOM     63  C   UNL     1     -14.252   1.905   8.531  1.00  0.00     0.031 C 
ATOM     64  C   UNL     1     -14.264   4.297   7.877  1.00  0.00     0.034 A 
BRANCH  51  65
ATOM     65  C   UNL     1     -13.105   8.140   3.145  1.00  0.00     0.023 A 
ATOM     66  C   UNL     1     -13.880   8.592   2.062  1.00  0.00     0.031 A 
ATOM     67  C   UNL     1     -12.225   9.056   3.749  1.00  0.00     0.131 A 
ATOM     68  C   UNL     1     -13.708   9.895   1.572  1.00  0.00     0.055 A 
ATOM     69  C   UNL     1     -12.122  10.378   3.311  1.00  0.00     0.041 A 
ATOM     70  F   UNL     1     -11.441   8.679   4.771  1.00  0.00    -0.206 F 
ATOM     71  C   UNL     1     -12.855  10.800   2.207  1.00  0.00     0.022 A 
BRANCH  68  72
ATOM     72  S   UNL     1     -14.502  10.342   0.004  1.00  0.00     0.124 S 
ATOM     73  O   UNL     1     -13.936   9.349  -0.906  1.00  0.00    -0.237 OA
ATOM     74  O   UNL     1     -15.919  10.191   0.313  1.00  0.00    -0.237 OA
ATOM     75  O   UNL     1     -14.055  11.714  -0.228  1.00  0.00    -0.744 OA
ENDBRANCH  68  72
ENDBRANCH  51  65
BRANCH  52  76
ATOM     76  C   UNL     1     -13.217  -1.425   6.155  1.00  0.00     0.023 A 
ATOM     77  C   UNL     1     -14.391  -2.041   6.617  1.00  0.00     0.031 A 
ATOM     78  C   UNL     1     -12.023  -2.167   6.200  1.00  0.00     0.131 A 
ATOM     79  C   UNL     1     -14.337  -3.337   7.154  1.00  0.00     0.055 A 
ATOM     80  C   UNL     1     -11.986  -3.478   6.677  1.00  0.00     0.041 A 
ATOM     81  F   UNL     1     -10.871  -1.628   5.770  1.00  0.00    -0.206 F 
ATOM     82  C   UNL     1     -13.146  -4.066   7.173  1.00  0.00     0.022 A 
BRANCH  79  83
ATOM     83  S   UNL     1     -15.831  -4.019   7.925  1.00  0.00     0.124 S 
ATOM     84  O   UNL     1     -16.114  -3.023   8.952  1.00  0.00    -0.237 OA
ATOM     85  O   UNL     1     -16.759  -4.063   6.800  1.00  0.00    -0.237 OA
ATOM     86  O   UNL     1     -15.392  -5.322   8.421  1.00  0.00    -0.744 OA
ENDBRANCH  79  83
ENDBRANCH  52  76
BRANCH  64  87
ATOM     87  C   UNL     1     -14.782   4.625   9.258  1.00  0.00     0.023 A 
ATOM     88  C   UNL     1     -14.017   4.392  10.414  1.00  0.00     0.031 A 
ATOM     89  C   UNL     1     -16.068   5.173   9.417  1.00  0.00     0.131 A 
ATOM     90  C   UNL     1     -14.567   4.649  11.679  1.00  0.00     0.055 A 
ATOM     91  C   UNL     1     -16.582   5.492  10.674  1.00  0.00     0.041 A 
ATOM     92  F   UNL     1     -16.846   5.414   8.349  1.00  0.00    -0.206 F 
ATOM     93  C   UNL     1     -15.836   5.217  11.816  1.00  0.00     0.022 A 
BRANCH  90  94
ATOM     94  S   UNL     1     -13.640   4.136  13.152  1.00  0.00     0.124 S 
ATOM     95  O   UNL     1     -13.480   2.703  12.925  1.00  0.00    -0.237 OA
ATOM     96  O   UNL     1     -12.424   4.937  13.050  1.00  0.00    -0.237 OA
ATOM     97  O   UNL     1     -14.527   4.494  14.258  1.00  0.00    -0.744 OA
ENDBRANCH  90  94
ENDBRANCH  64  87
ENDBRANCH  38  39
ENDBRANCH  30  33
ENDBRANCH  28  29
ENDBRANCH  27  28
ENDBRANCH  26  27
ENDBRANCH   1  26
TORSDOF 20
