REMARK SMILES CC1CCN(C(=O)N[C@@H]2C=C[C@H](C(=O)NCCCCCCNC(=O)c3ccc(-c4c5nc(c(-c6cc(S(=O)(=O)[O-])ccc6F)c6ccc([nH]6)c(-c6cc(S(=O)(=O)[O-])ccc6F)c6nc(c(-c7cc(S(=O)(=O)[O-])ccc7F)c7ccc4[nH]7)C=C6)C=C5)cc3)C2)CC1
REMARK SMILES IDX 19 1 18 2 17 3 16 4 15 5 13 6 14 7 12 9 9 10 10 11 88 12
REMARK SMILES IDX 11 13 8 14 1 15 2 16 3 17 90 18 4 19 89 20 5 21 6 22 7 23
REMARK SMILES IDX 20 25 21 26 22 27 23 28 24 30 25 31 26 32 87 33 27 34 86 35
REMARK SMILES IDX 28 36 29 37 30 38 80 39 31 40 85 41 79 42 81 43 32 44 84 45
REMARK SMILES IDX 78 46 77 47 33 49 65 50 45 51 64 52 46 53 49 54 63 55 82 56
REMARK SMILES IDX 47 57 48 58 62 60 83 61 50 62 34 63 35 64 43 65 36 66 42 67
REMARK SMILES IDX 44 68 41 69 37 70 38 71 39 72 40 73 66 74 67 75 75 76 68 77
REMARK SMILES IDX 74 78 76 79 73 80 69 81 70 82 71 83 72 84 51 85 52 86 60 87
REMARK SMILES IDX 53 88 59 89 61 90 58 91 54 92 55 93 56 94 57 95
REMARK H PARENT 15 8 8 24 22 29 81 48 49 59
REMARK Flexibility Score: inf
ROOT
ATOM      1  C   UNL     1       0.758 -10.128  -1.192  1.00  0.00     0.002 C 
ENDROOT
BRANCH   1   2
ATOM      2  C   UNL     1       1.865  -9.764  -0.203  1.00  0.00     0.002 C 
BRANCH   2   3
ATOM      3  C   UNL     1       3.107  -9.066  -0.770  1.00  0.00     0.021 C 
BRANCH   3   4
ATOM      4  C   UNL     1       2.856  -7.905  -1.730  1.00  0.00     0.116 C 
BRANCH   4   5
ATOM      5  N   UNL     1       1.947  -6.926  -1.180  1.00  0.00    -0.356 N 
ATOM      6  C   UNL     1       1.888  -5.580  -1.354  1.00  0.00     0.227 C 
ATOM      7  O   UNL     1       0.873  -5.022  -0.936  1.00  0.00    -0.274 OA
ATOM      8  H   UNL     1       1.258  -7.294  -0.582  1.00  0.00     0.163 HD
BRANCH   6   9
ATOM      9  C   UNL     1       3.059  -4.828  -1.990  1.00  0.00     0.103 C 
ATOM     10  C   UNL     1       3.082  -2.575  -0.996  1.00  0.00     0.107 C 
ATOM     11  C   UNL     1       2.619  -2.572  -2.443  1.00  0.00    -0.006 C 
ATOM     12  C   UNL     1       3.765  -3.943  -0.960  1.00  0.00     0.047 C 
ATOM     13  C   UNL     1       2.586  -3.804  -2.971  1.00  0.00    -0.016 C 
BRANCH  10  14
ATOM     14  N   UNL     1       1.895  -2.243  -0.224  1.00  0.00    -0.332 N 
ATOM     15  C   UNL     1       1.369  -7.478   2.917  1.00  0.00     0.008 C 
ATOM     16  C   UNL     1       1.556  -5.974   3.103  1.00  0.00    -0.011 C 
ATOM     17  C   UNL     1       0.246  -5.255   2.751  1.00  0.00     0.025 C 
ATOM     18  C   UNL     1       2.730  -5.437   2.259  1.00  0.00     0.025 C 
ATOM     19  C   UNL     1       0.417  -3.741   2.775  1.00  0.00     0.121 C 
ATOM     20  C   UNL     1       2.782  -3.901   2.254  1.00  0.00     0.121 C 
ATOM     21  N   UNL     1       1.500  -3.341   1.874  1.00  0.00    -0.325 N 
ATOM     22  C   UNL     1       1.186  -2.479   0.877  1.00  0.00     0.317 C 
ATOM     23  O   UNL     1       0.139  -1.815   0.927  1.00  0.00    -0.249 OA
ATOM     24  H   UNL     1       1.411  -1.551  -0.731  1.00  0.00     0.165 HD
ENDBRANCH  10  14
ENDBRANCH   6   9
ENDBRANCH   4   5
ENDBRANCH   3   4
ENDBRANCH   2   3
ENDBRANCH   1   2
BRANCH   1  25
ATOM     25  C   UNL     1       1.195 -10.983  -2.376  1.00  0.00     0.021 C 
BRANCH  25  26
ATOM     26  C   UNL     1       1.943 -12.252  -2.002  1.00  0.00     0.116 C 
BRANCH  26  27
ATOM     27  N   UNL     1       1.131 -13.176  -1.226  1.00  0.00    -0.352 N 
ATOM     28  C   UNL     1       0.919 -14.515  -1.449  1.00  0.00     0.251 C 
ATOM     29  H   UNL     1       0.676 -12.793  -0.441  1.00  0.00     0.163 HD
ATOM     30  O   UNL     1       0.091 -15.135  -0.789  1.00  0.00    -0.269 OA
BRANCH  28  31
ATOM     31  C   UNL     1       1.678 -15.182  -2.527  1.00  0.00     0.039 A 
ATOM     32  C   UNL     1       0.984 -15.897  -3.505  1.00  0.00     0.014 A 
ATOM     33  C   UNL     1       3.065 -15.023  -2.610  1.00  0.00     0.014 A 
ATOM     34  C   UNL     1       1.675 -16.392  -4.612  1.00  0.00     0.010 A 
ATOM     35  C   UNL     1       3.735 -15.447  -3.751  1.00  0.00     0.010 A 
ATOM     36  C   UNL     1       3.047 -16.134  -4.764  1.00  0.00    -0.014 A 
BRANCH  36  37
ATOM     37  C   UNL     1       3.788 -16.570  -5.975  1.00  0.00     0.031 A 
ATOM     38  C   UNL     1       4.914 -17.557  -5.846  1.00  0.00     0.074 A 
ATOM     39  C   UNL     1       3.514 -16.004  -7.167  1.00  0.00     0.049 A 
ATOM     40  N   UNL     1       5.753 -17.983  -6.754  1.00  0.00    -0.248 NA
ATOM     41  C   UNL     1       5.150 -18.104  -4.502  1.00  0.00     0.031 C 
ATOM     42  C   UNL     1       2.487 -14.986  -7.403  1.00  0.00     0.029 A 
ATOM     43  N   UNL     1       4.090 -16.186  -8.399  1.00  0.00    -0.354 N 
ATOM     44  C   UNL     1       6.632 -18.829  -6.087  1.00  0.00     0.074 A 
ATOM     45  C   UNL     1       6.261 -18.800  -4.689  1.00  0.00     0.031 C 
ATOM     46  C   UNL     1       2.503 -14.639  -8.700  1.00  0.00     0.029 A 
ATOM     47  C   UNL     1       3.565 -15.376  -9.379  1.00  0.00     0.049 A 
ATOM     48  H   UNL     1       4.812 -16.834  -8.566  1.00  0.00     0.167 HD
ATOM     49  C   UNL     1       7.641 -19.578  -6.600  1.00  0.00     0.034 A 
ATOM     50  C   UNL     1       3.913 -15.227 -10.672  1.00  0.00     0.034 A 
ATOM     51  C   UNL     1       7.979 -19.605  -8.002  1.00  0.00     0.049 A 
ATOM     52  C   UNL     1       5.037 -16.061 -11.224  1.00  0.00     0.074 A 
ATOM     53  C   UNL     1       8.905 -20.402  -8.651  1.00  0.00     0.029 A 
ATOM     54  N   UNL     1       7.417 -18.782  -8.971  1.00  0.00    -0.354 N 
ATOM     55  N   UNL     1       5.804 -16.926 -10.601  1.00  0.00    -0.248 NA
ATOM     56  C   UNL     1       5.339 -15.905 -12.652  1.00  0.00     0.031 C 
ATOM     57  C   UNL     1       8.956 -20.009  -9.995  1.00  0.00     0.029 A 
ATOM     58  C   UNL     1       8.010 -19.017 -10.202  1.00  0.00     0.049 A 
ATOM     59  H   UNL     1       6.701 -18.126  -8.807  1.00  0.00     0.167 HD
ATOM     60  C   UNL     1       6.675 -17.424 -11.566  1.00  0.00     0.074 A 
ATOM     61  C   UNL     1       6.323 -16.777 -12.815  1.00  0.00     0.031 C 
ATOM     62  C   UNL     1       7.673 -18.336 -11.432  1.00  0.00     0.034 A 
BRANCH  49  63
ATOM     63  C   UNL     1       8.457 -20.396  -5.626  1.00  0.00     0.023 A 
ATOM     64  C   UNL     1       7.873 -21.394  -4.825  1.00  0.00     0.031 A 
ATOM     65  C   UNL     1       9.827 -20.132  -5.448  1.00  0.00     0.131 A 
ATOM     66  C   UNL     1       8.625 -22.013  -3.815  1.00  0.00     0.055 A 
ATOM     67  C   UNL     1      10.593 -20.820  -4.504  1.00  0.00     0.041 A 
ATOM     68  F   UNL     1      10.439 -19.180  -6.169  1.00  0.00    -0.206 F 
ATOM     69  C   UNL     1       9.988 -21.750  -3.665  1.00  0.00     0.022 A 
BRANCH  66  70
ATOM     70  S   UNL     1       7.752 -23.020  -2.584  1.00  0.00     0.124 S 
ATOM     71  O   UNL     1       6.761 -22.073  -2.078  1.00  0.00    -0.237 OA
ATOM     72  O   UNL     1       7.233 -24.119  -3.389  1.00  0.00    -0.237 OA
ATOM     73  O   UNL     1       8.799 -23.382  -1.631  1.00  0.00    -0.744 OA
ENDBRANCH  66  70
ENDBRANCH  49  63
BRANCH  50  74
ATOM     74  C   UNL     1       3.207 -14.226 -11.519  1.00  0.00     0.023 A 
ATOM     75  C   UNL     1       2.362 -14.623 -12.566  1.00  0.00     0.031 A 
ATOM     76  C   UNL     1       3.368 -12.848 -11.285  1.00  0.00     0.131 A 
ATOM     77  C   UNL     1       1.726 -13.653 -13.357  1.00  0.00     0.055 A 
ATOM     78  C   UNL     1       2.702 -11.887 -12.048  1.00  0.00     0.041 A 
ATOM     79  F   UNL     1       4.157 -12.417 -10.288  1.00  0.00    -0.206 F 
ATOM     80  C   UNL     1       1.880 -12.289 -13.096  1.00  0.00     0.022 A 
BRANCH  77  81
ATOM     81  S   UNL     1       0.716 -14.198 -14.762  1.00  0.00     0.124 S 
ATOM     82  O   UNL     1       1.703 -14.884 -15.588  1.00  0.00    -0.237 OA
ATOM     83  O   UNL     1      -0.277 -15.045 -14.111  1.00  0.00    -0.237 OA
ATOM     84  O   UNL     1       0.199 -12.948 -15.314  1.00  0.00    -0.744 OA
ENDBRANCH  77  81
ENDBRANCH  50  74
BRANCH  62  85
ATOM     85  C   UNL     1       8.448 -18.687 -12.677  1.00  0.00     0.023 A 
ATOM     86  C   UNL     1       9.301 -17.757 -13.297  1.00  0.00     0.031 A 
ATOM     87  C   UNL     1       8.332 -19.965 -13.251  1.00  0.00     0.131 A 
ATOM     88  C   UNL     1       9.971 -18.105 -14.480  1.00  0.00     0.055 A 
ATOM     89  C   UNL     1       9.044 -20.324 -14.396  1.00  0.00     0.041 A 
ATOM     90  F   UNL     1       7.528 -20.890 -12.701  1.00  0.00    -0.206 F 
ATOM     91  C   UNL     1       9.861 -19.388 -15.023  1.00  0.00     0.022 A 
BRANCH  88  92
ATOM     92  S   UNL     1      10.931 -16.832 -15.344  1.00  0.00     0.124 S 
ATOM     93  O   UNL     1       9.908 -15.837 -15.650  1.00  0.00    -0.237 OA
ATOM     94  O   UNL     1      11.916 -16.445 -14.339  1.00  0.00    -0.237 OA
ATOM     95  O   UNL     1      11.475 -17.539 -16.502  1.00  0.00    -0.744 OA
ENDBRANCH  88  92
ENDBRANCH  62  85
ENDBRANCH  36  37
ENDBRANCH  28  31
ENDBRANCH  26  27
ENDBRANCH  25  26
ENDBRANCH   1  25
TORSDOF 17
