REMARK SMILES CCCC[C@H](C(=O)NCCCCCCNC(=O)c1ccc(-c2c3nc(c(-c4cc(S(=O)(=O)[O-])ccc4F)c4ccc([nH]4)c(-c4cc(S(=O)(=O)[O-])ccc4F)c4nc(c(-c5cc(S(=O)(=O)[O-])ccc5F)c5ccc2[nH]5)C=C4)C=C3)cc1)[C@H](O)c1ccc(C(F)(F)F)cc1
REMARK SMILES IDX 11 1 10 2 9 3 8 4 6 5 7 6 5 8 4 9 3 10 2 11 1 12 81 13 83 14
REMARK SMILES IDX 84 15 92 16 85 17 91 18 86 19 87 20 88 21 89 22 90 23 82 24
REMARK SMILES IDX 12 26 13 27 14 28 15 29 16 30 17 32 18 33 19 34 80 35 20 36
REMARK SMILES IDX 79 37 21 38 22 39 23 40 73 41 24 42 78 43 72 44 74 45 25 46
REMARK SMILES IDX 77 47 71 48 70 49 26 51 58 52 38 53 57 54 39 55 42 56 56 57
REMARK SMILES IDX 75 58 40 59 41 60 55 62 76 63 43 64 27 65 28 66 36 67 29 68
REMARK SMILES IDX 35 69 37 70 34 71 30 72 31 73 32 74 33 75 59 76 60 77 68 78
REMARK SMILES IDX 61 79 67 80 69 81 66 82 62 83 63 84 64 85 65 86 44 87 45 88
REMARK SMILES IDX 53 89 46 90 52 91 54 92 51 93 47 94 48 95 49 96 50 97
REMARK H PARENT 8 7 82 25 15 31 74 50 42 61
REMARK Flexibility Score: inf
ROOT
ATOM      1  C   UNL     1      -4.735  -7.546  -2.546  1.00  0.00     0.002 C 
ENDROOT
BRANCH   1   2
ATOM      2  C   UNL     1      -3.945  -6.234  -2.562  1.00  0.00     0.021 C 
BRANCH   2   3
ATOM      3  C   UNL     1      -3.261  -5.830  -1.243  1.00  0.00     0.116 C 
BRANCH   3   4
ATOM      4  N   UNL     1      -1.815  -5.916  -1.410  1.00  0.00    -0.356 N 
ATOM      5  C   UNL     1      -0.845  -4.974  -1.560  1.00  0.00     0.226 C 
ATOM      6  O   UNL     1       0.206  -5.368  -2.076  1.00  0.00    -0.275 OA
ATOM      7  H   UNL     1      -1.473  -6.839  -1.414  1.00  0.00     0.163 HD
BRANCH   5   8
ATOM      8  C   UNL     1      -1.015  -3.515  -1.106  1.00  0.00     0.111 C 
BRANCH   8   9
ATOM      9  C   UNL     1       0.322  -3.078  -0.420  1.00  0.00     0.016 C 
BRANCH   9  10
ATOM     10  C   UNL     1       0.201  -2.764   1.076  1.00  0.00     0.001 C 
BRANCH  10  11
ATOM     11  C   UNL     1      -0.130  -3.952   1.981  1.00  0.00    -0.003 C 
ATOM     12  C   UNL     1       0.916  -5.056   1.951  1.00  0.00     0.004 C 
ENDBRANCH  10  11
ENDBRANCH   9  10
ENDBRANCH   8   9
BRANCH   8  13
ATOM     13  C   UNL     1      -1.397  -2.644  -2.347  1.00  0.00     0.157 C 
BRANCH  13  14
ATOM     14  C   UNL     1      -2.857  -2.221  -2.324  1.00  0.00    -0.019 A 
ATOM     15  C   UNL     1      -3.309  -1.171  -1.509  1.00  0.00     0.007 A 
ATOM     16  C   UNL     1      -3.794  -2.918  -3.089  1.00  0.00     0.007 A 
ATOM     17  C   UNL     1      -4.676  -0.900  -1.385  1.00  0.00     0.013 A 
ATOM     18  C   UNL     1      -5.161  -2.675  -2.939  1.00  0.00     0.013 A 
ATOM     19  C   UNL     1      -5.619  -1.691  -2.054  1.00  0.00     0.056 A 
BRANCH  19  20
ATOM     20  C   UNL     1      -7.103  -1.531  -1.818  1.00  0.00     0.416 C 
ATOM     21  F   UNL     1      -7.404  -0.649  -0.827  1.00  0.00    -0.166 F 
ATOM     22  F   UNL     1      -7.768  -1.115  -2.926  1.00  0.00    -0.166 F 
ATOM     23  F   UNL     1      -7.679  -2.713  -1.454  1.00  0.00    -0.166 F 
ENDBRANCH  19  20
ENDBRANCH  13  14
BRANCH  13  24
ATOM     24  O   UNL     1      -0.617  -1.452  -2.470  1.00  0.00    -0.388 OA
ATOM     25  H   UNL     1      -0.794  -0.870  -1.714  1.00  0.00     0.211 HD
ENDBRANCH  13  24
ENDBRANCH   8  13
ENDBRANCH   5   8
ENDBRANCH   3   4
ENDBRANCH   2   3
ENDBRANCH   1   2
BRANCH   1  26
ATOM     26  C   UNL     1      -6.072  -7.513  -1.795  1.00  0.00     0.002 C 
BRANCH  26  27
ATOM     27  C   UNL     1      -7.024  -6.351  -2.116  1.00  0.00     0.021 C 
BRANCH  27  28
ATOM     28  C   UNL     1      -7.395  -6.157  -3.589  1.00  0.00     0.116 C 
BRANCH  28  29
ATOM     29  N   UNL     1      -8.188  -7.255  -4.108  1.00  0.00    -0.352 N 
ATOM     30  C   UNL     1      -9.488  -7.293  -4.548  1.00  0.00     0.251 C 
ATOM     31  H   UNL     1      -7.714  -8.117  -4.152  1.00  0.00     0.163 HD
ATOM     32  O   UNL     1     -10.010  -8.395  -4.721  1.00  0.00    -0.269 OA
BRANCH  30  33
ATOM     33  C   UNL     1     -10.276  -6.062  -4.815  1.00  0.00     0.039 A 
ATOM     34  C   UNL     1     -11.645  -6.076  -4.517  1.00  0.00     0.014 A 
ATOM     35  C   UNL     1      -9.731  -4.944  -5.453  1.00  0.00     0.014 A 
ATOM     36  C   UNL     1     -12.454  -4.980  -4.838  1.00  0.00     0.010 A 
ATOM     37  C   UNL     1     -10.530  -3.824  -5.724  1.00  0.00     0.010 A 
ATOM     38  C   UNL     1     -11.905  -3.837  -5.440  1.00  0.00    -0.014 A 
BRANCH  38  39
ATOM     39  C   UNL     1     -12.775  -2.687  -5.823  1.00  0.00     0.031 A 
ATOM     40  C   UNL     1     -12.997  -2.351  -7.277  1.00  0.00     0.074 A 
ATOM     41  C   UNL     1     -13.363  -1.935  -4.870  1.00  0.00     0.049 A 
ATOM     42  N   UNL     1     -13.696  -1.379  -7.809  1.00  0.00    -0.248 NA
ATOM     43  C   UNL     1     -12.325  -3.212  -8.260  1.00  0.00     0.031 C 
ATOM     44  C   UNL     1     -13.218  -2.136  -3.428  1.00  0.00     0.029 A 
ATOM     45  N   UNL     1     -14.200  -0.849  -4.970  1.00  0.00    -0.354 N 
ATOM     46  C   UNL     1     -13.540  -1.505  -9.187  1.00  0.00     0.074 A 
ATOM     47  C   UNL     1     -12.634  -2.614  -9.401  1.00  0.00     0.031 C 
ATOM     48  C   UNL     1     -13.956  -1.220  -2.780  1.00  0.00     0.029 A 
ATOM     49  C   UNL     1     -14.599  -0.342  -3.755  1.00  0.00     0.049 A 
ATOM     50  H   UNL     1     -14.488  -0.469  -5.832  1.00  0.00     0.167 HD
ATOM     51  C   UNL     1     -14.113  -0.779 -10.182  1.00  0.00     0.034 A 
ATOM     52  C   UNL     1     -15.386   0.712  -3.456  1.00  0.00     0.034 A 
ATOM     53  C   UNL     1     -15.025   0.318  -9.960  1.00  0.00     0.049 A 
ATOM     54  C   UNL     1     -15.999   1.513  -4.577  1.00  0.00     0.074 A 
ATOM     55  C   UNL     1     -15.685   1.096 -10.898  1.00  0.00     0.029 A 
ATOM     56  N   UNL     1     -15.407   0.798  -8.714  1.00  0.00    -0.354 N 
ATOM     57  N   UNL     1     -15.866   1.359  -5.875  1.00  0.00    -0.248 NA
ATOM     58  C   UNL     1     -16.884   2.621  -4.192  1.00  0.00     0.031 C 
ATOM     59  C   UNL     1     -16.417   2.079 -10.222  1.00  0.00     0.029 A 
ATOM     60  C   UNL     1     -16.275   1.871  -8.860  1.00  0.00     0.049 A 
ATOM     61  H   UNL     1     -15.107   0.430  -7.852  1.00  0.00     0.167 HD
ATOM     62  C   UNL     1     -16.681   2.327  -6.457  1.00  0.00     0.074 A 
ATOM     63  C   UNL     1     -17.310   3.049  -5.371  1.00  0.00     0.031 C 
ATOM     64  C   UNL     1     -16.895   2.590  -7.772  1.00  0.00     0.034 A 
BRANCH  51  65
ATOM     65  C   UNL     1     -13.742  -1.137 -11.603  1.00  0.00     0.023 A 
ATOM     66  C   UNL     1     -14.057  -2.390 -12.157  1.00  0.00     0.031 A 
ATOM     67  C   UNL     1     -13.044  -0.220 -12.411  1.00  0.00     0.131 A 
ATOM     68  C   UNL     1     -13.609  -2.722 -13.444  1.00  0.00     0.055 A 
ATOM     69  C   UNL     1     -12.673  -0.526 -13.722  1.00  0.00     0.041 A 
ATOM     70  F   UNL     1     -12.699   0.986 -11.934  1.00  0.00    -0.206 F 
ATOM     71  C   UNL     1     -12.941  -1.789 -14.241  1.00  0.00     0.022 A 
BRANCH  68  72
ATOM     72  S   UNL     1     -13.783  -4.436 -14.011  1.00  0.00     0.124 S 
ATOM     73  O   UNL     1     -13.020  -5.160 -12.996  1.00  0.00    -0.237 OA
ATOM     74  O   UNL     1     -15.231  -4.632 -13.980  1.00  0.00    -0.237 OA
ATOM     75  O   UNL     1     -13.184  -4.422 -15.340  1.00  0.00    -0.744 OA
ENDBRANCH  68  72
ENDBRANCH  51  65
BRANCH  52  76
ATOM     76  C   UNL     1     -15.643   1.085  -2.035  1.00  0.00     0.023 A 
ATOM     77  C   UNL     1     -16.934   1.008  -1.487  1.00  0.00     0.031 A 
ATOM     78  C   UNL     1     -14.609   1.575  -1.219  1.00  0.00     0.131 A 
ATOM     79  C   UNL     1     -17.168   1.463  -0.180  1.00  0.00     0.055 A 
ATOM     80  C   UNL     1     -14.836   1.976   0.099  1.00  0.00     0.041 A 
ATOM     81  F   UNL     1     -13.355   1.666  -1.692  1.00  0.00    -0.206 F 
ATOM     82  C   UNL     1     -16.125   1.935   0.621  1.00  0.00     0.022 A 
BRANCH  79  83
ATOM     83  S   UNL     1     -18.875   1.513   0.430  1.00  0.00     0.124 S 
ATOM     84  O   UNL     1     -19.521   2.366  -0.560  1.00  0.00    -0.237 OA
ATOM     85  O   UNL     1     -19.247   0.102   0.403  1.00  0.00    -0.237 OA
ATOM     86  O   UNL     1     -18.743   2.094   1.765  1.00  0.00    -0.744 OA
ENDBRANCH  79  83
ENDBRANCH  52  76
BRANCH  64  87
ATOM     87  C   UNL     1     -17.898   3.669  -8.102  1.00  0.00     0.023 A 
ATOM     88  C   UNL     1     -17.667   5.021  -7.790  1.00  0.00     0.031 A 
ATOM     89  C   UNL     1     -19.117   3.333  -8.718  1.00  0.00     0.131 A 
ATOM     90  C   UNL     1     -18.665   5.977  -8.038  1.00  0.00     0.055 A 
ATOM     91  C   UNL     1     -20.081   4.297  -9.017  1.00  0.00     0.041 A 
ATOM     92  F   UNL     1     -19.392   2.058  -9.038  1.00  0.00    -0.206 F 
ATOM     93  C   UNL     1     -19.864   5.625  -8.663  1.00  0.00     0.022 A 
BRANCH  90  94
ATOM     94  S   UNL     1     -18.416   7.673  -7.443  1.00  0.00     0.124 S 
ATOM     95  O   UNL     1     -18.198   7.466  -6.015  1.00  0.00    -0.237 OA
ATOM     96  O   UNL     1     -17.251   8.104  -8.210  1.00  0.00    -0.237 OA
ATOM     97  O   UNL     1     -19.667   8.345  -7.788  1.00  0.00    -0.744 OA
ENDBRANCH  90  94
ENDBRANCH  64  87
ENDBRANCH  38  39
ENDBRANCH  30  33
ENDBRANCH  28  29
ENDBRANCH  27  28
ENDBRANCH  26  27
ENDBRANCH   1  26
TORSDOF 23
