REMARK SMILES [NH3+][C@@H](CCC1=c2ccccc2=NC1)C(=O)NCCCCCCNC(=O)c1ccc(-c2c3nc(c(-c4cc(S(=O)(=O)[O-])ccc4F)c4ccc([nH]4)c(-c4cc(S(=O)(=O)[O-])ccc4F)c4nc(c(-c5cc(S(=O)(=O)[O-])ccc5F)c5ccc2[nH]5)C=C4)C=C3)cc1
REMARK SMILES IDX 19 1 18 2 17 3 16 4 14 5 15 6 2 8 1 9 3 13 4 14 5 15 6 16
REMARK SMILES IDX 13 17 7 18 11 19 12 20 8 21 10 22 9 23 20 24 21 25 22 26
REMARK SMILES IDX 23 27 24 28 25 30 26 31 27 32 88 33 28 34 87 35 29 36 30 37
REMARK SMILES IDX 31 38 81 39 32 40 86 41 80 42 82 43 33 44 85 45 79 46 78 47
REMARK SMILES IDX 34 49 66 50 46 51 65 52 47 53 50 54 64 55 83 56 48 57 49 58
REMARK SMILES IDX 63 60 84 61 51 62 35 63 36 64 44 65 37 66 43 67 45 68 42 69
REMARK SMILES IDX 38 70 39 71 40 72 41 73 67 74 68 75 76 76 69 77 75 78 77 79
REMARK SMILES IDX 74 80 70 81 71 82 72 83 73 84 52 85 53 86 61 87 54 88 60 89
REMARK SMILES IDX 62 90 59 91 55 92 56 93 57 94 58 95
REMARK H PARENT 16 7 1 10 1 11 1 12 23 29 82 48 50 59
REMARK Flexibility Score: inf
ROOT
ATOM      1  C   UNL     1      -2.827   1.956   1.132  1.00  0.00     0.002 C 
ENDROOT
BRANCH   1   2
ATOM      2  C   UNL     1      -1.548   2.089  -0.042  1.00  0.00     0.021 C 
BRANCH   2   3
ATOM      3  C   UNL     1      -0.468   1.013  -0.048  1.00  0.00     0.116 C 
BRANCH   3   4
ATOM      4  N   UNL     1      -1.024  -0.320  -0.122  1.00  0.00    -0.351 N 
ATOM      5  C   UNL     1      -0.521  -1.504   0.317  1.00  0.00     0.278 C 
ATOM      6  O   UNL     1      -1.227  -2.509   0.194  1.00  0.00    -0.268 OA
ATOM      7  H   UNL     1      -1.905  -0.379  -0.560  1.00  0.00     0.163 HD
BRANCH   5   8
ATOM      8  C   UNL     1       0.873  -1.599   0.961  1.00  0.00     0.271 C 
BRANCH   8   9
ATOM      9  N   UNL     1       1.899  -0.816   0.244  1.00  0.00    -0.347 N 
ATOM     10  H   UNL     1       2.797  -0.918   0.717  1.00  0.00     0.345 HD
ATOM     11  H   UNL     1       1.631   0.168   0.234  1.00  0.00     0.345 HD
ATOM     12  H   UNL     1       1.978  -1.156  -0.714  1.00  0.00     0.345 HD
ENDBRANCH   8   9
BRANCH   8  13
ATOM     13  C   UNL     1       0.889  -1.440   2.493  1.00  0.00     0.080 C 
BRANCH  13  14
ATOM     14  C   UNL     1       0.331  -0.179   3.187  1.00  0.00     0.040 C 
BRANCH  14  15
ATOM     15  C   UNL     1      -1.139   0.109   3.067  1.00  0.00    -0.039 C 
ATOM     16  C   UNL     1      -1.694   1.263   2.707  1.00  0.00     0.001 A 
ATOM     17  C   UNL     1      -2.208  -0.960   3.377  1.00  0.00     0.174 C 
ATOM     18  C   UNL     1      -1.337   3.002   2.218  1.00  0.00     0.010 A 
ATOM     19  C   UNL     1      -3.526   0.699   2.658  1.00  0.00     0.065 A 
ATOM     20  N   UNL     1      -3.640  -0.521   3.065  1.00  0.00    -0.280 NA
ATOM     21  C   UNL     1      -2.486   3.954   1.633  1.00  0.00     0.001 A 
ATOM     22  C   UNL     1      -4.784   1.987   1.931  1.00  0.00     0.028 A 
ATOM     23  C   UNL     1      -4.301   3.452   1.566  1.00  0.00     0.002 A 
ENDBRANCH  14  15
ENDBRANCH  13  14
ENDBRANCH   8  13
ENDBRANCH   5   8
ENDBRANCH   3   4
ENDBRANCH   2   3
ENDBRANCH   1   2
BRANCH   1  24
ATOM     24  C   UNL     1      -3.183   2.668   3.174  1.00  0.00     0.002 C 
BRANCH  24  25
ATOM     25  C   UNL     1      -2.799   4.028   4.143  1.00  0.00     0.021 C 
BRANCH  25  26
ATOM     26  C   UNL     1      -3.186   5.482   3.873  1.00  0.00     0.116 C 
BRANCH  26  27
ATOM     27  N   UNL     1      -4.585   5.796   3.630  1.00  0.00    -0.352 N 
ATOM     28  C   UNL     1      -5.115   7.078   3.607  1.00  0.00     0.251 C 
ATOM     29  H   UNL     1      -5.200   5.045   3.469  1.00  0.00     0.163 HD
ATOM     30  O   UNL     1      -6.302   7.288   3.396  1.00  0.00    -0.269 OA
BRANCH  28  31
ATOM     31  C   UNL     1      -4.181   8.185   3.922  1.00  0.00     0.039 A 
ATOM     32  C   UNL     1      -3.065   8.380   3.108  1.00  0.00     0.014 A 
ATOM     33  C   UNL     1      -4.271   8.803   5.170  1.00  0.00     0.014 A 
ATOM     34  C   UNL     1      -1.945   9.010   3.639  1.00  0.00     0.010 A 
ATOM     35  C   UNL     1      -3.182   9.536   5.650  1.00  0.00     0.010 A 
ATOM     36  C   UNL     1      -1.982   9.587   4.922  1.00  0.00    -0.014 A 
BRANCH  36  37
ATOM     37  C   UNL     1      -0.765  10.235   5.490  1.00  0.00     0.031 A 
ATOM     38  C   UNL     1      -0.157   9.760   6.788  1.00  0.00     0.074 A 
ATOM     39  C   UNL     1      -0.200  11.262   4.824  1.00  0.00     0.049 A 
ATOM     40  N   UNL     1       0.854  10.258   7.454  1.00  0.00    -0.248 NA
ATOM     41  C   UNL     1      -0.764   8.581   7.428  1.00  0.00     0.031 C 
ATOM     42  C   UNL     1      -0.687  11.800   3.554  1.00  0.00     0.029 A 
ATOM     43  N   UNL     1       0.900  12.033   5.110  1.00  0.00    -0.354 N 
ATOM     44  C   UNL     1       0.984   9.481   8.602  1.00  0.00     0.074 A 
ATOM     45  C   UNL     1      -0.072   8.494   8.558  1.00  0.00     0.031 C 
ATOM     46  C   UNL     1       0.129  12.779   3.149  1.00  0.00     0.029 A 
ATOM     47  C   UNL     1       1.141  13.012   4.174  1.00  0.00     0.049 A 
ATOM     48  H   UNL     1       1.461  11.898   5.908  1.00  0.00     0.167 HD
ATOM     49  C   UNL     1       1.905   9.579   9.592  1.00  0.00     0.034 A 
ATOM     50  C   UNL     1       2.047  14.010   4.148  1.00  0.00     0.034 A 
ATOM     51  C   UNL     1       2.969  10.556   9.601  1.00  0.00     0.049 A 
ATOM     52  C   UNL     1       3.035  14.121   5.277  1.00  0.00     0.074 A 
ATOM     53  C   UNL     1       3.978  10.708  10.536  1.00  0.00     0.029 A 
ATOM     54  N   UNL     1       3.169  11.539   8.641  1.00  0.00    -0.354 N 
ATOM     55  N   UNL     1       3.169  13.351   6.331  1.00  0.00    -0.248 NA
ATOM     56  C   UNL     1       4.000  15.226   5.217  1.00  0.00     0.031 C 
ATOM     57  C   UNL     1       4.728  11.831  10.194  1.00  0.00     0.029 A 
ATOM     58  C   UNL     1       4.262  12.319   8.983  1.00  0.00     0.049 A 
ATOM     59  H   UNL     1       2.616  11.663   7.836  1.00  0.00     0.167 HD
ATOM     60  C   UNL     1       4.254  13.858   7.041  1.00  0.00     0.074 A 
ATOM     61  C   UNL     1       4.753  14.986   6.282  1.00  0.00     0.031 C 
ATOM     62  C   UNL     1       4.780  13.427   8.214  1.00  0.00     0.034 A 
BRANCH  49  63
ATOM     63  C   UNL     1       1.845   8.618  10.761  1.00  0.00     0.023 A 
ATOM     64  C   UNL     1       1.708   9.119  12.072  1.00  0.00     0.031 A 
ATOM     65  C   UNL     1       2.093   7.243  10.604  1.00  0.00     0.131 A 
ATOM     66  C   UNL     1       1.874   8.264  13.170  1.00  0.00     0.055 A 
ATOM     67  C   UNL     1       2.200   6.385  11.701  1.00  0.00     0.041 A 
ATOM     68  F   UNL     1       2.241   6.712   9.379  1.00  0.00    -0.206 F 
ATOM     69  C   UNL     1       2.108   6.898  12.991  1.00  0.00     0.022 A 
BRANCH  66  70
ATOM     70  S   UNL     1       1.892   8.907  14.867  1.00  0.00     0.124 S 
ATOM     71  O   UNL     1       0.802   8.154  15.484  1.00  0.00    -0.237 OA
ATOM     72  O   UNL     1       3.233   8.544  15.315  1.00  0.00    -0.237 OA
ATOM     73  O   UNL     1       1.645  10.335  14.704  1.00  0.00    -0.744 OA
ENDBRANCH  66  70
ENDBRANCH  49  63
BRANCH  50  74
ATOM     74  C   UNL     1       2.062  14.943   2.982  1.00  0.00     0.023 A 
ATOM     75  C   UNL     1       0.928  15.711   2.656  1.00  0.00     0.031 A 
ATOM     76  C   UNL     1       3.158  14.981   2.106  1.00  0.00     0.131 A 
ATOM     77  C   UNL     1       0.883  16.407   1.442  1.00  0.00     0.055 A 
ATOM     78  C   UNL     1       3.143  15.750   0.941  1.00  0.00     0.041 A 
ATOM     79  F   UNL     1       4.257  14.255   2.364  1.00  0.00    -0.206 F 
ATOM     80  C   UNL     1       1.992  16.450   0.593  1.00  0.00     0.022 A 
BRANCH  77  81
ATOM     81  S   UNL     1      -0.668  17.142   0.852  1.00  0.00     0.124 S 
ATOM     82  O   UNL     1      -0.298  18.545   0.691  1.00  0.00    -0.237 OA
ATOM     83  O   UNL     1      -0.893  16.401  -0.386  1.00  0.00    -0.237 OA
ATOM     84  O   UNL     1      -1.615  16.858   1.925  1.00  0.00    -0.744 OA
ENDBRANCH  77  81
ENDBRANCH  50  74
BRANCH  62  85
ATOM     85  C   UNL     1       5.993  14.135   8.774  1.00  0.00     0.023 A 
ATOM     86  C   UNL     1       7.180  13.409   8.997  1.00  0.00     0.031 A 
ATOM     87  C   UNL     1       5.931  15.459   9.241  1.00  0.00     0.131 A 
ATOM     88  C   UNL     1       8.229  13.987   9.721  1.00  0.00     0.055 A 
ATOM     89  C   UNL     1       7.006  16.054   9.903  1.00  0.00     0.041 A 
ATOM     90  F   UNL     1       4.819  16.192   9.068  1.00  0.00    -0.206 F 
ATOM     91  C   UNL     1       8.154  15.311  10.164  1.00  0.00     0.022 A 
BRANCH  88  92
ATOM     92  S   UNL     1       9.675  13.008  10.215  1.00  0.00     0.124 S 
ATOM     93  O   UNL     1      10.768  13.742   9.582  1.00  0.00    -0.237 OA
ATOM     94  O   UNL     1       9.623  13.101  11.671  1.00  0.00    -0.237 OA
ATOM     95  O   UNL     1       9.411  11.685   9.659  1.00  0.00    -0.744 OA
ENDBRANCH  88  92
ENDBRANCH  62  85
ENDBRANCH  36  37
ENDBRANCH  28  31
ENDBRANCH  26  27
ENDBRANCH  25  26
ENDBRANCH  24  25
ENDBRANCH   1  24
TORSDOF 20
