REMARK SMILES Cc1nc(NC2CCCCCC2)sc1C(=O)NCCCCCCNC(=O)c1ccc(-c2c3nc(c(-c4cc(S(=O)(=O)[O-])ccc4F)c4ccc([nH]4)c(-c4cc(S(=O)(=O)[O-])ccc4F)c4nc(c(-c5cc(S(=O)(=O)[O-])ccc5F)c5ccc2[nH]5)C=C4)C=C3)cc1
REMARK SMILES IDX 19 1 18 2 17 3 15 4 16 5 14 7 1 8 2 9 3 10 4 11 13 12 5 13
REMARK SMILES IDX 6 15 7 16 8 17 12 19 11 20 10 21 9 22 20 24 21 25 22 26
REMARK SMILES IDX 23 27 24 28 25 29 26 31 27 32 28 33 89 34 29 35 88 36 30 37
REMARK SMILES IDX 31 38 32 39 82 40 33 41 87 42 81 43 83 44 34 45 86 46 80 47
REMARK SMILES IDX 79 48 35 50 67 51 47 52 66 53 48 54 51 55 65 56 84 57 49 58
REMARK SMILES IDX 50 59 64 61 85 62 52 63 36 64 37 65 45 66 38 67 44 68 46 69
REMARK SMILES IDX 43 70 39 71 40 72 41 73 42 74 68 75 69 76 77 77 70 78 76 79
REMARK SMILES IDX 78 80 75 81 71 82 72 83 73 84 74 85 53 86 54 87 62 88 55 89
REMARK SMILES IDX 61 90 63 91 60 92 56 93 57 94 58 95 59 96
REMARK H PARENT 17 6 5 14 24 30 83 49 51 60
REMARK Flexibility Score: 80.00
ROOT
ATOM      1  C   UNL     1      -3.475  -3.091  -0.746  1.00  0.00     0.021 C 
ENDROOT
BRANCH   1   2
ATOM      2  C   UNL     1      -2.552  -2.968   0.473  1.00  0.00     0.116 C 
BRANCH   2   3
ATOM      3  N   UNL     1      -1.174  -3.156   0.074  1.00  0.00    -0.351 N 
ATOM      4  C   UNL     1      -0.113  -2.307  -0.109  1.00  0.00     0.263 C 
ATOM      5  O   UNL     1       0.926  -2.893  -0.441  1.00  0.00    -0.268 OA
ATOM      6  H   UNL     1      -0.950  -4.097  -0.105  1.00  0.00     0.163 HD
BRANCH   4   7
ATOM      7  C   UNL     1      -0.165  -0.867   0.091  1.00  0.00     0.117 A 
ATOM      8  C   UNL     1      -2.564   0.124  -0.331  1.00  0.00     0.068 C 
ATOM      9  C   UNL     1      -1.129   0.132   0.038  1.00  0.00     0.063 A 
ATOM     10  N   UNL     1      -0.657   1.403   0.298  1.00  0.00    -0.225 NA
ATOM     11  C   UNL     1       0.643   1.448   0.317  1.00  0.00     0.183 A 
ATOM     12  S   UNL     1       1.380  -0.089   0.369  1.00  0.00    -0.092 S 
BRANCH  11  13
ATOM     13  N   UNL     1       1.359   2.589   0.251  1.00  0.00    -0.359 N 
ATOM     14  H   UNL     1       2.319   2.564   0.466  1.00  0.00     0.163 HD
BRANCH  13  15
ATOM     15  C   UNL     1       0.748   3.869  -0.134  1.00  0.00     0.081 C 
BRANCH  15  16
ATOM     16  C   UNL     1       0.166   3.823  -1.564  1.00  0.00     0.025 C 
BRANCH  16  17
ATOM     17  C   UNL     1      -1.349   3.666  -1.715  1.00  0.00     0.002 CG0
ATOM     18  G   UNL     1      -2.142   4.950  -1.517  1.00  0.00     0.000 G0
ENDBRANCH  16  17
ENDBRANCH  15  16
BRANCH  15  19
ATOM     19  C   UNL     1      -0.153   4.410   0.983  1.00  0.00     0.025 C 
BRANCH  19  20
ATOM     20  C   UNL     1      -0.918   5.681   0.620  1.00  0.00     0.002 C 
BRANCH  20  21
ATOM     21  C   UNL     1      -2.253   5.403  -0.067  1.00  0.00     0.000 C 
BRANCH  21  22
ATOM     22  C   UNL     1      -2.142   4.950  -1.517  1.00  0.00     0.000 CG0
ATOM     23  G   UNL     1      -1.349   3.666  -1.715  1.00  0.00     0.000 G0
ENDBRANCH  21  22
ENDBRANCH  20  21
ENDBRANCH  19  20
ENDBRANCH  15  19
ENDBRANCH  13  15
ENDBRANCH  11  13
ENDBRANCH   4   7
ENDBRANCH   2   3
ENDBRANCH   1   2
BRANCH   1  24
ATOM     24  C   UNL     1      -4.140  -4.460  -0.887  1.00  0.00     0.002 C 
BRANCH  24  25
ATOM     25  C   UNL     1      -5.177  -4.765   0.200  1.00  0.00     0.002 C 
BRANCH  25  26
ATOM     26  C   UNL     1      -6.320  -3.750   0.319  1.00  0.00     0.021 C 
BRANCH  26  27
ATOM     27  C   UNL     1      -7.153  -3.573  -0.950  1.00  0.00     0.116 C 
BRANCH  27  28
ATOM     28  N   UNL     1      -7.811  -4.812  -1.330  1.00  0.00    -0.352 N 
ATOM     29  C   UNL     1      -9.151  -5.101  -1.400  1.00  0.00     0.251 C 
ATOM     30  H   UNL     1      -7.208  -5.551  -1.572  1.00  0.00     0.163 HD
ATOM     31  O   UNL     1      -9.515  -6.271  -1.457  1.00  0.00    -0.269 OA
BRANCH  29  32
ATOM     32  C   UNL     1     -10.148  -4.008  -1.402  1.00  0.00     0.039 A 
ATOM     33  C   UNL     1     -11.314  -4.150  -0.646  1.00  0.00     0.014 A 
ATOM     34  C   UNL     1      -9.951  -2.862  -2.179  1.00  0.00     0.014 A 
ATOM     35  C   UNL     1     -12.259  -3.121  -0.630  1.00  0.00     0.010 A 
ATOM     36  C   UNL     1     -10.862  -1.811  -2.110  1.00  0.00     0.010 A 
ATOM     37  C   UNL     1     -12.029  -1.931  -1.340  1.00  0.00    -0.014 A 
BRANCH  37  38
ATOM     38  C   UNL     1     -13.001  -0.807  -1.301  1.00  0.00     0.031 A 
ATOM     39  C   UNL     1     -13.718  -0.388  -2.557  1.00  0.00     0.074 A 
ATOM     40  C   UNL     1     -13.189  -0.128  -0.152  1.00  0.00     0.049 A 
ATOM     41  N   UNL     1     -14.531   0.618  -2.750  1.00  0.00    -0.248 NA
ATOM     42  C   UNL     1     -13.462  -1.193  -3.761  1.00  0.00     0.031 C 
ATOM     43  C   UNL     1     -12.524  -0.420   1.120  1.00  0.00     0.029 A 
ATOM     44  N   UNL     1     -13.983   0.955   0.131  1.00  0.00    -0.354 N 
ATOM     45  C   UNL     1     -14.871   0.579  -4.098  1.00  0.00     0.074 A 
ATOM     46  C   UNL     1     -14.131  -0.519  -4.684  1.00  0.00     0.031 C 
ATOM     47  C   UNL     1     -12.952   0.449   2.050  1.00  0.00     0.029 A 
ATOM     48  C   UNL     1     -13.884   1.389   1.434  1.00  0.00     0.049 A 
ATOM     49  H   UNL     1     -14.569   1.382  -0.535  1.00  0.00     0.167 HD
ATOM     50  C   UNL     1     -15.736   1.372  -4.778  1.00  0.00     0.034 A 
ATOM     51  C   UNL     1     -14.465   2.433   2.056  1.00  0.00     0.034 A 
ATOM     52  C   UNL     1     -16.479   2.451  -4.173  1.00  0.00     0.049 A 
ATOM     53  C   UNL     1     -15.410   3.311   1.274  1.00  0.00     0.074 A 
ATOM     54  C   UNL     1     -17.421   3.282  -4.755  1.00  0.00     0.029 A 
ATOM     55  N   UNL     1     -16.360   2.854  -2.849  1.00  0.00    -0.354 N 
ATOM     56  N   UNL     1     -15.757   3.231   0.010  1.00  0.00    -0.248 NA
ATOM     57  C   UNL     1     -16.050   4.412   2.005  1.00  0.00     0.031 C 
ATOM     58  C   UNL     1     -17.823   4.226  -3.803  1.00  0.00     0.029 A 
ATOM     59  C   UNL     1     -17.190   3.938  -2.604  1.00  0.00     0.049 A 
ATOM     60  H   UNL     1     -15.772   2.432  -2.181  1.00  0.00     0.167 HD
ATOM     61  C   UNL     1     -16.683   4.250  -0.194  1.00  0.00     0.074 A 
ATOM     62  C   UNL     1     -16.849   4.920   1.079  1.00  0.00     0.031 C 
ATOM     63  C   UNL     1     -17.340   4.599  -1.329  1.00  0.00     0.034 A 
BRANCH  50  64
ATOM     64  C   UNL     1     -15.905   1.114  -6.257  1.00  0.00     0.023 A 
ATOM     65  C   UNL     1     -16.430  -0.096  -6.742  1.00  0.00     0.031 A 
ATOM     66  C   UNL     1     -15.521   2.087  -7.197  1.00  0.00     0.131 A 
ATOM     67  C   UNL     1     -16.492  -0.330  -8.124  1.00  0.00     0.055 A 
ATOM     68  C   UNL     1     -15.660   1.879  -8.571  1.00  0.00     0.041 A 
ATOM     69  F   UNL     1     -14.993   3.255  -6.796  1.00  0.00    -0.206 F 
ATOM     70  C   UNL     1     -16.134   0.659  -9.043  1.00  0.00     0.022 A 
BRANCH  67  71
ATOM     71  S   UNL     1     -16.919  -1.995  -8.703  1.00  0.00     0.124 S 
ATOM     72  O   UNL     1     -15.857  -2.798  -8.101  1.00  0.00    -0.237 OA
ATOM     73  O   UNL     1     -18.256  -2.188  -8.152  1.00  0.00    -0.237 OA
ATOM     74  O   UNL     1     -16.855  -1.879 -10.158  1.00  0.00    -0.744 OA
ENDBRANCH  67  71
ENDBRANCH  50  64
BRANCH  51  75
ATOM     75  C   UNL     1     -14.169   2.722   3.489  1.00  0.00     0.023 A 
ATOM     76  C   UNL     1     -15.177   2.650   4.464  1.00  0.00     0.031 A 
ATOM     77  C   UNL     1     -12.886   3.125   3.898  1.00  0.00     0.131 A 
ATOM     78  C   UNL     1     -14.900   3.027   5.787  1.00  0.00     0.055 A 
ATOM     79  C   UNL     1     -12.601   3.445   5.227  1.00  0.00     0.041 A 
ATOM     80  F   UNL     1     -11.883   3.206   3.009  1.00  0.00    -0.206 F 
ATOM     81  C   UNL     1     -13.616   3.412   6.178  1.00  0.00     0.022 A 
BRANCH  78  82
ATOM     82  S   UNL     1     -16.271   3.102   6.973  1.00  0.00     0.124 S 
ATOM     83  O   UNL     1     -17.186   4.026   6.312  1.00  0.00    -0.237 OA
ATOM     84  O   UNL     1     -16.697   1.707   7.029  1.00  0.00    -0.237 OA
ATOM     85  O   UNL     1     -15.641   3.609   8.189  1.00  0.00    -0.744 OA
ENDBRANCH  78  82
ENDBRANCH  51  75
BRANCH  63  86
ATOM     86  C   UNL     1     -18.339   5.725  -1.224  1.00  0.00     0.023 A 
ATOM     87  C   UNL     1     -17.941   7.048  -0.964  1.00  0.00     0.031 A 
ATOM     88  C   UNL     1     -19.713   5.465  -1.377  1.00  0.00     0.131 A 
ATOM     89  C   UNL     1     -18.909   8.051  -0.808  1.00  0.00     0.055 A 
ATOM     90  C   UNL     1     -20.668   6.478  -1.281  1.00  0.00     0.041 A 
ATOM     91  F   UNL     1     -20.149   4.220  -1.625  1.00  0.00    -0.206 F 
ATOM     92  C   UNL     1     -20.269   7.778  -0.982  1.00  0.00     0.022 A 
BRANCH  89  93
ATOM     93  S   UNL     1     -18.375   9.704  -0.286  1.00  0.00     0.124 S 
ATOM     94  O   UNL     1     -17.716   9.422   0.986  1.00  0.00    -0.237 OA
ATOM     95  O   UNL     1     -17.501  10.110  -1.381  1.00  0.00    -0.237 OA
ATOM     96  O   UNL     1     -19.627  10.452  -0.183  1.00  0.00    -0.744 OA
ENDBRANCH  89  93
ENDBRANCH  63  86
ENDBRANCH  37  38
ENDBRANCH  29  32
ENDBRANCH  27  28
ENDBRANCH  26  27
ENDBRANCH  25  26
ENDBRANCH  24  25
ENDBRANCH   1  24
TORSDOF 18
