REMARK SMILES Cc1nn(C)cc1-c1cc(C(=O)NCCCCCCNC(=O)c2ccc(-c3c4nc(c(-c5cc(S(=O)(=O)[O-])ccc5F)c5ccc([nH]5)c(-c5cc(S(=O)(=O)[O-])ccc5F)c5nc(c(-c6cc(S(=O)(=O)[O-])ccc6F)c6ccc3[nH]6)C=C5)C=C4)cc2)n2nc(C)c(Br)c2n1
REMARK SMILES IDX 17 1 16 2 15 3 14 4 13 5 11 6 12 7 10 9 8 10 9 11 93 12
REMARK SMILES IDX 92 13 86 14 90 15 87 16 88 17 91 18 89 19 7 20 1 21 2 22
REMARK SMILES IDX 3 23 4 24 6 25 5 26 18 27 19 28 20 29 21 30 22 32 23 33
REMARK SMILES IDX 24 34 85 35 25 36 84 37 26 38 27 39 28 40 78 41 29 42 83 43
REMARK SMILES IDX 77 44 79 45 30 46 82 47 76 48 75 49 31 51 63 52 43 53 62 54
REMARK SMILES IDX 44 55 47 56 61 57 80 58 45 59 46 60 60 62 81 63 48 64 32 65
REMARK SMILES IDX 33 66 41 67 34 68 40 69 42 70 39 71 35 72 36 73 37 74 38 75
REMARK SMILES IDX 64 76 65 77 73 78 66 79 72 80 74 81 71 82 67 83 68 84 69 85
REMARK SMILES IDX 70 86 49 87 50 88 58 89 51 90 57 91 59 92 56 93 52 94 53 95
REMARK SMILES IDX 54 96 55 97
REMARK H PARENT 13 8 20 31 79 50 47 61
REMARK Flexibility Score: inf
ROOT
ATOM      1  C   UNL     1      -4.065  -0.187  -6.137  1.00  0.00     0.002 C 
ENDROOT
BRANCH   1   2
ATOM      2  C   UNL     1      -3.337  -1.512  -5.874  1.00  0.00     0.002 C 
BRANCH   2   3
ATOM      3  C   UNL     1      -2.761  -1.657  -4.458  1.00  0.00     0.021 C 
BRANCH   3   4
ATOM      4  C   UNL     1      -3.834  -1.727  -3.362  1.00  0.00     0.116 C 
BRANCH   4   5
ATOM      5  N   UNL     1      -4.231  -3.107  -3.121  1.00  0.00    -0.351 N 
ATOM      6  C   UNL     1      -3.904  -4.062  -2.205  1.00  0.00     0.270 C 
ATOM      7  O   UNL     1      -4.424  -5.164  -2.387  1.00  0.00    -0.268 OA
ATOM      8  H   UNL     1      -4.895  -3.425  -3.774  1.00  0.00     0.163 HD
BRANCH   6   9
ATOM      9  C   UNL     1      -3.010  -3.816  -1.029  1.00  0.00     0.134 A 
ATOM     10  C   UNL     1      -1.310  -2.640   0.204  1.00  0.00     0.079 A 
ATOM     11  C   UNL     1      -2.067  -2.857  -1.054  1.00  0.00     0.063 A 
ATOM     12  N   UNL     1      -1.317  -3.400   1.251  1.00  0.00    -0.227 NA
ATOM     13  C   UNL     1      -2.162  -4.475   1.180  1.00  0.00     0.171 A 
ATOM     14  N   UNL     1      -3.056  -4.667   0.102  1.00  0.00    -0.208 N 
ATOM     15  C   UNL     1      -2.347  -5.552   2.011  1.00  0.00     0.085 A 
ATOM     16  N   UNL     1      -3.852  -5.751   0.339  1.00  0.00    -0.170 NA
ATOM     17  C   UNL     1      -3.365  -6.328   1.441  1.00  0.00     0.076 A 
ATOM     18  Br  UNL     1      -1.422  -5.945   3.591  1.00  0.00    -0.045 Br
ATOM     19  C   UNL     1      -3.915  -7.626   1.903  1.00  0.00     0.070 C 
BRANCH  10  20
ATOM     20  C   UNL     1      -0.538  -1.424   0.195  1.00  0.00     0.041 A 
ATOM     21  C   UNL     1      -2.379   0.450   0.089  1.00  0.00     0.069 C 
ATOM     22  C   UNL     1      -0.991  -0.076   0.116  1.00  0.00     0.069 A 
ATOM     23  N   UNL     1       0.031   0.785   0.062  1.00  0.00    -0.178 NA
ATOM     24  N   UNL     1       1.125   0.004   0.108  1.00  0.00    -0.275 N 
ATOM     25  C   UNL     1       0.837  -1.323   0.236  1.00  0.00     0.119 A 
ATOM     26  C   UNL     1       2.433   0.606  -0.015  1.00  0.00     0.173 C 
ENDBRANCH  10  20
ENDBRANCH   6   9
ENDBRANCH   4   5
ENDBRANCH   3   4
ENDBRANCH   2   3
ENDBRANCH   1   2
BRANCH   1  27
ATOM     27  C   UNL     1      -3.195   1.081  -6.057  1.00  0.00     0.021 C 
BRANCH  27  28
ATOM     28  C   UNL     1      -2.192   1.262  -7.209  1.00  0.00     0.116 C 
BRANCH  28  29
ATOM     29  N   UNL     1      -2.900   1.351  -8.475  1.00  0.00    -0.352 N 
ATOM     30  C   UNL     1      -3.054   2.419  -9.315  1.00  0.00     0.251 C 
ATOM     31  H   UNL     1      -3.334   0.518  -8.771  1.00  0.00     0.163 HD
ATOM     32  O   UNL     1      -4.106   2.516  -9.947  1.00  0.00    -0.269 OA
BRANCH  30  33
ATOM     33  C   UNL     1      -1.976   3.412  -9.530  1.00  0.00     0.039 A 
ATOM     34  C   UNL     1      -2.348   4.707  -9.909  1.00  0.00     0.014 A 
ATOM     35  C   UNL     1      -0.627   3.045  -9.557  1.00  0.00     0.014 A 
ATOM     36  C   UNL     1      -1.380   5.631 -10.303  1.00  0.00     0.010 A 
ATOM     37  C   UNL     1       0.342   3.974  -9.955  1.00  0.00     0.010 A 
ATOM     38  C   UNL     1      -0.025   5.274 -10.330  1.00  0.00    -0.014 A 
BRANCH  38  39
ATOM     39  C   UNL     1       0.964   6.323 -10.668  1.00  0.00     0.031 A 
ATOM     40  C   UNL     1       2.229   6.317  -9.870  1.00  0.00     0.074 A 
ATOM     41  C   UNL     1       0.996   6.894 -11.892  1.00  0.00     0.049 A 
ATOM     42  N   UNL     1       3.229   5.526 -10.130  1.00  0.00    -0.248 NA
ATOM     43  C   UNL     1       2.344   7.010  -8.588  1.00  0.00     0.031 C 
ATOM     44  C   UNL     1       0.728   6.155 -13.133  1.00  0.00     0.029 A 
ATOM     45  N   UNL     1       1.498   8.103 -12.317  1.00  0.00    -0.354 N 
ATOM     46  C   UNL     1       4.084   5.569  -9.042  1.00  0.00     0.074 A 
ATOM     47  C   UNL     1       3.494   6.506  -8.111  1.00  0.00     0.031 C 
ATOM     48  C   UNL     1       1.226   6.859 -14.171  1.00  0.00     0.029 A 
ATOM     49  C   UNL     1       1.703   8.155 -13.695  1.00  0.00     0.049 A 
ATOM     50  H   UNL     1       1.693   8.853 -11.710  1.00  0.00     0.167 HD
ATOM     51  C   UNL     1       5.228   4.836  -8.964  1.00  0.00     0.034 A 
ATOM     52  C   UNL     1       2.660   8.907 -14.308  1.00  0.00     0.034 A 
ATOM     53  C   UNL     1       5.547   4.074 -10.136  1.00  0.00     0.049 A 
ATOM     54  C   UNL     1       3.902   8.124 -13.947  1.00  0.00     0.074 A 
ATOM     55  C   UNL     1       5.449   2.773 -10.575  1.00  0.00     0.029 A 
ATOM     56  N   UNL     1       6.088   4.757 -11.201  1.00  0.00    -0.354 N 
ATOM     57  N   UNL     1       4.298   7.006 -14.502  1.00  0.00    -0.248 NA
ATOM     58  C   UNL     1       4.523   8.414 -12.655  1.00  0.00     0.031 C 
ATOM     59  C   UNL     1       5.506   2.847 -12.004  1.00  0.00     0.029 A 
ATOM     60  C   UNL     1       5.590   4.197 -12.348  1.00  0.00     0.049 A 
ATOM     61  H   UNL     1       6.718   5.511 -11.148  1.00  0.00     0.167 HD
ATOM     62  C   UNL     1       4.979   6.312 -13.495  1.00  0.00     0.074 A 
ATOM     63  C   UNL     1       5.093   7.247 -12.393  1.00  0.00     0.031 C 
ATOM     64  C   UNL     1       5.248   4.973 -13.527  1.00  0.00     0.034 A 
BRANCH  51  65
ATOM     65  C   UNL     1       6.232   4.956  -7.882  1.00  0.00     0.023 A 
ATOM     66  C   UNL     1       6.184   4.200  -6.701  1.00  0.00     0.031 A 
ATOM     67  C   UNL     1       7.379   5.726  -8.147  1.00  0.00     0.131 A 
ATOM     68  C   UNL     1       7.291   4.218  -5.835  1.00  0.00     0.055 A 
ATOM     69  C   UNL     1       8.478   5.729  -7.294  1.00  0.00     0.041 A 
ATOM     70  F   UNL     1       7.457   6.451  -9.277  1.00  0.00    -0.206 F 
ATOM     71  C   UNL     1       8.440   4.965  -6.135  1.00  0.00     0.022 A 
BRANCH  68  72
ATOM     72  S   UNL     1       7.317   3.237  -4.307  1.00  0.00     0.124 S 
ATOM     73  O   UNL     1       8.523   2.425  -4.478  1.00  0.00    -0.237 OA
ATOM     74  O   UNL     1       7.410   4.278  -3.283  1.00  0.00    -0.237 OA
ATOM     75  O   UNL     1       6.062   2.503  -4.335  1.00  0.00    -0.744 OA
ENDBRANCH  68  72
ENDBRANCH  51  65
BRANCH  52  76
ATOM     76  C   UNL     1       2.499  10.389 -14.114  1.00  0.00     0.023 A 
ATOM     77  C   UNL     1       3.439  11.249 -13.528  1.00  0.00     0.031 A 
ATOM     78  C   UNL     1       1.272  10.973 -14.511  1.00  0.00     0.131 A 
ATOM     79  C   UNL     1       3.081  12.568 -13.193  1.00  0.00     0.055 A 
ATOM     80  C   UNL     1       0.940  12.301 -14.229  1.00  0.00     0.041 A 
ATOM     81  F   UNL     1       0.358  10.245 -15.175  1.00  0.00    -0.206 F 
ATOM     82  C   UNL     1       1.837  13.099 -13.534  1.00  0.00     0.022 A 
BRANCH  79  83
ATOM     83  S   UNL     1       4.216  13.614 -12.236  1.00  0.00     0.124 S 
ATOM     84  O   UNL     1       4.079  14.913 -12.889  1.00  0.00    -0.237 OA
ATOM     85  O   UNL     1       3.638  13.515 -10.899  1.00  0.00    -0.237 OA
ATOM     86  O   UNL     1       5.507  12.958 -12.415  1.00  0.00    -0.744 OA
ENDBRANCH  79  83
ENDBRANCH  52  76
BRANCH  64  87
ATOM     87  C   UNL     1       4.973   4.246 -14.809  1.00  0.00     0.023 A 
ATOM     88  C   UNL     1       4.034   3.197 -14.860  1.00  0.00     0.031 A 
ATOM     89  C   UNL     1       5.760   4.492 -15.943  1.00  0.00     0.131 A 
ATOM     90  C   UNL     1       3.967   2.375 -15.992  1.00  0.00     0.055 A 
ATOM     91  C   UNL     1       5.646   3.708 -17.093  1.00  0.00     0.041 A 
ATOM     92  F   UNL     1       6.698   5.454 -15.932  1.00  0.00    -0.206 F 
ATOM     93  C   UNL     1       4.760   2.633 -17.114  1.00  0.00     0.022 A 
BRANCH  90  94
ATOM     94  S   UNL     1       2.914   0.898 -16.012  1.00  0.00     0.124 S 
ATOM     95  O   UNL     1       2.281   0.976 -17.327  1.00  0.00    -0.237 OA
ATOM     96  O   UNL     1       3.896  -0.173 -15.860  1.00  0.00    -0.237 OA
ATOM     97  O   UNL     1       2.014   1.088 -14.880  1.00  0.00    -0.744 OA
ENDBRANCH  90  94
ENDBRANCH  64  87
ENDBRANCH  38  39
ENDBRANCH  30  33
ENDBRANCH  28  29
ENDBRANCH  27  28
ENDBRANCH   1  27
TORSDOF 17
