REMARK SMILES COCC[C@]1(C(=O)NCCCCCCNC(=O)c2ccc(-c3c4nc(c(-c5cc(S(=O)(=O)[O-])ccc5F)c5ccc([nH]5)c(-c5cc(S(=O)(=O)[O-])ccc5F)c5nc(c(-c6cc(S(=O)(=O)[O-])ccc6F)c6ccc3[nH]6)C=C5)C=C4)cc2)CCCN(C(=O)c2ccc(=O)[nH]c2)C1
REMARK SMILES IDX 11 1 10 2 9 3 8 4 6 5 7 6 5 8 81 9 94 10 82 11 84 12 83 13
REMARK SMILES IDX 4 14 3 15 2 16 1 17 85 18 86 19 87 20 88 21 93 22 89 23
REMARK SMILES IDX 92 24 90 25 91 27 12 28 13 29 14 30 15 31 16 32 17 34 18 35
REMARK SMILES IDX 19 36 80 37 20 38 79 39 21 40 22 41 23 42 73 43 24 44 78 45
REMARK SMILES IDX 72 46 74 47 25 48 77 49 71 50 70 51 26 53 58 54 38 55 57 56
REMARK SMILES IDX 39 57 42 58 56 59 75 60 40 61 41 62 55 64 76 65 43 66 27 67
REMARK SMILES IDX 28 68 36 69 29 70 35 71 37 72 34 73 30 74 31 75 32 76 33 77
REMARK SMILES IDX 59 78 60 79 68 80 61 81 67 82 69 83 66 84 62 85 63 86 64 87
REMARK SMILES IDX 65 88 44 89 45 90 53 91 46 92 52 93 54 94 51 95 47 96 48 97
REMARK SMILES IDX 49 98 50 99
REMARK H PARENT 8 7 92 26 15 33 74 52 42 63
REMARK Flexibility Score: inf
ROOT
ATOM      1  C   UNL     1       5.092  -0.059   4.564  1.00  0.00     0.002 C 
ENDROOT
BRANCH   1   2
ATOM      2  C   UNL     1       3.798  -0.412   3.826  1.00  0.00     0.021 C 
BRANCH   2   3
ATOM      3  C   UNL     1       2.650   0.551   4.125  1.00  0.00     0.116 C 
BRANCH   3   4
ATOM      4  N   UNL     1       2.798   1.774   3.356  1.00  0.00    -0.356 N 
ATOM      5  C   UNL     1       2.137   2.258   2.270  1.00  0.00     0.228 C 
ATOM      6  O   UNL     1       2.591   3.295   1.777  1.00  0.00    -0.274 OA
ATOM      7  H   UNL     1       3.513   2.366   3.684  1.00  0.00     0.163 HD
BRANCH   5   8
ATOM      8  C   UNL     1       0.873   1.580   1.701  1.00  0.00     0.069 C 
ATOM      9  C   UNL     1       1.142   0.118   1.267  1.00  0.00     0.021 C 
ATOM     10  C   UNL     1      -0.222   1.669   2.802  1.00  0.00     0.136 C 
ATOM     11  C   UNL     1      -0.141  -0.672   1.023  1.00  0.00     0.023 C 
ATOM     12  N   UNL     1      -1.381   0.823   2.510  1.00  0.00    -0.338 N 
ATOM     13  C   UNL     1      -1.066  -0.577   2.225  1.00  0.00     0.120 C 
BRANCH   8  14
ATOM     14  C   UNL     1       0.354   2.411   0.472  1.00  0.00     0.047 C 
BRANCH  14  15
ATOM     15  C   UNL     1       1.274   2.443  -0.759  1.00  0.00     0.161 C 
BRANCH  15  16
ATOM     16  O   UNL     1       0.653   1.795  -1.874  1.00  0.00    -0.385 OA
ATOM     17  C   UNL     1       1.238   0.551  -2.230  1.00  0.00     0.194 C 
ENDBRANCH  15  16
ENDBRANCH  14  15
ENDBRANCH   8  14
BRANCH  12  18
ATOM     18  C   UNL     1      -2.637   1.412   2.483  1.00  0.00     0.255 C 
ATOM     19  O   UNL     1      -2.826   2.602   2.737  1.00  0.00    -0.269 OA
BRANCH  18  20
ATOM     20  C   UNL     1      -3.791   0.586   2.035  1.00  0.00     0.056 A 
ATOM     21  C   UNL     1      -4.266  -0.589   2.737  1.00  0.00     0.021 A 
ATOM     22  C   UNL     1      -4.436   1.010   0.937  1.00  0.00     0.099 A 
ATOM     23  C   UNL     1      -5.289  -1.308   2.247  1.00  0.00     0.072 A 
ATOM     24  N   UNL     1      -5.502   0.299   0.442  1.00  0.00    -0.328 N 
ATOM     25  C   UNL     1      -5.976  -0.863   1.004  1.00  0.00     0.247 A 
ATOM     26  H   UNL     1      -5.954   0.641  -0.364  1.00  0.00     0.169 HD
ATOM     27  O   UNL     1      -6.908  -1.499   0.526  1.00  0.00    -0.270 OA
ENDBRANCH  18  20
ENDBRANCH  12  18
ENDBRANCH   5   8
ENDBRANCH   3   4
ENDBRANCH   2   3
ENDBRANCH   1   2
BRANCH   1  28
ATOM     28  C   UNL     1       4.967  -0.027   6.091  1.00  0.00     0.002 C 
BRANCH  28  29
ATOM     29  C   UNL     1       4.352  -1.284   6.714  1.00  0.00     0.021 C 
BRANCH  29  30
ATOM     30  C   UNL     1       5.120  -2.567   6.418  1.00  0.00     0.116 C 
BRANCH  30  31
ATOM     31  N   UNL     1       6.463  -2.522   6.971  1.00  0.00    -0.352 N 
ATOM     32  C   UNL     1       7.061  -3.380   7.858  1.00  0.00     0.251 C 
ATOM     33  H   UNL     1       7.021  -1.770   6.667  1.00  0.00     0.163 HD
ATOM     34  O   UNL     1       8.101  -3.049   8.419  1.00  0.00    -0.269 OA
BRANCH  32  35
ATOM     35  C   UNL     1       6.439  -4.691   8.139  1.00  0.00     0.039 A 
ATOM     36  C   UNL     1       6.372  -5.143   9.458  1.00  0.00     0.014 A 
ATOM     37  C   UNL     1       5.938  -5.479   7.097  1.00  0.00     0.014 A 
ATOM     38  C   UNL     1       5.762  -6.368   9.738  1.00  0.00     0.010 A 
ATOM     39  C   UNL     1       5.268  -6.664   7.386  1.00  0.00     0.010 A 
ATOM     40  C   UNL     1       5.182  -7.127   8.707  1.00  0.00    -0.014 A 
BRANCH  40  41
ATOM     41  C   UNL     1       4.511  -8.422   8.988  1.00  0.00     0.031 A 
ATOM     42  C   UNL     1       5.079  -9.696   8.421  1.00  0.00     0.074 A 
ATOM     43  C   UNL     1       3.371  -8.445   9.705  1.00  0.00     0.049 A 
ATOM     44  N   UNL     1       4.602 -10.913   8.476  1.00  0.00    -0.248 NA
ATOM     45  C   UNL     1       6.337  -9.578   7.668  1.00  0.00     0.031 C 
ATOM     46  C   UNL     1       2.712  -7.272  10.284  1.00  0.00     0.029 A 
ATOM     47  N   UNL     1       2.559  -9.491  10.066  1.00  0.00    -0.354 N 
ATOM     48  C   UNL     1       5.495 -11.703   7.761  1.00  0.00     0.074 A 
ATOM     49  C   UNL     1       6.504 -10.814   7.224  1.00  0.00     0.031 C 
ATOM     50  C   UNL     1       1.615  -7.667  10.949  1.00  0.00     0.029 A 
ATOM     51  C   UNL     1       1.462  -9.111  10.805  1.00  0.00     0.049 A 
ATOM     52  H   UNL     1       2.745 -10.426   9.821  1.00  0.00     0.167 HD
ATOM     53  C   UNL     1       5.491 -13.049   7.591  1.00  0.00     0.034 A 
ATOM     54  C   UNL     1       0.443  -9.844  11.298  1.00  0.00     0.034 A 
ATOM     55  C   UNL     1       4.484 -13.922   8.143  1.00  0.00     0.049 A 
ATOM     56  C   UNL     1       0.439 -11.335  11.061  1.00  0.00     0.074 A 
ATOM     57  C   UNL     1       4.397 -15.300   8.059  1.00  0.00     0.029 A 
ATOM     58  N   UNL     1       3.385 -13.501   8.882  1.00  0.00    -0.354 N 
ATOM     59  N   UNL     1       1.310 -12.070  10.408  1.00  0.00    -0.248 NA
ATOM     60  C   UNL     1      -0.678 -12.094  11.637  1.00  0.00     0.031 C 
ATOM     61  C   UNL     1       3.216 -15.706   8.690  1.00  0.00     0.029 A 
ATOM     62  C   UNL     1       2.605 -14.590   9.238  1.00  0.00     0.049 A 
ATOM     63  H   UNL     1       3.190 -12.565   9.119  1.00  0.00     0.167 HD
ATOM     64  C   UNL     1       0.864 -13.384  10.533  1.00  0.00     0.074 A 
ATOM     65  C   UNL     1      -0.343 -13.338  11.333  1.00  0.00     0.031 C 
ATOM     66  C   UNL     1       1.404 -14.527  10.037  1.00  0.00     0.034 A 
BRANCH  53  67
ATOM     67  C   UNL     1       6.600 -13.648   6.759  1.00  0.00     0.023 A 
ATOM     68  C   UNL     1       7.947 -13.555   7.152  1.00  0.00     0.031 A 
ATOM     69  C   UNL     1       6.313 -14.301   5.547  1.00  0.00     0.131 A 
ATOM     70  C   UNL     1       8.959 -14.037   6.308  1.00  0.00     0.055 A 
ATOM     71  C   UNL     1       7.319 -14.855   4.753  1.00  0.00     0.041 A 
ATOM     72  F   UNL     1       5.048 -14.402   5.107  1.00  0.00    -0.206 F 
ATOM     73  C   UNL     1       8.653 -14.711   5.124  1.00  0.00     0.022 A 
BRANCH  70  74
ATOM     74  S   UNL     1      10.682 -13.643   6.711  1.00  0.00     0.124 S 
ATOM     75  O   UNL     1      10.660 -12.182   6.695  1.00  0.00    -0.237 OA
ATOM     76  O   UNL     1      10.851 -14.265   8.019  1.00  0.00    -0.237 OA
ATOM     77  O   UNL     1      11.438 -14.259   5.623  1.00  0.00    -0.744 OA
ENDBRANCH  70  74
ENDBRANCH  53  67
BRANCH  54  78
ATOM     78  C   UNL     1      -0.663  -9.195  12.060  1.00  0.00     0.023 A 
ATOM     79  C   UNL     1      -0.901  -9.523  13.404  1.00  0.00     0.031 A 
ATOM     80  C   UNL     1      -1.540  -8.287  11.439  1.00  0.00     0.131 A 
ATOM     81  C   UNL     1      -2.022  -8.998  14.066  1.00  0.00     0.055 A 
ATOM     82  C   UNL     1      -2.619  -7.720  12.121  1.00  0.00     0.041 A 
ATOM     83  F   UNL     1      -1.358  -7.934  10.157  1.00  0.00    -0.206 F 
ATOM     84  C   UNL     1      -2.874  -8.088  13.438  1.00  0.00     0.022 A 
BRANCH  81  85
ATOM     85  S   UNL     1      -2.411  -9.610  15.728  1.00  0.00     0.124 S 
ATOM     86  O   UNL     1      -2.516 -11.046  15.497  1.00  0.00    -0.237 OA
ATOM     87  O   UNL     1      -1.251  -9.165  16.493  1.00  0.00    -0.237 OA
ATOM     88  O   UNL     1      -3.666  -8.936  16.053  1.00  0.00    -0.744 OA
ENDBRANCH  81  85
ENDBRANCH  54  78
BRANCH  66  89
ATOM     89  C   UNL     1       0.722 -15.823  10.401  1.00  0.00     0.023 A 
ATOM     90  C   UNL     1      -0.569 -16.138   9.942  1.00  0.00     0.031 A 
ATOM     91  C   UNL     1       1.374 -16.752  11.232  1.00  0.00     0.131 A 
ATOM     92  C   UNL     1      -1.190 -17.323  10.364  1.00  0.00     0.055 A 
ATOM     93  C   UNL     1       0.775 -17.958  11.597  1.00  0.00     0.041 A 
ATOM     94  F   UNL     1       2.607 -16.502  11.701  1.00  0.00    -0.206 F 
ATOM     95  C   UNL     1      -0.520 -18.243  11.175  1.00  0.00     0.022 A 
BRANCH  92  96
ATOM     96  S   UNL     1      -2.926 -17.602   9.917  1.00  0.00     0.124 S 
ATOM     97  O   UNL     1      -3.580 -16.432  10.494  1.00  0.00    -0.237 OA
ATOM     98  O   UNL     1      -2.869 -17.646   8.460  1.00  0.00    -0.237 OA
ATOM     99  O   UNL     1      -3.246 -18.874  10.563  1.00  0.00    -0.744 OA
ENDBRANCH  92  96
ENDBRANCH  66  89
ENDBRANCH  40  41
ENDBRANCH  32  35
ENDBRANCH  30  31
ENDBRANCH  29  30
ENDBRANCH  28  29
ENDBRANCH   1  28
TORSDOF 21
