REMARK SMILES Cc1ccc2c(c1)C=C(C(=O)NCCCCCCNC(=O)c1ccc(-c3c4nc(c(-c5cc(S(=O)(=O)[O-])ccc5F)c5ccc([nH]5)c(-c5cc(S(=O)(=O)[O-])ccc5F)c5nc(c(-c6cc(S(=O)(=O)[O-])ccc6F)c6ccc3[nH]6)C=C5)C=C4)cc1)[C@@H](C(F)(F)F)O2
REMARK SMILES IDX 16 1 15 2 14 3 13 4 12 5 10 6 11 7 9 9 1 10 2 11 3 12 7 13
REMARK SMILES IDX 4 14 6 15 5 16 8 17 90 18 85 19 86 20 87 21 88 22 89 23
REMARK SMILES IDX 17 24 18 25 19 26 20 27 21 29 22 30 23 31 84 32 24 33 83 34
REMARK SMILES IDX 25 35 26 36 27 37 77 38 28 39 82 40 76 41 78 42 29 43 81 44
REMARK SMILES IDX 75 45 74 46 30 48 62 49 42 50 61 51 43 52 46 53 60 54 79 55
REMARK SMILES IDX 44 56 45 57 59 59 80 60 47 61 31 62 32 63 40 64 33 65 39 66
REMARK SMILES IDX 41 67 38 68 34 69 35 70 36 71 37 72 63 73 64 74 72 75 65 76
REMARK SMILES IDX 71 77 73 78 70 79 66 80 67 81 68 82 69 83 48 84 49 85 57 86
REMARK SMILES IDX 50 87 56 88 58 89 55 90 51 91 52 92 53 93 54 94
REMARK H PARENT 12 8 19 28 78 47 46 58
REMARK Flexibility Score: inf
ROOT
ATOM      1  C   UNL     1       0.152  11.179  -4.891  1.00  0.00     0.002 C 
ENDROOT
BRANCH   1   2
ATOM      2  C   UNL     1      -0.680  10.612  -3.733  1.00  0.00     0.002 C 
BRANCH   2   3
ATOM      3  C   UNL     1      -1.034   9.123  -3.830  1.00  0.00     0.021 C 
BRANCH   3   4
ATOM      4  C   UNL     1       0.170   8.193  -3.958  1.00  0.00     0.116 C 
BRANCH   4   5
ATOM      5  N   UNL     1       0.778   7.916  -2.668  1.00  0.00    -0.352 N 
ATOM      6  C   UNL     1       1.034   6.831  -1.902  1.00  0.00     0.251 C 
ATOM      7  O   UNL     1       1.613   7.075  -0.836  1.00  0.00    -0.270 OA
ATOM      8  H   UNL     1       1.089   8.743  -2.234  1.00  0.00     0.163 HD
BRANCH   6   9
ATOM      9  C   UNL     1       0.681   5.418  -2.238  1.00  0.00     0.067 C 
ATOM     10  C   UNL     1       1.109  -0.270   0.164  1.00  0.00     0.044 C 
ATOM     11  C   UNL     1       0.684   0.780  -0.819  1.00  0.00    -0.050 A 
ATOM     12  C   UNL     1      -0.008   0.431  -1.985  1.00  0.00     0.007 A 
ATOM     13  C   UNL     1       0.992   2.128  -0.582  1.00  0.00     0.015 A 
ATOM     14  C   UNL     1      -0.389   1.415  -2.897  1.00  0.00     0.047 A 
ATOM     15  C   UNL     1       0.616   3.116  -1.498  1.00  0.00     0.017 A 
ATOM     16  C   UNL     1      -0.067   2.748  -2.656  1.00  0.00     0.128 A 
ATOM     17  C   UNL     1       0.892   4.525  -1.252  1.00  0.00     0.025 C 
ATOM     18  O   UNL     1      -0.490   3.656  -3.580  1.00  0.00    -0.475 OA
ATOM     19  C   UNL     1       0.175   4.951  -3.577  1.00  0.00     0.314 C 
BRANCH  19  20
ATOM     20  C   UNL     1       1.271   4.954  -4.657  1.00  0.00     0.429 C 
ATOM     21  F   UNL     1       0.728   4.812  -5.890  1.00  0.00    -0.167 F 
ATOM     22  F   UNL     1       1.971   6.113  -4.679  1.00  0.00    -0.167 F 
ATOM     23  F   UNL     1       2.168   3.957  -4.488  1.00  0.00    -0.167 F 
ENDBRANCH  19  20
ENDBRANCH   6   9
ENDBRANCH   4   5
ENDBRANCH   3   4
ENDBRANCH   2   3
ENDBRANCH   1   2
BRANCH   1  24
ATOM     24  C   UNL     1      -0.337  10.834  -6.299  1.00  0.00     0.021 C 
BRANCH  24  25
ATOM     25  C   UNL     1      -1.772  11.245  -6.608  1.00  0.00     0.116 C 
BRANCH  25  26
ATOM     26  N   UNL     1      -1.959  12.687  -6.601  1.00  0.00    -0.352 N 
ATOM     27  C   UNL     1      -2.544  13.483  -7.558  1.00  0.00     0.251 C 
ATOM     28  H   UNL     1      -1.621  13.156  -5.804  1.00  0.00     0.163 HD
ATOM     29  O   UNL     1      -2.503  14.705  -7.454  1.00  0.00    -0.269 OA
BRANCH  27  30
ATOM     30  C   UNL     1      -3.180  12.848  -8.732  1.00  0.00     0.039 A 
ATOM     31  C   UNL     1      -4.094  11.804  -8.566  1.00  0.00     0.014 A 
ATOM     32  C   UNL     1      -2.805  13.264 -10.012  1.00  0.00     0.014 A 
ATOM     33  C   UNL     1      -4.509  11.071  -9.675  1.00  0.00     0.010 A 
ATOM     34  C   UNL     1      -3.278  12.569 -11.127  1.00  0.00     0.010 A 
ATOM     35  C   UNL     1      -4.091  11.435 -10.964  1.00  0.00    -0.014 A 
BRANCH  35  36
ATOM     36  C   UNL     1      -4.480  10.610 -12.137  1.00  0.00     0.031 A 
ATOM     37  C   UNL     1      -3.434   9.853 -12.911  1.00  0.00     0.074 A 
ATOM     38  C   UNL     1      -5.776  10.523 -12.489  1.00  0.00     0.049 A 
ATOM     39  N   UNL     1      -3.571   9.131 -13.992  1.00  0.00    -0.248 NA
ATOM     40  C   UNL     1      -2.052   9.915 -12.405  1.00  0.00     0.031 C 
ATOM     41  C   UNL     1      -6.877  11.184 -11.789  1.00  0.00     0.029 A 
ATOM     42  N   UNL     1      -6.390   9.844 -13.512  1.00  0.00    -0.354 N 
ATOM     43  C   UNL     1      -2.297   8.670 -14.308  1.00  0.00     0.074 A 
ATOM     44  C   UNL     1      -1.394   9.215 -13.319  1.00  0.00     0.031 C 
ATOM     45  C   UNL     1      -8.033  10.855 -12.382  1.00  0.00     0.029 A 
ATOM     46  C   UNL     1      -7.754  10.022 -13.550  1.00  0.00     0.049 A 
ATOM     47  H   UNL     1      -5.901   9.284 -14.157  1.00  0.00     0.167 HD
ATOM     48  C   UNL     1      -1.922   7.857 -15.324  1.00  0.00     0.034 A 
ATOM     49  C   UNL     1      -8.674   9.589 -14.436  1.00  0.00     0.034 A 
ATOM     50  C   UNL     1      -2.839   7.303 -16.286  1.00  0.00     0.049 A 
ATOM     51  C   UNL     1      -8.223   8.738 -15.595  1.00  0.00     0.074 A 
ATOM     52  C   UNL     1      -2.559   6.447 -17.336  1.00  0.00     0.029 A 
ATOM     53  N   UNL     1      -4.206   7.541 -16.317  1.00  0.00    -0.354 N 
ATOM     54  N   UNL     1      -7.019   8.292 -15.867  1.00  0.00    -0.248 NA
ATOM     55  C   UNL     1      -9.244   8.338 -16.573  1.00  0.00     0.031 C 
ATOM     56  C   UNL     1      -3.745   6.211 -18.033  1.00  0.00     0.029 A 
ATOM     57  C   UNL     1      -4.777   6.870 -17.384  1.00  0.00     0.049 A 
ATOM     58  H   UNL     1      -4.696   8.104 -15.675  1.00  0.00     0.167 HD
ATOM     59  C   UNL     1      -7.140   7.546 -17.036  1.00  0.00     0.074 A 
ATOM     60  C   UNL     1      -8.539   7.583 -17.408  1.00  0.00     0.031 C 
ATOM     61  C   UNL     1      -6.177   6.897 -17.737  1.00  0.00     0.034 A 
BRANCH  48  62
ATOM     62  C   UNL     1      -0.465   7.495 -15.463  1.00  0.00     0.023 A 
ATOM     63  C   UNL     1       0.258   7.911 -16.597  1.00  0.00     0.031 A 
ATOM     64  C   UNL     1       0.167   6.636 -14.548  1.00  0.00     0.131 A 
ATOM     65  C   UNL     1       1.562   7.443 -16.801  1.00  0.00     0.055 A 
ATOM     66  C   UNL     1       1.479   6.199 -14.739  1.00  0.00     0.041 A 
ATOM     67  F   UNL     1      -0.482   6.214 -13.450  1.00  0.00    -0.206 F 
ATOM     68  C   UNL     1       2.178   6.593 -15.876  1.00  0.00     0.022 A 
BRANCH  65  69
ATOM     69  S   UNL     1       2.490   7.870 -18.300  1.00  0.00     0.124 S 
ATOM     70  O   UNL     1       3.662   8.544 -17.744  1.00  0.00    -0.237 OA
ATOM     71  O   UNL     1       2.746   6.557 -18.886  1.00  0.00    -0.237 OA
ATOM     72  O   UNL     1       1.577   8.728 -19.046  1.00  0.00    -0.744 OA
ENDBRANCH  65  69
ENDBRANCH  48  62
BRANCH  49  73
ATOM     73  C   UNL     1     -10.107   9.946 -14.225  1.00  0.00     0.023 A 
ATOM     74  C   UNL     1     -10.523  11.290 -14.203  1.00  0.00     0.031 A 
ATOM     75  C   UNL     1     -11.057   8.956 -13.922  1.00  0.00     0.131 A 
ATOM     76  C   UNL     1     -11.826  11.612 -13.804  1.00  0.00     0.055 A 
ATOM     77  C   UNL     1     -12.376   9.277 -13.597  1.00  0.00     0.041 A 
ATOM     78  F   UNL     1     -10.706   7.661 -13.922  1.00  0.00    -0.206 F 
ATOM     79  C   UNL     1     -12.761  10.613 -13.516  1.00  0.00     0.022 A 
BRANCH  76  80
ATOM     80  S   UNL     1     -12.307  13.336 -13.503  1.00  0.00     0.124 S 
ATOM     81  O   UNL     1     -13.383  13.525 -14.471  1.00  0.00    -0.237 OA
ATOM     82  O   UNL     1     -12.719  13.290 -12.102  1.00  0.00    -0.237 OA
ATOM     83  O   UNL     1     -11.083  14.085 -13.763  1.00  0.00    -0.744 OA
ENDBRANCH  76  80
ENDBRANCH  49  73
BRANCH  61  84
ATOM     84  C   UNL     1      -6.568   6.155 -18.990  1.00  0.00     0.023 A 
ATOM     85  C   UNL     1      -6.421   4.755 -19.051  1.00  0.00     0.031 A 
ATOM     86  C   UNL     1      -6.901   6.844 -20.167  1.00  0.00     0.131 A 
ATOM     87  C   UNL     1      -6.551   4.096 -20.279  1.00  0.00     0.055 A 
ATOM     88  C   UNL     1      -7.075   6.176 -21.380  1.00  0.00     0.041 A 
ATOM     89  F   UNL     1      -7.043   8.179 -20.158  1.00  0.00    -0.206 F 
ATOM     90  C   UNL     1      -6.884   4.798 -21.442  1.00  0.00     0.022 A 
BRANCH  87  91
ATOM     91  S   UNL     1      -6.207   2.321 -20.428  1.00  0.00     0.124 S 
ATOM     92  O   UNL     1      -7.459   1.815 -20.985  1.00  0.00    -0.237 OA
ATOM     93  O   UNL     1      -5.067   2.306 -21.340  1.00  0.00    -0.237 OA
ATOM     94  O   UNL     1      -5.923   1.901 -19.059  1.00  0.00    -0.744 OA
ENDBRANCH  87  91
ENDBRANCH  61  84
ENDBRANCH  35  36
ENDBRANCH  27  30
ENDBRANCH  25  26
ENDBRANCH  24  25
ENDBRANCH   1  24
TORSDOF 17
