REMARK SMILES C[C@H]1[C@H](C(=O)NCCCCCCNC(=O)c2ccc(-c3c4nc(c(-c5cc(S(=O)(=O)[O-])ccc5F)c5ccc([nH]5)c(-c5cc(S(=O)(=O)[O-])ccc5F)c5nc(c(-c6cc(S(=O)(=O)[O-])ccc6F)c6ccc3[nH]6)C=C5)C=C4)cc2)CCN1C(=O)c1ccc2ccccc2c1
REMARK SMILES IDX 10 1 9 2 8 3 7 4 6 5 4 6 5 7 3 9 1 10 2 11 81 12 79 13 80 14
REMARK SMILES IDX 82 15 83 16 84 17 85 18 93 19 86 20 92 21 87 22 91 23 88 24
REMARK SMILES IDX 90 25 89 26 11 27 12 28 13 29 14 30 15 32 16 33 17 34 78 35
REMARK SMILES IDX 18 36 77 37 19 38 20 39 21 40 71 41 22 42 76 43 70 44 72 45
REMARK SMILES IDX 23 46 75 47 69 48 68 49 24 51 56 52 36 53 55 54 37 55 40 56
REMARK SMILES IDX 54 57 73 58 38 59 39 60 53 62 74 63 41 64 25 65 26 66 34 67
REMARK SMILES IDX 27 68 33 69 35 70 32 71 28 72 29 73 30 74 31 75 57 76 58 77
REMARK SMILES IDX 66 78 59 79 65 80 67 81 64 82 60 83 61 84 62 85 63 86 42 87
REMARK SMILES IDX 43 88 51 89 44 90 50 91 52 92 49 93 45 94 46 95 47 96 48 97
REMARK H PARENT 6 8 13 31 72 50 40 61
REMARK Flexibility Score: inf
ROOT
ATOM      1  C   UNL     1      -1.603   1.087   5.956  1.00  0.00     0.002 C 
ENDROOT
BRANCH   1   2
ATOM      2  C   UNL     1      -0.189   1.107   5.364  1.00  0.00     0.002 C 
BRANCH   2   3
ATOM      3  C   UNL     1      -0.019   0.277   4.090  1.00  0.00     0.021 C 
BRANCH   3   4
ATOM      4  C   UNL     1      -0.942   0.703   2.954  1.00  0.00     0.116 C 
BRANCH   4   5
ATOM      5  N   UNL     1      -0.504   1.956   2.368  1.00  0.00    -0.356 N 
ATOM      6  C   UNL     1      -0.036   2.238   1.124  1.00  0.00     0.225 C 
ATOM      7  O   UNL     1       0.341   3.392   0.902  1.00  0.00    -0.275 OA
ATOM      8  H   UNL     1      -0.553   2.732   2.973  1.00  0.00     0.163 HD
BRANCH   6   9
ATOM      9  C   UNL     1       0.011   1.196   0.018  1.00  0.00     0.102 C 
ATOM     10  C   UNL     1       2.114  -0.006  -0.660  1.00  0.00     0.032 C 
ATOM     11  C   UNL     1       0.947   0.012   0.329  1.00  0.00     0.094 C 
ATOM     12  N   UNL     1       0.093  -1.174   0.221  1.00  0.00    -0.335 N 
ATOM     13  C   UNL     1      -1.366   0.615  -0.314  1.00  0.00     0.037 C 
ATOM     14  C   UNL     1      -1.151  -0.878  -0.461  1.00  0.00     0.121 C 
BRANCH  12  15
ATOM     15  C   UNL     1       0.304  -2.444   0.732  1.00  0.00     0.254 C 
ATOM     16  O   UNL     1      -0.565  -3.309   0.773  1.00  0.00    -0.269 OA
BRANCH  15  17
ATOM     17  C   UNL     1       1.661  -2.821   1.161  1.00  0.00     0.040 A 
ATOM     18  C   UNL     1       2.484  -3.417   0.205  1.00  0.00     0.014 A 
ATOM     19  C   UNL     1       2.078  -2.698   2.488  1.00  0.00     0.022 A 
ATOM     20  C   UNL     1       3.769  -3.821   0.555  1.00  0.00     0.009 A 
ATOM     21  C   UNL     1       3.359  -3.147   2.862  1.00  0.00    -0.018 A 
ATOM     22  C   UNL     1       4.222  -3.687   1.875  1.00  0.00    -0.018 A 
ATOM     23  C   UNL     1       3.801  -3.106   4.196  1.00  0.00     0.009 A 
ATOM     24  C   UNL     1       5.507  -4.118   2.235  1.00  0.00     0.009 A 
ATOM     25  C   UNL     1       5.068  -3.582   4.545  1.00  0.00     0.001 A 
ATOM     26  C   UNL     1       5.925  -4.073   3.564  1.00  0.00     0.001 A 
ENDBRANCH  15  17
ENDBRANCH  12  15
ENDBRANCH   6   9
ENDBRANCH   4   5
ENDBRANCH   3   4
ENDBRANCH   2   3
ENDBRANCH   1   2
BRANCH   1  27
ATOM     27  C   UNL     1      -2.182  -0.310   6.199  1.00  0.00     0.021 C 
BRANCH  27  28
ATOM     28  C   UNL     1      -1.333  -1.196   7.105  1.00  0.00     0.116 C 
BRANCH  28  29
ATOM     29  N   UNL     1      -1.171  -0.614   8.427  1.00  0.00    -0.352 N 
ATOM     30  C   UNL     1      -1.514  -1.130   9.653  1.00  0.00     0.251 C 
ATOM     31  H   UNL     1      -0.756   0.278   8.447  1.00  0.00     0.163 HD
ATOM     32  O   UNL     1      -1.526  -0.400  10.637  1.00  0.00    -0.269 OA
BRANCH  30  33
ATOM     33  C   UNL     1      -1.882  -2.558   9.769  1.00  0.00     0.039 A 
ATOM     34  C   UNL     1      -2.986  -2.909  10.548  1.00  0.00     0.014 A 
ATOM     35  C   UNL     1      -1.138  -3.545   9.116  1.00  0.00     0.014 A 
ATOM     36  C   UNL     1      -3.378  -4.247  10.624  1.00  0.00     0.010 A 
ATOM     37  C   UNL     1      -1.577  -4.866   9.130  1.00  0.00     0.010 A 
ATOM     38  C   UNL     1      -2.700  -5.232   9.887  1.00  0.00    -0.014 A 
BRANCH  38  39
ATOM     39  C   UNL     1      -3.151  -6.649   9.901  1.00  0.00     0.031 A 
ATOM     40  C   UNL     1      -2.255  -7.723  10.453  1.00  0.00     0.074 A 
ATOM     41  C   UNL     1      -4.348  -6.971   9.371  1.00  0.00     0.049 A 
ATOM     42  N   UNL     1      -2.446  -9.017  10.501  1.00  0.00    -0.248 NA
ATOM     43  C   UNL     1      -0.961  -7.287  10.999  1.00  0.00     0.031 C 
ATOM     44  C   UNL     1      -5.290  -6.020   8.775  1.00  0.00     0.029 A 
ATOM     45  N   UNL     1      -4.978  -8.183   9.243  1.00  0.00    -0.354 N 
ATOM     46  C   UNL     1      -1.296  -9.550  11.075  1.00  0.00     0.074 A 
ATOM     47  C   UNL     1      -0.388  -8.444  11.293  1.00  0.00     0.031 C 
ATOM     48  C   UNL     1      -6.388  -6.680   8.376  1.00  0.00     0.029 A 
ATOM     49  C   UNL     1      -6.210  -8.105   8.634  1.00  0.00     0.049 A 
ATOM     50  H   UNL     1      -4.586  -9.029   9.558  1.00  0.00     0.167 HD
ATOM     51  C   UNL     1      -1.033 -10.838  11.410  1.00  0.00     0.034 A 
ATOM     52  C   UNL     1      -7.089  -9.073   8.306  1.00  0.00     0.034 A 
ATOM     53  C   UNL     1      -1.953 -11.927  11.184  1.00  0.00     0.049 A 
ATOM     54  C   UNL     1      -6.752 -10.505   8.642  1.00  0.00     0.074 A 
ATOM     55  C   UNL     1      -1.809 -13.260  11.527  1.00  0.00     0.029 A 
ATOM     56  N   UNL     1      -3.181 -11.815  10.544  1.00  0.00    -0.354 N 
ATOM     57  N   UNL     1      -5.682 -10.986   9.233  1.00  0.00    -0.248 NA
ATOM     58  C   UNL     1      -7.745 -11.522   8.274  1.00  0.00     0.031 C 
ATOM     59  C   UNL     1      -2.908 -13.964  11.024  1.00  0.00     0.029 A 
ATOM     60  C   UNL     1      -3.785 -13.060  10.447  1.00  0.00     0.049 A 
ATOM     61  H   UNL     1      -3.567 -10.973  10.208  1.00  0.00     0.167 HD
ATOM     62  C   UNL     1      -5.891 -12.359   9.335  1.00  0.00     0.074 A 
ATOM     63  C   UNL     1      -7.194 -12.623   8.761  1.00  0.00     0.031 C 
ATOM     64  C   UNL     1      -5.080 -13.314   9.859  1.00  0.00     0.034 A 
BRANCH  51  65
ATOM     65  C   UNL     1       0.314 -11.135  12.028  1.00  0.00     0.023 A 
ATOM     66  C   UNL     1       0.709 -10.564  13.251  1.00  0.00     0.031 A 
ATOM     67  C   UNL     1       1.229 -11.979  11.374  1.00  0.00     0.131 A 
ATOM     68  C   UNL     1       2.006 -10.777  13.739  1.00  0.00     0.055 A 
ATOM     69  C   UNL     1       2.487 -12.261  11.911  1.00  0.00     0.041 A 
ATOM     70  F   UNL     1       0.921 -12.537  10.192  1.00  0.00    -0.206 F 
ATOM     71  C   UNL     1       2.889 -11.645  13.092  1.00  0.00     0.022 A 
BRANCH  68  72
ATOM     72  S   UNL     1       2.578  -9.781  15.143  1.00  0.00     0.124 S 
ATOM     73  O   UNL     1       2.403  -8.423  14.631  1.00  0.00    -0.237 OA
ATOM     74  O   UNL     1       1.667 -10.184  16.208  1.00  0.00    -0.237 OA
ATOM     75  O   UNL     1       3.967 -10.198  15.317  1.00  0.00    -0.744 OA
ENDBRANCH  68  72
ENDBRANCH  51  65
BRANCH  52  76
ATOM     76  C   UNL     1      -8.364  -8.733   7.609  1.00  0.00     0.023 A 
ATOM     77  C   UNL     1      -9.607  -8.984   8.212  1.00  0.00     0.031 A 
ATOM     78  C   UNL     1      -8.359  -8.194   6.310  1.00  0.00     0.131 A 
ATOM     79  C   UNL     1     -10.792  -8.744   7.498  1.00  0.00     0.055 A 
ATOM     80  C   UNL     1      -9.541  -7.900   5.628  1.00  0.00     0.041 A 
ATOM     81  F   UNL     1      -7.199  -7.934   5.686  1.00  0.00    -0.206 F 
ATOM     82  C   UNL     1     -10.768  -8.188   6.217  1.00  0.00     0.022 A 
BRANCH  79  83
ATOM     83  S   UNL     1     -12.368  -9.259   8.234  1.00  0.00     0.124 S 
ATOM     84  O   UNL     1     -12.148 -10.687   8.435  1.00  0.00    -0.237 OA
ATOM     85  O   UNL     1     -12.421  -8.441   9.441  1.00  0.00    -0.237 OA
ATOM     86  O   UNL     1     -13.350  -8.916   7.208  1.00  0.00    -0.744 OA
ENDBRANCH  79  83
ENDBRANCH  52  76
BRANCH  64  87
ATOM     87  C   UNL     1      -5.606 -14.731   9.873  1.00  0.00     0.023 A 
ATOM     88  C   UNL     1      -5.849 -15.445   8.687  1.00  0.00     0.031 A 
ATOM     89  C   UNL     1      -5.876 -15.372  11.096  1.00  0.00     0.131 A 
ATOM     90  C   UNL     1      -6.403 -16.733   8.747  1.00  0.00     0.055 A 
ATOM     91  C   UNL     1      -6.361 -16.679  11.151  1.00  0.00     0.041 A 
ATOM     92  F   UNL     1      -5.668 -14.738  12.261  1.00  0.00    -0.206 F 
ATOM     93  C   UNL     1      -6.641 -17.362   9.971  1.00  0.00     0.022 A 
BRANCH  90  94
ATOM     94  S   UNL     1      -6.906 -17.538   7.201  1.00  0.00     0.124 S 
ATOM     95  O   UNL     1      -7.864 -16.579   6.658  1.00  0.00    -0.237 OA
ATOM     96  O   UNL     1      -5.642 -17.653   6.482  1.00  0.00    -0.237 OA
ATOM     97  O   UNL     1      -7.483 -18.805   7.646  1.00  0.00    -0.744 OA
ENDBRANCH  90  94
ENDBRANCH  64  87
ENDBRANCH  38  39
ENDBRANCH  30  33
ENDBRANCH  28  29
ENDBRANCH  27  28
ENDBRANCH   1  27
TORSDOF 18
