REMARK SMILES COc1ccccc1[C@@H]1C[N@@H+](Cc2cn3cc(C)ccc3n2)C[C@H]1C(=O)NCCCCCCNC(=O)c1ccc(-c2c3nc(c(-c4cc(S(=O)(=O)[O-])ccc4F)c4ccc([nH]4)c(-c4cc(S(=O)(=O)[O-])ccc4F)c4nc(c(-c5cc(S(=O)(=O)[O-])ccc5F)c5ccc2[nH]5)C=C4)C=C3)cc1
REMARK SMILES IDX 31 1 30 2 29 3 28 4 27 5 25 6 26 7 24 9 9 10 10 11 11 12
REMARK SMILES IDX 23 13 8 15 3 16 4 17 5 18 7 19 6 20 2 21 1 22 12 23 13 24
REMARK SMILES IDX 14 25 22 26 15 27 21 28 16 29 20 30 17 31 19 32 18 33 32 34
REMARK SMILES IDX 33 35 34 36 35 37 36 39 37 40 38 41 99 42 39 43 98 44 40 45
REMARK SMILES IDX 41 46 42 47 92 48 43 49 97 50 91 51 93 52 44 53 96 54 90 55
REMARK SMILES IDX 89 56 45 58 77 59 57 60 76 61 58 62 61 63 75 64 94 65 59 66
REMARK SMILES IDX 60 67 74 69 95 70 62 71 46 72 47 73 55 74 48 75 54 76 56 77
REMARK SMILES IDX 53 78 49 79 50 80 51 81 52 82 78 83 79 84 87 85 80 86 86 87
REMARK SMILES IDX 88 88 85 89 81 90 82 91 83 92 84 93 63 94 64 95 72 96 65 97
REMARK SMILES IDX 71 98 73 99 70 100 66 101 67 102 68 103 69 104
REMARK H PARENT 27 8 11 14 34 38 93 57 61 68
REMARK Flexibility Score: inf
ROOT
ATOM      1  C   UNL     1       8.430  -2.431   4.585  1.00  0.00     0.002 C 
ENDROOT
BRANCH   1   2
ATOM      2  C   UNL     1       7.180  -1.629   4.942  1.00  0.00     0.002 C 
BRANCH   2   3
ATOM      3  C   UNL     1       6.391  -1.039   3.780  1.00  0.00     0.021 C 
BRANCH   3   4
ATOM      4  C   UNL     1       5.370  -1.902   3.016  1.00  0.00     0.116 C 
BRANCH   4   5
ATOM      5  N   UNL     1       3.976  -1.570   3.377  1.00  0.00    -0.356 N 
ATOM      6  C   UNL     1       2.939  -0.857   2.850  1.00  0.00     0.229 C 
ATOM      7  O   UNL     1       2.065  -0.577   3.691  1.00  0.00    -0.275 OA
ATOM      8  H   UNL     1       3.727  -1.976   4.239  1.00  0.00     0.163 HD
BRANCH   6   9
ATOM      9  C   UNL     1       2.640  -0.482   1.378  1.00  0.00     0.146 C 
ATOM     10  C   UNL     1       2.477   1.036   1.059  1.00  0.00     0.096 C 
ATOM     11  C   UNL     1       2.997   1.196  -0.378  1.00  0.00     0.272 C 
ATOM     12  N   UNL     1       4.037   0.164  -0.536  1.00  0.00    -0.329 N 
ATOM     13  C   UNL     1       3.559  -0.982   0.261  1.00  0.00     0.276 C 
ATOM     14  H   UNL     1       4.151  -0.104  -1.514  1.00  0.00     0.348 HD
BRANCH  10  15
ATOM     15  C   UNL     1       1.320   1.936   1.464  1.00  0.00     0.004 A 
ATOM     16  C   UNL     1       0.054   2.042   0.882  1.00  0.00     0.122 A 
ATOM     17  C   UNL     1      -0.836   3.053   1.306  1.00  0.00     0.047 A 
ATOM     18  C   UNL     1      -0.482   3.987   2.282  1.00  0.00     0.004 A 
ATOM     19  C   UNL     1       1.645   2.918   2.446  1.00  0.00     0.008 A 
ATOM     20  C   UNL     1       0.777   3.930   2.843  1.00  0.00     0.001 A 
BRANCH  16  21
ATOM     21  O   UNL     1      -0.373   1.370  -0.230  1.00  0.00    -0.496 OA
ATOM     22  C   UNL     1      -0.412  -0.040  -0.097  1.00  0.00     0.278 C 
ENDBRANCH  16  21
ENDBRANCH  10  15
BRANCH  12  23
ATOM     23  C   UNL     1       5.430   0.620  -0.255  1.00  0.00     0.321 C 
BRANCH  23  24
ATOM     24  C   UNL     1       5.656   1.384   1.026  1.00  0.00     0.114 A 
ATOM     25  C   UNL     1       6.338   2.559   1.311  1.00  0.00     0.122 A 
ATOM     26  N   UNL     1       5.122   0.900   2.184  1.00  0.00    -0.228 NA
ATOM     27  N   UNL     1       6.109   2.824   2.653  1.00  0.00    -0.306 N 
ATOM     28  C   UNL     1       5.247   1.840   3.087  1.00  0.00     0.137 A 
ATOM     29  C   UNL     1       6.626   3.781   3.525  1.00  0.00     0.096 A 
ATOM     30  C   UNL     1       4.711   1.933   4.399  1.00  0.00     0.048 A 
ATOM     31  C   UNL     1       6.276   3.744   4.833  1.00  0.00    -0.034 A 
ATOM     32  C   UNL     1       5.220   2.831   5.251  1.00  0.00     0.009 A 
ATOM     33  C   UNL     1       6.914   4.522   5.937  1.00  0.00     0.046 C 
ENDBRANCH  23  24
ENDBRANCH  12  23
ENDBRANCH   6   9
ENDBRANCH   4   5
ENDBRANCH   3   4
ENDBRANCH   2   3
ENDBRANCH   1   2
BRANCH   1  34
ATOM     34  C   UNL     1       9.444  -1.770   3.636  1.00  0.00     0.021 C 
BRANCH  34  35
ATOM     35  C   UNL     1       9.906  -0.367   4.026  1.00  0.00     0.116 C 
BRANCH  35  36
ATOM     36  N   UNL     1      10.690  -0.349   5.252  1.00  0.00    -0.352 N 
ATOM     37  C   UNL     1      11.543   0.631   5.719  1.00  0.00     0.251 C 
ATOM     38  H   UNL     1      10.599  -1.144   5.826  1.00  0.00     0.163 HD
ATOM     39  O   UNL     1      12.356   0.357   6.589  1.00  0.00    -0.269 OA
BRANCH  37  40
ATOM     40  C   UNL     1      11.467   2.009   5.175  1.00  0.00     0.039 A 
ATOM     41  C   UNL     1      12.627   2.784   5.052  1.00  0.00     0.014 A 
ATOM     42  C   UNL     1      10.231   2.561   4.849  1.00  0.00     0.014 A 
ATOM     43  C   UNL     1      12.539   4.092   4.566  1.00  0.00     0.010 A 
ATOM     44  C   UNL     1      10.163   3.825   4.298  1.00  0.00     0.010 A 
ATOM     45  C   UNL     1      11.296   4.613   4.189  1.00  0.00    -0.014 A 
BRANCH  45  46
ATOM     46  C   UNL     1      11.180   5.910   3.524  1.00  0.00     0.031 A 
ATOM     47  C   UNL     1      11.958   6.013   2.270  1.00  0.00     0.074 A 
ATOM     48  C   UNL     1      10.323   6.904   3.845  1.00  0.00     0.049 A 
ATOM     49  N   UNL     1      13.071   6.643   2.117  1.00  0.00    -0.248 NA
ATOM     50  C   UNL     1      11.554   5.219   1.103  1.00  0.00     0.031 C 
ATOM     51  C   UNL     1       9.285   6.918   4.871  1.00  0.00     0.029 A 
ATOM     52  N   UNL     1      10.158   8.116   3.241  1.00  0.00    -0.354 N 
ATOM     53  C   UNL     1      13.393   6.537   0.772  1.00  0.00     0.074 A 
ATOM     54  C   UNL     1      12.546   5.495   0.252  1.00  0.00     0.031 C 
ATOM     55  C   UNL     1       8.453   7.968   4.674  1.00  0.00     0.029 A 
ATOM     56  C   UNL     1       9.017   8.811   3.633  1.00  0.00     0.049 A 
ATOM     57  H   UNL     1      10.795   8.471   2.580  1.00  0.00     0.167 HD
ATOM     58  C   UNL     1      14.174   7.478   0.172  1.00  0.00     0.034 A 
ATOM     59  C   UNL     1       8.575  10.010   3.167  1.00  0.00     0.034 A 
ATOM     60  C   UNL     1      14.808   8.329   1.161  1.00  0.00     0.049 A 
ATOM     61  C   UNL     1       9.763  10.725   2.640  1.00  0.00     0.074 A 
ATOM     62  C   UNL     1      15.633   8.100   2.247  1.00  0.00     0.029 A 
ATOM     63  N   UNL     1      14.291   9.592   1.358  1.00  0.00    -0.354 N 
ATOM     64  N   UNL     1      10.744  11.129   3.401  1.00  0.00    -0.248 NA
ATOM     65  C   UNL     1      10.100  10.569   1.234  1.00  0.00     0.031 C 
ATOM     66  C   UNL     1      15.157   8.985   3.261  1.00  0.00     0.029 A 
ATOM     67  C   UNL     1      14.136   9.764   2.713  1.00  0.00     0.049 A 
ATOM     68  H   UNL     1      14.075  10.250   0.658  1.00  0.00     0.167 HD
ATOM     69  C   UNL     1      11.894  10.836   2.687  1.00  0.00     0.074 A 
ATOM     70  C   UNL     1      11.434  10.598   1.319  1.00  0.00     0.031 C 
ATOM     71  C   UNL     1      13.069  10.540   3.321  1.00  0.00     0.034 A 
BRANCH  58  72
ATOM     72  C   UNL     1      14.105   7.877  -1.284  1.00  0.00     0.023 A 
ATOM     73  C   UNL     1      15.008   8.867  -1.715  1.00  0.00     0.031 A 
ATOM     74  C   UNL     1      13.054   7.574  -2.177  1.00  0.00     0.131 A 
ATOM     75  C   UNL     1      14.785   9.584  -2.901  1.00  0.00     0.055 A 
ATOM     76  C   UNL     1      12.879   8.238  -3.395  1.00  0.00     0.041 A 
ATOM     77  F   UNL     1      12.088   6.695  -1.889  1.00  0.00    -0.206 F 
ATOM     78  C   UNL     1      13.725   9.276  -3.747  1.00  0.00     0.022 A 
BRANCH  75  79
ATOM     79  S   UNL     1      15.795  11.054  -3.210  1.00  0.00     0.124 S 
ATOM     80  O   UNL     1      15.573  11.820  -1.988  1.00  0.00    -0.237 OA
ATOM     81  O   UNL     1      17.124  10.476  -3.377  1.00  0.00    -0.237 OA
ATOM     82  O   UNL     1      15.204  11.621  -4.419  1.00  0.00    -0.744 OA
ENDBRANCH  75  79
ENDBRANCH  58  72
BRANCH  59  83
ATOM     83  C   UNL     1       7.172  10.431   2.911  1.00  0.00     0.023 A 
ATOM     84  C   UNL     1       6.789  11.781   2.757  1.00  0.00     0.031 A 
ATOM     85  C   UNL     1       6.213   9.456   2.553  1.00  0.00     0.131 A 
ATOM     86  C   UNL     1       5.506  12.107   2.254  1.00  0.00     0.055 A 
ATOM     87  C   UNL     1       4.949   9.783   2.057  1.00  0.00     0.041 A 
ATOM     88  F   UNL     1       6.510   8.147   2.587  1.00  0.00    -0.206 F 
ATOM     89  C   UNL     1       4.594  11.112   1.894  1.00  0.00     0.022 A 
BRANCH  86  90
ATOM     90  S   UNL     1       5.040  13.845   1.957  1.00  0.00     0.124 S 
ATOM     91  O   UNL     1       4.908  14.367   3.312  1.00  0.00    -0.237 OA
ATOM     92  O   UNL     1       6.165  14.343   1.174  1.00  0.00    -0.237 OA
ATOM     93  O   UNL     1       3.782  13.739   1.215  1.00  0.00    -0.744 OA
ENDBRANCH  86  90
ENDBRANCH  59  83
BRANCH  71  94
ATOM     94  C   UNL     1      13.193  10.847   4.803  1.00  0.00     0.023 A 
ATOM     95  C   UNL     1      12.306  10.390   5.806  1.00  0.00     0.031 A 
ATOM     96  C   UNL     1      14.331  11.559   5.223  1.00  0.00     0.131 A 
ATOM     97  C   UNL     1      12.566  10.670   7.163  1.00  0.00     0.055 A 
ATOM     98  C   UNL     1      14.599  11.813   6.568  1.00  0.00     0.041 A 
ATOM     99  F   UNL     1      15.228  12.002   4.326  1.00  0.00    -0.206 F 
ATOM    100  C   UNL     1      13.711  11.377   7.544  1.00  0.00     0.022 A 
BRANCH  97 101
ATOM    101  S   UNL     1      11.399  10.149   8.462  1.00  0.00     0.124 S 
ATOM    102  O   UNL     1      10.093  10.497   7.914  1.00  0.00    -0.237 OA
ATOM    103  O   UNL     1      11.678   8.720   8.581  1.00  0.00    -0.237 OA
ATOM    104  O   UNL     1      11.806  10.945   9.621  1.00  0.00    -0.744 OA
ENDBRANCH  97 101
ENDBRANCH  71  94
ENDBRANCH  45  46
ENDBRANCH  37  40
ENDBRANCH  35  36
ENDBRANCH  34  35
ENDBRANCH   1  34
TORSDOF 20
