REMARK SMILES COc1cc2c(cc1OC)-c1c(c(C(=O)Nc3ccc(C(=O)NCCCCCCNC(=O)c4ccc(-c5c6nc(c(-c7cc(S(=O)(=O)[O-])ccc7F)c7ccc([nH]7)c(-c7cc(S(=O)(=O)[O-])ccc7F)c7nc(c(-c8cc(S(=O)(=O)[O-])ccc8F)c8ccc5[nH]8)C=C7)C=C6)cc4)cc3)nn1-c1ccc(F)cc1)C2
REMARK SMILES IDX 26 1 25 2 24 3 23 4 21 5 22 6 20 8 17 9 18 10 97 11 19 12
REMARK SMILES IDX 96 13 16 14 14 15 15 16 13 18 3 19 4 20 8 21 5 22 7 23 6 24
REMARK SMILES IDX 107 25 11 26 12 27 99 28 98 29 2 30 1 31 9 32 10 33 100 34
REMARK SMILES IDX 101 35 106 36 102 37 105 38 103 39 104 40 27 41 28 42 29 43
REMARK SMILES IDX 30 44 31 45 32 47 33 48 34 49 95 50 35 51 94 52 36 53 37 54
REMARK SMILES IDX 38 55 88 56 39 57 93 58 87 59 89 60 40 61 92 62 86 63 85 64
REMARK SMILES IDX 41 66 73 67 53 68 72 69 54 70 57 71 71 72 90 73 55 74 56 75
REMARK SMILES IDX 70 77 91 78 58 79 42 80 43 81 51 82 44 83 50 84 52 85 49 86
REMARK SMILES IDX 45 87 46 88 47 89 48 90 74 91 75 92 83 93 76 94 82 95 84 96
REMARK SMILES IDX 81 97 77 98 78 99 79 100 80 101 59 102 60 103 68 104 61 105
REMARK SMILES IDX 67 106 69 107 66 108 62 109 63 110 64 111 65 112
REMARK H PARENT 23 7 16 17 30 46 89 65 57 76
REMARK Flexibility Score: inf
ROOT
ATOM      1  C   UNL     1      -4.743  -6.282  -1.829  1.00  0.00     0.002 C 
ENDROOT
BRANCH   1   2
ATOM      2  C   UNL     1      -4.077  -6.137  -3.196  1.00  0.00     0.021 C 
BRANCH   2   3
ATOM      3  C   UNL     1      -4.527  -4.980  -4.085  1.00  0.00     0.116 C 
BRANCH   3   4
ATOM      4  N   UNL     1      -4.265  -3.653  -3.561  1.00  0.00    -0.352 N 
ATOM      5  C   UNL     1      -4.090  -2.434  -4.186  1.00  0.00     0.251 C 
ATOM      6  O   UNL     1      -3.961  -1.446  -3.461  1.00  0.00    -0.269 OA
ATOM      7  H   UNL     1      -4.201  -3.614  -2.580  1.00  0.00     0.163 HD
BRANCH   5   8
ATOM      8  C   UNL     1      -3.864  -2.276  -5.662  1.00  0.00     0.039 A 
ATOM      9  C   UNL     1      -2.343  -2.349  -7.987  1.00  0.00     0.041 A 
ATOM     10  C   UNL     1      -2.359  -1.186  -7.233  1.00  0.00     0.027 A 
ATOM     11  C   UNL     1      -3.340  -3.303  -7.781  1.00  0.00     0.027 A 
ATOM     12  C   UNL     1      -3.139  -1.144  -6.070  1.00  0.00     0.016 A 
ATOM     13  C   UNL     1      -4.114  -3.255  -6.618  1.00  0.00     0.016 A 
BRANCH   9  14
ATOM     14  N   UNL     1      -1.375  -2.619  -8.949  1.00  0.00    -0.321 N 
ATOM     15  C   UNL     1      -0.033  -2.306  -9.046  1.00  0.00     0.276 C 
ATOM     16  O   UNL     1       0.441  -2.444 -10.182  1.00  0.00    -0.267 OA
ATOM     17  H   UNL     1      -1.715  -3.137  -9.715  1.00  0.00     0.170 HD
BRANCH  15  18
ATOM     18  C   UNL     1       0.856  -1.988  -7.883  1.00  0.00     0.155 A 
ATOM     19  C   UNL     1       1.304  -1.429  -1.881  1.00  0.00     0.161 A 
ATOM     20  C   UNL     1       0.353  -1.925  -2.800  1.00  0.00     0.055 A 
ATOM     21  C   UNL     1       2.577  -1.006  -2.321  1.00  0.00     0.161 A 
ATOM     22  C   UNL     1       0.698  -2.017  -4.146  1.00  0.00    -0.030 A 
ATOM     23  C   UNL     1       2.886  -1.071  -3.685  1.00  0.00     0.061 A 
ATOM     24  C   UNL     1       1.970  -1.604  -4.562  1.00  0.00     0.008 A 
ATOM     25  C   UNL     1      -0.201  -2.417  -5.332  1.00  0.00     0.076 C 
ATOM     26  C   UNL     1       1.967  -1.743  -5.979  1.00  0.00     0.079 A 
ATOM     27  C   UNL     1       0.737  -2.101  -6.463  1.00  0.00     0.016 A 
ATOM     28  N   UNL     1       2.810  -1.550  -7.014  1.00  0.00    -0.232 N 
ATOM     29  N   UNL     1       2.119  -1.540  -8.179  1.00  0.00    -0.162 NA
BRANCH  19  30
ATOM     30  O   UNL     1       0.978  -1.533  -0.554  1.00  0.00    -0.493 OA
ATOM     31  C   UNL     1       0.427  -0.332  -0.013  1.00  0.00     0.278 C 
ENDBRANCH  19  30
BRANCH  21  32
ATOM     32  O   UNL     1       3.650  -0.543  -1.612  1.00  0.00    -0.493 OA
ATOM     33  C   UNL     1       3.534  -0.253  -0.236  1.00  0.00     0.278 C 
ENDBRANCH  21  32
BRANCH  28  34
ATOM     34  C   UNL     1       4.207  -1.353  -6.933  1.00  0.00     0.065 A 
ATOM     35  C   UNL     1       4.816  -0.360  -7.703  1.00  0.00     0.031 A 
ATOM     36  C   UNL     1       4.953  -2.086  -5.992  1.00  0.00     0.031 A 
ATOM     37  C   UNL     1       6.147  -0.024  -7.439  1.00  0.00     0.041 A 
ATOM     38  C   UNL     1       6.286  -1.760  -5.754  1.00  0.00     0.041 A 
ATOM     39  C   UNL     1       6.862  -0.714  -6.461  1.00  0.00     0.123 A 
ATOM     40  F   UNL     1       8.123  -0.355  -6.187  1.00  0.00    -0.207 F 
ENDBRANCH  28  34
ENDBRANCH  15  18
ENDBRANCH   9  14
ENDBRANCH   5   8
ENDBRANCH   3   4
ENDBRANCH   2   3
ENDBRANCH   1   2
BRANCH   1  41
ATOM     41  C   UNL     1      -6.271  -6.323  -1.807  1.00  0.00     0.002 C 
BRANCH  41  42
ATOM     42  C   UNL     1      -6.949  -7.324  -2.750  1.00  0.00     0.021 C 
BRANCH  42  43
ATOM     43  C   UNL     1      -6.460  -8.770  -2.653  1.00  0.00     0.116 C 
BRANCH  43  44
ATOM     44  N   UNL     1      -6.594  -9.368  -1.343  1.00  0.00    -0.352 N 
ATOM     45  C   UNL     1      -7.585 -10.057  -0.697  1.00  0.00     0.251 C 
ATOM     46  H   UNL     1      -5.789  -9.253  -0.789  1.00  0.00     0.163 HD
ATOM     47  O   UNL     1      -7.257 -10.595   0.364  1.00  0.00    -0.269 OA
BRANCH  45  48
ATOM     48  C   UNL     1      -9.007 -10.127  -1.133  1.00  0.00     0.039 A 
ATOM     49  C   UNL     1      -9.509  -9.629  -2.332  1.00  0.00     0.014 A 
ATOM     50  C   UNL     1      -9.914 -10.676  -0.203  1.00  0.00     0.014 A 
ATOM     51  C   UNL     1     -10.882  -9.555  -2.538  1.00  0.00     0.010 A 
ATOM     52  C   UNL     1     -11.289 -10.634  -0.418  1.00  0.00     0.010 A 
ATOM     53  C   UNL     1     -11.774 -10.019  -1.564  1.00  0.00    -0.014 A 
BRANCH  53  54
ATOM     54  C   UNL     1     -13.200  -9.933  -1.871  1.00  0.00     0.031 A 
ATOM     55  C   UNL     1     -13.581 -10.653  -3.114  1.00  0.00     0.074 A 
ATOM     56  C   UNL     1     -14.118  -9.301  -1.111  1.00  0.00     0.049 A 
ATOM     57  N   UNL     1     -13.906 -10.135  -4.252  1.00  0.00    -0.248 NA
ATOM     58  C   UNL     1     -13.394 -12.110  -3.151  1.00  0.00     0.031 C 
ATOM     59  C   UNL     1     -13.954  -8.806   0.259  1.00  0.00     0.029 A 
ATOM     60  N   UNL     1     -15.433  -9.041  -1.376  1.00  0.00    -0.354 N 
ATOM     61  C   UNL     1     -14.187 -11.210  -5.093  1.00  0.00     0.074 A 
ATOM     62  C   UNL     1     -13.678 -12.381  -4.426  1.00  0.00     0.031 C 
ATOM     63  C   UNL     1     -15.170  -8.527   0.782  1.00  0.00     0.029 A 
ATOM     64  C   UNL     1     -16.171  -8.660  -0.263  1.00  0.00     0.049 A 
ATOM     65  H   UNL     1     -15.823  -9.117  -2.276  1.00  0.00     0.167 HD
ATOM     66  C   UNL     1     -15.035 -11.071  -6.151  1.00  0.00     0.034 A 
ATOM     67  C   UNL     1     -17.515  -8.501  -0.186  1.00  0.00     0.034 A 
ATOM     68  C   UNL     1     -15.313  -9.683  -6.401  1.00  0.00     0.049 A 
ATOM     69  C   UNL     1     -18.046  -8.283  -1.546  1.00  0.00     0.074 A 
ATOM     70  C   UNL     1     -14.675  -8.627  -7.008  1.00  0.00     0.029 A 
ATOM     71  N   UNL     1     -16.316  -9.171  -5.620  1.00  0.00    -0.354 N 
ATOM     72  N   UNL     1     -17.829  -7.202  -2.239  1.00  0.00    -0.248 NA
ATOM     73  C   UNL     1     -18.562  -9.418  -2.304  1.00  0.00     0.031 C 
ATOM     74  C   UNL     1     -15.211  -7.450  -6.412  1.00  0.00     0.029 A 
ATOM     75  C   UNL     1     -16.193  -7.814  -5.490  1.00  0.00     0.049 A 
ATOM     76  H   UNL     1     -17.031  -9.707  -5.208  1.00  0.00     0.167 HD
ATOM     77  C   UNL     1     -17.720  -7.657  -3.536  1.00  0.00     0.074 A 
ATOM     78  C   UNL     1     -18.375  -8.959  -3.544  1.00  0.00     0.031 C 
ATOM     79  C   UNL     1     -16.826  -7.096  -4.399  1.00  0.00     0.034 A 
BRANCH  66  80
ATOM     80  C   UNL     1     -15.963 -12.156  -6.659  1.00  0.00     0.023 A 
ATOM     81  C   UNL     1     -16.164 -13.371  -5.983  1.00  0.00     0.031 A 
ATOM     82  C   UNL     1     -16.870 -11.884  -7.708  1.00  0.00     0.131 A 
ATOM     83  C   UNL     1     -17.201 -14.248  -6.330  1.00  0.00     0.055 A 
ATOM     84  C   UNL     1     -17.945 -12.729  -8.016  1.00  0.00     0.041 A 
ATOM     85  F   UNL     1     -16.776 -10.756  -8.430  1.00  0.00    -0.206 F 
ATOM     86  C   UNL     1     -18.118 -13.919  -7.321  1.00  0.00     0.022 A 
BRANCH  83  87
ATOM     87  S   UNL     1     -17.383 -15.831  -5.463  1.00  0.00     0.124 S 
ATOM     88  O   UNL     1     -18.736 -15.731  -4.929  1.00  0.00    -0.237 OA
ATOM     89  O   UNL     1     -17.201 -16.785  -6.555  1.00  0.00    -0.237 OA
ATOM     90  O   UNL     1     -16.305 -15.806  -4.478  1.00  0.00    -0.744 OA
ENDBRANCH  83  87
ENDBRANCH  66  80
BRANCH  67  91
ATOM     91  C   UNL     1     -18.402  -8.917   0.923  1.00  0.00     0.023 A 
ATOM     92  C   UNL     1     -18.061 -10.056   1.672  1.00  0.00     0.031 A 
ATOM     93  C   UNL     1     -19.721  -8.440   1.029  1.00  0.00     0.131 A 
ATOM     94  C   UNL     1     -19.031 -10.724   2.427  1.00  0.00     0.055 A 
ATOM     95  C   UNL     1     -20.684  -9.094   1.806  1.00  0.00     0.041 A 
ATOM     96  F   UNL     1     -20.120  -7.376   0.315  1.00  0.00    -0.206 F 
ATOM     97  C   UNL     1     -20.345 -10.256   2.495  1.00  0.00     0.022 A 
BRANCH  94  98
ATOM     98  S   UNL     1     -18.635 -12.296   3.240  1.00  0.00     0.124 S 
ATOM     99  O   UNL     1     -19.109 -12.066   4.601  1.00  0.00    -0.237 OA
ATOM    100  O   UNL     1     -19.414 -13.242   2.451  1.00  0.00    -0.237 OA
ATOM    101  O   UNL     1     -17.182 -12.395   3.100  1.00  0.00    -0.744 OA
ENDBRANCH  94  98
ENDBRANCH  67  91
BRANCH  79 102
ATOM    102  C   UNL     1     -16.331  -5.706  -4.108  1.00  0.00     0.023 A 
ATOM    103  C   UNL     1     -16.486  -4.759  -5.134  1.00  0.00     0.031 A 
ATOM    104  C   UNL     1     -15.596  -5.325  -2.971  1.00  0.00     0.131 A 
ATOM    105  C   UNL     1     -15.875  -3.507  -5.039  1.00  0.00     0.055 A 
ATOM    106  C   UNL     1     -15.056  -4.041  -2.843  1.00  0.00     0.041 A 
ATOM    107  F   UNL     1     -15.319  -6.195  -1.990  1.00  0.00    -0.206 F 
ATOM    108  C   UNL     1     -15.177  -3.131  -3.889  1.00  0.00     0.022 A 
BRANCH 105 109
ATOM    109  S   UNL     1     -15.836  -2.410  -6.478  1.00  0.00     0.124 S 
ATOM    110  O   UNL     1     -16.632  -1.274  -6.022  1.00  0.00    -0.237 OA
ATOM    111  O   UNL     1     -14.405  -2.153  -6.631  1.00  0.00    -0.237 OA
ATOM    112  O   UNL     1     -16.434  -3.206  -7.546  1.00  0.00    -0.744 OA
ENDBRANCH 105 109
ENDBRANCH  79 102
ENDBRANCH  53  54
ENDBRANCH  45  48
ENDBRANCH  43  44
ENDBRANCH  42  43
ENDBRANCH  41  42
ENDBRANCH   1  41
TORSDOF 21
