REMARK SMILES CCCc1nn(-c2ccc(OC)cc2)c2sc(C(=O)NCCCCCCNC(=O)c3ccc(-c4c5nc(c(-c6cc(S(=O)(=O)[O-])ccc6F)c6ccc([nH]6)c(-c6cc(S(=O)(=O)[O-])ccc6F)c6nc(c(-c7cc(S(=O)(=O)[O-])ccc7F)c7ccc4[nH]7)C=C6)C=C5)cc3)cc12
REMARK SMILES IDX 24 1 23 2 22 3 21 4 20 5 18 6 19 7 17 9 4 10 5 11 94 12 6 13
REMARK SMILES IDX 15 14 93 15 16 16 3 17 2 18 1 19 7 20 8 21 14 22 9 23 13 24
REMARK SMILES IDX 10 25 11 26 12 27 25 28 26 29 27 30 28 31 29 33 30 34 31 35
REMARK SMILES IDX 92 36 32 37 91 38 33 39 34 40 35 41 85 42 36 43 90 44 84 45
REMARK SMILES IDX 86 46 37 47 89 48 83 49 82 50 38 52 70 53 50 54 69 55 51 56
REMARK SMILES IDX 54 57 68 58 87 59 52 60 53 61 67 63 88 64 55 65 39 66 40 67
REMARK SMILES IDX 48 68 41 69 47 70 49 71 46 72 42 73 43 74 44 75 45 76 71 77
REMARK SMILES IDX 72 78 80 79 73 80 79 81 81 82 78 83 74 84 75 85 76 86 77 87
REMARK SMILES IDX 56 88 57 89 65 90 58 91 64 92 66 93 63 94 59 95 60 96 61 97
REMARK SMILES IDX 62 98
REMARK H PARENT 20 8 27 32 86 51 54 62
REMARK Flexibility Score: inf
ROOT
ATOM      1  C   UNL     1      -1.435  -8.351   8.599  1.00  0.00     0.002 C 
ENDROOT
BRANCH   1   2
ATOM      2  C   UNL     1      -2.300  -8.164   7.340  1.00  0.00     0.002 C 
BRANCH   2   3
ATOM      3  C   UNL     1      -2.008  -6.909   6.509  1.00  0.00     0.021 C 
BRANCH   3   4
ATOM      4  C   UNL     1      -0.548  -6.800   6.055  1.00  0.00     0.116 C 
BRANCH   4   5
ATOM      5  N   UNL     1      -0.287  -7.568   4.841  1.00  0.00    -0.351 N 
ATOM      6  C   UNL     1      -0.087  -7.194   3.524  1.00  0.00     0.261 C 
ATOM      7  O   UNL     1       0.296  -8.085   2.761  1.00  0.00    -0.268 OA
ATOM      8  H   UNL     1      -0.244  -8.540   4.988  1.00  0.00     0.163 HD
BRANCH   6   9
ATOM      9  C   UNL     1      -0.242  -5.817   3.072  1.00  0.00     0.095 A 
ATOM     10  C   UNL     1       0.382  -2.636   1.324  1.00  0.00     0.072 A 
ATOM     11  N   UNL     1      -0.045  -1.570   2.057  1.00  0.00    -0.171 NA
ATOM     12  C   UNL     1       0.104  -3.819   2.013  1.00  0.00     0.035 A 
ATOM     13  N   UNL     1      -0.570  -2.123   3.189  1.00  0.00    -0.223 N 
ATOM     14  C   UNL     1      -0.591  -3.467   3.087  1.00  0.00     0.128 A 
ATOM     15  C   UNL     1       0.319  -5.198   1.933  1.00  0.00     0.038 A 
ATOM     16  S   UNL     1      -1.304  -4.713   3.890  1.00  0.00    -0.110 S 
BRANCH  10  17
ATOM     17  C   UNL     1       1.011  -2.454  -0.021  1.00  0.00     0.058 C 
BRANCH  17  18
ATOM     18  C   UNL     1       0.537  -1.221  -0.804  1.00  0.00     0.003 C 
ATOM     19  C   UNL     1       1.165   0.087  -0.336  1.00  0.00     0.004 C 
ENDBRANCH  17  18
ENDBRANCH  10  17
BRANCH  13  20
ATOM     20  C   UNL     1      -0.892  -1.416   4.359  1.00  0.00     0.066 A 
ATOM     21  C   UNL     1      -0.316  -1.836   5.569  1.00  0.00     0.032 A 
ATOM     22  C   UNL     1      -1.965  -0.532   4.344  1.00  0.00     0.032 A 
ATOM     23  C   UNL     1      -0.854  -1.403   6.775  1.00  0.00     0.048 A 
ATOM     24  C   UNL     1      -2.523  -0.136   5.566  1.00  0.00     0.048 A 
ATOM     25  C   UNL     1      -1.982  -0.581   6.780  1.00  0.00     0.119 A 
BRANCH  25  26
ATOM     26  O   UNL     1      -2.465  -0.307   8.030  1.00  0.00    -0.497 OA
ATOM     27  C   UNL     1      -3.694   0.404   8.096  1.00  0.00     0.278 C 
ENDBRANCH  25  26
ENDBRANCH  13  20
ENDBRANCH   6   9
ENDBRANCH   4   5
ENDBRANCH   3   4
ENDBRANCH   2   3
ENDBRANCH   1   2
BRANCH   1  28
ATOM     28  C   UNL     1      -1.360  -7.162   9.571  1.00  0.00     0.021 C 
BRANCH  28  29
ATOM     29  C   UNL     1      -2.670  -6.872  10.285  1.00  0.00     0.116 C 
BRANCH  29  30
ATOM     30  N   UNL     1      -3.078  -7.967  11.172  1.00  0.00    -0.352 N 
ATOM     31  C   UNL     1      -4.248  -8.128  11.901  1.00  0.00     0.251 C 
ATOM     32  H   UNL     1      -2.424  -8.697  11.264  1.00  0.00     0.163 HD
ATOM     33  O   UNL     1      -4.272  -8.871  12.867  1.00  0.00    -0.269 OA
BRANCH  31  34
ATOM     34  C   UNL     1      -5.455  -7.387  11.482  1.00  0.00     0.039 A 
ATOM     35  C   UNL     1      -6.435  -6.958  12.382  1.00  0.00     0.014 A 
ATOM     36  C   UNL     1      -5.589  -7.119  10.127  1.00  0.00     0.014 A 
ATOM     37  C   UNL     1      -7.513  -6.222  11.888  1.00  0.00     0.010 A 
ATOM     38  C   UNL     1      -6.470  -6.174   9.699  1.00  0.00     0.010 A 
ATOM     39  C   UNL     1      -7.512  -5.836  10.539  1.00  0.00    -0.014 A 
BRANCH  39  40
ATOM     40  C   UNL     1      -8.551  -5.021   9.940  1.00  0.00     0.031 A 
ATOM     41  C   UNL     1      -8.679  -3.682  10.542  1.00  0.00     0.074 A 
ATOM     42  C   UNL     1      -9.167  -5.344   8.781  1.00  0.00     0.049 A 
ATOM     43  N   UNL     1      -9.563  -3.315  11.403  1.00  0.00    -0.248 NA
ATOM     44  C   UNL     1      -7.603  -2.701  10.338  1.00  0.00     0.031 C 
ATOM     45  C   UNL     1      -8.919  -6.481   7.886  1.00  0.00     0.029 A 
ATOM     46  N   UNL     1     -10.102  -4.633   8.100  1.00  0.00    -0.354 N 
ATOM     47  C   UNL     1      -9.325  -1.970  11.639  1.00  0.00     0.074 A 
ATOM     48  C   UNL     1      -7.985  -1.731  11.174  1.00  0.00     0.031 C 
ATOM     49  C   UNL     1      -9.521  -6.260   6.695  1.00  0.00     0.029 A 
ATOM     50  C   UNL     1     -10.321  -5.050   6.791  1.00  0.00     0.049 A 
ATOM     51  H   UNL     1     -10.588  -3.878   8.503  1.00  0.00     0.167 HD
ATOM     52  C   UNL     1     -10.353  -1.132  11.949  1.00  0.00     0.034 A 
ATOM     53  C   UNL     1     -11.086  -4.422   5.856  1.00  0.00     0.034 A 
ATOM     54  C   UNL     1     -11.567  -1.889  12.199  1.00  0.00     0.049 A 
ATOM     55  C   UNL     1     -12.068  -3.599   6.615  1.00  0.00     0.074 A 
ATOM     56  C   UNL     1     -11.913  -2.896  13.082  1.00  0.00     0.029 A 
ATOM     57  N   UNL     1     -12.504  -1.950  11.187  1.00  0.00    -0.354 N 
ATOM     58  N   UNL     1     -12.979  -4.122   7.394  1.00  0.00    -0.248 NA
ATOM     59  C   UNL     1     -11.710  -2.223   6.933  1.00  0.00     0.031 C 
ATOM     60  C   UNL     1     -12.685  -3.811  12.305  1.00  0.00     0.029 A 
ATOM     61  C   UNL     1     -12.862  -3.268  11.030  1.00  0.00     0.049 A 
ATOM     62  H   UNL     1     -12.853  -1.187  10.671  1.00  0.00     0.167 HD
ATOM     63  C   UNL     1     -12.966  -3.340   8.540  1.00  0.00     0.074 A 
ATOM     64  C   UNL     1     -12.241  -2.127   8.158  1.00  0.00     0.031 C 
ATOM     65  C   UNL     1     -13.272  -3.862   9.768  1.00  0.00     0.034 A 
BRANCH  52  66
ATOM     66  C   UNL     1     -10.400   0.352  11.677  1.00  0.00     0.023 A 
ATOM     67  C   UNL     1     -11.562   1.028  12.094  1.00  0.00     0.031 A 
ATOM     68  C   UNL     1      -9.541   1.078  10.823  1.00  0.00     0.131 A 
ATOM     69  C   UNL     1     -11.893   2.288  11.575  1.00  0.00     0.055 A 
ATOM     70  C   UNL     1      -9.840   2.366  10.366  1.00  0.00     0.041 A 
ATOM     71  F   UNL     1      -8.419   0.565  10.308  1.00  0.00    -0.206 F 
ATOM     72  C   UNL     1     -11.039   2.964  10.711  1.00  0.00     0.022 A 
BRANCH  69  73
ATOM     73  S   UNL     1     -13.550   2.934  11.907  1.00  0.00     0.124 S 
ATOM     74  O   UNL     1     -14.390   1.843  11.425  1.00  0.00    -0.237 OA
ATOM     75  O   UNL     1     -13.511   3.128  13.353  1.00  0.00    -0.237 OA
ATOM     76  O   UNL     1     -13.600   4.159  11.114  1.00  0.00    -0.744 OA
ENDBRANCH  69  73
ENDBRANCH  52  66
BRANCH  53  77
ATOM     77  C   UNL     1     -10.785  -4.247   4.402  1.00  0.00     0.023 A 
ATOM     78  C   UNL     1     -11.743  -3.799   3.463  1.00  0.00     0.031 A 
ATOM     79  C   UNL     1      -9.444  -4.290   3.953  1.00  0.00     0.131 A 
ATOM     80  C   UNL     1     -11.344  -3.415   2.156  1.00  0.00     0.055 A 
ATOM     81  C   UNL     1      -9.057  -3.910   2.665  1.00  0.00     0.041 A 
ATOM     82  F   UNL     1      -8.441  -4.618   4.782  1.00  0.00    -0.206 F 
ATOM     83  C   UNL     1     -10.005  -3.460   1.763  1.00  0.00     0.022 A 
BRANCH  80  84
ATOM     84  S   UNL     1     -12.553  -2.746   0.964  1.00  0.00     0.124 S 
ATOM     85  O   UNL     1     -13.301  -3.937   0.580  1.00  0.00    -0.237 OA
ATOM     86  O   UNL     1     -13.269  -1.756   1.760  1.00  0.00    -0.237 OA
ATOM     87  O   UNL     1     -11.712  -2.182  -0.094  1.00  0.00    -0.744 OA
ENDBRANCH  80  84
ENDBRANCH  53  77
BRANCH  65  88
ATOM     88  C   UNL     1     -13.894  -5.247   9.839  1.00  0.00     0.023 A 
ATOM     89  C   UNL     1     -13.324  -6.427   9.304  1.00  0.00     0.031 A 
ATOM     90  C   UNL     1     -15.061  -5.387  10.612  1.00  0.00     0.131 A 
ATOM     91  C   UNL     1     -13.928  -7.678   9.548  1.00  0.00     0.055 A 
ATOM     92  C   UNL     1     -15.640  -6.628  10.873  1.00  0.00     0.041 A 
ATOM     93  F   UNL     1     -15.641  -4.310  11.169  1.00  0.00    -0.206 F 
ATOM     94  C   UNL     1     -15.078  -7.779  10.337  1.00  0.00     0.022 A 
BRANCH  91  95
ATOM     95  S   UNL     1     -13.240  -9.206   8.826  1.00  0.00     0.124 S 
ATOM     96  O   UNL     1     -13.010  -8.850   7.430  1.00  0.00    -0.237 OA
ATOM     97  O   UNL     1     -12.045  -9.429   9.634  1.00  0.00    -0.237 OA
ATOM     98  O   UNL     1     -14.306 -10.189   9.034  1.00  0.00    -0.744 OA
ENDBRANCH  91  95
ENDBRANCH  65  88
ENDBRANCH  39  40
ENDBRANCH  31  34
ENDBRANCH  29  30
ENDBRANCH  28  29
ENDBRANCH   1  28
TORSDOF 20
