REMARK SMILES CCC[NH2+][C@]1(C(=O)NCCCCCCNC(=O)c2ccc(-c3c4nc(c(-c5cc(S(=O)(=O)[O-])ccc5F)c5ccc([nH]5)c(-c5cc(S(=O)(=O)[O-])ccc5F)c5nc(c(-c6cc(S(=O)(=O)[O-])ccc6F)c6ccc3[nH]6)C=C5)C=C4)cc2)CCC[C@H](n2ccc(C)n2)C1
REMARK SMILES IDX 11 1 10 2 9 3 8 4 6 5 7 6 5 8 81 9 91 10 82 11 84 12 83 13
REMARK SMILES IDX 4 14 3 17 2 18 1 19 85 20 86 21 90 22 87 23 88 24 89 25
REMARK SMILES IDX 12 26 13 27 14 28 15 29 16 30 17 32 18 33 19 34 80 35 20 36
REMARK SMILES IDX 79 37 21 38 22 39 23 40 73 41 24 42 78 43 72 44 74 45 25 46
REMARK SMILES IDX 77 47 71 48 70 49 26 51 58 52 38 53 57 54 39 55 42 56 56 57
REMARK SMILES IDX 75 58 40 59 41 60 55 62 76 63 43 64 27 65 28 66 36 67 29 68
REMARK SMILES IDX 35 69 37 70 34 71 30 72 31 73 32 74 33 75 59 76 60 77 68 78
REMARK SMILES IDX 61 79 67 80 69 81 66 82 62 83 63 84 64 85 65 86 44 87 45 88
REMARK SMILES IDX 53 89 46 90 52 91 54 92 51 93 47 94 48 95 49 96 50 97
REMARK H PARENT 8 7 4 15 4 16 15 31 74 50 42 61
REMARK Flexibility Score: inf
ROOT
ATOM      1  C   UNL     1      -3.451   1.275   2.054  1.00  0.00     0.002 C 
ENDROOT
BRANCH   1   2
ATOM      2  C   UNL     1      -2.700   1.239   3.390  1.00  0.00     0.021 C 
BRANCH   2   3
ATOM      3  C   UNL     1      -1.956  -0.073   3.624  1.00  0.00     0.116 C 
BRANCH   3   4
ATOM      4  N   UNL     1      -0.832  -0.186   2.717  1.00  0.00    -0.351 N 
ATOM      5  C   UNL     1       0.513  -0.100   2.906  1.00  0.00     0.281 C 
ATOM      6  O   UNL     1       1.196  -0.250   1.885  1.00  0.00    -0.268 OA
ATOM      7  H   UNL     1      -1.092  -0.359   1.783  1.00  0.00     0.163 HD
BRANCH   5   8
ATOM      8  C   UNL     1       1.149   0.048   4.333  1.00  0.00     0.177 C 
ATOM      9  C   UNL     1       0.622   1.232   5.173  1.00  0.00     0.079 C 
ATOM     10  C   UNL     1       0.885  -1.323   5.038  1.00  0.00     0.106 C 
ATOM     11  C   UNL     1       1.053   1.152   6.639  1.00  0.00     0.009 C 
ATOM     12  C   UNL     1       1.263  -1.392   6.531  1.00  0.00     0.114 C 
ATOM     13  C   UNL     1       0.646  -0.183   7.261  1.00  0.00     0.028 C 
BRANCH   8  14
ATOM     14  N   UNL     1       2.622   0.197   4.226  1.00  0.00    -0.334 N 
ATOM     15  H   UNL     1       2.987   0.244   5.178  1.00  0.00     0.347 HD
ATOM     16  H   UNL     1       2.909  -0.607   3.667  1.00  0.00     0.347 HD
BRANCH  14  17
ATOM     17  C   UNL     1       3.166   1.337   3.504  1.00  0.00     0.261 C 
BRANCH  17  18
ATOM     18  C   UNL     1       4.693   1.220   3.411  1.00  0.00     0.058 C 
ATOM     19  C   UNL     1       5.165   0.128   2.459  1.00  0.00     0.010 C 
ENDBRANCH  17  18
ENDBRANCH  14  17
ENDBRANCH   8  14
BRANCH  12  20
ATOM     20  N   UNL     1       2.689  -1.579   6.796  1.00  0.00    -0.269 N 
ATOM     21  C   UNL     1       3.322  -1.462   8.005  1.00  0.00     0.109 A 
ATOM     22  N   UNL     1       3.526  -2.012   5.828  1.00  0.00    -0.178 NA
ATOM     23  C   UNL     1       4.666  -1.575   7.741  1.00  0.00     0.045 A 
ATOM     24  C   UNL     1       4.743  -1.861   6.362  1.00  0.00     0.059 A 
ATOM     25  C   UNL     1       5.955  -1.990   5.522  1.00  0.00     0.069 C 
ENDBRANCH  12  20
ENDBRANCH   5   8
ENDBRANCH   3   4
ENDBRANCH   2   3
ENDBRANCH   1   2
BRANCH   1  26
ATOM     26  C   UNL     1      -4.439   0.122   1.848  1.00  0.00     0.002 C 
BRANCH  26  27
ATOM     27  C   UNL     1      -5.449  -0.063   2.983  1.00  0.00     0.021 C 
BRANCH  27  28
ATOM     28  C   UNL     1      -6.305   1.167   3.261  1.00  0.00     0.116 C 
BRANCH  28  29
ATOM     29  N   UNL     1      -7.116   1.522   2.109  1.00  0.00    -0.352 N 
ATOM     30  C   UNL     1      -8.477   1.671   2.028  1.00  0.00     0.251 C 
ATOM     31  H   UNL     1      -6.622   1.677   1.272  1.00  0.00     0.163 HD
ATOM     32  O   UNL     1      -9.022   1.728   0.927  1.00  0.00    -0.269 OA
BRANCH  30  33
ATOM     33  C   UNL     1      -9.276   1.742   3.268  1.00  0.00     0.039 A 
ATOM     34  C   UNL     1     -10.463   1.013   3.353  1.00  0.00     0.014 A 
ATOM     35  C   UNL     1      -8.848   2.522   4.347  1.00  0.00     0.014 A 
ATOM     36  C   UNL     1     -11.195   1.025   4.541  1.00  0.00     0.010 A 
ATOM     37  C   UNL     1      -9.535   2.468   5.555  1.00  0.00     0.010 A 
ATOM     38  C   UNL     1     -10.720   1.724   5.664  1.00  0.00    -0.014 A 
BRANCH  38  39
ATOM     39  C   UNL     1     -11.455   1.696   6.955  1.00  0.00     0.031 A 
ATOM     40  C   UNL     1     -12.024   2.967   7.525  1.00  0.00     0.074 A 
ATOM     41  C   UNL     1     -11.564   0.537   7.634  1.00  0.00     0.049 A 
ATOM     42  N   UNL     1     -12.641   3.159   8.662  1.00  0.00    -0.248 NA
ATOM     43  C   UNL     1     -11.848   4.187   6.723  1.00  0.00     0.031 C 
ATOM     44  C   UNL     1     -11.024  -0.752   7.196  1.00  0.00     0.029 A 
ATOM     45  N   UNL     1     -12.161   0.254   8.837  1.00  0.00    -0.354 N 
ATOM     46  C   UNL     1     -12.920   4.521   8.716  1.00  0.00     0.074 A 
ATOM     47  C   UNL     1     -12.341   5.114   7.530  1.00  0.00     0.031 C 
ATOM     48  C   UNL     1     -11.344  -1.692   8.100  1.00  0.00     0.029 A 
ATOM     49  C   UNL     1     -12.062  -1.068   9.207  1.00  0.00     0.049 A 
ATOM     50  H   UNL     1     -12.619   0.933   9.384  1.00  0.00     0.167 HD
ATOM     51  C   UNL     1     -13.617   5.208   9.656  1.00  0.00     0.034 A 
ATOM     52  C   UNL     1     -12.488  -1.702  10.317  1.00  0.00     0.034 A 
ATOM     53  C   UNL     1     -14.191   4.598  10.831  1.00  0.00     0.049 A 
ATOM     54  C   UNL     1     -13.219  -0.908  11.371  1.00  0.00     0.074 A 
ATOM     55  C   UNL     1     -14.956   5.188  11.822  1.00  0.00     0.029 A 
ATOM     56  N   UNL     1     -14.054   3.260  11.182  1.00  0.00    -0.354 N 
ATOM     57  N   UNL     1     -13.519   0.371  11.383  1.00  0.00    -0.248 NA
ATOM     58  C   UNL     1     -13.677  -1.644  12.555  1.00  0.00     0.031 C 
ATOM     59  C   UNL     1     -15.210   4.230  12.809  1.00  0.00     0.029 A 
ATOM     60  C   UNL     1     -14.686   3.017  12.392  1.00  0.00     0.049 A 
ATOM     61  H   UNL     1     -13.577   2.583  10.649  1.00  0.00     0.167 HD
ATOM     62  C   UNL     1     -14.233   0.582  12.560  1.00  0.00     0.074 A 
ATOM     63  C   UNL     1     -14.330  -0.703  13.221  1.00  0.00     0.031 C 
ATOM     64  C   UNL     1     -14.766   1.732  13.047  1.00  0.00     0.034 A 
BRANCH  51  65
ATOM     65  C   UNL     1     -13.766   6.699   9.460  1.00  0.00     0.023 A 
ATOM     66  C   UNL     1     -14.427   7.236   8.340  1.00  0.00     0.031 A 
ATOM     67  C   UNL     1     -13.216   7.600  10.389  1.00  0.00     0.131 A 
ATOM     68  C   UNL     1     -14.447   8.624   8.136  1.00  0.00     0.055 A 
ATOM     69  C   UNL     1     -13.321   8.983  10.227  1.00  0.00     0.041 A 
ATOM     70  F   UNL     1     -12.553   7.151  11.467  1.00  0.00    -0.206 F 
ATOM     71  C   UNL     1     -13.924   9.503   9.086  1.00  0.00     0.022 A 
BRANCH  68  72
ATOM     72  S   UNL     1     -15.023   9.254   6.535  1.00  0.00     0.124 S 
ATOM     73  O   UNL     1     -14.116   8.578   5.610  1.00  0.00    -0.237 OA
ATOM     74  O   UNL     1     -16.413   8.814   6.504  1.00  0.00    -0.237 OA
ATOM     75  O   UNL     1     -14.826  10.698   6.644  1.00  0.00    -0.744 OA
ENDBRANCH  68  72
ENDBRANCH  51  65
BRANCH  52  76
ATOM     76  C   UNL     1     -12.230  -3.160  10.503  1.00  0.00     0.023 A 
ATOM     77  C   UNL     1     -13.291  -4.074  10.602  1.00  0.00     0.031 A 
ATOM     78  C   UNL     1     -10.921  -3.655  10.635  1.00  0.00     0.131 A 
ATOM     79  C   UNL     1     -13.028  -5.425  10.879  1.00  0.00     0.055 A 
ATOM     80  C   UNL     1     -10.662  -5.010  10.848  1.00  0.00     0.041 A 
ATOM     81  F   UNL     1      -9.868  -2.826  10.548  1.00  0.00    -0.206 F 
ATOM     82  C   UNL     1     -11.720  -5.902  10.987  1.00  0.00     0.022 A 
BRANCH  79  83
ATOM     83  S   UNL     1     -14.428  -6.533  11.197  1.00  0.00     0.124 S 
ATOM     84  O   UNL     1     -15.081  -5.870  12.320  1.00  0.00    -0.237 OA
ATOM     85  O   UNL     1     -15.141  -6.494   9.925  1.00  0.00    -0.237 OA
ATOM     86  O   UNL     1     -13.787  -7.808  11.511  1.00  0.00    -0.744 OA
ENDBRANCH  79  83
ENDBRANCH  52  76
BRANCH  64  87
ATOM     87  C   UNL     1     -15.546   1.636  14.338  1.00  0.00     0.023 A 
ATOM     88  C   UNL     1     -14.932   1.288  15.554  1.00  0.00     0.031 A 
ATOM     89  C   UNL     1     -16.930   1.889  14.346  1.00  0.00     0.131 A 
ATOM     90  C   UNL     1     -15.709   1.144  16.713  1.00  0.00     0.055 A 
ATOM     91  C   UNL     1     -17.685   1.812  15.516  1.00  0.00     0.041 A 
ATOM     92  F   UNL     1     -17.571   2.221  13.214  1.00  0.00    -0.206 F 
ATOM     93  C   UNL     1     -17.078   1.423  16.706  1.00  0.00     0.022 A 
BRANCH  90  94
ATOM     94  S   UNL     1     -14.926   0.484  18.210  1.00  0.00     0.124 S 
ATOM     95  O   UNL     1     -14.423  -0.805  17.745  1.00  0.00    -0.237 OA
ATOM     96  O   UNL     1     -13.914   1.494  18.504  1.00  0.00    -0.237 OA
ATOM     97  O   UNL     1     -16.026   0.411  19.170  1.00  0.00    -0.744 OA
ENDBRANCH  90  94
ENDBRANCH  64  87
ENDBRANCH  38  39
ENDBRANCH  30  33
ENDBRANCH  28  29
ENDBRANCH  27  28
ENDBRANCH  26  27
ENDBRANCH   1  26
TORSDOF 20
