REMARK SMILES Cc1cccc(-c2ncc(C[NH+]3CCC4(CC3)NC(=O)C[C@H]4C(=O)NCCCCCCNC(=O)c3ccc(-c4c5nc(c(-c6cc(S(=O)(=O)[O-])ccc6F)c6ccc([nH]6)c(-c6cc(S(=O)(=O)[O-])ccc6F)c6nc(c(-c7cc(S(=O)(=O)[O-])ccc7F)c7ccc4[nH]7)C=C6)C=C5)cc3)cn2)c1
REMARK SMILES IDX 28 1 27 2 26 3 25 4 23 5 24 6 22 8 12 9 13 10 17 11 14 13
REMARK SMILES IDX 16 14 15 15 18 16 19 17 21 19 20 20 11 21 10 22 7 23 8 24
REMARK SMILES IDX 99 25 9 26 98 27 6 28 1 29 2 30 3 31 100 32 4 33 5 34 29 35
REMARK SMILES IDX 30 36 31 37 32 38 33 39 34 41 35 42 36 43 97 44 37 45 96 46
REMARK SMILES IDX 38 47 39 48 40 49 90 50 41 51 95 52 89 53 91 54 42 55 94 56
REMARK SMILES IDX 88 57 87 58 43 60 75 61 55 62 74 63 56 64 59 65 73 66 92 67
REMARK SMILES IDX 57 68 58 69 72 71 93 72 60 73 44 74 45 75 53 76 46 77 52 78
REMARK SMILES IDX 54 79 51 80 47 81 48 82 49 83 50 84 76 85 77 86 85 87 78 88
REMARK SMILES IDX 84 89 86 90 83 91 79 92 80 93 81 94 82 95 61 96 62 97 70 98
REMARK SMILES IDX 63 99 69 100 71 101 68 102 64 103 65 104 66 105 67 106
REMARK H PARENT 25 7 12 12 18 18 32 40 91 59 59 70
REMARK Flexibility Score: inf
ROOT
ATOM      1  C   UNL     1      -0.664   3.104  -4.910  1.00  0.00     0.002 C 
ENDROOT
BRANCH   1   2
ATOM      2  C   UNL     1      -0.569   3.292  -3.397  1.00  0.00     0.021 C 
BRANCH   2   3
ATOM      3  C   UNL     1       0.715   3.970  -2.880  1.00  0.00     0.116 C 
BRANCH   3   4
ATOM      4  N   UNL     1       0.840   5.395  -3.191  1.00  0.00    -0.356 N 
ATOM      5  C   UNL     1       0.897   6.530  -2.432  1.00  0.00     0.226 C 
ATOM      6  O   UNL     1       0.991   7.601  -3.045  1.00  0.00    -0.275 OA
ATOM      7  H   UNL     1       0.894   5.574  -4.157  1.00  0.00     0.163 HD
BRANCH   5   8
ATOM      8  C   UNL     1       0.861   6.580  -0.886  1.00  0.00     0.114 C 
ATOM      9  N   UNL     1      -3.147   6.900   0.164  1.00  0.00    -0.331 N 
ATOM     10  C   UNL     1      -2.133   7.347   1.109  1.00  0.00     0.264 C 
ATOM     11  C   UNL     1      -2.564   6.687  -1.142  1.00  0.00     0.264 C 
ATOM     12  H   UNL     1      -3.785   7.695   0.131  1.00  0.00     0.348 HD
ATOM     13  C   UNL     1      -0.823   6.547   1.166  1.00  0.00     0.091 C 
ATOM     14  C   UNL     1      -1.478   5.631  -1.111  1.00  0.00     0.091 C 
ATOM     15  C   UNL     1      -0.317   5.891  -0.153  1.00  0.00     0.063 C 
ATOM     16  N   UNL     1       0.325   4.661   0.303  1.00  0.00    -0.349 N 
ATOM     17  C   UNL     1       1.703   4.680   0.289  1.00  0.00     0.221 C 
ATOM     18  H   UNL     1      -0.189   3.876   0.600  1.00  0.00     0.164 HD
ATOM     19  C   UNL     1       2.151   5.972  -0.328  1.00  0.00     0.116 C 
ATOM     20  O   UNL     1       2.425   3.802   0.707  1.00  0.00    -0.275 OA
BRANCH   9  21
ATOM     21  C   UNL     1      -4.172   5.915   0.572  1.00  0.00     0.302 C 
BRANCH  21  22
ATOM     22  C   UNL     1      -3.781   4.462   0.564  1.00  0.00     0.043 A 
ATOM     23  C   UNL     1      -2.535   2.051   0.345  1.00  0.00     0.159 A 
ATOM     24  N   UNL     1      -2.388   2.736   1.498  1.00  0.00    -0.236 NA
ATOM     25  N   UNL     1      -3.322   2.437  -0.676  1.00  0.00    -0.236 NA
ATOM     26  C   UNL     1      -3.065   3.898   1.596  1.00  0.00     0.124 A 
ATOM     27  C   UNL     1      -3.942   3.633  -0.537  1.00  0.00     0.124 A 
BRANCH  23  28
ATOM     28  C   UNL     1      -1.671   0.879   0.151  1.00  0.00     0.019 A 
ATOM     29  C   UNL     1       2.071   0.042  -0.011  1.00  0.00     0.044 C 
ATOM     30  C   UNL     1       0.578  -0.115  -0.006  1.00  0.00    -0.050 A 
ATOM     31  C   UNL     1       0.002  -1.383  -0.100  1.00  0.00     0.003 A 
ATOM     32  C   UNL     1      -0.265   0.999   0.122  1.00  0.00     0.015 A 
ATOM     33  C   UNL     1      -1.387  -1.526  -0.093  1.00  0.00     0.001 A 
ATOM     34  C   UNL     1      -2.215  -0.405   0.019  1.00  0.00     0.012 A 
ENDBRANCH  23  28
ENDBRANCH  21  22
ENDBRANCH   9  21
ENDBRANCH   5   8
ENDBRANCH   3   4
ENDBRANCH   2   3
ENDBRANCH   1   2
BRANCH   1  35
ATOM     35  C   UNL     1       0.531   2.403  -5.557  1.00  0.00     0.002 C 
BRANCH  35  36
ATOM     36  C   UNL     1       0.974   1.111  -4.877  1.00  0.00     0.021 C 
BRANCH  36  37
ATOM     37  C   UNL     1      -0.037  -0.015  -4.970  1.00  0.00     0.116 C 
BRANCH  37  38
ATOM     38  N   UNL     1      -0.019  -0.689  -6.257  1.00  0.00    -0.352 N 
ATOM     39  C   UNL     1      -0.494  -1.932  -6.620  1.00  0.00     0.251 C 
ATOM     40  H   UNL     1       0.399  -0.176  -6.987  1.00  0.00     0.163 HD
ATOM     41  O   UNL     1      -0.118  -2.451  -7.668  1.00  0.00    -0.269 OA
BRANCH  39  42
ATOM     42  C   UNL     1      -1.617  -2.545  -5.867  1.00  0.00     0.039 A 
ATOM     43  C   UNL     1      -2.614  -3.164  -6.642  1.00  0.00     0.014 A 
ATOM     44  C   UNL     1      -1.884  -2.174  -4.559  1.00  0.00     0.014 A 
ATOM     45  C   UNL     1      -3.931  -3.123  -6.213  1.00  0.00     0.010 A 
ATOM     46  C   UNL     1      -3.185  -1.950  -4.217  1.00  0.00     0.010 A 
ATOM     47  C   UNL     1      -4.197  -2.389  -5.069  1.00  0.00    -0.014 A 
BRANCH  47  48
ATOM     48  C   UNL     1      -5.508  -2.104  -4.548  1.00  0.00     0.031 A 
ATOM     49  C   UNL     1      -5.976  -2.995  -3.479  1.00  0.00     0.074 A 
ATOM     50  C   UNL     1      -6.051  -0.909  -4.859  1.00  0.00     0.049 A 
ATOM     51  N   UNL     1      -7.181  -3.035  -3.054  1.00  0.00    -0.248 NA
ATOM     52  C   UNL     1      -5.110  -3.972  -2.814  1.00  0.00     0.031 C 
ATOM     53  C   UNL     1      -7.107  -0.184  -4.168  1.00  0.00     0.029 A 
ATOM     54  N   UNL     1      -5.864  -0.195  -6.044  1.00  0.00    -0.354 N 
ATOM     55  C   UNL     1      -7.178  -3.747  -1.875  1.00  0.00     0.074 A 
ATOM     56  C   UNL     1      -5.905  -4.413  -1.836  1.00  0.00     0.031 C 
ATOM     57  C   UNL     1      -7.676   0.680  -5.029  1.00  0.00     0.029 A 
ATOM     58  C   UNL     1      -7.098   0.421  -6.338  1.00  0.00     0.049 A 
ATOM     59  H   UNL     1      -5.035  -0.134  -6.570  1.00  0.00     0.167 HD
ATOM     60  C   UNL     1      -8.209  -3.534  -1.017  1.00  0.00     0.034 A 
ATOM     61  C   UNL     1      -7.806   0.010  -7.434  1.00  0.00     0.034 A 
ATOM     62  C   UNL     1      -9.178  -2.633  -1.638  1.00  0.00     0.049 A 
ATOM     63  C   UNL     1      -9.104  -0.668  -7.045  1.00  0.00     0.074 A 
ATOM     64  C   UNL     1      -9.396  -1.269  -1.536  1.00  0.00     0.029 A 
ATOM     65  N   UNL     1      -9.832  -3.058  -2.783  1.00  0.00    -0.354 N 
ATOM     66  N   UNL     1      -9.316  -1.238  -5.887  1.00  0.00    -0.248 NA
ATOM     67  C   UNL     1     -10.290  -0.684  -7.895  1.00  0.00     0.031 C 
ATOM     68  C   UNL     1     -10.135  -0.868  -2.682  1.00  0.00     0.029 A 
ATOM     69  C   UNL     1     -10.386  -1.991  -3.453  1.00  0.00     0.049 A 
ATOM     70  H   UNL     1      -9.893  -3.996  -3.076  1.00  0.00     0.167 HD
ATOM     71  C   UNL     1     -10.625  -1.645  -5.801  1.00  0.00     0.074 A 
ATOM     72  C   UNL     1     -11.188  -1.283  -7.091  1.00  0.00     0.031 C 
ATOM     73  C   UNL     1     -11.142  -2.222  -4.671  1.00  0.00     0.034 A 
BRANCH  60  74
ATOM     74  C   UNL     1      -8.278  -3.895   0.444  1.00  0.00     0.023 A 
ATOM     75  C   UNL     1      -9.258  -3.242   1.221  1.00  0.00     0.031 A 
ATOM     76  C   UNL     1      -7.449  -4.786   1.148  1.00  0.00     0.131 A 
ATOM     77  C   UNL     1      -9.357  -3.431   2.606  1.00  0.00     0.055 A 
ATOM     78  C   UNL     1      -7.543  -4.975   2.536  1.00  0.00     0.041 A 
ATOM     79  F   UNL     1      -6.526  -5.540   0.544  1.00  0.00    -0.206 F 
ATOM     80  C   UNL     1      -8.497  -4.293   3.275  1.00  0.00     0.022 A 
BRANCH  77  81
ATOM     81  S   UNL     1     -10.626  -2.511   3.511  1.00  0.00     0.124 S 
ATOM     82  O   UNL     1     -10.215  -1.127   3.291  1.00  0.00    -0.237 OA
ATOM     83  O   UNL     1     -11.852  -2.935   2.845  1.00  0.00    -0.237 OA
ATOM     84  O   UNL     1     -10.474  -2.988   4.884  1.00  0.00    -0.744 OA
ENDBRANCH  77  81
ENDBRANCH  60  74
BRANCH  61  85
ATOM     85  C   UNL     1      -6.893  -0.349  -8.569  1.00  0.00     0.023 A 
ATOM     86  C   UNL     1      -6.077   0.698  -9.061  1.00  0.00     0.031 A 
ATOM     87  C   UNL     1      -6.438  -1.665  -8.745  1.00  0.00     0.131 A 
ATOM     88  C   UNL     1      -4.763   0.432  -9.479  1.00  0.00     0.055 A 
ATOM     89  C   UNL     1      -5.149  -1.926  -9.237  1.00  0.00     0.041 A 
ATOM     90  F   UNL     1      -7.159  -2.704  -8.298  1.00  0.00    -0.206 F 
ATOM     91  C   UNL     1      -4.283  -0.875  -9.545  1.00  0.00     0.022 A 
BRANCH  88  92
ATOM     92  S   UNL     1      -3.629   1.841  -9.673  1.00  0.00     0.124 S 
ATOM     93  O   UNL     1      -4.185   2.524 -10.836  1.00  0.00    -0.237 OA
ATOM     94  O   UNL     1      -3.779   2.535  -8.395  1.00  0.00    -0.237 OA
ATOM     95  O   UNL     1      -2.323   1.220  -9.879  1.00  0.00    -0.744 OA
ENDBRANCH  88  92
ENDBRANCH  61  85
BRANCH  73  96
ATOM     96  C   UNL     1     -12.440  -3.003  -4.561  1.00  0.00     0.023 A 
ATOM     97  C   UNL     1     -13.210  -3.360  -5.670  1.00  0.00     0.031 A 
ATOM     98  C   UNL     1     -12.907  -3.506  -3.314  1.00  0.00     0.131 A 
ATOM     99  C   UNL     1     -14.405  -4.085  -5.524  1.00  0.00     0.055 A 
ATOM    100  C   UNL     1     -14.035  -4.319  -3.186  1.00  0.00     0.041 A 
ATOM    101  F   UNL     1     -12.286  -3.248  -2.155  1.00  0.00    -0.206 F 
ATOM    102  C   UNL     1     -14.809  -4.597  -4.296  1.00  0.00     0.022 A 
BRANCH  99 103
ATOM    103  S   UNL     1     -15.466  -4.250  -6.979  1.00  0.00     0.124 S 
ATOM    104  O   UNL     1     -15.755  -2.854  -7.296  1.00  0.00    -0.237 OA
ATOM    105  O   UNL     1     -14.597  -4.945  -7.923  1.00  0.00    -0.237 OA
ATOM    106  O   UNL     1     -16.604  -5.025  -6.490  1.00  0.00    -0.744 OA
ENDBRANCH  99 103
ENDBRANCH  73  96
ENDBRANCH  47  48
ENDBRANCH  39  42
ENDBRANCH  37  38
ENDBRANCH  36  37
ENDBRANCH  35  36
ENDBRANCH   1  35
TORSDOF 19
