REMARK SMILES CC(C)(C)[N@H+](CCC(=O)Nc1ccccc1F)CC(=O)NCCCCCCNC(=O)c1ccc(-c2c3nc(c(-c4cc(S(=O)(=O)[O-])ccc4F)c4ccc([nH]4)c(-c4cc(S(=O)(=O)[O-])ccc4F)c4nc(c(-c5cc(S(=O)(=O)[O-])ccc5F)c5ccc2[nH]5)C=C4)C=C3)cc1
REMARK SMILES IDX 23 1 22 2 21 3 19 4 20 5 18 7 5 8 2 10 1 11 3 12 4 13 6 14
REMARK SMILES IDX 7 15 8 16 9 17 10 18 11 20 12 21 16 22 13 23 15 24 17 25
REMARK SMILES IDX 14 26 24 27 25 28 26 29 27 30 28 31 29 32 30 34 31 35 32 36
REMARK SMILES IDX 93 37 33 38 92 39 34 40 35 41 36 42 86 43 37 44 91 45 85 46
REMARK SMILES IDX 87 47 38 48 90 49 84 50 83 51 39 53 71 54 51 55 70 56 52 57
REMARK SMILES IDX 55 58 69 59 88 60 53 61 54 62 68 64 89 65 56 66 40 67 41 68
REMARK SMILES IDX 49 69 42 70 48 71 50 72 47 73 43 74 44 75 45 76 46 77 72 78
REMARK SMILES IDX 73 79 81 80 74 81 80 82 82 83 79 84 75 85 76 86 77 87 78 88
REMARK SMILES IDX 57 89 58 90 66 91 59 92 65 93 67 94 64 95 60 96 61 97 62 98
REMARK SMILES IDX 63 99
REMARK H PARENT 21 6 5 9 10 19 28 33 87 52 55 63
REMARK Flexibility Score: inf
ROOT
ATOM      1  C   UNL     1       4.591   3.423   0.302  1.00  0.00     0.021 C 
ENDROOT
BRANCH   1   2
ATOM      2  C   UNL     1       3.557   4.345   0.933  1.00  0.00     0.116 C 
BRANCH   2   3
ATOM      3  N   UNL     1       2.648   4.860  -0.065  1.00  0.00    -0.351 N 
ATOM      4  C   UNL     1       1.527   4.286  -0.583  1.00  0.00     0.275 C 
ATOM      5  O   UNL     1       0.993   4.854  -1.543  1.00  0.00    -0.269 OA
ATOM      6  H   UNL     1       2.870   5.751  -0.420  1.00  0.00     0.163 HD
BRANCH   4   7
ATOM      7  C   UNL     1       0.801   3.155   0.140  1.00  0.00     0.363 C 
BRANCH   7   8
ATOM      8  N   UNL     1       1.492   1.860   0.358  1.00  0.00    -0.323 N 
ATOM      9  H   UNL     1       2.494   2.021   0.250  1.00  0.00     0.349 HD
BRANCH   8  10
ATOM     10  C   UNL     1       1.074   0.828  -0.685  1.00  0.00     0.090 C 
ATOM     11  C   UNL     1       1.866  -0.501  -0.538  1.00  0.00     0.078 C 
ATOM     12  C   UNL     1       1.385   1.349  -2.108  1.00  0.00     0.078 C 
ATOM     13  C   UNL     1      -0.431   0.428  -0.641  1.00  0.00     0.078 C 
ENDBRANCH   8  10
BRANCH   8  14
ATOM     14  C   UNL     1       1.254   1.349   1.747  1.00  0.00     0.273 C 
BRANCH  14  15
ATOM     15  C   UNL     1       1.651   2.103   3.045  1.00  0.00     0.161 C 
BRANCH  15  16
ATOM     16  C   UNL     1       1.169   3.499   3.456  1.00  0.00     0.230 C 
ATOM     17  O   UNL     1       1.979   4.278   3.979  1.00  0.00    -0.275 OA
ATOM     18  N   UNL     1      -0.084   3.997   3.250  1.00  0.00    -0.323 N 
ATOM     19  H   UNL     1      -0.194   4.948   3.483  1.00  0.00     0.170 HD
BRANCH  18  20
ATOM     20  C   UNL     1      -1.239   3.374   2.762  1.00  0.00     0.077 A 
ATOM     21  C   UNL     1      -1.988   4.064   1.798  1.00  0.00     0.029 A 
ATOM     22  C   UNL     1      -1.626   2.089   3.132  1.00  0.00     0.146 A 
ATOM     23  C   UNL     1      -3.019   3.410   1.119  1.00  0.00     0.002 A 
ATOM     24  C   UNL     1      -2.679   1.450   2.488  1.00  0.00     0.041 A 
ATOM     25  F   UNL     1      -0.972   1.437   4.103  1.00  0.00    -0.205 F 
ATOM     26  C   UNL     1      -3.358   2.100   1.458  1.00  0.00     0.003 A 
ENDBRANCH  18  20
ENDBRANCH  15  16
ENDBRANCH  14  15
ENDBRANCH   8  14
ENDBRANCH   7   8
ENDBRANCH   4   7
ENDBRANCH   2   3
ENDBRANCH   1   2
BRANCH   1  27
ATOM     27  C   UNL     1       5.567   4.179  -0.600  1.00  0.00     0.002 C 
BRANCH  27  28
ATOM     28  C   UNL     1       6.522   5.109   0.156  1.00  0.00     0.002 C 
BRANCH  28  29
ATOM     29  C   UNL     1       7.418   4.406   1.181  1.00  0.00     0.021 C 
BRANCH  29  30
ATOM     30  C   UNL     1       8.184   3.212   0.618  1.00  0.00     0.116 C 
BRANCH  30  31
ATOM     31  N   UNL     1       8.943   3.595  -0.563  1.00  0.00    -0.352 N 
ATOM     32  C   UNL     1      10.297   3.558  -0.757  1.00  0.00     0.251 C 
ATOM     33  H   UNL     1       8.412   3.924  -1.323  1.00  0.00     0.163 HD
ATOM     34  O   UNL     1      10.814   4.234  -1.638  1.00  0.00    -0.269 OA
BRANCH  32  35
ATOM     35  C   UNL     1      11.112   2.678   0.099  1.00  0.00     0.039 A 
ATOM     36  C   UNL     1      12.327   3.146   0.597  1.00  0.00     0.014 A 
ATOM     37  C   UNL     1      10.675   1.378   0.380  1.00  0.00     0.014 A 
ATOM     38  C   UNL     1      13.097   2.311   1.402  1.00  0.00     0.010 A 
ATOM     39  C   UNL     1      11.408   0.574   1.242  1.00  0.00     0.010 A 
ATOM     40  C   UNL     1      12.636   1.027   1.742  1.00  0.00    -0.014 A 
BRANCH  40  41
ATOM     41  C   UNL     1      13.448   0.145   2.609  1.00  0.00     0.031 A 
ATOM     42  C   UNL     1      14.041  -1.118   2.054  1.00  0.00     0.074 A 
ATOM     43  C   UNL     1      13.637   0.491   3.896  1.00  0.00     0.049 A 
ATOM     44  N   UNL     1      14.816  -1.990   2.644  1.00  0.00    -0.248 NA
ATOM     45  C   UNL     1      13.700  -1.462   0.664  1.00  0.00     0.031 C 
ATOM     46  C   UNL     1      13.062   1.675   4.540  1.00  0.00     0.029 A 
ATOM     47  N   UNL     1      14.377  -0.100   4.886  1.00  0.00    -0.354 N 
ATOM     48  C   UNL     1      15.054  -2.982   1.700  1.00  0.00     0.074 A 
ATOM     49  C   UNL     1      14.289  -2.640   0.523  1.00  0.00     0.031 C 
ATOM     50  C   UNL     1      13.519   1.755   5.798  1.00  0.00     0.029 A 
ATOM     51  C   UNL     1      14.385   0.610   6.063  1.00  0.00     0.049 A 
ATOM     52  H   UNL     1      14.856  -0.952   4.766  1.00  0.00     0.167 HD
ATOM     53  C   UNL     1      15.861  -4.065   1.803  1.00  0.00     0.034 A 
ATOM     54  C   UNL     1      15.027   0.371   7.223  1.00  0.00     0.034 A 
ATOM     55  C   UNL     1      16.626  -4.373   2.984  1.00  0.00     0.049 A 
ATOM     56  C   UNL     1      15.909  -0.842   7.322  1.00  0.00     0.074 A 
ATOM     57  C   UNL     1      17.522  -5.407   3.182  1.00  0.00     0.029 A 
ATOM     58  N   UNL     1      16.578  -3.652   4.171  1.00  0.00    -0.354 N 
ATOM     59  N   UNL     1      16.155  -1.754   6.410  1.00  0.00    -0.248 NA
ATOM     60  C   UNL     1      16.599  -1.063   8.598  1.00  0.00     0.031 C 
ATOM     61  C   UNL     1      17.961  -5.354   4.508  1.00  0.00     0.029 A 
ATOM     62  C   UNL     1      17.401  -4.241   5.116  1.00  0.00     0.049 A 
ATOM     63  H   UNL     1      16.039  -2.842   4.318  1.00  0.00     0.167 HD
ATOM     64  C   UNL     1      17.045  -2.647   6.994  1.00  0.00     0.074 A 
ATOM     65  C   UNL     1      17.291  -2.166   8.340  1.00  0.00     0.031 C 
ATOM     66  C   UNL     1      17.616  -3.755   6.459  1.00  0.00     0.034 A 
BRANCH  53  67
ATOM     67  C   UNL     1      15.939  -4.996   0.620  1.00  0.00     0.023 A 
ATOM     68  C   UNL     1      16.477  -4.584  -0.612  1.00  0.00     0.031 A 
ATOM     69  C   UNL     1      15.470  -6.317   0.725  1.00  0.00     0.131 A 
ATOM     70  C   UNL     1      16.480  -5.464  -1.704  1.00  0.00     0.055 A 
ATOM     71  C   UNL     1      15.542  -7.211  -0.345  1.00  0.00     0.041 A 
ATOM     72  F   UNL     1      14.927  -6.760   1.871  1.00  0.00    -0.206 F 
ATOM     73  C   UNL     1      16.039  -6.783  -1.572  1.00  0.00     0.022 A 
BRANCH  70  74
ATOM     74  S   UNL     1      16.972  -4.830  -3.331  1.00  0.00     0.124 S 
ATOM     75  O   UNL     1      15.951  -3.813  -3.571  1.00  0.00    -0.237 OA
ATOM     76  O   UNL     1      18.321  -4.335  -3.083  1.00  0.00    -0.237 OA
ATOM     77  O   UNL     1      16.888  -6.005  -4.196  1.00  0.00    -0.744 OA
ENDBRANCH  70  74
ENDBRANCH  53  67
BRANCH  54  78
ATOM     78  C   UNL     1      14.862   1.322   8.354  1.00  0.00     0.023 A 
ATOM     79  C   UNL     1      15.896   2.195   8.723  1.00  0.00     0.031 A 
ATOM     80  C   UNL     1      13.632   1.425   9.029  1.00  0.00     0.131 A 
ATOM     81  C   UNL     1      15.682   3.136   9.743  1.00  0.00     0.055 A 
ATOM     82  C   UNL     1      13.414   2.383  10.020  1.00  0.00     0.041 A 
ATOM     83  F   UNL     1      12.607   0.625   8.696  1.00  0.00    -0.206 F 
ATOM     84  C   UNL     1      14.444   3.246  10.382  1.00  0.00     0.022 A 
BRANCH  81  85
ATOM     85  S   UNL     1      17.046   4.233  10.222  1.00  0.00     0.124 S 
ATOM     86  O   UNL     1      18.002   3.288  10.787  1.00  0.00    -0.237 OA
ATOM     87  O   UNL     1      17.417   4.837   8.946  1.00  0.00    -0.237 OA
ATOM     88  O   UNL     1      16.427   5.145  11.181  1.00  0.00    -0.744 OA
ENDBRANCH  81  85
ENDBRANCH  54  78
BRANCH  66  89
ATOM     89  C   UNL     1      18.586  -4.523   7.315  1.00  0.00     0.023 A 
ATOM     90  C   UNL     1      18.148  -5.329   8.378  1.00  0.00     0.031 A 
ATOM     91  C   UNL     1      19.956  -4.515   7.000  1.00  0.00     0.131 A 
ATOM     92  C   UNL     1      19.080  -6.091   9.099  1.00  0.00     0.055 A 
ATOM     93  C   UNL     1      20.871  -5.307   7.692  1.00  0.00     0.041 A 
ATOM     94  F   UNL     1      20.419  -3.763   5.988  1.00  0.00    -0.206 F 
ATOM     95  C   UNL     1      20.434  -6.101   8.749  1.00  0.00     0.022 A 
BRANCH  92  96
ATOM     96  S   UNL     1      18.502  -7.070  10.511  1.00  0.00     0.124 S 
ATOM     97  O   UNL     1      18.088  -6.031  11.448  1.00  0.00    -0.237 OA
ATOM     98  O   UNL     1      17.428  -7.867   9.927  1.00  0.00    -0.237 OA
ATOM     99  O   UNL     1      19.686  -7.829  10.909  1.00  0.00    -0.744 OA
ENDBRANCH  92  96
ENDBRANCH  66  89
ENDBRANCH  40  41
ENDBRANCH  32  35
ENDBRANCH  30  31
ENDBRANCH  29  30
ENDBRANCH  28  29
ENDBRANCH  27  28
ENDBRANCH   1  27
TORSDOF 22
