REMARK SMILES CC(=O)N[C@H](CC(=O)NCC(=O)NCCCCCCNC(=O)c1ccc(-c2c3nc(c(-c4cc(S(=O)(=O)[O-])ccc4F)c4ccc([nH]4)c(-c4cc(S(=O)(=O)[O-])ccc4F)c4nc(c(-c5cc(S(=O)(=O)[O-])ccc5F)c5ccc2[nH]5)C=C4)C=C3)cc1)c1cccs1
REMARK SMILES IDX 16 1 15 2 14 3 13 4 11 5 12 6 10 8 9 9 7 10 8 11 6 13 5 14
REMARK SMILES IDX 4 15 1 16 2 17 3 18 86 20 87 21 90 22 88 23 89 24 17 25
REMARK SMILES IDX 18 26 19 27 20 28 21 29 22 31 23 32 24 33 85 34 25 35 84 36
REMARK SMILES IDX 26 37 27 38 28 39 78 40 29 41 83 42 77 43 79 44 30 45 82 46
REMARK SMILES IDX 76 47 75 48 31 50 63 51 43 52 62 53 44 54 47 55 61 56 80 57
REMARK SMILES IDX 45 58 46 59 60 61 81 62 48 63 32 64 33 65 41 66 34 67 40 68
REMARK SMILES IDX 42 69 39 70 35 71 36 72 37 73 38 74 64 75 65 76 73 77 66 78
REMARK SMILES IDX 72 79 74 80 71 81 67 82 68 83 69 84 70 85 49 86 50 87 58 88
REMARK SMILES IDX 51 89 57 90 59 91 56 92 52 93 53 94 54 95 55 96
REMARK H PARENT 13 7 9 12 4 19 20 30 79 49 47 60
REMARK Flexibility Score: inf
ROOT
ATOM      1  C   UNL     1       2.392  -2.007   4.066  1.00  0.00     0.002 C 
ENDROOT
BRANCH   1   2
ATOM      2  C   UNL     1       1.647  -1.519   2.826  1.00  0.00     0.021 C 
BRANCH   2   3
ATOM      3  C   UNL     1       2.292  -0.339   2.117  1.00  0.00     0.116 C 
BRANCH   3   4
ATOM      4  N   UNL     1       3.423  -0.695   1.286  1.00  0.00    -0.355 N 
ATOM      5  C   UNL     1       3.828  -0.202   0.079  1.00  0.00     0.239 C 
ATOM      6  O   UNL     1       4.971  -0.496  -0.289  1.00  0.00    -0.273 OA
ATOM      7  H   UNL     1       3.994  -1.409   1.652  1.00  0.00     0.163 HD
BRANCH   5   8
ATOM      8  C   UNL     1       2.999   0.816  -0.733  1.00  0.00     0.216 C 
BRANCH   8   9
ATOM      9  N   UNL     1       1.556   0.630  -0.711  1.00  0.00    -0.347 N 
ATOM     10  C   UNL     1       0.559   1.474  -0.313  1.00  0.00     0.222 C 
ATOM     11  O   UNL     1      -0.580   1.018  -0.221  1.00  0.00    -0.275 OA
ATOM     12  H   UNL     1       1.248  -0.247  -1.035  1.00  0.00     0.164 HD
BRANCH  10  13
ATOM     13  C   UNL     1       0.853   2.931  -0.010  1.00  0.00     0.130 C 
BRANCH  13  14
ATOM     14  C   UNL     1       1.631   3.136   1.292  1.00  0.00     0.131 C 
BRANCH  14  15
ATOM     15  N   UNL     1       2.868   3.898   1.144  1.00  0.00    -0.348 N 
ATOM     16  C   UNL     1       2.045   5.869  -0.121  1.00  0.00     0.114 C 
ATOM     17  C   UNL     1       3.145   5.074   0.524  1.00  0.00     0.217 C 
ATOM     18  O   UNL     1       4.319   5.441   0.470  1.00  0.00    -0.275 OA
ATOM     19  H   UNL     1       3.648   3.481   1.576  1.00  0.00     0.164 HD
ENDBRANCH  14  15
BRANCH  14  20
ATOM     20  C   UNL     1       0.815   3.547   2.503  1.00  0.00     0.027 A 
ATOM     21  C   UNL     1      -0.138   2.780   3.160  1.00  0.00     0.017 A 
ATOM     22  S   UNL     1       1.054   5.035   3.333  1.00  0.00    -0.147 S 
ATOM     23  C   UNL     1      -0.628   3.398   4.349  1.00  0.00     0.012 A 
ATOM     24  C   UNL     1      -0.064   4.634   4.555  1.00  0.00     0.065 A 
ENDBRANCH  14  20
ENDBRANCH  13  14
ENDBRANCH  10  13
ENDBRANCH   8   9
ENDBRANCH   5   8
ENDBRANCH   3   4
ENDBRANCH   2   3
ENDBRANCH   1   2
BRANCH   1  25
ATOM     25  C   UNL     1       2.664  -0.949   5.142  1.00  0.00     0.002 C 
BRANCH  25  26
ATOM     26  C   UNL     1       1.458  -0.124   5.601  1.00  0.00     0.021 C 
BRANCH  26  27
ATOM     27  C   UNL     1       0.249  -0.925   6.076  1.00  0.00     0.116 C 
BRANCH  27  28
ATOM     28  N   UNL     1       0.575  -1.825   7.166  1.00  0.00    -0.352 N 
ATOM     29  C   UNL     1      -0.031  -1.983   8.388  1.00  0.00     0.251 C 
ATOM     30  H   UNL     1       1.349  -2.413   7.005  1.00  0.00     0.163 HD
ATOM     31  O   UNL     1       0.510  -2.679   9.241  1.00  0.00    -0.269 OA
BRANCH  29  32
ATOM     32  C   UNL     1      -1.310  -1.299   8.684  1.00  0.00     0.039 A 
ATOM     33  C   UNL     1      -1.478  -0.706   9.938  1.00  0.00     0.014 A 
ATOM     34  C   UNL     1      -2.349  -1.259   7.749  1.00  0.00     0.014 A 
ATOM     35  C   UNL     1      -2.663  -0.027  10.233  1.00  0.00     0.010 A 
ATOM     36  C   UNL     1      -3.499  -0.520   8.018  1.00  0.00     0.010 A 
ATOM     37  C   UNL     1      -3.672   0.100   9.265  1.00  0.00    -0.014 A 
BRANCH  37  38
ATOM     38  C   UNL     1      -4.912   0.872   9.546  1.00  0.00     0.031 A 
ATOM     39  C   UNL     1      -6.248   0.180   9.568  1.00  0.00     0.074 A 
ATOM     40  C   UNL     1      -4.839   2.204   9.734  1.00  0.00     0.049 A 
ATOM     41  N   UNL     1      -7.441   0.686   9.749  1.00  0.00    -0.248 NA
ATOM     42  C   UNL     1      -6.241  -1.269   9.325  1.00  0.00     0.031 C 
ATOM     43  C   UNL     1      -3.605   2.994   9.710  1.00  0.00     0.029 A 
ATOM     44  N   UNL     1      -5.819   3.132   9.983  1.00  0.00    -0.354 N 
ATOM     45  C   UNL     1      -8.329  -0.379   9.630  1.00  0.00     0.074 A 
ATOM     46  C   UNL     1      -7.536  -1.543   9.294  1.00  0.00     0.031 C 
ATOM     47  C   UNL     1      -3.899   4.277   9.973  1.00  0.00     0.029 A 
ATOM     48  C   UNL     1      -5.343   4.414  10.133  1.00  0.00     0.049 A 
ATOM     49  H   UNL     1      -6.774   2.901  10.049  1.00  0.00     0.167 HD
ATOM     50  C   UNL     1      -9.675  -0.389   9.806  1.00  0.00     0.034 A 
ATOM     51  C   UNL     1      -5.996   5.570  10.367  1.00  0.00     0.034 A 
ATOM     52  C   UNL     1     -10.447   0.783  10.145  1.00  0.00     0.049 A 
ATOM     53  C   UNL     1      -7.497   5.543  10.509  1.00  0.00     0.074 A 
ATOM     54  C   UNL     1     -11.803   0.877  10.405  1.00  0.00     0.029 A 
ATOM     55  N   UNL     1      -9.935   2.071  10.258  1.00  0.00    -0.354 N 
ATOM     56  N   UNL     1      -8.316   4.518  10.450  1.00  0.00    -0.248 NA
ATOM     57  C   UNL     1      -8.159   6.830  10.757  1.00  0.00     0.031 C 
ATOM     58  C   UNL     1     -12.124   2.227  10.591  1.00  0.00     0.029 A 
ATOM     59  C   UNL     1     -10.954   2.969  10.538  1.00  0.00     0.049 A 
ATOM     60  H   UNL     1      -8.986   2.311  10.153  1.00  0.00     0.167 HD
ATOM     61  C   UNL     1      -9.587   5.035  10.692  1.00  0.00     0.074 A 
ATOM     62  C   UNL     1      -9.421   6.457  10.909  1.00  0.00     0.031 C 
ATOM     63  C   UNL     1     -10.781   4.390  10.738  1.00  0.00     0.034 A 
BRANCH  50  64
ATOM     64  C   UNL     1     -10.392  -1.704   9.596  1.00  0.00     0.023 A 
ATOM     65  C   UNL     1     -10.102  -2.839  10.374  1.00  0.00     0.031 A 
ATOM     66  C   UNL     1     -11.349  -1.838   8.574  1.00  0.00     0.131 A 
ATOM     67  C   UNL     1     -10.686  -4.075  10.057  1.00  0.00     0.055 A 
ATOM     68  C   UNL     1     -11.999  -3.050   8.326  1.00  0.00     0.041 A 
ATOM     69  F   UNL     1     -11.657  -0.799   7.782  1.00  0.00    -0.206 F 
ATOM     70  C   UNL     1     -11.654  -4.183   9.056  1.00  0.00     0.022 A 
BRANCH  67  71
ATOM     71  S   UNL     1     -10.030  -5.569  10.851  1.00  0.00     0.124 S 
ATOM     72  O   UNL     1      -8.616  -5.496  10.492  1.00  0.00    -0.237 OA
ATOM     73  O   UNL     1     -10.346  -5.343  12.257  1.00  0.00    -0.237 OA
ATOM     74  O   UNL     1     -10.772  -6.652  10.209  1.00  0.00    -0.744 OA
ENDBRANCH  67  71
ENDBRANCH  50  64
BRANCH  51  75
ATOM     75  C   UNL     1      -5.244   6.852  10.488  1.00  0.00     0.023 A 
ATOM     76  C   UNL     1      -5.243   7.572  11.693  1.00  0.00     0.031 A 
ATOM     77  C   UNL     1      -4.553   7.400   9.392  1.00  0.00     0.131 A 
ATOM     78  C   UNL     1      -4.605   8.821  11.762  1.00  0.00     0.055 A 
ATOM     79  C   UNL     1      -3.873   8.615   9.482  1.00  0.00     0.041 A 
ATOM     80  F   UNL     1      -4.518   6.751   8.217  1.00  0.00    -0.206 F 
ATOM     81  C   UNL     1      -3.908   9.340  10.669  1.00  0.00     0.022 A 
BRANCH  78  82
ATOM     82  S   UNL     1      -4.776   9.798  13.280  1.00  0.00     0.124 S 
ATOM     83  O   UNL     1      -6.223   9.949  13.374  1.00  0.00    -0.237 OA
ATOM     84  O   UNL     1      -4.155   8.927  14.272  1.00  0.00    -0.237 OA
ATOM     85  O   UNL     1      -4.037  11.023  12.980  1.00  0.00    -0.744 OA
ENDBRANCH  78  82
ENDBRANCH  51  75
BRANCH  63  86
ATOM     86  C   UNL     1     -11.996   5.219  11.085  1.00  0.00     0.023 A 
ATOM     87  C   UNL     1     -12.466   6.240  10.240  1.00  0.00     0.031 A 
ATOM     88  C   UNL     1     -12.684   4.994  12.292  1.00  0.00     0.131 A 
ATOM     89  C   UNL     1     -13.550   7.037  10.641  1.00  0.00     0.055 A 
ATOM     90  C   UNL     1     -13.803   5.744  12.653  1.00  0.00     0.041 A 
ATOM     91  F   UNL     1     -12.278   4.036  13.141  1.00  0.00    -0.206 F 
ATOM     92  C   UNL     1     -14.233   6.782  11.833  1.00  0.00     0.022 A 
BRANCH  89  93
ATOM     93  S   UNL     1     -13.991   8.479   9.633  1.00  0.00     0.124 S 
ATOM     94  O   UNL     1     -12.745   9.240   9.632  1.00  0.00    -0.237 OA
ATOM     95  O   UNL     1     -14.366   7.869   8.361  1.00  0.00    -0.237 OA
ATOM     96  O   UNL     1     -15.091   9.092  10.373  1.00  0.00    -0.744 OA
ENDBRANCH  89  93
ENDBRANCH  63  86
ENDBRANCH  37  38
ENDBRANCH  29  32
ENDBRANCH  27  28
ENDBRANCH  26  27
ENDBRANCH  25  26
ENDBRANCH   1  25
TORSDOF 21
