REMARK SMILES O=C(NCCCCCCNC(=O)[C@@H]1CCCN1S(=O)(=O)c1ccc2c3c(cccc13)C(=O)N2)c1ccc(-c2c3nc(c(-c4cc(S(=O)(=O)[O-])ccc4F)c4ccc([nH]4)c(-c4cc(S(=O)(=O)[O-])ccc4F)c4nc(c(-c5cc(S(=O)(=O)[O-])ccc5F)c5ccc2[nH]5)C=C4)C=C3)cc1
REMARK SMILES IDX 6 1 5 2 4 3 3 4 1 5 2 6 34 8 35 9 96 10 36 11 95 12 37 13
REMARK SMILES IDX 38 14 39 15 89 16 40 17 94 18 88 19 90 20 41 21 93 22 87 23
REMARK SMILES IDX 86 24 42 26 74 27 54 28 73 29 55 30 58 31 72 32 91 33 56 34
REMARK SMILES IDX 57 35 71 37 92 38 59 39 43 40 44 41 52 42 45 43 51 44 53 45
REMARK SMILES IDX 50 46 46 47 47 48 48 49 49 50 75 51 76 52 84 53 77 54 83 55
REMARK SMILES IDX 85 56 82 57 78 58 79 59 80 60 81 61 60 62 61 63 69 64 62 65
REMARK SMILES IDX 68 66 70 67 67 68 63 69 64 70 65 71 66 72 7 73 8 74 9 75
REMARK SMILES IDX 10 76 11 77 12 79 13 80 14 81 17 82 15 83 16 84 18 85 19 86
REMARK SMILES IDX 20 87 21 88 22 89 30 90 23 91 25 92 29 93 24 94 26 95 28 96
REMARK SMILES IDX 33 97 27 98 31 99 32 101
REMARK H PARENT 3 7 90 25 58 36 10 78 33 100
REMARK Flexibility Score: inf
ROOT
ATOM      1  C   UNL     1       3.964  -3.721  -0.395  1.00  0.00     0.002 C 
ENDROOT
BRANCH   1   2
ATOM      2  C   UNL     1       4.429  -2.499   0.414  1.00  0.00     0.021 C 
BRANCH   2   3
ATOM      3  C   UNL     1       4.361  -1.163  -0.328  1.00  0.00     0.116 C 
BRANCH   3   4
ATOM      4  N   UNL     1       2.986  -0.792  -0.619  1.00  0.00    -0.352 N 
ATOM      5  O   UNL     1       0.977   0.093  -0.079  1.00  0.00    -0.269 OA
ATOM      6  C   UNL     1       2.195   0.107   0.053  1.00  0.00     0.251 C 
ATOM      7  H   UNL     1       2.571  -1.240  -1.391  1.00  0.00     0.163 HD
BRANCH   6   8
ATOM      8  C   UNL     1       2.838   1.099   0.938  1.00  0.00     0.039 A 
ATOM      9  C   UNL     1       3.808   1.961   0.417  1.00  0.00     0.014 A 
ATOM     10  C   UNL     1       2.465   1.174   2.281  1.00  0.00     0.014 A 
ATOM     11  C   UNL     1       4.470   2.845   1.266  1.00  0.00     0.010 A 
ATOM     12  C   UNL     1       3.105   2.089   3.122  1.00  0.00     0.010 A 
ATOM     13  C   UNL     1       4.131   2.910   2.628  1.00  0.00    -0.014 A 
BRANCH  13  14
ATOM     14  C   UNL     1       4.856   3.852   3.518  1.00  0.00     0.031 A 
ATOM     15  C   UNL     1       5.830   3.341   4.541  1.00  0.00     0.074 A 
ATOM     16  C   UNL     1       4.660   5.176   3.377  1.00  0.00     0.049 A 
ATOM     17  N   UNL     1       6.613   4.019   5.340  1.00  0.00    -0.248 NA
ATOM     18  C   UNL     1       5.941   1.882   4.687  1.00  0.00     0.031 C 
ATOM     19  C   UNL     1       3.730   5.785   2.426  1.00  0.00     0.029 A 
ATOM     20  N   UNL     1       5.234   6.245   4.019  1.00  0.00    -0.354 N 
ATOM     21  C   UNL     1       7.323   3.074   6.069  1.00  0.00     0.074 A 
ATOM     22  C   UNL     1       6.833   1.775   5.662  1.00  0.00     0.031 C 
ATOM     23  C   UNL     1       3.819   7.120   2.525  1.00  0.00     0.029 A 
ATOM     24  C   UNL     1       4.785   7.463   3.567  1.00  0.00     0.049 A 
ATOM     25  H   UNL     1       5.903   6.148   4.734  1.00  0.00     0.167 HD
ATOM     26  C   UNL     1       8.310   3.272   6.975  1.00  0.00     0.034 A 
ATOM     27  C   UNL     1       5.116   8.716   3.939  1.00  0.00     0.034 A 
ATOM     28  C   UNL     1       8.777   4.572   7.385  1.00  0.00     0.049 A 
ATOM     29  C   UNL     1       6.186   8.916   4.979  1.00  0.00     0.074 A 
ATOM     30  C   UNL     1       9.778   4.874   8.291  1.00  0.00     0.029 A 
ATOM     31  N   UNL     1       8.282   5.783   6.921  1.00  0.00    -0.354 N 
ATOM     32  N   UNL     1       6.888   8.012   5.621  1.00  0.00    -0.248 NA
ATOM     33  C   UNL     1       6.526  10.301   5.335  1.00  0.00     0.031 C 
ATOM     34  C   UNL     1       9.850   6.262   8.418  1.00  0.00     0.029 A 
ATOM     35  C   UNL     1       8.949   6.832   7.532  1.00  0.00     0.049 A 
ATOM     36  H   UNL     1       7.563   5.882   6.255  1.00  0.00     0.167 HD
ATOM     37  C   UNL     1       7.779   8.717   6.425  1.00  0.00     0.074 A 
ATOM     38  C   UNL     1       7.529  10.123   6.186  1.00  0.00     0.031 C 
ATOM     39  C   UNL     1       8.720   8.235   7.274  1.00  0.00     0.034 A 
BRANCH  26  40
ATOM     40  C   UNL     1       8.982   2.064   7.576  1.00  0.00     0.023 A 
ATOM     41  C   UNL     1       8.902   1.819   8.960  1.00  0.00     0.031 A 
ATOM     42  C   UNL     1       9.799   1.224   6.797  1.00  0.00     0.131 A 
ATOM     43  C   UNL     1       9.650   0.779   9.525  1.00  0.00     0.055 A 
ATOM     44  C   UNL     1      10.512   0.165   7.360  1.00  0.00     0.041 A 
ATOM     45  F   UNL     1       9.905   1.415   5.472  1.00  0.00    -0.206 F 
ATOM     46  C   UNL     1      10.448  -0.054   8.732  1.00  0.00     0.022 A 
BRANCH  43  47
ATOM     47  S   UNL     1       9.652   0.490  11.315  1.00  0.00     0.124 S 
ATOM     48  O   UNL     1       9.239  -0.910  11.394  1.00  0.00    -0.237 OA
ATOM     49  O   UNL     1      11.046   0.748  11.664  1.00  0.00    -0.237 OA
ATOM     50  O   UNL     1       8.682   1.451  11.827  1.00  0.00    -0.744 OA
ENDBRANCH  43  47
ENDBRANCH  26  40
BRANCH  27  51
ATOM     51  C   UNL     1       4.471   9.863   3.241  1.00  0.00     0.023 A 
ATOM     52  C   UNL     1       3.088  10.091   3.358  1.00  0.00     0.031 A 
ATOM     53  C   UNL     1       5.205  10.662   2.350  1.00  0.00     0.131 A 
ATOM     54  C   UNL     1       2.472  11.049   2.542  1.00  0.00     0.055 A 
ATOM     55  C   UNL     1       4.596  11.657   1.584  1.00  0.00     0.041 A 
ATOM     56  F   UNL     1       6.525  10.472   2.201  1.00  0.00    -0.206 F 
ATOM     57  C   UNL     1       3.219  11.843   1.667  1.00  0.00     0.022 A 
BRANCH  54  58
ATOM     58  S   UNL     1       0.667  11.226   2.522  1.00  0.00     0.124 S 
ATOM     59  O   UNL     1       0.497  12.662   2.722  1.00  0.00    -0.237 OA
ATOM     60  O   UNL     1       0.339  10.731   1.188  1.00  0.00    -0.237 OA
ATOM     61  O   UNL     1       0.227  10.383   3.628  1.00  0.00    -0.744 OA
ENDBRANCH  54  58
ENDBRANCH  27  51
BRANCH  39  62
ATOM     62  C   UNL     1       9.612   9.209   8.005  1.00  0.00     0.023 A 
ATOM     63  C   UNL     1      11.001   9.185   7.772  1.00  0.00     0.031 A 
ATOM     64  C   UNL     1       9.125  10.030   9.035  1.00  0.00     0.131 A 
ATOM     65  C   UNL     1      11.860   9.928   8.590  1.00  0.00     0.055 A 
ATOM     66  C   UNL     1       9.982  10.807   9.817  1.00  0.00     0.041 A 
ATOM     67  F   UNL     1       7.810  10.081   9.304  1.00  0.00    -0.206 F 
ATOM     68  C   UNL     1      11.357  10.746   9.606  1.00  0.00     0.022 A 
BRANCH  65  69
ATOM     69  S   UNL     1      13.661   9.797   8.416  1.00  0.00     0.124 S 
ATOM     70  O   UNL     1      14.047  11.191   8.206  1.00  0.00    -0.237 OA
ATOM     71  O   UNL     1      14.051   9.230   9.704  1.00  0.00    -0.237 OA
ATOM     72  O   UNL     1      13.842   8.923   7.262  1.00  0.00    -0.744 OA
ENDBRANCH  65  69
ENDBRANCH  39  62
ENDBRANCH  13  14
ENDBRANCH   6   8
ENDBRANCH   3   4
ENDBRANCH   2   3
ENDBRANCH   1   2
BRANCH   1  73
ATOM     73  C   UNL     1       4.631  -3.905  -1.756  1.00  0.00     0.002 C 
BRANCH  73  74
ATOM     74  C   UNL     1       6.157  -3.955  -1.710  1.00  0.00     0.021 C 
BRANCH  74  75
ATOM     75  C   UNL     1       6.802  -5.332  -1.711  1.00  0.00     0.116 C 
BRANCH  75  76
ATOM     76  N   UNL     1       6.599  -6.025  -2.967  1.00  0.00    -0.355 N 
ATOM     77  C   UNL     1       7.423  -6.286  -4.006  1.00  0.00     0.238 C 
ATOM     78  H   UNL     1       5.686  -6.372  -3.087  1.00  0.00     0.163 HD
ATOM     79  O   UNL     1       6.926  -6.959  -4.923  1.00  0.00    -0.273 OA
BRANCH  77  80
ATOM     80  C   UNL     1       8.876  -5.871  -4.104  1.00  0.00     0.162 C 
ATOM     81  C   UNL     1       9.759  -6.638  -3.111  1.00  0.00     0.032 C 
ATOM     82  N   UNL     1       9.484  -4.529  -4.262  1.00  0.00    -0.185 NA
ATOM     83  C   UNL     1      11.121  -6.001  -3.283  1.00  0.00     0.019 C 
ATOM     84  C   UNL     1      10.787  -4.540  -3.506  1.00  0.00     0.103 C 
BRANCH  82  85
ATOM     85  S   UNL     1       8.796  -2.989  -4.249  1.00  0.00     0.244 S 
ATOM     86  O   UNL     1       8.638  -2.661  -2.846  1.00  0.00    -0.207 OA
ATOM     87  O   UNL     1       9.655  -2.168  -5.079  1.00  0.00    -0.207 OA
BRANCH  85  88
ATOM     88  C   UNL     1       7.186  -2.903  -4.995  1.00  0.00     0.090 A 
ATOM     89  C   UNL     1       6.680  -3.958  -5.780  1.00  0.00     0.024 A 
ATOM     90  C   UNL     1       6.351  -1.788  -4.645  1.00  0.00     0.005 A 
ATOM     91  C   UNL     1       5.307  -4.054  -6.095  1.00  0.00     0.028 A 
ATOM     92  C   UNL     1       5.042  -1.923  -5.006  1.00  0.00     0.019 A 
ATOM     93  C   UNL     1       6.633  -0.578  -3.954  1.00  0.00     0.010 A 
ATOM     94  C   UNL     1       4.514  -3.011  -5.660  1.00  0.00     0.050 A 
ATOM     95  C   UNL     1       4.011  -1.039  -4.721  1.00  0.00     0.050 A 
ATOM     96  C   UNL     1       5.620   0.368  -3.681  1.00  0.00     0.002 A 
ATOM     97  N   UNL     1       3.149  -2.808  -5.757  1.00  0.00    -0.321 N 
ATOM     98  C   UNL     1       4.283   0.150  -4.052  1.00  0.00     0.014 A 
ATOM     99  C   UNL     1       2.753  -1.585  -5.195  1.00  0.00     0.256 C 
ATOM    100  H   UNL     1       2.527  -3.448  -6.173  1.00  0.00     0.170 HD
ATOM    101  O   UNL     1       1.603  -1.183  -5.155  1.00  0.00    -0.269 OA
ENDBRANCH  85  88
ENDBRANCH  82  85
ENDBRANCH  77  80
ENDBRANCH  75  76
ENDBRANCH  74  75
ENDBRANCH  73  74
ENDBRANCH   1  73
TORSDOF 18
