REMARK SMILES O=C(NCCCCCCNC(=O)[C@H]1C[C@H]2CCCC[C@@H]2[N@@H+]1CC[C@@H]1CCCO1)c1ccc(-c2c3nc(c(-c4cc(S(=O)(=O)[O-])ccc4F)c4ccc([nH]4)c(-c4cc(S(=O)(=O)[O-])ccc4F)c4nc(c(-c5cc(S(=O)(=O)[O-])ccc5F)c5ccc2[nH]5)C=C4)C=C3)cc1
REMARK SMILES IDX 6 1 5 2 4 3 3 4 1 5 2 6 29 8 30 9 91 10 31 11 90 12 32 13
REMARK SMILES IDX 33 14 34 15 84 16 35 17 89 18 83 19 85 20 36 21 88 22 82 23
REMARK SMILES IDX 81 24 37 26 69 27 49 28 68 29 50 30 53 31 67 32 86 33 51 34
REMARK SMILES IDX 52 35 66 37 87 38 54 39 38 40 39 41 47 42 40 43 46 44 48 45
REMARK SMILES IDX 45 46 41 47 42 48 43 49 44 50 70 51 71 52 79 53 72 54 78 55
REMARK SMILES IDX 80 56 77 57 73 58 74 59 75 60 76 61 55 62 56 63 64 64 57 65
REMARK SMILES IDX 63 66 65 67 62 68 58 69 59 70 60 71 61 72 7 73 8 74 9 75
REMARK SMILES IDX 10 76 11 77 12 79 13 80 14 81 21 82 15 83 20 84 16 86 19 87
REMARK SMILES IDX 17 88 18 89 22 90 23 91 24 92 25 93 28 94 26 95 27 96
REMARK H PARENT 3 7 85 25 53 36 10 78 21 85
REMARK Flexibility Score: inf
ROOT
ATOM      1  C   UNL     1      11.096  10.628  -6.509  1.00  0.00     0.002 C 
ENDROOT
BRANCH   1   2
ATOM      2  C   UNL     1      10.721  11.671  -5.456  1.00  0.00     0.021 C 
BRANCH   2   3
ATOM      3  C   UNL     1      11.900  12.242  -4.683  1.00  0.00     0.116 C 
BRANCH   3   4
ATOM      4  N   UNL     1      12.750  13.082  -5.511  1.00  0.00    -0.352 N 
ATOM      5  O   UNL     1      13.764  14.999  -6.133  1.00  0.00    -0.269 OA
ATOM      6  C   UNL     1      13.196  14.361  -5.261  1.00  0.00     0.251 C 
ATOM      7  H   UNL     1      13.046  12.684  -6.361  1.00  0.00     0.163 HD
BRANCH   6   8
ATOM      8  C   UNL     1      12.962  14.956  -3.923  1.00  0.00     0.039 A 
ATOM      9  C   UNL     1      13.207  14.209  -2.769  1.00  0.00     0.014 A 
ATOM     10  C   UNL     1      12.491  16.268  -3.825  1.00  0.00     0.014 A 
ATOM     11  C   UNL     1      12.857  14.724  -1.528  1.00  0.00     0.010 A 
ATOM     12  C   UNL     1      12.226  16.819  -2.566  1.00  0.00     0.010 A 
ATOM     13  C   UNL     1      12.389  16.043  -1.408  1.00  0.00    -0.014 A 
BRANCH  13  14
ATOM     14  C   UNL     1      12.174  16.599  -0.046  1.00  0.00     0.031 A 
ATOM     15  C   UNL     1      10.806  16.989   0.438  1.00  0.00     0.074 A 
ATOM     16  C   UNL     1      13.241  16.689   0.774  1.00  0.00     0.049 A 
ATOM     17  N   UNL     1      10.448  17.438   1.614  1.00  0.00    -0.248 NA
ATOM     18  C   UNL     1       9.697  16.869  -0.520  1.00  0.00     0.031 C 
ATOM     19  C   UNL     1      14.617  16.349   0.397  1.00  0.00     0.029 A 
ATOM     20  N   UNL     1      13.342  17.056   2.090  1.00  0.00    -0.354 N 
ATOM     21  C   UNL     1       9.078  17.661   1.541  1.00  0.00     0.074 A 
ATOM     22  C   UNL     1       8.675  17.328   0.190  1.00  0.00     0.031 C 
ATOM     23  C   UNL     1      15.410  16.465   1.470  1.00  0.00     0.029 A 
ATOM     24  C   UNL     1      14.620  16.958   2.591  1.00  0.00     0.049 A 
ATOM     25  H   UNL     1      12.575  17.361   2.625  1.00  0.00     0.167 HD
ATOM     26  C   UNL     1       8.238  18.094   2.515  1.00  0.00     0.034 A 
ATOM     27  C   UNL     1      15.109  17.249   3.811  1.00  0.00     0.034 A 
ATOM     28  C   UNL     1       8.663  18.425   3.856  1.00  0.00     0.049 A 
ATOM     29  C   UNL     1      14.155  17.745   4.863  1.00  0.00     0.074 A 
ATOM     30  C   UNL     1       7.897  18.871   4.920  1.00  0.00     0.029 A 
ATOM     31  N   UNL     1       9.972  18.351   4.320  1.00  0.00    -0.354 N 
ATOM     32  N   UNL     1      12.860  17.943   4.774  1.00  0.00    -0.248 NA
ATOM     33  C   UNL     1      14.727  18.052   6.178  1.00  0.00     0.031 C 
ATOM     34  C   UNL     1       8.747  19.119   6.005  1.00  0.00     0.029 A 
ATOM     35  C   UNL     1      10.036  18.763   5.643  1.00  0.00     0.049 A 
ATOM     36  H   UNL     1      10.742  18.049   3.786  1.00  0.00     0.167 HD
ATOM     37  C   UNL     1      12.462  18.394   6.027  1.00  0.00     0.074 A 
ATOM     38  C   UNL     1      13.647  18.394   6.862  1.00  0.00     0.031 C 
ATOM     39  C   UNL     1      11.232  18.784   6.451  1.00  0.00     0.034 A 
BRANCH  26  40
ATOM     40  C   UNL     1       6.782  18.271   2.156  1.00  0.00     0.023 A 
ATOM     41  C   UNL     1       5.961  17.177   1.831  1.00  0.00     0.031 A 
ATOM     42  C   UNL     1       6.202  19.553   2.147  1.00  0.00     0.131 A 
ATOM     43  C   UNL     1       4.622  17.389   1.464  1.00  0.00     0.055 A 
ATOM     44  C   UNL     1       4.853  19.751   1.846  1.00  0.00     0.041 A 
ATOM     45  F   UNL     1       6.941  20.638   2.430  1.00  0.00    -0.206 F 
ATOM     46  C   UNL     1       4.057  18.666   1.492  1.00  0.00     0.022 A 
BRANCH  43  47
ATOM     47  S   UNL     1       3.655  15.984   0.848  1.00  0.00     0.124 S 
ATOM     48  O   UNL     1       4.424  15.588  -0.330  1.00  0.00    -0.237 OA
ATOM     49  O   UNL     1       3.689  15.058   1.974  1.00  0.00    -0.237 OA
ATOM     50  O   UNL     1       2.346  16.567   0.560  1.00  0.00    -0.744 OA
ENDBRANCH  43  47
ENDBRANCH  26  40
BRANCH  27  51
ATOM     51  C   UNL     1      16.567  17.119   4.090  1.00  0.00     0.023 A 
ATOM     52  C   UNL     1      17.047  16.232   5.065  1.00  0.00     0.031 A 
ATOM     53  C   UNL     1      17.503  17.919   3.407  1.00  0.00     0.131 A 
ATOM     54  C   UNL     1      18.418  16.200   5.365  1.00  0.00     0.055 A 
ATOM     55  C   UNL     1      18.872  17.838   3.665  1.00  0.00     0.041 A 
ATOM     56  F   UNL     1      17.099  18.783   2.462  1.00  0.00    -0.206 F 
ATOM     57  C   UNL     1      19.335  16.985   4.662  1.00  0.00     0.022 A 
BRANCH  54  58
ATOM     58  S   UNL     1      18.977  15.189   6.764  1.00  0.00     0.124 S 
ATOM     59  O   UNL     1      18.136  15.686   7.846  1.00  0.00    -0.237 OA
ATOM     60  O   UNL     1      18.686  13.838   6.294  1.00  0.00    -0.237 OA
ATOM     61  O   UNL     1      20.396  15.517   6.874  1.00  0.00    -0.744 OA
ENDBRANCH  54  58
ENDBRANCH  27  51
BRANCH  39  62
ATOM     62  C   UNL     1      11.130  19.225   7.889  1.00  0.00     0.023 A 
ATOM     63  C   UNL     1      11.783  20.384   8.347  1.00  0.00     0.031 A 
ATOM     64  C   UNL     1      10.425  18.449   8.824  1.00  0.00     0.131 A 
ATOM     65  C   UNL     1      11.781  20.692   9.715  1.00  0.00     0.055 A 
ATOM     66  C   UNL     1      10.372  18.797  10.175  1.00  0.00     0.041 A 
ATOM     67  F   UNL     1       9.786  17.331   8.442  1.00  0.00    -0.206 F 
ATOM     68  C   UNL     1      11.068  19.914  10.630  1.00  0.00     0.022 A 
BRANCH  65  69
ATOM     69  S   UNL     1      12.825  22.056  10.298  1.00  0.00     0.124 S 
ATOM     70  O   UNL     1      14.146  21.648   9.832  1.00  0.00    -0.237 OA
ATOM     71  O   UNL     1      12.238  23.209   9.622  1.00  0.00    -0.237 OA
ATOM     72  O   UNL     1      12.643  22.031  11.748  1.00  0.00    -0.744 OA
ENDBRANCH  65  69
ENDBRANCH  39  62
ENDBRANCH  13  14
ENDBRANCH   6   8
ENDBRANCH   3   4
ENDBRANCH   2   3
ENDBRANCH   1   2
BRANCH   1  73
ATOM     73  C   UNL     1      11.833   9.392  -5.977  1.00  0.00     0.002 C 
BRANCH  73  74
ATOM     74  C   UNL     1      11.181   8.695  -4.774  1.00  0.00     0.021 C 
BRANCH  74  75
ATOM     75  C   UNL     1       9.716   8.313  -4.987  1.00  0.00     0.116 C 
BRANCH  75  76
ATOM     76  N   UNL     1       9.585   7.287  -5.999  1.00  0.00    -0.351 N 
ATOM     77  C   UNL     1       9.364   5.952  -5.933  1.00  0.00     0.278 C 
ATOM     78  H   UNL     1       9.674   7.626  -6.919  1.00  0.00     0.163 HD
ATOM     79  O   UNL     1       9.418   5.354  -7.020  1.00  0.00    -0.268 OA
BRANCH  77  80
ATOM     80  C   UNL     1       8.976   5.165  -4.664  1.00  0.00     0.274 C 
ATOM     81  C   UNL     1       9.776   3.835  -4.651  1.00  0.00     0.085 C 
ATOM     82  N   UNL     1       9.263   5.821  -3.361  1.00  0.00    -0.322 N 
ATOM     83  C   UNL     1      10.155   3.670  -3.193  1.00  0.00     0.054 C 
ATOM     84  C   UNL     1      10.400   5.113  -2.774  1.00  0.00     0.188 C 
ATOM     85  H   UNL     1       9.549   6.791  -3.488  1.00  0.00     0.349 HD
ATOM     86  C   UNL     1      11.321   2.771  -2.830  1.00  0.00     0.010 C 
ATOM     87  C   UNL     1      10.776   5.303  -1.304  1.00  0.00     0.065 C 
ATOM     88  C   UNL     1      11.557   2.866  -1.317  1.00  0.00     0.001 C 
ATOM     89  C   UNL     1      11.855   4.303  -0.873  1.00  0.00     0.006 C 
BRANCH  82  90
ATOM     90  C   UNL     1       8.088   6.126  -2.520  1.00  0.00     0.265 C 
BRANCH  90  91
ATOM     91  C   UNL     1       7.011   5.066  -2.186  1.00  0.00     0.093 C 
BRANCH  91  92
ATOM     92  C   UNL     1       7.414   4.011  -1.166  1.00  0.00     0.123 C 
ATOM     93  C   UNL     1       6.782   2.653  -1.403  1.00  0.00     0.034 C 
ATOM     94  O   UNL     1       7.008   4.327   0.172  1.00  0.00    -0.378 OA
ATOM     95  C   UNL     1       7.092   1.959  -0.097  1.00  0.00     0.031 C 
ATOM     96  C   UNL     1       7.124   3.098   0.915  1.00  0.00     0.160 C 
ENDBRANCH  91  92
ENDBRANCH  90  91
ENDBRANCH  82  90
ENDBRANCH  77  80
ENDBRANCH  75  76
ENDBRANCH  74  75
ENDBRANCH  73  74
ENDBRANCH   1  73
TORSDOF 19
