REMARK SMILES Cc1ccccc1C[C@@H](CC(F)(F)F)C(=O)NCCCCCCNC(=O)c1ccc(-c2c3nc(c(-c4cc(S(=O)(=O)[O-])ccc4F)c4ccc([nH]4)c(-c4cc(S(=O)(=O)[O-])ccc4F)c4nc(c(-c5cc(S(=O)(=O)[O-])ccc5F)c5ccc2[nH]5)C=C4)C=C3)cc1
REMARK SMILES IDX 21 1 20 2 19 3 18 4 17 5 15 6 16 7 9 9 8 10 7 11 1 12 2 13
REMARK SMILES IDX 3 14 4 15 6 16 5 17 10 18 11 19 12 20 13 21 14 22 22 23
REMARK SMILES IDX 23 24 24 25 25 26 26 28 27 29 28 30 89 31 29 32 88 33 30 34
REMARK SMILES IDX 31 35 32 36 82 37 33 38 87 39 81 40 83 41 34 42 86 43 80 44
REMARK SMILES IDX 79 45 35 47 67 48 47 49 66 50 48 51 51 52 65 53 84 54 49 55
REMARK SMILES IDX 50 56 64 58 85 59 52 60 36 61 37 62 45 63 38 64 44 65 46 66
REMARK SMILES IDX 43 67 39 68 40 69 41 70 42 71 68 72 69 73 77 74 70 75 76 76
REMARK SMILES IDX 78 77 75 78 71 79 72 80 73 81 74 82 53 83 54 84 62 85 55 86
REMARK SMILES IDX 61 87 63 88 60 89 56 90 57 91 58 92 59 93
REMARK H PARENT 17 8 24 27 83 46 51 57
REMARK Flexibility Score: inf
ROOT
ATOM      1  C   UNL     1       1.008   8.415   2.135  1.00  0.00     0.002 C 
ENDROOT
BRANCH   1   2
ATOM      2  C   UNL     1       2.027   7.282   2.349  1.00  0.00     0.002 C 
BRANCH   2   3
ATOM      3  C   UNL     1       1.504   5.843   2.264  1.00  0.00     0.021 C 
BRANCH   3   4
ATOM      4  C   UNL     1       0.671   5.519   1.029  1.00  0.00     0.116 C 
BRANCH   4   5
ATOM      5  N   UNL     1       1.456   5.335  -0.176  1.00  0.00    -0.356 N 
ATOM      6  C   UNL     1       1.367   4.445  -1.195  1.00  0.00     0.223 C 
ATOM      7  O   UNL     1       1.991   4.708  -2.229  1.00  0.00    -0.275 OA
ATOM      8  H   UNL     1       2.194   5.980  -0.274  1.00  0.00     0.163 HD
BRANCH   6   9
ATOM      9  C   UNL     1       0.508   3.178  -1.161  1.00  0.00     0.092 C 
BRANCH   9  10
ATOM     10  C   UNL     1       0.666   2.324   0.114  1.00  0.00     0.049 C 
BRANCH  10  11
ATOM     11  C   UNL     1       0.151   0.896   0.012  1.00  0.00    -0.044 A 
ATOM     12  C   UNL     1       2.475  -0.188  -0.281  1.00  0.00     0.044 C 
ATOM     13  C   UNL     1       0.974  -0.233  -0.177  1.00  0.00    -0.048 A 
ATOM     14  C   UNL     1       0.382  -1.514  -0.199  1.00  0.00     0.004 A 
ATOM     15  C   UNL     1      -0.993  -1.684  -0.051  1.00  0.00     0.000 A 
ATOM     16  C   UNL     1      -1.235   0.694   0.179  1.00  0.00     0.004 A 
ATOM     17  C   UNL     1      -1.804  -0.576   0.136  1.00  0.00     0.000 A 
ENDBRANCH  10  11
ENDBRANCH   9  10
BRANCH   9  18
ATOM     18  C   UNL     1      -0.910   3.442  -1.700  1.00  0.00     0.129 C 
BRANCH  18  19
ATOM     19  C   UNL     1      -1.835   4.296  -0.867  1.00  0.00     0.389 C 
ATOM     20  F   UNL     1      -1.466   5.590  -0.862  1.00  0.00    -0.171 F 
ATOM     21  F   UNL     1      -3.089   4.247  -1.380  1.00  0.00    -0.171 F 
ATOM     22  F   UNL     1      -1.921   3.873   0.409  1.00  0.00    -0.171 F 
ENDBRANCH  18  19
ENDBRANCH   9  18
ENDBRANCH   6   9
ENDBRANCH   4   5
ENDBRANCH   3   4
ENDBRANCH   2   3
ENDBRANCH   1   2
BRANCH   1  23
ATOM     23  C   UNL     1      -0.332   8.296   2.865  1.00  0.00     0.021 C 
BRANCH  23  24
ATOM     24  C   UNL     1      -0.229   8.242   4.383  1.00  0.00     0.116 C 
BRANCH  24  25
ATOM     25  N   UNL     1      -0.581   9.480   5.060  1.00  0.00    -0.352 N 
ATOM     26  C   UNL     1      -0.637   9.738   6.421  1.00  0.00     0.251 C 
ATOM     27  H   UNL     1      -0.810  10.236   4.473  1.00  0.00     0.163 HD
ATOM     28  O   UNL     1      -1.058  10.799   6.851  1.00  0.00    -0.269 OA
BRANCH  26  29
ATOM     29  C   UNL     1      -0.036   8.751   7.356  1.00  0.00     0.039 A 
ATOM     30  C   UNL     1       0.935   9.230   8.244  1.00  0.00     0.014 A 
ATOM     31  C   UNL     1      -0.236   7.382   7.206  1.00  0.00     0.014 A 
ATOM     32  C   UNL     1       1.857   8.343   8.794  1.00  0.00     0.010 A 
ATOM     33  C   UNL     1       0.730   6.511   7.675  1.00  0.00     0.010 A 
ATOM     34  C   UNL     1       1.811   7.001   8.414  1.00  0.00    -0.014 A 
BRANCH  34  35
ATOM     35  C   UNL     1       2.930   6.087   8.615  1.00  0.00     0.031 A 
ATOM     36  C   UNL     1       2.895   5.053   9.665  1.00  0.00     0.074 A 
ATOM     37  C   UNL     1       4.026   6.180   7.832  1.00  0.00     0.049 A 
ATOM     38  N   UNL     1       3.938   4.627  10.298  1.00  0.00    -0.248 NA
ATOM     39  C   UNL     1       1.656   4.429  10.107  1.00  0.00     0.031 C 
ATOM     40  C   UNL     1       5.140   5.239   7.748  1.00  0.00     0.029 A 
ATOM     41  N   UNL     1       4.460   7.270   7.101  1.00  0.00    -0.354 N 
ATOM     42  C   UNL     1       3.571   3.490  10.979  1.00  0.00     0.074 A 
ATOM     43  C   UNL     1       2.126   3.460  10.899  1.00  0.00     0.031 C 
ATOM     44  C   UNL     1       6.206   5.873   7.232  1.00  0.00     0.029 A 
ATOM     45  C   UNL     1       5.856   7.276   7.090  1.00  0.00     0.049 A 
ATOM     46  H   UNL     1       3.881   7.933   6.661  1.00  0.00     0.167 HD
ATOM     47  C   UNL     1       4.524   2.607  11.394  1.00  0.00     0.034 A 
ATOM     48  C   UNL     1       6.567   8.321   7.605  1.00  0.00     0.034 A 
ATOM     49  C   UNL     1       5.873   3.046  11.035  1.00  0.00     0.049 A 
ATOM     50  C   UNL     1       7.461   7.929   8.763  1.00  0.00     0.074 A 
ATOM     51  C   UNL     1       6.736   2.668  10.018  1.00  0.00     0.029 A 
ATOM     52  N   UNL     1       6.413   4.198  11.598  1.00  0.00    -0.354 N 
ATOM     53  N   UNL     1       7.348   6.815   9.432  1.00  0.00    -0.248 NA
ATOM     54  C   UNL     1       8.537   8.774   9.271  1.00  0.00     0.031 C 
ATOM     55  C   UNL     1       7.781   3.622   9.947  1.00  0.00     0.029 A 
ATOM     56  C   UNL     1       7.567   4.570  10.933  1.00  0.00     0.049 A 
ATOM     57  H   UNL     1       6.027   4.681  12.364  1.00  0.00     0.167 HD
ATOM     58  C   UNL     1       8.271   6.788  10.449  1.00  0.00     0.074 A 
ATOM     59  C   UNL     1       9.010   8.027  10.284  1.00  0.00     0.031 C 
ATOM     60  C   UNL     1       8.326   5.748  11.338  1.00  0.00     0.034 A 
BRANCH  47  61
ATOM     61  C   UNL     1       4.207   1.186  11.813  1.00  0.00     0.023 A 
ATOM     62  C   UNL     1       5.133   0.157  11.540  1.00  0.00     0.031 A 
ATOM     63  C   UNL     1       3.014   0.771  12.434  1.00  0.00     0.131 A 
ATOM     64  C   UNL     1       4.815  -1.197  11.750  1.00  0.00     0.055 A 
ATOM     65  C   UNL     1       2.668  -0.579  12.588  1.00  0.00     0.041 A 
ATOM     66  F   UNL     1       2.155   1.656  12.960  1.00  0.00    -0.206 F 
ATOM     67  C   UNL     1       3.564  -1.574  12.226  1.00  0.00     0.022 A 
BRANCH  64  68
ATOM     68  S   UNL     1       6.068  -2.460  11.395  1.00  0.00     0.124 S 
ATOM     69  O   UNL     1       6.345  -2.234   9.980  1.00  0.00    -0.237 OA
ATOM     70  O   UNL     1       7.133  -2.107  12.327  1.00  0.00    -0.237 OA
ATOM     71  O   UNL     1       5.379  -3.714  11.695  1.00  0.00    -0.744 OA
ENDBRANCH  64  68
ENDBRANCH  47  61
BRANCH  48  72
ATOM     72  C   UNL     1       5.876   9.635   7.460  1.00  0.00     0.023 A 
ATOM     73  C   UNL     1       5.548  10.049   6.151  1.00  0.00     0.031 A 
ATOM     74  C   UNL     1       5.210  10.248   8.529  1.00  0.00     0.131 A 
ATOM     75  C   UNL     1       4.466  10.912   5.932  1.00  0.00     0.055 A 
ATOM     76  C   UNL     1       4.175  11.166   8.308  1.00  0.00     0.041 A 
ATOM     77  F   UNL     1       5.458   9.878   9.794  1.00  0.00    -0.206 F 
ATOM     78  C   UNL     1       3.768  11.466   7.006  1.00  0.00     0.022 A 
BRANCH  75  79
ATOM     79  S   UNL     1       3.804  11.079   4.245  1.00  0.00     0.124 S 
ATOM     80  O   UNL     1       4.505  12.262   3.759  1.00  0.00    -0.237 OA
ATOM     81  O   UNL     1       4.183   9.814   3.619  1.00  0.00    -0.237 OA
ATOM     82  O   UNL     1       2.367  11.235   4.459  1.00  0.00    -0.744 OA
ENDBRANCH  75  79
ENDBRANCH  48  72
BRANCH  60  83
ATOM     83  C   UNL     1       9.162   5.685  12.605  1.00  0.00     0.023 A 
ATOM     84  C   UNL     1       9.800   6.795  13.177  1.00  0.00     0.031 A 
ATOM     85  C   UNL     1       9.292   4.474  13.334  1.00  0.00     0.131 A 
ATOM     86  C   UNL     1      10.581   6.675  14.343  1.00  0.00     0.055 A 
ATOM     87  C   UNL     1      10.007   4.371  14.533  1.00  0.00     0.041 A 
ATOM     88  F   UNL     1       8.720   3.333  12.922  1.00  0.00    -0.206 F 
ATOM     89  C   UNL     1      10.674   5.474  15.037  1.00  0.00     0.022 A 
BRANCH  86  90
ATOM     90  S   UNL     1      11.527   8.120  14.895  1.00  0.00     0.124 S 
ATOM     91  O   UNL     1      12.412   8.353  13.758  1.00  0.00    -0.237 OA
ATOM     92  O   UNL     1      10.482   9.118  15.099  1.00  0.00    -0.237 OA
ATOM     93  O   UNL     1      12.190   7.656  16.112  1.00  0.00    -0.744 OA
ENDBRANCH  86  90
ENDBRANCH  60  83
ENDBRANCH  34  35
ENDBRANCH  26  29
ENDBRANCH  24  25
ENDBRANCH  23  24
ENDBRANCH   1  23
TORSDOF 20
