REMARK SMILES CS(=O)(=O)c1ccc(C2=NN(c3ccc(C(=O)NCCCCCCNC(=O)c4ccc(-c5c6nc(c(-c7cc(S(=O)(=O)[O-])ccc7F)c7ccc([nH]7)c(-c7cc(S(=O)(=O)[O-])ccc7F)c7nc(c(-c8cc(S(=O)(=O)[O-])ccc8F)c8ccc5[nH]8)C=C7)C=C6)cc4)cc3)[C@H](c3ccc(Cl)cc3)C2)cc1
REMARK SMILES IDX 21 1 20 2 19 3 18 4 16 5 17 6 15 8 12 9 13 10 92 11 14 12
REMARK SMILES IDX 91 13 11 14 9 15 10 16 101 17 93 18 8 19 5 20 6 21 103 22
REMARK SMILES IDX 7 23 102 24 2 25 1 26 3 27 4 28 94 29 95 30 100 31 96 32
REMARK SMILES IDX 99 33 97 34 98 35 22 36 23 37 24 38 25 39 26 40 27 42 28 43
REMARK SMILES IDX 29 44 90 45 30 46 89 47 31 48 32 49 33 50 83 51 34 52 88 53
REMARK SMILES IDX 82 54 84 55 35 56 87 57 81 58 80 59 36 61 68 62 48 63 67 64
REMARK SMILES IDX 49 65 52 66 66 67 85 68 50 69 51 70 65 72 86 73 53 74 37 75
REMARK SMILES IDX 38 76 46 77 39 78 45 79 47 80 44 81 40 82 41 83 42 84 43 85
REMARK SMILES IDX 69 86 70 87 78 88 71 89 77 90 79 91 76 92 72 93 73 94 74 95
REMARK SMILES IDX 75 96 54 97 55 98 63 99 56 100 62 101 64 102 61 103 57 104
REMARK SMILES IDX 58 105 59 106 60 107
REMARK H PARENT 18 7 25 41 84 60 52 71
REMARK Flexibility Score: inf
ROOT
ATOM      1  C   UNL     1      10.967  12.397   1.587  1.00  0.00     0.002 C 
ENDROOT
BRANCH   1   2
ATOM      2  C   UNL     1       9.633  11.643   1.551  1.00  0.00     0.021 C 
BRANCH   2   3
ATOM      3  C   UNL     1       8.594  12.306   0.645  1.00  0.00     0.116 C 
BRANCH   3   4
ATOM      4  N   UNL     1       8.878  12.002  -0.746  1.00  0.00    -0.352 N 
ATOM      5  C   UNL     1       8.281  11.134  -1.625  1.00  0.00     0.251 C 
ATOM      6  O   UNL     1       8.705  11.083  -2.779  1.00  0.00    -0.269 OA
ATOM      7  H   UNL     1       9.632  12.508  -1.125  1.00  0.00     0.163 HD
BRANCH   5   8
ATOM      8  C   UNL     1       7.097  10.320  -1.245  1.00  0.00     0.039 A 
ATOM      9  C   UNL     1       4.710   8.970  -0.604  1.00  0.00     0.060 A 
ATOM     10  C   UNL     1       4.935   9.431  -1.904  1.00  0.00     0.029 A 
ATOM     11  C   UNL     1       5.729   9.113   0.341  1.00  0.00     0.029 A 
ATOM     12  C   UNL     1       6.119  10.104  -2.224  1.00  0.00     0.016 A 
ATOM     13  C   UNL     1       6.922   9.759   0.020  1.00  0.00     0.016 A 
BRANCH   9  14
ATOM     14  N   UNL     1       3.533   8.345  -0.235  1.00  0.00    -0.257 N 
ATOM     15  C   UNL     1       2.123   6.779  -0.462  1.00  0.00     0.071 C 
ATOM     16  N   UNL     1       3.387   7.041  -0.545  1.00  0.00    -0.176 NA
ATOM     17  C   UNL     1       1.230   7.947  -0.150  1.00  0.00     0.091 C 
ATOM     18  C   UNL     1       2.287   9.043   0.100  1.00  0.00     0.144 C 
BRANCH  15  19
ATOM     19  C   UNL     1       1.617   5.415  -0.663  1.00  0.00    -0.002 A 
ATOM     20  C   UNL     1       0.854   2.779  -1.107  1.00  0.00     0.067 A 
ATOM     21  C   UNL     1       2.003   3.041  -0.360  1.00  0.00     0.021 A 
ATOM     22  C   UNL     1       0.082   3.829  -1.626  1.00  0.00     0.021 A 
ATOM     23  C   UNL     1       2.385   4.363  -0.146  1.00  0.00     0.011 A 
ATOM     24  C   UNL     1       0.463   5.156  -1.401  1.00  0.00     0.011 A 
BRANCH  20  25
ATOM     25  S   UNL     1       0.334   1.109  -1.422  1.00  0.00     0.175 S 
ATOM     26  C   UNL     1       0.900   0.138  -0.051  1.00  0.00     0.163 C 
ATOM     27  O   UNL     1       1.038   0.673  -2.609  1.00  0.00    -0.224 OA
ATOM     28  O   UNL     1      -1.119   1.111  -1.369  1.00  0.00    -0.224 OA
ENDBRANCH  20  25
ENDBRANCH  15  19
BRANCH  18  29
ATOM     29  C   UNL     1       2.368   9.664   1.495  1.00  0.00    -0.023 A 
ATOM     30  C   UNL     1       1.761   9.123   2.640  1.00  0.00     0.007 A 
ATOM     31  C   UNL     1       3.127  10.843   1.659  1.00  0.00     0.007 A 
ATOM     32  C   UNL     1       1.900   9.741   3.892  1.00  0.00     0.021 A 
ATOM     33  C   UNL     1       3.293  11.443   2.911  1.00  0.00     0.021 A 
ATOM     34  C   UNL     1       2.672  10.891   4.024  1.00  0.00     0.041 A 
ATOM     35  Cl  UNL     1       2.862  11.629   5.564  1.00  0.00    -0.084 Cl
ENDBRANCH  18  29
ENDBRANCH   9  14
ENDBRANCH   5   8
ENDBRANCH   3   4
ENDBRANCH   2   3
ENDBRANCH   1   2
BRANCH   1  36
ATOM     36  C   UNL     1      10.879  13.818   2.157  1.00  0.00     0.002 C 
BRANCH  36  37
ATOM     37  C   UNL     1      10.270  13.909   3.558  1.00  0.00     0.021 C 
BRANCH  37  38
ATOM     38  C   UNL     1      11.050  13.148   4.625  1.00  0.00     0.116 C 
BRANCH  38  39
ATOM     39  N   UNL     1      12.383  13.700   4.801  1.00  0.00    -0.352 N 
ATOM     40  C   UNL     1      12.967  14.212   5.932  1.00  0.00     0.251 C 
ATOM     41  H   UNL     1      12.947  13.707   3.994  1.00  0.00     0.163 HD
ATOM     42  O   UNL     1      13.992  14.881   5.839  1.00  0.00    -0.269 OA
BRANCH  40  43
ATOM     43  C   UNL     1      12.348  13.966   7.252  1.00  0.00     0.039 A 
ATOM     44  C   UNL     1      12.286  15.009   8.178  1.00  0.00     0.014 A 
ATOM     45  C   UNL     1      11.845  12.703   7.580  1.00  0.00     0.014 A 
ATOM     46  C   UNL     1      11.673  14.797   9.415  1.00  0.00     0.010 A 
ATOM     47  C   UNL     1      11.163  12.518   8.779  1.00  0.00     0.010 A 
ATOM     48  C   UNL     1      11.079  13.560   9.714  1.00  0.00    -0.014 A 
BRANCH  48  49
ATOM     49  C   UNL     1      10.383  13.336  11.008  1.00  0.00     0.031 A 
ATOM     50  C   UNL     1      10.902  12.309  11.977  1.00  0.00     0.074 A 
ATOM     51  C   UNL     1       9.261  14.028  11.289  1.00  0.00     0.049 A 
ATOM     52  N   UNL     1      10.410  11.935  13.131  1.00  0.00    -0.248 NA
ATOM     53  C   UNL     1      12.121  11.586  11.583  1.00  0.00     0.031 C 
ATOM     54  C   UNL     1       8.642  15.025  10.411  1.00  0.00     0.029 A 
ATOM     55  N   UNL     1       8.440  14.001  12.388  1.00  0.00    -0.354 N 
ATOM     56  C   UNL     1      11.254  10.932  13.597  1.00  0.00     0.074 A 
ATOM     57  C   UNL     1      12.244  10.707  12.565  1.00  0.00     0.031 C 
ATOM     58  C   UNL     1       7.563  15.539  11.022  1.00  0.00     0.029 A 
ATOM     59  C   UNL     1       7.379  14.874  12.308  1.00  0.00     0.049 A 
ATOM     60  H   UNL     1       8.595  13.411  13.161  1.00  0.00     0.167 HD
ATOM     61  C   UNL     1      11.223  10.280  14.786  1.00  0.00     0.034 A 
ATOM     62  C   UNL     1       6.368  15.106  13.169  1.00  0.00     0.034 A 
ATOM     63  C   UNL     1      10.227  10.519  15.803  1.00  0.00     0.049 A 
ATOM     64  C   UNL     1       6.328  14.334  14.465  1.00  0.00     0.074 A 
ATOM     65  C   UNL     1      10.122   9.946  17.058  1.00  0.00     0.029 A 
ATOM     66  N   UNL     1       9.157  11.398  15.680  1.00  0.00    -0.354 N 
ATOM     67  N   UNL     1       7.160  13.421  14.911  1.00  0.00    -0.248 NA
ATOM     68  C   UNL     1       5.218  14.634  15.377  1.00  0.00     0.031 C 
ATOM     69  C   UNL     1       8.950  10.416  17.660  1.00  0.00     0.029 A 
ATOM     70  C   UNL     1       8.370  11.354  16.821  1.00  0.00     0.049 A 
ATOM     71  H   UNL     1       8.983  11.968  14.896  1.00  0.00     0.167 HD
ATOM     72  C   UNL     1       6.692  13.066  16.174  1.00  0.00     0.074 A 
ATOM     73  C   UNL     1       5.516  13.875  16.421  1.00  0.00     0.031 C 
ATOM     74  C   UNL     1       7.192  12.159  17.052  1.00  0.00     0.034 A 
BRANCH  61  75
ATOM     75  C   UNL     1      12.282   9.229  15.030  1.00  0.00     0.023 A 
ATOM     76  C   UNL     1      13.651   9.551  15.050  1.00  0.00     0.031 A 
ATOM     77  C   UNL     1      11.924   7.882  15.216  1.00  0.00     0.131 A 
ATOM     78  C   UNL     1      14.611   8.534  15.165  1.00  0.00     0.055 A 
ATOM     79  C   UNL     1      12.882   6.886  15.422  1.00  0.00     0.041 A 
ATOM     80  F   UNL     1      10.636   7.505  15.184  1.00  0.00    -0.206 F 
ATOM     81  C   UNL     1      14.235   7.207  15.380  1.00  0.00     0.022 A 
BRANCH  78  82
ATOM     82  S   UNL     1      16.351   8.950  14.866  1.00  0.00     0.124 S 
ATOM     83  O   UNL     1      16.295   9.493  13.511  1.00  0.00    -0.237 OA
ATOM     84  O   UNL     1      16.634   9.907  15.928  1.00  0.00    -0.237 OA
ATOM     85  O   UNL     1      17.035   7.664  14.985  1.00  0.00    -0.744 OA
ENDBRANCH  78  82
ENDBRANCH  61  75
BRANCH  62  86
ATOM     86  C   UNL     1       5.308  16.103  12.842  1.00  0.00     0.023 A 
ATOM     87  C   UNL     1       5.120  17.245  13.637  1.00  0.00     0.031 A 
ATOM     88  C   UNL     1       4.434  15.905  11.759  1.00  0.00     0.131 A 
ATOM     89  C   UNL     1       4.053  18.116  13.370  1.00  0.00     0.055 A 
ATOM     90  C   UNL     1       3.411  16.807  11.460  1.00  0.00     0.041 A 
ATOM     91  F   UNL     1       4.568  14.831  10.965  1.00  0.00    -0.206 F 
ATOM     92  C   UNL     1       3.207  17.914  12.278  1.00  0.00     0.022 A 
BRANCH  89  93
ATOM     93  S   UNL     1       3.723  19.468  14.535  1.00  0.00     0.124 S 
ATOM     94  O   UNL     1       3.524  18.740  15.783  1.00  0.00    -0.237 OA
ATOM     95  O   UNL     1       4.947  20.256  14.438  1.00  0.00    -0.237 OA
ATOM     96  O   UNL     1       2.529  20.106  13.986  1.00  0.00    -0.744 OA
ENDBRANCH  89  93
ENDBRANCH  62  86
BRANCH  74  97
ATOM     97  C   UNL     1       6.491  12.034  18.385  1.00  0.00     0.023 A 
ATOM     98  C   UNL     1       5.168  11.570  18.490  1.00  0.00     0.031 A 
ATOM     99  C   UNL     1       7.156  12.404  19.568  1.00  0.00     0.131 A 
ATOM    100  C   UNL     1       4.531  11.551  19.740  1.00  0.00     0.055 A 
ATOM    101  C   UNL     1       6.541  12.314  20.817  1.00  0.00     0.041 A 
ATOM    102  F   UNL     1       8.419  12.859  19.530  1.00  0.00    -0.206 F 
ATOM    103  C   UNL     1       5.216  11.900  20.907  1.00  0.00     0.022 A 
BRANCH 100 104
ATOM    104  S   UNL     1       2.759  11.169  19.808  1.00  0.00     0.124 S 
ATOM    105  O   UNL     1       2.196  12.189  18.930  1.00  0.00    -0.237 OA
ATOM    106  O   UNL     1       2.715   9.800  19.305  1.00  0.00    -0.237 OA
ATOM    107  O   UNL     1       2.430  11.319  21.224  1.00  0.00    -0.744 OA
ENDBRANCH 100 104
ENDBRANCH  74  97
ENDBRANCH  48  49
ENDBRANCH  40  43
ENDBRANCH  38  39
ENDBRANCH  37  38
ENDBRANCH  36  37
ENDBRANCH   1  36
TORSDOF 20
