REMARK SMILES O=C(CNS(=O)(=O)c1ccccc1)N[C@@H](CO)C(=O)NCCCCCCNC(=O)c1ccc(-c2c3nc(c(-c4cc(S(=O)(=O)[O-])ccc4F)c4ccc([nH]4)c(-c4cc(S(=O)(=O)[O-])ccc4F)c4nc(c(-c5cc(S(=O)(=O)[O-])ccc5F)c5ccc2[nH]5)C=C4)C=C3)cc1
REMARK SMILES IDX 22 1 21 2 20 3 18 4 19 5 15 7 14 8 1 9 2 10 3 12 4 13 5 15
REMARK SMILES IDX 6 16 7 17 8 18 9 19 13 20 10 21 12 22 11 23 16 24 17 25
REMARK SMILES IDX 23 27 24 28 25 29 26 30 27 31 28 32 29 34 30 35 31 36 92 37
REMARK SMILES IDX 32 38 91 39 33 40 34 41 35 42 85 43 36 44 90 45 84 46 86 47
REMARK SMILES IDX 37 48 89 49 83 50 82 51 38 53 70 54 50 55 69 56 51 57 54 58
REMARK SMILES IDX 68 59 87 60 52 61 53 62 67 64 88 65 55 66 39 67 40 68 48 69
REMARK SMILES IDX 41 70 47 71 49 72 46 73 42 74 43 75 44 76 45 77 71 78 72 79
REMARK SMILES IDX 80 80 73 81 79 82 81 83 78 84 74 85 75 86 76 87 77 88 56 89
REMARK SMILES IDX 57 90 65 91 58 92 64 93 66 94 63 95 59 96 60 97 61 98 62 99
REMARK H PARENT 20 6 14 11 4 14 17 26 27 33 86 52 54 63
REMARK Flexibility Score: inf
ROOT
ATOM      1  C   UNL     1       6.248   2.082  -2.146  1.00  0.00     0.021 C 
ENDROOT
BRANCH   1   2
ATOM      2  C   UNL     1       5.190   2.910  -1.420  1.00  0.00     0.116 C 
BRANCH   2   3
ATOM      3  N   UNL     1       3.995   3.079  -2.224  1.00  0.00    -0.354 N 
ATOM      4  C   UNL     1       2.678   2.949  -1.909  1.00  0.00     0.244 C 
ATOM      5  O   UNL     1       1.863   3.400  -2.723  1.00  0.00    -0.273 OA
ATOM      6  H   UNL     1       4.166   3.330  -3.160  1.00  0.00     0.163 HD
BRANCH   4   7
ATOM      7  C   UNL     1       2.188   2.353  -0.577  1.00  0.00     0.197 C 
BRANCH   7   8
ATOM      8  N   UNL     1       2.778   1.050  -0.266  1.00  0.00    -0.341 N 
ATOM      9  O   UNL     1       0.909   0.204   0.745  1.00  0.00    -0.274 OA
ATOM     10  C   UNL     1       2.049   0.040   0.321  1.00  0.00     0.235 C 
ATOM     11  H   UNL     1       3.725   0.892  -0.483  1.00  0.00     0.164 HD
BRANCH  10  12
ATOM     12  C   UNL     1       2.777  -1.296   0.432  1.00  0.00     0.198 C 
BRANCH  12  13
ATOM     13  N   UNL     1       3.917  -1.362  -0.512  1.00  0.00    -0.202 NA
ATOM     14  H   UNL     1       4.536  -0.577  -0.313  1.00  0.00     0.141 HD
BRANCH  13  15
ATOM     15  S   UNL     1       4.840  -2.783  -0.448  1.00  0.00     0.241 S 
ATOM     16  O   UNL     1       3.915  -3.870  -0.228  1.00  0.00    -0.207 OA
ATOM     17  O   UNL     1       5.704  -2.732  -1.605  1.00  0.00    -0.207 OA
BRANCH  15  18
ATOM     18  C   UNL     1       5.852  -2.591   0.990  1.00  0.00     0.082 A 
ATOM     19  C   UNL     1       6.178  -3.728   1.737  1.00  0.00     0.022 A 
ATOM     20  C   UNL     1       6.277  -1.323   1.396  1.00  0.00     0.022 A 
ATOM     21  C   UNL     1       6.942  -3.593   2.896  1.00  0.00     0.001 A 
ATOM     22  C   UNL     1       7.032  -1.196   2.562  1.00  0.00     0.001 A 
ATOM     23  C   UNL     1       7.364  -2.328   3.309  1.00  0.00     0.000 A 
ENDBRANCH  15  18
ENDBRANCH  13  15
ENDBRANCH  12  13
ENDBRANCH  10  12
ENDBRANCH   7   8
BRANCH   7  24
ATOM     24  C   UNL     1       2.269   3.371   0.570  1.00  0.00     0.191 C 
BRANCH  24  25
ATOM     25  O   UNL     1       3.571   3.471   1.144  1.00  0.00    -0.394 OA
ATOM     26  H   UNL     1       3.822   2.616   1.527  1.00  0.00     0.210 HD
ENDBRANCH  24  25
ENDBRANCH   7  24
ENDBRANCH   4   7
ENDBRANCH   2   3
ENDBRANCH   1   2
BRANCH   1  27
ATOM     27  C   UNL     1       6.828   2.729  -3.409  1.00  0.00     0.002 C 
BRANCH  27  28
ATOM     28  C   UNL     1       7.454   4.114  -3.223  1.00  0.00     0.002 C 
BRANCH  28  29
ATOM     29  C   UNL     1       8.512   4.227  -2.122  1.00  0.00     0.021 C 
BRANCH  29  30
ATOM     30  C   UNL     1       9.673   3.240  -2.218  1.00  0.00     0.116 C 
BRANCH  30  31
ATOM     31  N   UNL     1      10.444   3.396  -3.438  1.00  0.00    -0.352 N 
ATOM     32  C   UNL     1      11.806   3.459  -3.605  1.00  0.00     0.251 C 
ATOM     33  H   UNL     1       9.914   3.466  -4.264  1.00  0.00     0.163 HD
ATOM     34  O   UNL     1      12.266   3.738  -4.709  1.00  0.00    -0.269 OA
BRANCH  32  35
ATOM     35  C   UNL     1      12.713   3.227  -2.457  1.00  0.00     0.039 A 
ATOM     36  C   UNL     1      13.796   4.092  -2.273  1.00  0.00     0.014 A 
ATOM     37  C   UNL     1      12.515   2.160  -1.575  1.00  0.00     0.014 A 
ATOM     38  C   UNL     1      14.643   3.925  -1.173  1.00  0.00     0.010 A 
ATOM     39  C   UNL     1      13.326   2.030  -0.447  1.00  0.00     0.010 A 
ATOM     40  C   UNL     1      14.397   2.911  -0.234  1.00  0.00    -0.014 A 
BRANCH  40  41
ATOM     41  C   UNL     1      15.259   2.752   0.967  1.00  0.00     0.031 A 
ATOM     42  C   UNL     1      16.117   1.525   1.122  1.00  0.00     0.074 A 
ATOM     43  C   UNL     1      15.235   3.686   1.938  1.00  0.00     0.049 A 
ATOM     44  N   UNL     1      16.872   1.162   2.127  1.00  0.00    -0.248 NA
ATOM     45  C   UNL     1      16.102   0.569   0.004  1.00  0.00     0.031 C 
ATOM     46  C   UNL     1      14.428   4.907   1.916  1.00  0.00     0.029 A 
ATOM     47  N   UNL     1      15.902   3.753   3.136  1.00  0.00    -0.354 N 
ATOM     48  C   UNL     1      17.421  -0.064   1.767  1.00  0.00     0.074 A 
ATOM     49  C   UNL     1      16.860  -0.409   0.477  1.00  0.00     0.031 C 
ATOM     50  C   UNL     1      14.661   5.609   3.037  1.00  0.00     0.029 A 
ATOM     51  C   UNL     1      15.600   4.873   3.877  1.00  0.00     0.049 A 
ATOM     52  H   UNL     1      16.537   3.063   3.438  1.00  0.00     0.167 HD
ATOM     53  C   UNL     1      18.327  -0.821   2.436  1.00  0.00     0.034 A 
ATOM     54  C   UNL     1      16.024   5.256   5.097  1.00  0.00     0.034 A 
ATOM     55  C   UNL     1      18.883  -0.464   3.719  1.00  0.00     0.049 A 
ATOM     56  C   UNL     1      17.006   4.382   5.837  1.00  0.00     0.074 A 
ATOM     57  C   UNL     1      19.816  -1.150   4.478  1.00  0.00     0.029 A 
ATOM     58  N   UNL     1      18.558   0.681   4.435  1.00  0.00    -0.354 N 
ATOM     59  N   UNL     1      17.529   3.234   5.471  1.00  0.00    -0.248 NA
ATOM     60  C   UNL     1      17.463   4.862   7.148  1.00  0.00     0.031 C 
ATOM     61  C   UNL     1      20.018  -0.446   5.671  1.00  0.00     0.029 A 
ATOM     62  C   UNL     1      19.258   0.711   5.631  1.00  0.00     0.049 A 
ATOM     63  H   UNL     1      17.922   1.371   4.136  1.00  0.00     0.167 HD
ATOM     64  C   UNL     1      18.403   2.875   6.494  1.00  0.00     0.074 A 
ATOM     65  C   UNL     1      18.345   3.932   7.482  1.00  0.00     0.031 C 
ATOM     66  C   UNL     1      19.186   1.772   6.606  1.00  0.00     0.034 A 
BRANCH  53  67
ATOM     67  C   UNL     1      18.753  -2.117   1.791  1.00  0.00     0.023 A 
ATOM     68  C   UNL     1      19.448  -2.132   0.569  1.00  0.00     0.031 A 
ATOM     69  C   UNL     1      18.436  -3.352   2.384  1.00  0.00     0.131 A 
ATOM     70  C   UNL     1      19.735  -3.354  -0.058  1.00  0.00     0.055 A 
ATOM     71  C   UNL     1      18.796  -4.565   1.793  1.00  0.00     0.041 A 
ATOM     72  F   UNL     1      17.756  -3.400   3.541  1.00  0.00    -0.206 F 
ATOM     73  C   UNL     1      19.436  -4.571   0.557  1.00  0.00     0.022 A 
BRANCH  70  74
ATOM     74  S   UNL     1      20.383  -3.325  -1.752  1.00  0.00     0.124 S 
ATOM     75  O   UNL     1      19.301  -2.655  -2.469  1.00  0.00    -0.237 OA
ATOM     76  O   UNL     1      21.619  -2.565  -1.605  1.00  0.00    -0.237 OA
ATOM     77  O   UNL     1      20.555  -4.739  -2.077  1.00  0.00    -0.744 OA
ENDBRANCH  70  74
ENDBRANCH  53  67
BRANCH  54  78
ATOM     78  C   UNL     1      15.526   6.519   5.713  1.00  0.00     0.023 A 
ATOM     79  C   UNL     1      16.400   7.584   5.981  1.00  0.00     0.031 A 
ATOM     80  C   UNL     1      14.181   6.654   6.102  1.00  0.00     0.131 A 
ATOM     81  C   UNL     1      15.935   8.715   6.669  1.00  0.00     0.055 A 
ATOM     82  C   UNL     1      13.711   7.804   6.738  1.00  0.00     0.041 A 
ATOM     83  F   UNL     1      13.302   5.668   5.864  1.00  0.00    -0.206 F 
ATOM     84  C   UNL     1      14.594   8.837   7.040  1.00  0.00     0.022 A 
BRANCH  81  85
ATOM     85  S   UNL     1      17.134   9.982   7.164  1.00  0.00     0.124 S 
ATOM     86  O   UNL     1      18.099   9.198   7.927  1.00  0.00    -0.237 OA
ATOM     87  O   UNL     1      17.592  10.484   5.873  1.00  0.00    -0.237 OA
ATOM     88  O   UNL     1      16.333  10.920   7.947  1.00  0.00    -0.744 OA
ENDBRANCH  81  85
ENDBRANCH  54  78
BRANCH  66  89
ATOM     89  C   UNL     1      20.079   1.693   7.819  1.00  0.00     0.023 A 
ATOM     90  C   UNL     1      19.556   1.516   9.111  1.00  0.00     0.031 A 
ATOM     91  C   UNL     1      21.472   1.821   7.678  1.00  0.00     0.131 A 
ATOM     92  C   UNL     1      20.416   1.528  10.219  1.00  0.00     0.055 A 
ATOM     93  C   UNL     1      22.328   1.779   8.779  1.00  0.00     0.041 A 
ATOM     94  F   UNL     1      22.023   1.992   6.465  1.00  0.00    -0.206 F 
ATOM     95  C   UNL     1      21.799   1.645  10.060  1.00  0.00     0.022 A 
BRANCH  92  96
ATOM     96  S   UNL     1      19.694   1.472  11.882  1.00  0.00     0.124 S 
ATOM     97  O   UNL     1      18.843   2.658  11.884  1.00  0.00    -0.237 OA
ATOM     98  O   UNL     1      18.998   0.190  11.878  1.00  0.00    -0.237 OA
ATOM     99  O   UNL     1      20.857   1.542  12.765  1.00  0.00    -0.744 OA
ENDBRANCH  92  96
ENDBRANCH  66  89
ENDBRANCH  40  41
ENDBRANCH  32  35
ENDBRANCH  30  31
ENDBRANCH  29  30
ENDBRANCH  28  29
ENDBRANCH  27  28
ENDBRANCH   1  27
TORSDOF 23
