REMARK SMILES O=C(NCCCCCCNC(=O)[C@@H]1CCCC[C@@H]1C(=O)Nc1cccc(Br)c1)c1ccc(-c2c3nc(c(-c4cc(S(=O)(=O)[O-])ccc4F)c4ccc([nH]4)c(-c4cc(S(=O)(=O)[O-])ccc4F)c4nc(c(-c5cc(S(=O)(=O)[O-])ccc5F)c5ccc2[nH]5)C=C4)C=C3)cc1
REMARK SMILES IDX 6 1 5 2 4 3 3 4 1 5 2 6 29 8 30 9 91 10 31 11 90 12 32 13
REMARK SMILES IDX 33 14 34 15 84 16 35 17 89 18 83 19 85 20 36 21 88 22 82 23
REMARK SMILES IDX 81 24 37 26 69 27 49 28 68 29 50 30 53 31 67 32 86 33 51 34
REMARK SMILES IDX 52 35 66 37 87 38 54 39 38 40 39 41 47 42 40 43 46 44 48 45
REMARK SMILES IDX 45 46 41 47 42 48 43 49 44 50 70 51 71 52 79 53 72 54 78 55
REMARK SMILES IDX 80 56 77 57 73 58 74 59 75 60 76 61 55 62 56 63 64 64 57 65
REMARK SMILES IDX 63 66 65 67 62 68 58 69 59 70 60 71 61 72 7 73 8 74 9 75
REMARK SMILES IDX 10 76 11 77 12 79 13 80 14 81 18 82 15 83 17 84 16 85 19 86
REMARK SMILES IDX 20 87 21 88 22 90 23 91 28 92 24 93 26 94 25 95 27 96
REMARK H PARENT 3 7 85 25 53 36 10 78 21 89
REMARK Flexibility Score: inf
ROOT
ATOM      1  C   UNL     1       4.295  -3.236   1.703  1.00  0.00     0.002 C 
ENDROOT
BRANCH   1   2
ATOM      2  C   UNL     1       4.645  -1.752   1.627  1.00  0.00     0.021 C 
BRANCH   2   3
ATOM      3  C   UNL     1       4.376  -1.113   0.272  1.00  0.00     0.116 C 
BRANCH   3   4
ATOM      4  N   UNL     1       2.950  -0.991  -0.002  1.00  0.00    -0.352 N 
ATOM      5  O   UNL     1       1.006   0.081  -0.382  1.00  0.00    -0.269 OA
ATOM      6  C   UNL     1       2.233   0.114  -0.396  1.00  0.00     0.251 C 
ATOM      7  H   UNL     1       2.426  -1.817   0.112  1.00  0.00     0.163 HD
BRANCH   6   8
ATOM      8  C   UNL     1       2.940   1.340  -0.829  1.00  0.00     0.039 A 
ATOM      9  C   UNL     1       4.079   1.257  -1.635  1.00  0.00     0.014 A 
ATOM     10  C   UNL     1       2.439   2.590  -0.453  1.00  0.00     0.014 A 
ATOM     11  C   UNL     1       4.787   2.408  -1.959  1.00  0.00     0.010 A 
ATOM     12  C   UNL     1       3.100   3.752  -0.858  1.00  0.00     0.010 A 
ATOM     13  C   UNL     1       4.288   3.669  -1.602  1.00  0.00    -0.014 A 
BRANCH  13  14
ATOM     14  C   UNL     1       4.980   4.892  -2.079  1.00  0.00     0.031 A 
ATOM     15  C   UNL     1       5.588   5.859  -1.105  1.00  0.00     0.074 A 
ATOM     16  C   UNL     1       5.043   5.122  -3.405  1.00  0.00     0.049 A 
ATOM     17  N   UNL     1       6.154   7.016  -1.334  1.00  0.00    -0.248 NA
ATOM     18  C   UNL     1       5.541   5.480   0.313  1.00  0.00     0.031 C 
ATOM     19  C   UNL     1       4.492   4.238  -4.436  1.00  0.00     0.029 A 
ATOM     20  N   UNL     1       5.591   6.157  -4.116  1.00  0.00    -0.354 N 
ATOM     21  C   UNL     1       6.511   7.518  -0.088  1.00  0.00     0.074 A 
ATOM     22  C   UNL     1       6.065   6.550   0.894  1.00  0.00     0.031 C 
ATOM     23  C   UNL     1       4.754   4.753  -5.645  1.00  0.00     0.029 A 
ATOM     24  C   UNL     1       5.412   6.042  -5.475  1.00  0.00     0.049 A 
ATOM     25  H   UNL     1       6.067   6.909  -3.695  1.00  0.00     0.167 HD
ATOM     26  C   UNL     1       7.154   8.679   0.202  1.00  0.00     0.034 A 
ATOM     27  C   UNL     1       5.703   6.897  -6.473  1.00  0.00     0.034 A 
ATOM     28  C   UNL     1       7.574   9.628  -0.804  1.00  0.00     0.049 A 
ATOM     29  C   UNL     1       6.356   8.206  -6.125  1.00  0.00     0.074 A 
ATOM     30  C   UNL     1       8.244  10.827  -0.635  1.00  0.00     0.029 A 
ATOM     31  N   UNL     1       7.349   9.492  -2.171  1.00  0.00    -0.354 N 
ATOM     32  N   UNL     1       6.689   8.671  -4.943  1.00  0.00    -0.248 NA
ATOM     33  C   UNL     1       6.677   9.101  -7.241  1.00  0.00     0.031 C 
ATOM     34  C   UNL     1       8.354  11.449  -1.884  1.00  0.00     0.029 A 
ATOM     35  C   UNL     1       7.837  10.599  -2.850  1.00  0.00     0.049 A 
ATOM     36  H   UNL     1       6.907   8.721  -2.595  1.00  0.00     0.167 HD
ATOM     37  C   UNL     1       7.286   9.905  -5.176  1.00  0.00     0.074 A 
ATOM     38  C   UNL     1       7.272  10.105  -6.612  1.00  0.00     0.031 C 
ATOM     39  C   UNL     1       7.806  10.786  -4.284  1.00  0.00     0.034 A 
BRANCH  26  40
ATOM     40  C   UNL     1       7.377   9.002   1.663  1.00  0.00     0.023 A 
ATOM     41  C   UNL     1       8.147   8.173   2.498  1.00  0.00     0.031 A 
ATOM     42  C   UNL     1       6.766  10.128   2.244  1.00  0.00     0.131 A 
ATOM     43  C   UNL     1       8.206   8.426   3.878  1.00  0.00     0.055 A 
ATOM     44  C   UNL     1       6.905  10.427   3.602  1.00  0.00     0.041 A 
ATOM     45  F   UNL     1       6.001  10.948   1.507  1.00  0.00    -0.206 F 
ATOM     46  C   UNL     1       7.612   9.562   4.432  1.00  0.00     0.022 A 
BRANCH  43  47
ATOM     47  S   UNL     1       8.917   7.154   4.960  1.00  0.00     0.124 S 
ATOM     48  O   UNL     1       8.107   5.987   4.618  1.00  0.00    -0.237 OA
ATOM     49  O   UNL     1      10.309   7.113   4.527  1.00  0.00    -0.237 OA
ATOM     50  O   UNL     1       8.695   7.683   6.304  1.00  0.00    -0.744 OA
ENDBRANCH  43  47
ENDBRANCH  26  40
BRANCH  27  51
ATOM     51  C   UNL     1       5.337   6.553  -7.875  1.00  0.00     0.023 A 
ATOM     52  C   UNL     1       6.320   6.339  -8.852  1.00  0.00     0.031 A 
ATOM     53  C   UNL     1       3.988   6.419  -8.255  1.00  0.00     0.131 A 
ATOM     54  C   UNL     1       5.940   6.028 -10.167  1.00  0.00     0.055 A 
ATOM     55  C   UNL     1       3.617   6.058  -9.550  1.00  0.00     0.041 A 
ATOM     56  F   UNL     1       3.008   6.606  -7.356  1.00  0.00    -0.206 F 
ATOM     57  C   UNL     1       4.597   5.869 -10.518  1.00  0.00     0.022 A 
BRANCH  54  58
ATOM     58  S   UNL     1       7.230   5.889 -11.433  1.00  0.00     0.124 S 
ATOM     59  O   UNL     1       7.843   7.211 -11.379  1.00  0.00    -0.237 OA
ATOM     60  O   UNL     1       8.038   4.786 -10.924  1.00  0.00    -0.237 OA
ATOM     61  O   UNL     1       6.480   5.598 -12.653  1.00  0.00    -0.744 OA
ENDBRANCH  54  58
ENDBRANCH  27  51
BRANCH  39  62
ATOM     62  C   UNL     1       8.462  12.022  -4.849  1.00  0.00     0.023 A 
ATOM     63  C   UNL     1       7.726  13.025  -5.503  1.00  0.00     0.031 A 
ATOM     64  C   UNL     1       9.853  12.193  -4.726  1.00  0.00     0.131 A 
ATOM     65  C   UNL     1       8.392  14.131  -6.053  1.00  0.00     0.055 A 
ATOM     66  C   UNL     1      10.501  13.325  -5.220  1.00  0.00     0.041 A 
ATOM     67  F   UNL     1      10.604  11.262  -4.117  1.00  0.00    -0.206 F 
ATOM     68  C   UNL     1       9.771  14.297  -5.897  1.00  0.00     0.022 A 
BRANCH  65  69
ATOM     69  S   UNL     1       7.445  15.312  -7.052  1.00  0.00     0.124 S 
ATOM     70  O   UNL     1       6.923  14.459  -8.114  1.00  0.00    -0.237 OA
ATOM     71  O   UNL     1       6.464  15.814  -6.096  1.00  0.00    -0.237 OA
ATOM     72  O   UNL     1       8.450  16.286  -7.476  1.00  0.00    -0.744 OA
ENDBRANCH  65  69
ENDBRANCH  39  62
ENDBRANCH  13  14
ENDBRANCH   6   8
ENDBRANCH   3   4
ENDBRANCH   2   3
ENDBRANCH   1   2
BRANCH   1  73
ATOM     73  C   UNL     1       5.151  -4.193   0.871  1.00  0.00     0.002 C 
BRANCH  73  74
ATOM     74  C   UNL     1       6.676  -4.067   0.997  1.00  0.00     0.021 C 
BRANCH  74  75
ATOM     75  C   UNL     1       7.284  -4.221   2.396  1.00  0.00     0.116 C 
BRANCH  75  76
ATOM     76  N   UNL     1       6.990  -5.500   3.024  1.00  0.00    -0.356 N 
ATOM     77  C   UNL     1       7.706  -6.213   3.949  1.00  0.00     0.223 C 
ATOM     78  H   UNL     1       6.145  -5.919   2.740  1.00  0.00     0.163 HD
ATOM     79  O   UNL     1       7.162  -7.191   4.463  1.00  0.00    -0.275 OA
BRANCH  77  80
ATOM     80  C   UNL     1       9.132  -5.806   4.291  1.00  0.00     0.091 C 
ATOM     81  C   UNL     1       9.958  -6.969   4.854  1.00  0.00     0.014 C 
ATOM     82  C   UNL     1       9.259  -4.550   5.168  1.00  0.00     0.091 C 
ATOM     83  C   UNL     1      11.440  -6.597   4.901  1.00  0.00     0.001 C 
ATOM     84  C   UNL     1      10.753  -4.132   5.158  1.00  0.00     0.014 C 
ATOM     85  C   UNL     1      11.715  -5.253   5.577  1.00  0.00     0.001 C 
BRANCH  82  86
ATOM     86  C   UNL     1       8.827  -4.660   6.652  1.00  0.00     0.228 C 
ATOM     87  O   UNL     1       9.366  -5.418   7.457  1.00  0.00    -0.274 OA
ATOM     88  N   UNL     1       7.999  -3.673   7.132  1.00  0.00    -0.326 N 
ATOM     89  H   UNL     1       8.269  -3.247   7.978  1.00  0.00     0.169 HD
BRANCH  88  90
ATOM     90  C   UNL     1       6.815  -3.207   6.549  1.00  0.00     0.042 A 
ATOM     91  C   UNL     1       5.978  -4.079   5.856  1.00  0.00     0.026 A 
ATOM     92  C   UNL     1       6.415  -1.890   6.768  1.00  0.00     0.041 A 
ATOM     93  C   UNL     1       4.777  -3.625   5.318  1.00  0.00     0.003 A 
ATOM     94  C   UNL     1       5.232  -1.428   6.187  1.00  0.00     0.020 A 
ATOM     95  C   UNL     1       4.418  -2.286   5.450  1.00  0.00     0.016 A 
ATOM     96  Br  UNL     1       4.719   0.377   6.401  1.00  0.00    -0.051 Br
ENDBRANCH  88  90
ENDBRANCH  82  86
ENDBRANCH  77  80
ENDBRANCH  75  76
ENDBRANCH  74  75
ENDBRANCH  73  74
ENDBRANCH   1  73
TORSDOF 18
