REMARK SMILES COc1ccc2[nH]cc([C@H](C(=O)NCCCCCCNC(=O)c3ccc(-c4c5nc(c(-c6cc(S(=O)(=O)[O-])ccc6F)c6ccc([nH]6)c(-c6cc(S(=O)(=O)[O-])ccc6F)c6nc(c(-c7cc(S(=O)(=O)[O-])ccc7F)c7ccc4[nH]7)C=C6)C=C5)cc3)[NH+]3CC[NH+](Cc4cccc5ccccc45)CC3)c2c1
REMARK SMILES IDX 16 1 15 2 14 3 13 4 11 5 12 6 10 8 9 9 3 10 4 11 104 12 5 13
REMARK SMILES IDX 103 14 6 15 7 16 8 17 2 19 1 20 86 21 87 22 102 23 88 25
REMARK SMILES IDX 101 26 89 27 90 29 91 30 92 31 100 32 93 33 95 34 99 35
REMARK SMILES IDX 94 36 96 37 98 38 97 39 17 40 18 41 19 42 20 43 21 44 22 46
REMARK SMILES IDX 23 47 24 48 85 49 25 50 84 51 26 52 27 53 28 54 78 55 29 56
REMARK SMILES IDX 83 57 77 58 79 59 30 60 82 61 76 62 75 63 31 65 63 66 43 67
REMARK SMILES IDX 62 68 44 69 47 70 61 71 80 72 45 73 46 74 60 76 81 77 48 78
REMARK SMILES IDX 32 79 33 80 41 81 34 82 40 83 42 84 39 85 35 86 36 87 37 88
REMARK SMILES IDX 38 89 64 90 65 91 73 92 66 93 72 94 74 95 71 96 67 97 68 98
REMARK SMILES IDX 69 99 70 100 49 101 50 102 58 103 51 104 57 105 59 106
REMARK SMILES IDX 56 107 52 108 53 109 54 110 55 111
REMARK H PARENT 13 7 7 18 86 24 89 28 20 45 79 64 47 75
REMARK Flexibility Score: inf
ROOT
ATOM      1  C   UNL     1       1.872   4.970   2.319  1.00  0.00     0.002 C 
ENDROOT
BRANCH   1   2
ATOM      2  C   UNL     1       0.409   4.737   1.907  1.00  0.00     0.021 C 
BRANCH   2   3
ATOM      3  C   UNL     1      -0.228   3.389   2.321  1.00  0.00     0.116 C 
BRANCH   3   4
ATOM      4  N   UNL     1       0.179   2.853   3.614  1.00  0.00    -0.351 N 
ATOM      5  C   UNL     1      -0.520   2.336   4.681  1.00  0.00     0.283 C 
ATOM      6  O   UNL     1       0.114   1.461   5.279  1.00  0.00    -0.268 OA
ATOM      7  H   UNL     1       1.154   2.863   3.752  1.00  0.00     0.163 HD
BRANCH   5   8
ATOM      8  C   UNL     1      -1.962   2.807   5.078  1.00  0.00     0.308 C 
BRANCH   8   9
ATOM      9  C   UNL     1      -2.768   1.916   6.027  1.00  0.00     0.045 A 
ATOM     10  C   UNL     1      -1.093  -0.019   8.910  1.00  0.00     0.119 A 
ATOM     11  C   UNL     1      -2.261  -0.495   9.488  1.00  0.00     0.048 A 
ATOM     12  C   UNL     1      -1.130   0.835   7.805  1.00  0.00     0.057 A 
ATOM     13  C   UNL     1      -3.500  -0.172   8.933  1.00  0.00     0.030 A 
ATOM     14  C   UNL     1      -2.360   1.131   7.174  1.00  0.00     0.013 A 
ATOM     15  C   UNL     1      -3.517   0.619   7.774  1.00  0.00     0.046 A 
ATOM     16  N   UNL     1      -4.586   1.070   7.042  1.00  0.00    -0.361 N 
ATOM     17  C   UNL     1      -4.156   1.831   5.993  1.00  0.00     0.094 A 
ATOM     18  H   UNL     1      -5.529   0.872   7.244  1.00  0.00     0.166 HD
BRANCH  10  19
ATOM     19  O   UNL     1       0.134  -0.332   9.434  1.00  0.00    -0.497 OA
ATOM     20  C   UNL     1       0.442  -1.704   9.179  1.00  0.00     0.278 C 
ENDBRANCH  10  19
ENDBRANCH   8   9
BRANCH   8  21
ATOM     21  N   UNL     1      -1.997   4.182   5.582  1.00  0.00    -0.312 N 
ATOM     22  C   UNL     1      -2.103   4.606   6.971  1.00  0.00     0.325 C 
ATOM     23  C   UNL     1      -1.572   5.233   4.708  1.00  0.00     0.325 C 
ATOM     24  H   UNL     1      -2.959   3.844   5.587  1.00  0.00     0.349 HD
ATOM     25  C   UNL     1      -1.129   5.750   7.446  1.00  0.00     0.324 C 
ATOM     26  C   UNL     1      -0.240   5.824   5.199  1.00  0.00     0.324 C 
ATOM     27  N   UNL     1      -0.381   6.552   6.460  1.00  0.00    -0.322 N 
ATOM     28  H   UNL     1       0.541   6.663   6.882  1.00  0.00     0.348 HD
BRANCH  27  29
ATOM     29  C   UNL     1      -0.747   7.975   6.299  1.00  0.00     0.300 C 
BRANCH  29  30
ATOM     30  C   UNL     1      -1.937   8.273   5.392  1.00  0.00     0.014 A 
ATOM     31  C   UNL     1      -1.692   8.431   4.008  1.00  0.00     0.010 A 
ATOM     32  C   UNL     1      -3.275   8.170   5.855  1.00  0.00    -0.010 A 
ATOM     33  C   UNL     1      -2.728   8.332   3.084  1.00  0.00     0.001 A 
ATOM     34  C   UNL     1      -4.313   8.011   4.902  1.00  0.00    -0.018 A 
ATOM     35  C   UNL     1      -3.628   8.171   7.221  1.00  0.00     0.009 A 
ATOM     36  C   UNL     1      -4.024   8.083   3.529  1.00  0.00     0.009 A 
ATOM     37  C   UNL     1      -5.620   7.745   5.338  1.00  0.00     0.009 A 
ATOM     38  C   UNL     1      -4.938   7.943   7.639  1.00  0.00     0.001 A 
ATOM     39  C   UNL     1      -5.928   7.700   6.698  1.00  0.00     0.001 A 
ENDBRANCH  29  30
ENDBRANCH  27  29
ENDBRANCH   8  21
ENDBRANCH   5   8
ENDBRANCH   3   4
ENDBRANCH   2   3
ENDBRANCH   1   2
BRANCH   1  40
ATOM     40  C   UNL     1       2.773   5.495   1.192  1.00  0.00     0.002 C 
BRANCH  40  41
ATOM     41  C   UNL     1       2.325   6.791   0.505  1.00  0.00     0.021 C 
BRANCH  41  42
ATOM     42  C   UNL     1       2.358   8.035   1.391  1.00  0.00     0.116 C 
BRANCH  42  43
ATOM     43  N   UNL     1       3.715   8.522   1.586  1.00  0.00    -0.352 N 
ATOM     44  C   UNL     1       4.365   9.555   0.946  1.00  0.00     0.251 C 
ATOM     45  H   UNL     1       4.242   8.048   2.269  1.00  0.00     0.163 HD
ATOM     46  O   UNL     1       5.583   9.663   1.034  1.00  0.00    -0.269 OA
BRANCH  44  47
ATOM     47  C   UNL     1       3.588  10.524   0.141  1.00  0.00     0.039 A 
ATOM     48  C   UNL     1       3.988  10.810  -1.166  1.00  0.00     0.014 A 
ATOM     49  C   UNL     1       2.472  11.162   0.690  1.00  0.00     0.014 A 
ATOM     50  C   UNL     1       3.227  11.687  -1.948  1.00  0.00     0.010 A 
ATOM     51  C   UNL     1       1.685  11.991  -0.108  1.00  0.00     0.010 A 
ATOM     52  C   UNL     1       2.052  12.260  -1.436  1.00  0.00    -0.014 A 
BRANCH  52  53
ATOM     53  C   UNL     1       1.194  13.148  -2.267  1.00  0.00     0.031 A 
ATOM     54  C   UNL     1       1.033  14.598  -1.901  1.00  0.00     0.074 A 
ATOM     55  C   UNL     1       0.501  12.633  -3.303  1.00  0.00     0.049 A 
ATOM     56  N   UNL     1       0.256  15.508  -2.432  1.00  0.00    -0.248 NA
ATOM     57  C   UNL     1       1.834  15.080  -0.766  1.00  0.00     0.031 C 
ATOM     58  C   UNL     1       0.548  11.236  -3.739  1.00  0.00     0.029 A 
ATOM     59  N   UNL     1      -0.388  13.221  -4.168  1.00  0.00    -0.354 N 
ATOM     60  C   UNL     1       0.463  16.666  -1.690  1.00  0.00     0.074 A 
ATOM     61  C   UNL     1       1.397  16.323  -0.636  1.00  0.00     0.031 C 
ATOM     62  C   UNL     1      -0.266  11.079  -4.796  1.00  0.00     0.029 A 
ATOM     63  C   UNL     1      -0.925  12.348  -5.087  1.00  0.00     0.049 A 
ATOM     64  H   UNL     1      -0.621  14.177  -4.134  1.00  0.00     0.167 HD
ATOM     65  C   UNL     1      -0.059  17.904  -1.881  1.00  0.00     0.034 A 
ATOM     66  C   UNL     1      -1.854  12.544  -6.044  1.00  0.00     0.034 A 
ATOM     67  C   UNL     1      -0.982  18.232  -2.941  1.00  0.00     0.049 A 
ATOM     68  C   UNL     1      -2.448  13.919  -6.218  1.00  0.00     0.074 A 
ATOM     69  C   UNL     1      -1.527  19.463  -3.261  1.00  0.00     0.029 A 
ATOM     70  N   UNL     1      -1.505  17.320  -3.850  1.00  0.00    -0.354 N 
ATOM     71  N   UNL     1      -2.206  15.015  -5.536  1.00  0.00    -0.248 NA
ATOM     72  C   UNL     1      -3.433  14.084  -7.295  1.00  0.00     0.031 C 
ATOM     73  C   UNL     1      -2.427  19.285  -4.318  1.00  0.00     0.029 A 
ATOM     74  C   UNL     1      -2.390  17.956  -4.708  1.00  0.00     0.049 A 
ATOM     75  H   UNL     1      -1.280  16.363  -3.881  1.00  0.00     0.167 HD
ATOM     76  C   UNL     1      -2.990  16.006  -6.121  1.00  0.00     0.074 A 
ATOM     77  C   UNL     1      -3.701  15.380  -7.217  1.00  0.00     0.031 C 
ATOM     78  C   UNL     1      -3.106  17.316  -5.787  1.00  0.00     0.034 A 
BRANCH  65  79
ATOM     79  C   UNL     1       0.340  18.982  -0.901  1.00  0.00     0.023 A 
ATOM     80  C   UNL     1       1.675  19.402  -0.770  1.00  0.00     0.031 A 
ATOM     81  C   UNL     1      -0.620  19.574  -0.060  1.00  0.00     0.131 A 
ATOM     82  C   UNL     1       2.028  20.319   0.232  1.00  0.00     0.055 A 
ATOM     83  C   UNL     1      -0.275  20.549   0.879  1.00  0.00     0.041 A 
ATOM     84  F   UNL     1      -1.908  19.202  -0.125  1.00  0.00    -0.206 F 
ATOM     85  C   UNL     1       1.058  20.914   1.042  1.00  0.00     0.022 A 
BRANCH  82  86
ATOM     86  S   UNL     1       3.788  20.605   0.561  1.00  0.00     0.124 S 
ATOM     87  O   UNL     1       4.250  19.257   0.884  1.00  0.00    -0.237 OA
ATOM     88  O   UNL     1       4.260  21.157  -0.703  1.00  0.00    -0.237 OA
ATOM     89  O   UNL     1       3.779  21.539   1.686  1.00  0.00    -0.744 OA
ENDBRANCH  82  86
ENDBRANCH  65  79
BRANCH  66  90
ATOM     90  C   UNL     1      -2.297  11.412  -6.907  1.00  0.00     0.023 A 
ATOM     91  C   UNL     1      -2.030  11.406  -8.285  1.00  0.00     0.031 A 
ATOM     92  C   UNL     1      -3.025  10.334  -6.371  1.00  0.00     0.131 A 
ATOM     93  C   UNL     1      -2.523  10.366  -9.088  1.00  0.00     0.055 A 
ATOM     94  C   UNL     1      -3.472   9.278  -7.166  1.00  0.00     0.041 A 
ATOM     95  F   UNL     1      -3.302  10.288  -5.058  1.00  0.00    -0.206 F 
ATOM     96  C   UNL     1      -3.232   9.296  -8.537  1.00  0.00     0.022 A 
BRANCH  93  97
ATOM     97  S   UNL     1      -2.286  10.468 -10.884  1.00  0.00     0.124 S 
ATOM     98  O   UNL     1      -2.955  11.724 -11.201  1.00  0.00    -0.237 OA
ATOM     99  O   UNL     1      -0.831  10.469 -10.996  1.00  0.00    -0.237 OA
ATOM    100  O   UNL     1      -2.946   9.264 -11.383  1.00  0.00    -0.744 OA
ENDBRANCH  93  97
ENDBRANCH  66  90
BRANCH  78 101
ATOM    101  C   UNL     1      -4.009  18.165  -6.647  1.00  0.00     0.023 A 
ATOM    102  C   UNL     1      -5.404  17.990  -6.654  1.00  0.00     0.031 A 
ATOM    103  C   UNL     1      -3.462  19.159  -7.478  1.00  0.00     0.131 A 
ATOM    104  C   UNL     1      -6.201  18.764  -7.511  1.00  0.00     0.055 A 
ATOM    105  C   UNL     1      -4.265  19.964  -8.287  1.00  0.00     0.041 A 
ATOM    106  F   UNL     1      -2.136  19.367  -7.513  1.00  0.00    -0.206 F 
ATOM    107  C   UNL     1      -5.642  19.761  -8.315  1.00  0.00     0.022 A 
BRANCH 104 108
ATOM    108  S   UNL     1      -7.974  18.400  -7.618  1.00  0.00     0.124 S 
ATOM    109  O   UNL     1      -7.972  17.014  -8.073  1.00  0.00    -0.237 OA
ATOM    110  O   UNL     1      -8.424  18.621  -6.248  1.00  0.00    -0.237 OA
ATOM    111  O   UNL     1      -8.466  19.372  -8.594  1.00  0.00    -0.744 OA
ENDBRANCH 104 108
ENDBRANCH  78 101
ENDBRANCH  52  53
ENDBRANCH  44  47
ENDBRANCH  42  43
ENDBRANCH  41  42
ENDBRANCH  40  41
ENDBRANCH   1  40
TORSDOF 21
