REMARK SMILES O=C(NCCCCCCNC(=O)C1CCN(c2nc(-c3ccc(F)cc3)cc(C(F)F)n2)CC1)c1ccc(-c2c3nc(c(-c4cc(S(=O)(=O)[O-])ccc4F)c4ccc([nH]4)c(-c4cc(S(=O)(=O)[O-])ccc4F)c4nc(c(-c5cc(S(=O)(=O)[O-])ccc5F)c5ccc2[nH]5)C=C4)C=C3)cc1
REMARK SMILES IDX 6 1 5 2 4 3 3 4 1 5 2 6 35 8 36 9 97 10 37 11 96 12 38 13
REMARK SMILES IDX 39 14 40 15 90 16 41 17 95 18 89 19 91 20 42 21 94 22 88 23
REMARK SMILES IDX 87 24 43 26 75 27 55 28 74 29 56 30 59 31 73 32 92 33 57 34
REMARK SMILES IDX 58 35 72 37 93 38 60 39 44 40 45 41 53 42 46 43 52 44 54 45
REMARK SMILES IDX 51 46 47 47 48 48 49 49 50 50 76 51 77 52 85 53 78 54 84 55
REMARK SMILES IDX 86 56 83 57 79 58 80 59 81 60 82 61 61 62 62 63 70 64 63 65
REMARK SMILES IDX 69 66 71 67 68 68 64 69 65 70 66 71 67 72 7 73 8 74 9 75
REMARK SMILES IDX 10 76 11 77 12 79 13 80 14 81 34 82 15 83 33 84 16 85 17 86
REMARK SMILES IDX 18 87 32 88 19 89 28 90 27 91 20 92 21 93 26 94 22 95 25 96
REMARK SMILES IDX 23 97 24 98 29 99 30 100 31 101
REMARK H PARENT 3 7 91 25 59 36 10 78
REMARK Flexibility Score: inf
ROOT
ATOM      1  C   UNL     1       3.825   3.830   0.835  1.00  0.00     0.002 C 
ENDROOT
BRANCH   1   2
ATOM      2  C   UNL     1       4.460   2.745  -0.038  1.00  0.00     0.021 C 
BRANCH   2   3
ATOM      3  C   UNL     1       4.305   1.335   0.516  1.00  0.00     0.116 C 
BRANCH   3   4
ATOM      4  N   UNL     1       2.903   0.970   0.651  1.00  0.00    -0.352 N 
ATOM      5  O   UNL     1       1.000  -0.089   0.067  1.00  0.00    -0.269 OA
ATOM      6  C   UNL     1       2.228  -0.060   0.052  1.00  0.00     0.251 C 
ATOM      7  H   UNL     1       2.370   1.537   1.253  1.00  0.00     0.163 HD
BRANCH   6   8
ATOM      8  C   UNL     1       2.996  -1.133  -0.607  1.00  0.00     0.039 A 
ATOM      9  C   UNL     1       4.115  -1.679   0.029  1.00  0.00     0.014 A 
ATOM     10  C   UNL     1       2.583  -1.613  -1.852  1.00  0.00     0.014 A 
ATOM     11  C   UNL     1       4.880  -2.635  -0.622  1.00  0.00     0.010 A 
ATOM     12  C   UNL     1       3.301  -2.640  -2.466  1.00  0.00     0.010 A 
ATOM     13  C   UNL     1       4.452  -3.158  -1.852  1.00  0.00    -0.014 A 
BRANCH  13  14
ATOM     14  C   UNL     1       5.139  -4.350  -2.399  1.00  0.00     0.031 A 
ATOM     15  C   UNL     1       5.910  -4.293  -3.680  1.00  0.00     0.074 A 
ATOM     16  C   UNL     1       5.067  -5.493  -1.690  1.00  0.00     0.049 A 
ATOM     17  N   UNL     1       6.556  -5.253  -4.290  1.00  0.00    -0.248 NA
ATOM     18  C   UNL     1       5.959  -2.997  -4.371  1.00  0.00     0.031 C 
ATOM     19  C   UNL     1       4.353  -5.646  -0.418  1.00  0.00     0.029 A 
ATOM     20  N   UNL     1       5.615  -6.727  -1.912  1.00  0.00    -0.354 N 
ATOM     21  C   UNL     1       7.090  -4.684  -5.438  1.00  0.00     0.074 A 
ATOM     22  C   UNL     1       6.657  -3.301  -5.458  1.00  0.00     0.031 C 
ATOM     23  C   UNL     1       4.564  -6.878   0.059  1.00  0.00     0.029 A 
ATOM     24  C   UNL     1       5.351  -7.629  -0.910  1.00  0.00     0.049 A 
ATOM     25  H   UNL     1       6.146  -6.947  -2.711  1.00  0.00     0.167 HD
ATOM     26  C   UNL     1       7.874  -5.267  -6.379  1.00  0.00     0.034 A 
ATOM     27  C   UNL     1       5.686  -8.926  -0.786  1.00  0.00     0.034 A 
ATOM     28  C   UNL     1       8.271  -6.655  -6.345  1.00  0.00     0.049 A 
ATOM     29  C   UNL     1       6.480  -9.571  -1.881  1.00  0.00     0.074 A 
ATOM     30  C   UNL     1       9.054  -7.350  -7.251  1.00  0.00     0.029 A 
ATOM     31  N   UNL     1       7.910  -7.566  -5.357  1.00  0.00    -0.354 N 
ATOM     32  N   UNL     1       6.943  -9.033  -2.985  1.00  0.00    -0.248 NA
ATOM     33  C   UNL     1       6.791 -10.995  -1.720  1.00  0.00     0.031 C 
ATOM     34  C   UNL     1       9.110  -8.689  -6.849  1.00  0.00     0.029 A 
ATOM     35  C   UNL     1       8.433  -8.818  -5.647  1.00  0.00     0.049 A 
ATOM     36  H   UNL     1       7.362  -7.353  -4.568  1.00  0.00     0.167 HD
ATOM     37  C   UNL     1       7.622 -10.050  -3.644  1.00  0.00     0.074 A 
ATOM     38  C   UNL     1       7.504 -11.233  -2.813  1.00  0.00     0.031 C 
ATOM     39  C   UNL     1       8.291  -9.998  -4.823  1.00  0.00     0.034 A 
BRANCH  26  40
ATOM     40  C   UNL     1       8.316  -4.411  -7.540  1.00  0.00     0.023 A 
ATOM     41  C   UNL     1       9.168  -3.308  -7.358  1.00  0.00     0.031 A 
ATOM     42  C   UNL     1       7.875  -4.693  -8.845  1.00  0.00     0.131 A 
ATOM     43  C   UNL     1       9.504  -2.493  -8.449  1.00  0.00     0.055 A 
ATOM     44  C   UNL     1       8.271  -3.922  -9.939  1.00  0.00     0.041 A 
ATOM     45  F   UNL     1       7.044  -5.722  -9.078  1.00  0.00    -0.206 F 
ATOM     46  C   UNL     1       9.081  -2.807  -9.743  1.00  0.00     0.022 A 
BRANCH  43  47
ATOM     47  S   UNL     1      10.409  -0.953  -8.133  1.00  0.00     0.124 S 
ATOM     48  O   UNL     1       9.481  -0.236  -7.261  1.00  0.00    -0.237 OA
ATOM     49  O   UNL     1      11.634  -1.426  -7.498  1.00  0.00    -0.237 OA
ATOM     50  O   UNL     1      10.579  -0.374  -9.464  1.00  0.00    -0.744 OA
ENDBRANCH  43  47
ENDBRANCH  26  40
BRANCH  27  51
ATOM     51  C   UNL     1       5.254  -9.670   0.425  1.00  0.00     0.023 A 
ATOM     52  C   UNL     1       6.180 -10.021   1.417  1.00  0.00     0.031 A 
ATOM     53  C   UNL     1       3.894  -9.953   0.648  1.00  0.00     0.131 A 
ATOM     54  C   UNL     1       5.732 -10.635   2.596  1.00  0.00     0.055 A 
ATOM     55  C   UNL     1       3.451 -10.531   1.837  1.00  0.00     0.041 A 
ATOM     56  F   UNL     1       2.972  -9.611  -0.266  1.00  0.00    -0.206 F 
ATOM     57  C   UNL     1       4.373 -10.877   2.820  1.00  0.00     0.022 A 
BRANCH  54  58
ATOM     58  S   UNL     1       6.955 -11.102   3.851  1.00  0.00     0.124 S 
ATOM     59  O   UNL     1       7.705 -12.144   3.160  1.00  0.00    -0.237 OA
ATOM     60  O   UNL     1       7.660  -9.845   4.076  1.00  0.00    -0.237 OA
ATOM     61  O   UNL     1       6.134 -11.560   4.970  1.00  0.00    -0.744 OA
ENDBRANCH  54  58
ENDBRANCH  27  51
BRANCH  39  62
ATOM     62  C   UNL     1       8.994 -11.255  -5.268  1.00  0.00     0.023 A 
ATOM     63  C   UNL     1       8.286 -12.388  -5.702  1.00  0.00     0.031 A 
ATOM     64  C   UNL     1      10.400 -11.303  -5.281  1.00  0.00     0.131 A 
ATOM     65  C   UNL     1       8.988 -13.536  -6.101  1.00  0.00     0.055 A 
ATOM     66  C   UNL     1      11.092 -12.428  -5.728  1.00  0.00     0.041 A 
ATOM     67  F   UNL     1      11.122 -10.247  -4.872  1.00  0.00    -0.206 F 
ATOM     68  C   UNL     1      10.386 -13.556  -6.135  1.00  0.00     0.022 A 
BRANCH  65  69
ATOM     69  S   UNL     1       8.051 -15.028  -6.530  1.00  0.00     0.124 S 
ATOM     70  O   UNL     1       7.399 -15.348  -5.264  1.00  0.00    -0.237 OA
ATOM     71  O   UNL     1       7.175 -14.554  -7.596  1.00  0.00    -0.237 OA
ATOM     72  O   UNL     1       9.084 -15.972  -6.952  1.00  0.00    -0.744 OA
ENDBRANCH  65  69
ENDBRANCH  39  62
ENDBRANCH  13  14
ENDBRANCH   6   8
ENDBRANCH   3   4
ENDBRANCH   2   3
ENDBRANCH   1   2
BRANCH   1  73
ATOM     73  C   UNL     1       4.336   3.880   2.281  1.00  0.00     0.002 C 
BRANCH  73  74
ATOM     74  C   UNL     1       5.859   3.914   2.420  1.00  0.00     0.021 C 
BRANCH  74  75
ATOM     75  C   UNL     1       6.507   5.078   1.681  1.00  0.00     0.116 C 
BRANCH  75  76
ATOM     76  N   UNL     1       6.499   6.287   2.464  1.00  0.00    -0.356 N 
ATOM     77  C   UNL     1       7.509   7.038   2.958  1.00  0.00     0.223 C 
ATOM     78  H   UNL     1       5.600   6.626   2.676  1.00  0.00     0.163 HD
ATOM     79  O   UNL     1       7.177   8.053   3.584  1.00  0.00    -0.275 OA
BRANCH  77  80
ATOM     80  C   UNL     1       8.993   6.716   2.778  1.00  0.00     0.082 C 
ATOM     81  C   UNL     1       9.534   6.920   1.363  1.00  0.00     0.035 C 
ATOM     82  C   UNL     1       9.493   5.456   3.487  1.00  0.00     0.035 C 
ATOM     83  C   UNL     1       9.721   5.659   0.532  1.00  0.00     0.120 C 
ATOM     84  C   UNL     1       9.659   4.215   2.618  1.00  0.00     0.120 C 
ATOM     85  N   UNL     1      10.226   4.561   1.336  1.00  0.00    -0.341 N 
BRANCH  85  86
ATOM     86  C   UNL     1      10.707   3.513   0.576  1.00  0.00     0.226 A 
ATOM     87  N   UNL     1      11.834   3.752  -0.087  1.00  0.00    -0.213 NA
ATOM     88  N   UNL     1      10.077   2.332   0.553  1.00  0.00    -0.212 NA
ATOM     89  C   UNL     1      12.388   2.753  -0.794  1.00  0.00     0.076 A 
ATOM     90  C   UNL     1      10.609   1.343  -0.218  1.00  0.00     0.112 A 
ATOM     91  C   UNL     1      11.792   1.518  -0.915  1.00  0.00     0.059 A 
BRANCH  89  92
ATOM     92  C   UNL     1      13.708   3.091  -1.332  1.00  0.00     0.001 A 
ATOM     93  C   UNL     1      14.032   2.935  -2.688  1.00  0.00     0.013 A 
ATOM     94  C   UNL     1      14.675   3.650  -0.470  1.00  0.00     0.013 A 
ATOM     95  C   UNL     1      15.284   3.337  -3.165  1.00  0.00     0.040 A 
ATOM     96  C   UNL     1      15.925   4.043  -0.943  1.00  0.00     0.040 A 
ATOM     97  C   UNL     1      16.216   3.885  -2.290  1.00  0.00     0.123 A 
ATOM     98  F   UNL     1      17.410   4.279  -2.752  1.00  0.00    -0.207 F 
ENDBRANCH  89  92
BRANCH  90  99
ATOM     99  C   UNL     1       9.880   0.014  -0.278  1.00  0.00     0.391 C 
ATOM    100  F   UNL     1       9.730  -0.555   0.954  1.00  0.00    -0.203 F 
ATOM    101  F   UNL     1       8.619   0.127  -0.787  1.00  0.00    -0.203 F 
ENDBRANCH  90  99
ENDBRANCH  85  86
ENDBRANCH  77  80
ENDBRANCH  75  76
ENDBRANCH  74  75
ENDBRANCH  73  74
ENDBRANCH   1  73
TORSDOF 19
