REMARK SMILES Cc1noc(C[N@H+]2CCC[C@@H](c3ccc(C(=O)NCCCCCCNC(=O)c4ccc(-c5c6nc(c(-c7cc(S(=O)(=O)[O-])ccc7F)c7ccc([nH]7)c(-c7cc(S(=O)(=O)[O-])ccc7F)c7nc(c(-c8cc(S(=O)(=O)[O-])ccc8F)c8ccc5[nH]8)C=C7)C=C6)cc4)cc3)C2)n1
REMARK SMILES IDX 21 1 20 2 19 3 18 4 16 5 17 6 15 8 12 9 13 10 92 11 14 12
REMARK SMILES IDX 91 13 11 14 7 15 8 16 93 17 9 19 10 20 6 21 5 22 1 23 2 24
REMARK SMILES IDX 3 25 94 26 4 27 22 28 23 29 24 30 25 31 26 32 27 34 28 35
REMARK SMILES IDX 29 36 90 37 30 38 89 39 31 40 32 41 33 42 83 43 34 44 88 45
REMARK SMILES IDX 82 46 84 47 35 48 87 49 81 50 80 51 36 53 68 54 48 55 67 56
REMARK SMILES IDX 49 57 52 58 66 59 85 60 50 61 51 62 65 64 86 65 53 66 37 67
REMARK SMILES IDX 38 68 46 69 39 70 45 71 47 72 44 73 40 74 41 75 42 76 43 77
REMARK SMILES IDX 69 78 70 79 78 80 71 81 77 82 79 83 76 84 72 85 73 86 74 87
REMARK SMILES IDX 75 88 54 89 55 90 63 91 56 92 62 93 64 94 61 95 57 96 58 97
REMARK SMILES IDX 59 98 60 99
REMARK H PARENT 18 7 7 18 25 33 84 52 52 63
REMARK Flexibility Score: inf
ROOT
ATOM      1  C   UNL     1      -4.089  11.084  -3.531  1.00  0.00     0.002 C 
ENDROOT
BRANCH   1   2
ATOM      2  C   UNL     1      -2.950  10.064  -3.414  1.00  0.00     0.021 C 
BRANCH   2   3
ATOM      3  C   UNL     1      -3.084   9.166  -2.183  1.00  0.00     0.116 C 
BRANCH   3   4
ATOM      4  N   UNL     1      -4.080   8.146  -2.438  1.00  0.00    -0.352 N 
ATOM      5  C   UNL     1      -3.965   6.835  -2.815  1.00  0.00     0.251 C 
ATOM      6  O   UNL     1      -5.001   6.199  -3.010  1.00  0.00    -0.269 OA
ATOM      7  H   UNL     1      -5.008   8.450  -2.320  1.00  0.00     0.163 HD
BRANCH   5   8
ATOM      8  C   UNL     1      -2.654   6.137  -2.914  1.00  0.00     0.039 A 
ATOM      9  C   UNL     1      -0.240   4.669  -2.868  1.00  0.00    -0.039 A 
ATOM     10  C   UNL     1      -1.468   4.045  -2.599  1.00  0.00     0.005 A 
ATOM     11  C   UNL     1      -0.249   6.017  -3.242  1.00  0.00     0.005 A 
ATOM     12  C   UNL     1      -2.657   4.774  -2.605  1.00  0.00     0.014 A 
ATOM     13  C   UNL     1      -1.450   6.733  -3.297  1.00  0.00     0.014 A 
BRANCH   9  14
ATOM     14  C   UNL     1       1.076   3.908  -2.794  1.00  0.00     0.074 C 
ATOM     15  N   UNL     1       2.373   2.223  -1.405  1.00  0.00    -0.327 N 
ATOM     16  C   UNL     1       2.433   1.324  -2.565  1.00  0.00     0.262 C 
ATOM     17  C   UNL     1       1.203   3.119  -1.471  1.00  0.00     0.270 C 
ATOM     18  H   UNL     1       3.211   2.805  -1.434  1.00  0.00     0.348 HD
ATOM     19  C   UNL     1       2.454   2.108  -3.877  1.00  0.00     0.062 C 
ATOM     20  C   UNL     1       1.214   2.983  -4.009  1.00  0.00     0.020 C 
BRANCH  15  21
ATOM     21  C   UNL     1       2.390   1.462  -0.123  1.00  0.00     0.364 C 
BRANCH  21  22
ATOM     22  C   UNL     1       1.190   0.596   0.121  1.00  0.00     0.281 A 
ATOM     23  C   UNL     1      -2.204  -0.259   0.214  1.00  0.00     0.093 C 
ATOM     24  C   UNL     1      -0.730  -0.220   0.216  1.00  0.00     0.169 A 
ATOM     25  N   UNL     1       0.032  -1.281  -0.076  1.00  0.00    -0.063 NA
ATOM     26  N   UNL     1      -0.046   0.949   0.405  1.00  0.00    -0.191 NA
ATOM     27  O   UNL     1       1.322  -0.739  -0.138  1.00  0.00    -0.333 OA
ENDBRANCH  21  22
ENDBRANCH  15  21
ENDBRANCH   9  14
ENDBRANCH   5   8
ENDBRANCH   3   4
ENDBRANCH   2   3
ENDBRANCH   1   2
BRANCH   1  28
ATOM     28  C   UNL     1      -4.160  12.088  -2.374  1.00  0.00     0.002 C 
BRANCH  28  29
ATOM     29  C   UNL     1      -2.864  12.864  -2.127  1.00  0.00     0.021 C 
BRANCH  29  30
ATOM     30  C   UNL     1      -2.422  13.714  -3.312  1.00  0.00     0.116 C 
BRANCH  30  31
ATOM     31  N   UNL     1      -3.389  14.763  -3.597  1.00  0.00    -0.352 N 
ATOM     32  C   UNL     1      -3.208  16.123  -3.604  1.00  0.00     0.251 C 
ATOM     33  H   UNL     1      -4.298  14.454  -3.815  1.00  0.00     0.163 HD
ATOM     34  O   UNL     1      -4.178  16.871  -3.582  1.00  0.00    -0.269 OA
BRANCH  32  35
ATOM     35  C   UNL     1      -1.835  16.670  -3.625  1.00  0.00     0.039 A 
ATOM     36  C   UNL     1      -1.513  17.741  -2.789  1.00  0.00     0.014 A 
ATOM     37  C   UNL     1      -0.868  16.119  -4.473  1.00  0.00     0.014 A 
ATOM     38  C   UNL     1      -0.204  18.226  -2.766  1.00  0.00     0.010 A 
ATOM     39  C   UNL     1       0.450  16.552  -4.390  1.00  0.00     0.010 A 
ATOM     40  C   UNL     1       0.795  17.615  -3.542  1.00  0.00    -0.014 A 
BRANCH  40  41
ATOM     41  C   UNL     1       2.204  18.082  -3.493  1.00  0.00     0.031 A 
ATOM     42  C   UNL     1       2.848  18.655  -4.726  1.00  0.00     0.074 A 
ATOM     43  C   UNL     1       2.917  17.936  -2.359  1.00  0.00     0.049 A 
ATOM     44  N   UNL     1       4.082  19.046  -4.911  1.00  0.00    -0.248 NA
ATOM     45  C   UNL     1       1.994  18.776  -5.917  1.00  0.00     0.031 C 
ATOM     46  C   UNL     1       2.408  17.368  -1.109  1.00  0.00     0.029 A 
ATOM     47  N   UNL     1       4.221  18.249  -2.073  1.00  0.00    -0.354 N 
ATOM     48  C   UNL     1       4.155  19.453  -6.239  1.00  0.00     0.074 A 
ATOM     49  C   UNL     1       2.860  19.187  -6.828  1.00  0.00     0.031 C 
ATOM     50  C   UNL     1       3.378  17.407  -0.182  1.00  0.00     0.029 A 
ATOM     51  C   UNL     1       4.592  17.950  -0.783  1.00  0.00     0.049 A 
ATOM     52  H   UNL     1       4.835  18.651  -2.730  1.00  0.00     0.167 HD
ATOM     53  C   UNL     1       5.196  20.023  -6.897  1.00  0.00     0.034 A 
ATOM     54  C   UNL     1       5.779  18.087  -0.159  1.00  0.00     0.034 A 
ATOM     55  C   UNL     1       6.480  20.278  -6.290  1.00  0.00     0.049 A 
ATOM     56  C   UNL     1       6.941  18.664  -0.928  1.00  0.00     0.074 A 
ATOM     57  C   UNL     1       7.594  20.880  -6.849  1.00  0.00     0.029 A 
ATOM     58  N   UNL     1       6.828  19.937  -4.989  1.00  0.00    -0.354 N 
ATOM     59  N   UNL     1       6.984  19.081  -2.173  1.00  0.00    -0.248 NA
ATOM     60  C   UNL     1       8.211  18.795  -0.205  1.00  0.00     0.031 C 
ATOM     61  C   UNL     1       8.634  20.834  -5.915  1.00  0.00     0.029 A 
ATOM     62  C   UNL     1       8.148  20.284  -4.740  1.00  0.00     0.049 A 
ATOM     63  H   UNL     1       6.225  19.511  -4.337  1.00  0.00     0.167 HD
ATOM     64  C   UNL     1       8.277  19.559  -2.368  1.00  0.00     0.074 A 
ATOM     65  C   UNL     1       8.975  19.389  -1.110  1.00  0.00     0.031 C 
ATOM     66  C   UNL     1       8.835  20.098  -3.482  1.00  0.00     0.034 A 
BRANCH  53  67
ATOM     67  C   UNL     1       4.984  20.376  -8.351  1.00  0.00     0.023 A 
ATOM     68  C   UNL     1       3.993  21.292  -8.749  1.00  0.00     0.031 A 
ATOM     69  C   UNL     1       5.748  19.760  -9.358  1.00  0.00     0.131 A 
ATOM     70  C   UNL     1       3.729  21.492 -10.112  1.00  0.00     0.055 A 
ATOM     71  C   UNL     1       5.543  20.037 -10.712  1.00  0.00     0.041 A 
ATOM     72  F   UNL     1       6.694  18.861  -9.046  1.00  0.00    -0.206 F 
ATOM     73  C   UNL     1       4.516  20.893 -11.097  1.00  0.00     0.022 A 
BRANCH  70  74
ATOM     74  S   UNL     1       2.232  22.407 -10.575  1.00  0.00     0.124 S 
ATOM     75  O   UNL     1       1.191  21.619  -9.920  1.00  0.00    -0.237 OA
ATOM     76  O   UNL     1       2.484  23.729 -10.012  1.00  0.00    -0.237 OA
ATOM     77  O   UNL     1       2.228  22.340 -12.035  1.00  0.00    -0.744 OA
ENDBRANCH  70  74
ENDBRANCH  53  67
BRANCH  54  78
ATOM     78  C   UNL     1       5.937  17.676   1.265  1.00  0.00     0.023 A 
ATOM     79  C   UNL     1       6.250  18.621   2.255  1.00  0.00     0.031 A 
ATOM     80  C   UNL     1       5.822  16.329   1.654  1.00  0.00     0.131 A 
ATOM     81  C   UNL     1       6.485  18.203   3.574  1.00  0.00     0.055 A 
ATOM     82  C   UNL     1       6.000  15.926   2.978  1.00  0.00     0.041 A 
ATOM     83  F   UNL     1       5.522  15.384   0.748  1.00  0.00    -0.206 F 
ATOM     84  C   UNL     1       6.348  16.864   3.945  1.00  0.00     0.022 A 
BRANCH  81  85
ATOM     85  S   UNL     1       7.066  19.426   4.780  1.00  0.00     0.124 S 
ATOM     86  O   UNL     1       8.293  19.902   4.152  1.00  0.00    -0.237 OA
ATOM     87  O   UNL     1       5.953  20.369   4.814  1.00  0.00    -0.237 OA
ATOM     88  O   UNL     1       7.251  18.640   5.998  1.00  0.00    -0.744 OA
ENDBRANCH  81  85
ENDBRANCH  54  78
BRANCH  66  89
ATOM     89  C   UNL     1      10.259  20.590  -3.370  1.00  0.00     0.023 A 
ATOM     90  C   UNL     1      11.334  19.711  -3.150  1.00  0.00     0.031 A 
ATOM     91  C   UNL     1      10.540  21.964  -3.477  1.00  0.00     0.131 A 
ATOM     92  C   UNL     1      12.631  20.221  -2.988  1.00  0.00     0.055 A 
ATOM     93  C   UNL     1      11.842  22.458  -3.381  1.00  0.00     0.041 A 
ATOM     94  F   UNL     1       9.553  22.850  -3.682  1.00  0.00    -0.206 F 
ATOM     95  C   UNL     1      12.895  21.586  -3.121  1.00  0.00     0.022 A 
BRANCH  92  96
ATOM     96  S   UNL     1      13.960  19.084  -2.504  1.00  0.00     0.124 S 
ATOM     97  O   UNL     1      13.454  18.544  -1.246  1.00  0.00    -0.237 OA
ATOM     98  O   UNL     1      13.999  18.153  -3.626  1.00  0.00    -0.237 OA
ATOM     99  O   UNL     1      15.128  19.954  -2.380  1.00  0.00    -0.744 OA
ENDBRANCH  92  96
ENDBRANCH  66  89
ENDBRANCH  40  41
ENDBRANCH  32  35
ENDBRANCH  30  31
ENDBRANCH  29  30
ENDBRANCH  28  29
ENDBRANCH   1  28
TORSDOF 19
