REMARK SMILES CCC(CC)COc1cc2c(cc1Cl)C=C(C(=O)NCCCCCCNC(=O)c1ccc(-c3c4nc(c(-c5cc(S(=O)(=O)[O-])ccc5F)c5ccc([nH]5)c(-c5cc(S(=O)(=O)[O-])ccc5F)c5nc(c(-c6cc(S(=O)(=O)[O-])ccc6F)c6ccc3[nH]6)C=C5)C=C4)cc1)[C@@H](C(F)(F)F)O2
REMARK SMILES IDX 22 1 21 2 20 3 19 4 17 5 18 6 16 8 8 9 9 10 13 11 10 12
REMARK SMILES IDX 12 13 14 14 11 15 97 16 15 17 92 18 7 19 6 20 3 21 2 22 1 23
REMARK SMILES IDX 4 24 5 25 93 26 94 27 95 28 96 29 23 30 24 31 25 32 26 33
REMARK SMILES IDX 27 34 28 36 29 37 30 38 91 39 31 40 90 41 32 42 33 43 34 44
REMARK SMILES IDX 84 45 35 46 89 47 83 48 85 49 36 50 88 51 82 52 81 53 37 55
REMARK SMILES IDX 69 56 49 57 68 58 50 59 53 60 67 61 86 62 51 63 52 64 66 66
REMARK SMILES IDX 87 67 54 68 38 69 39 70 47 71 40 72 46 73 48 74 45 75 41 76
REMARK SMILES IDX 42 77 43 78 44 79 70 80 71 81 79 82 72 83 78 84 80 85 77 86
REMARK SMILES IDX 73 87 74 88 75 89 76 90 55 91 56 92 64 93 57 94 63 95 65 96
REMARK SMILES IDX 62 97 58 98 59 99 60 100 61 101
REMARK H PARENT 19 7 26 35 85 54 53 65
REMARK Flexibility Score: inf
ROOT
ATOM      1  C   UNL     1      -2.350   2.404 -11.463  1.00  0.00     0.002 C 
ENDROOT
BRANCH   1   2
ATOM      2  C   UNL     1      -2.184   1.261 -10.457  1.00  0.00     0.021 C 
BRANCH   2   3
ATOM      3  C   UNL     1      -0.802   1.193  -9.818  1.00  0.00     0.116 C 
BRANCH   3   4
ATOM      4  N   UNL     1      -0.686   2.149  -8.733  1.00  0.00    -0.352 N 
ATOM      5  C   UNL     1      -0.333   2.117  -7.430  1.00  0.00     0.251 C 
ATOM      6  O   UNL     1      -0.350   3.208  -6.851  1.00  0.00    -0.270 OA
ATOM      7  H   UNL     1      -0.928   3.059  -9.022  1.00  0.00     0.163 HD
BRANCH   5   8
ATOM      8  C   UNL     1       0.063   0.895  -6.680  1.00  0.00     0.067 C 
ATOM      9  C   UNL     1       1.498  -2.256  -3.064  1.00  0.00     0.141 A 
ATOM     10  C   UNL     1       0.608  -2.381  -4.131  1.00  0.00     0.095 A 
ATOM     11  C   UNL     1       2.256  -1.086  -2.913  1.00  0.00     0.083 A 
ATOM     12  C   UNL     1       0.407  -1.287  -4.966  1.00  0.00     0.131 A 
ATOM     13  C   UNL     1       1.960   0.040  -3.680  1.00  0.00     0.036 A 
ATOM     14  Cl  UNL     1       3.544  -0.967  -1.770  1.00  0.00    -0.080 Cl
ATOM     15  C   UNL     1       1.006  -0.053  -4.689  1.00  0.00     0.019 A 
ATOM     16  O   UNL     1      -0.394  -1.453  -6.065  1.00  0.00    -0.475 OA
ATOM     17  C   UNL     1       0.609   1.111  -5.469  1.00  0.00     0.025 C 
ATOM     18  C   UNL     1      -0.088  -0.525  -7.156  1.00  0.00     0.314 C 
BRANCH   9  19
ATOM     19  O   UNL     1       1.631  -3.290  -2.174  1.00  0.00    -0.492 OA
BRANCH  19  20
ATOM     20  C   UNL     1       0.529  -3.358  -1.238  1.00  0.00     0.233 C 
BRANCH  20  21
ATOM     21  C   UNL     1       0.713  -2.365  -0.062  1.00  0.00     0.026 C 
BRANCH  21  22
ATOM     22  C   UNL     1       0.000  -1.020  -0.340  1.00  0.00     0.003 C 
ATOM     23  C   UNL     1       0.548   0.122   0.503  1.00  0.00     0.004 C 
ENDBRANCH  21  22
BRANCH  21  24
ATOM     24  C   UNL     1       0.299  -2.978   1.293  1.00  0.00     0.003 C 
ATOM     25  C   UNL     1      -1.191  -3.207   1.487  1.00  0.00     0.004 C 
ENDBRANCH  21  24
ENDBRANCH  20  21
ENDBRANCH  19  20
ENDBRANCH   9  19
BRANCH  18  26
ATOM     26  C   UNL     1       1.152  -0.990  -7.958  1.00  0.00     0.429 C 
ATOM     27  F   UNL     1       0.875  -2.109  -8.667  1.00  0.00    -0.167 F 
ATOM     28  F   UNL     1       1.555  -0.054  -8.853  1.00  0.00    -0.167 F 
ATOM     29  F   UNL     1       2.222  -1.256  -7.176  1.00  0.00    -0.167 F 
ENDBRANCH  18  26
ENDBRANCH   5   8
ENDBRANCH   3   4
ENDBRANCH   2   3
ENDBRANCH   1   2
BRANCH   1  30
ATOM     30  C   UNL     1      -1.357   2.399 -12.633  1.00  0.00     0.002 C 
BRANCH  30  31
ATOM     31  C   UNL     1      -1.195   1.058 -13.350  1.00  0.00     0.021 C 
BRANCH  31  32
ATOM     32  C   UNL     1      -2.489   0.464 -13.892  1.00  0.00     0.116 C 
BRANCH  32  33
ATOM     33  N   UNL     1      -3.092   1.296 -14.920  1.00  0.00    -0.352 N 
ATOM     34  C   UNL     1      -3.475   0.949 -16.193  1.00  0.00     0.251 C 
ATOM     35  H   UNL     1      -3.247   2.236 -14.670  1.00  0.00     0.163 HD
ATOM     36  O   UNL     1      -3.810   1.817 -16.994  1.00  0.00    -0.269 OA
BRANCH  34  37
ATOM     37  C   UNL     1      -3.445  -0.474 -16.592  1.00  0.00     0.039 A 
ATOM     38  C   UNL     1      -3.982  -1.454 -15.752  1.00  0.00     0.014 A 
ATOM     39  C   UNL     1      -2.838  -0.834 -17.797  1.00  0.00     0.014 A 
ATOM     40  C   UNL     1      -3.770  -2.797 -16.040  1.00  0.00     0.010 A 
ATOM     41  C   UNL     1      -2.703  -2.185 -18.126  1.00  0.00     0.010 A 
ATOM     42  C   UNL     1      -3.129  -3.178 -17.231  1.00  0.00    -0.014 A 
BRANCH  42  43
ATOM     43  C   UNL     1      -2.941  -4.621 -17.531  1.00  0.00     0.031 A 
ATOM     44  C   UNL     1      -1.564  -5.218 -17.627  1.00  0.00     0.074 A 
ATOM     45  C   UNL     1      -4.029  -5.401 -17.683  1.00  0.00     0.049 A 
ATOM     46  N   UNL     1      -1.221  -6.455 -17.875  1.00  0.00    -0.248 NA
ATOM     47  C   UNL     1      -0.422  -4.312 -17.421  1.00  0.00     0.031 C 
ATOM     48  C   UNL     1      -5.411  -4.925 -17.602  1.00  0.00     0.029 A 
ATOM     49  N   UNL     1      -4.155  -6.747 -17.917  1.00  0.00    -0.354 N 
ATOM     50  C   UNL     1       0.170  -6.476 -17.872  1.00  0.00     0.074 A 
ATOM     51  C   UNL     1       0.609  -5.120 -17.630  1.00  0.00     0.031 C 
ATOM     52  C   UNL     1      -6.242  -5.967 -17.731  1.00  0.00     0.029 A 
ATOM     53  C   UNL     1      -5.461  -7.174 -17.985  1.00  0.00     0.049 A 
ATOM     54  H   UNL     1      -3.384  -7.350 -18.025  1.00  0.00     0.167 HD
ATOM     55  C   UNL     1       0.997  -7.535 -18.042  1.00  0.00     0.034 A 
ATOM     56  C   UNL     1      -5.979  -8.393 -18.242  1.00  0.00     0.034 A 
ATOM     57  C   UNL     1       0.537  -8.883 -18.264  1.00  0.00     0.049 A 
ATOM     58  C   UNL     1      -5.036  -9.545 -18.467  1.00  0.00     0.074 A 
ATOM     59  C   UNL     1       1.297 -10.029 -18.415  1.00  0.00     0.029 A 
ATOM     60  N   UNL     1      -0.792  -9.271 -18.363  1.00  0.00    -0.354 N 
ATOM     61  N   UNL     1      -3.724  -9.555 -18.417  1.00  0.00    -0.248 NA
ATOM     62  C   UNL     1      -5.633 -10.849 -18.782  1.00  0.00     0.031 C 
ATOM     63  C   UNL     1       0.435 -11.095 -18.671  1.00  0.00     0.029 A 
ATOM     64  C   UNL     1      -0.871 -10.633 -18.603  1.00  0.00     0.049 A 
ATOM     65  H   UNL     1      -1.565  -8.667 -18.275  1.00  0.00     0.167 HD
ATOM     66  C   UNL     1      -3.340 -10.866 -18.678  1.00  0.00     0.074 A 
ATOM     67  C   UNL     1      -4.560 -11.627 -18.858  1.00  0.00     0.031 C 
ATOM     68  C   UNL     1      -2.091 -11.387 -18.767  1.00  0.00     0.034 A 
BRANCH  55  69
ATOM     69  C   UNL     1       2.489  -7.311 -17.988  1.00  0.00     0.023 A 
ATOM     70  C   UNL     1       3.282  -7.582 -19.120  1.00  0.00     0.031 A 
ATOM     71  C   UNL     1       3.138  -6.972 -16.788  1.00  0.00     0.131 A 
ATOM     72  C   UNL     1       4.679  -7.549 -19.017  1.00  0.00     0.055 A 
ATOM     73  C   UNL     1       4.530  -6.901 -16.701  1.00  0.00     0.041 A 
ATOM     74  F   UNL     1       2.428  -6.705 -15.680  1.00  0.00    -0.206 F 
ATOM     75  C   UNL     1       5.307  -7.204 -17.816  1.00  0.00     0.022 A 
BRANCH  72  76
ATOM     76  S   UNL     1       5.736  -8.020 -20.414  1.00  0.00     0.124 S 
ATOM     77  O   UNL     1       6.520  -6.804 -20.619  1.00  0.00    -0.237 OA
ATOM     78  O   UNL     1       6.476  -9.155 -19.869  1.00  0.00    -0.237 OA
ATOM     79  O   UNL     1       4.790  -8.336 -21.479  1.00  0.00    -0.744 OA
ENDBRANCH  72  76
ENDBRANCH  55  69
BRANCH  56  80
ATOM     80  C   UNL     1      -7.462  -8.560 -18.256  1.00  0.00     0.023 A 
ATOM     81  C   UNL     1      -8.262  -7.833 -19.157  1.00  0.00     0.031 A 
ATOM     82  C   UNL     1      -8.107  -9.343 -17.285  1.00  0.00     0.131 A 
ATOM     83  C   UNL     1      -9.655  -7.834 -19.012  1.00  0.00     0.055 A 
ATOM     84  C   UNL     1      -9.499  -9.404 -17.195  1.00  0.00     0.041 A 
ATOM     85  F   UNL     1      -7.388 -10.044 -16.394  1.00  0.00    -0.206 F 
ATOM     86  C   UNL     1     -10.280  -8.629 -18.048  1.00  0.00     0.022 A 
BRANCH  83  87
ATOM     87  S   UNL     1     -10.687  -6.683 -19.963  1.00  0.00     0.124 S 
ATOM     88  O   UNL     1     -11.547  -7.593 -20.712  1.00  0.00    -0.237 OA
ATOM     89  O   UNL     1     -11.344  -5.925 -18.900  1.00  0.00    -0.237 OA
ATOM     90  O   UNL     1      -9.722  -5.928 -20.754  1.00  0.00    -0.744 OA
ENDBRANCH  83  87
ENDBRANCH  56  80
BRANCH  68  91
ATOM     91  C   UNL     1      -1.941 -12.858 -19.072  1.00  0.00     0.023 A 
ATOM     92  C   UNL     1      -1.322 -13.709 -18.136  1.00  0.00     0.031 A 
ATOM     93  C   UNL     1      -2.248 -13.376 -20.341  1.00  0.00     0.131 A 
ATOM     94  C   UNL     1      -0.982 -15.017 -18.501  1.00  0.00     0.055 A 
ATOM     95  C   UNL     1      -1.954 -14.697 -20.683  1.00  0.00     0.041 A 
ATOM     96  F   UNL     1      -2.830 -12.601 -21.270  1.00  0.00    -0.206 F 
ATOM     97  C   UNL     1      -1.302 -15.518 -19.767  1.00  0.00     0.022 A 
BRANCH  94  98
ATOM     98  S   UNL     1      -0.029 -16.083 -17.385  1.00  0.00     0.124 S 
ATOM     99  O   UNL     1      -0.930 -17.220 -17.210  1.00  0.00    -0.237 OA
ATOM    100  O   UNL     1       1.172 -16.354 -18.170  1.00  0.00    -0.237 OA
ATOM    101  O   UNL     1       0.170 -15.260 -16.196  1.00  0.00    -0.744 OA
ENDBRANCH  94  98
ENDBRANCH  68  91
ENDBRANCH  42  43
ENDBRANCH  34  37
ENDBRANCH  32  33
ENDBRANCH  31  32
ENDBRANCH  30  31
ENDBRANCH   1  30
TORSDOF 22
