REMARK SMILES C=CC[N@@H+](CC(=O)NCCCCCCNC(=O)c1ccc(-c2c3nc(c(-c4cc(S(=O)(=O)[O-])ccc4F)c4ccc([nH]4)c(-c4cc(S(=O)(=O)[O-])ccc4F)c4nc(c(-c5cc(S(=O)(=O)[O-])ccc5F)c5ccc2[nH]5)C=C4)C=C3)cc1)C[C@H]1CNC(=O)O1
REMARK SMILES IDX 11 1 10 2 9 3 8 4 6 5 7 6 5 8 4 9 3 11 2 12 1 13 81 14 82 15
REMARK SMILES IDX 83 16 87 17 84 18 85 19 86 21 12 22 13 23 14 24 15 25 16 26
REMARK SMILES IDX 17 28 18 29 19 30 80 31 20 32 79 33 21 34 22 35 23 36 73 37
REMARK SMILES IDX 24 38 78 39 72 40 74 41 25 42 77 43 71 44 70 45 26 47 58 48
REMARK SMILES IDX 38 49 57 50 39 51 42 52 56 53 75 54 40 55 41 56 55 58 76 59
REMARK SMILES IDX 43 60 27 61 28 62 36 63 29 64 35 65 37 66 34 67 30 68 31 69
REMARK SMILES IDX 32 70 33 71 59 72 60 73 68 74 61 75 67 76 69 77 66 78 62 79
REMARK SMILES IDX 63 80 64 81 65 82 44 83 45 84 53 85 46 86 52 87 54 88 51 89
REMARK SMILES IDX 47 90 48 91 49 92 50 93
REMARK H PARENT 8 7 4 10 84 20 15 27 74 46 42 57
REMARK Flexibility Score: inf
ROOT
ATOM      1  C   UNL     1      -1.443  -0.013   2.590  1.00  0.00     0.002 C 
ENDROOT
BRANCH   1   2
ATOM      2  C   UNL     1      -2.577  -0.715   1.850  1.00  0.00     0.021 C 
BRANCH   2   3
ATOM      3  C   UNL     1      -3.583   0.186   1.115  1.00  0.00     0.116 C 
BRANCH   3   4
ATOM      4  N   UNL     1      -3.096   0.670  -0.163  1.00  0.00    -0.351 N 
ATOM      5  C   UNL     1      -3.381   0.279  -1.440  1.00  0.00     0.275 C 
ATOM      6  O   UNL     1      -2.809   0.863  -2.369  1.00  0.00    -0.269 OA
ATOM      7  H   UNL     1      -2.447   1.408  -0.098  1.00  0.00     0.163 HD
BRANCH   5   8
ATOM      8  C   UNL     1      -4.388  -0.828  -1.757  1.00  0.00     0.363 C 
BRANCH   8   9
ATOM      9  N   UNL     1      -3.893  -2.223  -1.665  1.00  0.00    -0.321 N 
ATOM     10  H   UNL     1      -4.478  -2.813  -2.256  1.00  0.00     0.348 HD
BRANCH   9  11
ATOM     11  C   UNL     1      -4.145  -2.814  -0.370  1.00  0.00     0.290 C 
BRANCH  11  12
ATOM     12  C   UNL     1      -3.908  -4.279  -0.197  1.00  0.00     0.025 C 
ATOM     13  C   UNL     1      -3.041  -4.768   0.703  1.00  0.00     0.010 C 
ENDBRANCH  11  12
ENDBRANCH   9  11
BRANCH   9  14
ATOM     14  C   UNL     1      -2.632  -2.486  -2.372  1.00  0.00     0.310 C 
BRANCH  14  15
ATOM     15  C   UNL     1      -1.217  -2.336  -1.742  1.00  0.00     0.252 C 
ATOM     16  C   UNL     1      -0.146  -2.107  -2.809  1.00  0.00     0.170 C 
ATOM     17  O   UNL     1      -1.066  -1.217  -0.861  1.00  0.00    -0.438 OA
ATOM     18  N   UNL     1       0.310  -0.785  -2.549  1.00  0.00    -0.318 N 
ATOM     19  C   UNL     1      -0.204  -0.308  -1.388  1.00  0.00     0.407 C 
ATOM     20  H   UNL     1       0.919  -0.282  -3.136  1.00  0.00     0.167 HD
ATOM     21  O   UNL     1       0.078   0.763  -0.869  1.00  0.00    -0.225 OA
ENDBRANCH  14  15
ENDBRANCH   9  14
ENDBRANCH   8   9
ENDBRANCH   5   8
ENDBRANCH   3   4
ENDBRANCH   2   3
ENDBRANCH   1   2
BRANCH   1  22
ATOM     22  C   UNL     1      -1.892   0.861   3.757  1.00  0.00     0.002 C 
BRANCH  22  23
ATOM     23  C   UNL     1      -2.855   0.184   4.736  1.00  0.00     0.021 C 
BRANCH  23  24
ATOM     24  C   UNL     1      -2.334  -1.112   5.354  1.00  0.00     0.116 C 
BRANCH  24  25
ATOM     25  N   UNL     1      -1.150  -0.880   6.163  1.00  0.00    -0.352 N 
ATOM     26  C   UNL     1      -0.998  -0.963   7.524  1.00  0.00     0.251 C 
ATOM     27  H   UNL     1      -0.341  -0.626   5.663  1.00  0.00     0.163 HD
ATOM     28  O   UNL     1      -0.019  -0.450   8.059  1.00  0.00    -0.269 OA
BRANCH  26  29
ATOM     29  C   UNL     1      -2.017  -1.658   8.341  1.00  0.00     0.039 A 
ATOM     30  C   UNL     1      -2.409  -1.097   9.559  1.00  0.00     0.014 A 
ATOM     31  C   UNL     1      -2.562  -2.877   7.925  1.00  0.00     0.014 A 
ATOM     32  C   UNL     1      -3.378  -1.736  10.335  1.00  0.00     0.010 A 
ATOM     33  C   UNL     1      -3.588  -3.468   8.659  1.00  0.00     0.010 A 
ATOM     34  C   UNL     1      -3.998  -2.913   9.880  1.00  0.00    -0.014 A 
BRANCH  34  35
ATOM     35  C   UNL     1      -5.057  -3.581  10.683  1.00  0.00     0.031 A 
ATOM     36  C   UNL     1      -4.837  -4.973  11.216  1.00  0.00     0.074 A 
ATOM     37  C   UNL     1      -6.226  -2.949  10.905  1.00  0.00     0.049 A 
ATOM     38  N   UNL     1      -5.651  -5.735  11.901  1.00  0.00    -0.248 NA
ATOM     39  C   UNL     1      -3.542  -5.601  10.914  1.00  0.00     0.031 C 
ATOM     40  C   UNL     1      -6.569  -1.612  10.413  1.00  0.00     0.029 A 
ATOM     41  N   UNL     1      -7.344  -3.341  11.599  1.00  0.00    -0.354 N 
ATOM     42  C   UNL     1      -4.971  -6.931  12.106  1.00  0.00     0.074 A 
ATOM     43  C   UNL     1      -3.707  -6.817  11.410  1.00  0.00     0.031 C 
ATOM     44  C   UNL     1      -7.794  -1.283  10.851  1.00  0.00     0.029 A 
ATOM     45  C   UNL     1      -8.349  -2.400  11.608  1.00  0.00     0.049 A 
ATOM     46  H   UNL     1      -7.419  -4.213  12.049  1.00  0.00     0.167 HD
ATOM     47  C   UNL     1      -5.353  -8.014  12.829  1.00  0.00     0.034 A 
ATOM     48  C   UNL     1      -9.581  -2.437  12.154  1.00  0.00     0.034 A 
ATOM     49  C   UNL     1      -6.617  -8.109  13.519  1.00  0.00     0.049 A 
ATOM     50  C   UNL     1     -10.000  -3.669  12.918  1.00  0.00     0.074 A 
ATOM     51  C   UNL     1      -7.089  -9.140  14.313  1.00  0.00     0.029 A 
ATOM     52  N   UNL     1      -7.616  -7.144  13.492  1.00  0.00    -0.354 N 
ATOM     53  N   UNL     1      -9.325  -4.775  13.140  1.00  0.00    -0.248 NA
ATOM     54  C   UNL     1     -11.340  -3.652  13.516  1.00  0.00     0.031 C 
ATOM     55  C   UNL     1      -8.400  -8.837  14.694  1.00  0.00     0.029 A 
ATOM     56  C   UNL     1      -8.714  -7.572  14.224  1.00  0.00     0.049 A 
ATOM     57  H   UNL     1      -7.554  -6.281  13.021  1.00  0.00     0.167 HD
ATOM     58  C   UNL     1     -10.147  -5.566  13.940  1.00  0.00     0.074 A 
ATOM     59  C   UNL     1     -11.357  -4.803  14.171  1.00  0.00     0.031 C 
ATOM     60  C   UNL     1      -9.920  -6.807  14.442  1.00  0.00     0.034 A 
BRANCH  47  61
ATOM     61  C   UNL     1      -4.404  -9.190  12.880  1.00  0.00     0.023 A 
ATOM     62  C   UNL     1      -3.115  -9.078  13.431  1.00  0.00     0.031 A 
ATOM     63  C   UNL     1      -4.785 -10.437  12.354  1.00  0.00     0.131 A 
ATOM     64  C   UNL     1      -2.229 -10.165  13.372  1.00  0.00     0.055 A 
ATOM     65  C   UNL     1      -3.930 -11.541  12.381  1.00  0.00     0.041 A 
ATOM     66  F   UNL     1      -5.992 -10.602  11.792  1.00  0.00    -0.206 F 
ATOM     67  C   UNL     1      -2.638 -11.405  12.878  1.00  0.00     0.022 A 
BRANCH  64  68
ATOM     68  S   UNL     1      -0.489  -9.889  13.806  1.00  0.00     0.124 S 
ATOM     69  O   UNL     1      -0.116  -8.835  12.866  1.00  0.00    -0.237 OA
ATOM     70  O   UNL     1      -0.571  -9.497  15.207  1.00  0.00    -0.237 OA
ATOM     71  O   UNL     1       0.136 -11.186  13.555  1.00  0.00    -0.744 OA
ENDBRANCH  64  68
ENDBRANCH  47  61
BRANCH  48  72
ATOM     72  C   UNL     1     -10.516  -1.285  11.995  1.00  0.00     0.023 A 
ATOM     73  C   UNL     1     -10.983  -0.570  13.110  1.00  0.00     0.031 A 
ATOM     74  C   UNL     1     -11.001  -0.915  10.727  1.00  0.00     0.131 A 
ATOM     75  C   UNL     1     -11.947   0.437  12.942  1.00  0.00     0.055 A 
ATOM     76  C   UNL     1     -11.910   0.131  10.559  1.00  0.00     0.041 A 
ATOM     77  F   UNL     1     -10.589  -1.564   9.626  1.00  0.00    -0.206 F 
ATOM     78  C   UNL     1     -12.401   0.804  11.674  1.00  0.00     0.022 A 
BRANCH  75  79
ATOM     79  S   UNL     1     -12.684   1.188  14.420  1.00  0.00     0.124 S 
ATOM     80  O   UNL     1     -13.228   0.021  15.105  1.00  0.00    -0.237 OA
ATOM     81  O   UNL     1     -11.528   1.820  15.047  1.00  0.00    -0.237 OA
ATOM     82  O   UNL     1     -13.676   2.111  13.873  1.00  0.00    -0.744 OA
ENDBRANCH  75  79
ENDBRANCH  48  72
BRANCH  60  83
ATOM     83  C   UNL     1     -10.983  -7.390  15.345  1.00  0.00     0.023 A 
ATOM     84  C   UNL     1     -12.278  -7.682  14.881  1.00  0.00     0.031 A 
ATOM     85  C   UNL     1     -10.699  -7.636  16.701  1.00  0.00     0.131 A 
ATOM     86  C   UNL     1     -13.258  -8.133  15.779  1.00  0.00     0.055 A 
ATOM     87  C   UNL     1     -11.655  -8.159  17.572  1.00  0.00     0.041 A 
ATOM     88  F   UNL     1      -9.482  -7.372  17.203  1.00  0.00    -0.206 F 
ATOM     89  C   UNL     1     -12.949  -8.394  17.116  1.00  0.00     0.022 A 
BRANCH  86  90
ATOM     90  S   UNL     1     -14.974  -8.256  15.205  1.00  0.00     0.124 S 
ATOM     91  O   UNL     1     -15.232  -6.901  14.730  1.00  0.00    -0.237 OA
ATOM     92  O   UNL     1     -14.885  -9.286  14.174  1.00  0.00    -0.237 OA
ATOM     93  O   UNL     1     -15.711  -8.644  16.406  1.00  0.00    -0.744 OA
ENDBRANCH  86  90
ENDBRANCH  60  83
ENDBRANCH  34  35
ENDBRANCH  26  29
ENDBRANCH  24  25
ENDBRANCH  23  24
ENDBRANCH  22  23
ENDBRANCH   1  22
TORSDOF 21
