REMARK SMILES COCC[N@H+](C)[C@H](C(=O)NCCCCCCNC(=O)c1ccc(-c2c3nc(c(-c4cc(S(=O)(=O)[O-])ccc4F)c4ccc([nH]4)c(-c4cc(S(=O)(=O)[O-])ccc4F)c4nc(c(-c5cc(S(=O)(=O)[O-])ccc5F)c5ccc2[nH]5)C=C4)C=C3)cc1)c1ccc(OC)nc1
REMARK SMILES IDX 13 1 12 2 11 3 10 4 8 5 9 6 7 8 5 9 6 10 4 12 3 13 2 14 1 15
REMARK SMILES IDX 83 16 84 17 90 18 85 19 89 20 86 21 87 22 88 23 14 24 15 25
REMARK SMILES IDX 16 26 17 27 18 28 19 30 20 31 21 32 82 33 22 34 81 35 23 36
REMARK SMILES IDX 24 37 25 38 75 39 26 40 80 41 74 42 76 43 27 44 79 45 73 46
REMARK SMILES IDX 72 47 28 49 60 50 40 51 59 52 41 53 44 54 58 55 77 56 42 57
REMARK SMILES IDX 43 58 57 60 78 61 45 62 29 63 30 64 38 65 31 66 37 67 39 68
REMARK SMILES IDX 36 69 32 70 33 71 34 72 35 73 61 74 62 75 70 76 63 77 69 78
REMARK SMILES IDX 71 79 68 80 64 81 65 82 66 83 67 84 46 85 47 86 55 87 48 88
REMARK SMILES IDX 54 89 56 90 53 91 49 92 50 93 51 94 52 95
REMARK H PARENT 10 7 5 11 17 29 76 48 44 59
REMARK Flexibility Score: inf
ROOT
ATOM      1  C   UNL     1       3.274   3.120   4.988  1.00  0.00     0.002 C 
ENDROOT
BRANCH   1   2
ATOM      2  C   UNL     1       3.079   1.678   4.507  1.00  0.00     0.021 C 
BRANCH   2   3
ATOM      3  C   UNL     1       1.764   1.397   3.790  1.00  0.00     0.116 C 
BRANCH   3   4
ATOM      4  N   UNL     1       1.586   2.207   2.601  1.00  0.00    -0.351 N 
ATOM      5  C   UNL     1       0.934   1.932   1.430  1.00  0.00     0.283 C 
ATOM      6  O   UNL     1       0.739   2.898   0.681  1.00  0.00    -0.268 OA
ATOM      7  H   UNL     1       2.001   3.099   2.643  1.00  0.00     0.163 HD
BRANCH   5   8
ATOM      8  C   UNL     1       0.449   0.481   1.092  1.00  0.00     0.306 C 
BRANCH   8   9
ATOM      9  N   UNL     1      -1.041   0.497   1.169  1.00  0.00    -0.321 N 
ATOM     10  C   UNL     1      -1.715   0.702  -0.111  1.00  0.00     0.333 C 
ATOM     11  H   UNL     1      -1.208   1.337   1.722  1.00  0.00     0.348 HD
BRANCH   9  12
ATOM     12  C   UNL     1      -1.652  -0.600   1.938  1.00  0.00     0.291 C 
BRANCH  12  13
ATOM     13  C   UNL     1      -1.443  -0.512   3.466  1.00  0.00     0.221 C 
BRANCH  13  14
ATOM     14  O   UNL     1      -2.260   0.444   4.144  1.00  0.00    -0.379 OA
ATOM     15  C   UNL     1      -2.136   1.780   3.680  1.00  0.00     0.195 C 
ENDBRANCH  13  14
ENDBRANCH  12  13
ENDBRANCH   9  12
ENDBRANCH   8   9
BRANCH   8  16
ATOM     16  C   UNL     1       1.033  -0.075  -0.207  1.00  0.00     0.038 A 
ATOM     17  C   UNL     1       1.538   0.715  -1.245  1.00  0.00     0.017 A 
ATOM     18  C   UNL     1       1.029  -1.447  -0.442  1.00  0.00     0.125 A 
ATOM     19  C   UNL     1       1.969   0.133  -2.438  1.00  0.00     0.069 A 
ATOM     20  N   UNL     1       1.436  -2.037  -1.591  1.00  0.00    -0.222 NA
ATOM     21  C   UNL     1       1.887  -1.242  -2.582  1.00  0.00     0.212 A 
BRANCH  21  22
ATOM     22  O   UNL     1       2.226  -1.936  -3.708  1.00  0.00    -0.481 OA
ATOM     23  C   UNL     1       2.617  -1.171  -4.839  1.00  0.00     0.280 C 
ENDBRANCH  21  22
ENDBRANCH   8  16
ENDBRANCH   5   8
ENDBRANCH   3   4
ENDBRANCH   2   3
ENDBRANCH   1   2
BRANCH   1  24
ATOM     24  C   UNL     1       2.177   3.676   5.899  1.00  0.00     0.002 C 
BRANCH  24  25
ATOM     25  C   UNL     1       1.871   2.852   7.151  1.00  0.00     0.021 C 
BRANCH  25  26
ATOM     26  C   UNL     1       3.075   2.514   8.022  1.00  0.00     0.116 C 
BRANCH  26  27
ATOM     27  N   UNL     1       3.760   3.696   8.516  1.00  0.00    -0.352 N 
ATOM     28  C   UNL     1       4.186   3.983   9.789  1.00  0.00     0.251 C 
ATOM     29  H   UNL     1       3.944   4.390   7.843  1.00  0.00     0.163 HD
ATOM     30  O   UNL     1       4.605   5.110  10.048  1.00  0.00    -0.269 OA
BRANCH  28  31
ATOM     31  C   UNL     1       4.113   2.952  10.848  1.00  0.00     0.039 A 
ATOM     32  C   UNL     1       3.651   3.318  12.115  1.00  0.00     0.014 A 
ATOM     33  C   UNL     1       4.500   1.631  10.602  1.00  0.00     0.014 A 
ATOM     34  C   UNL     1       3.529   2.351  13.115  1.00  0.00     0.010 A 
ATOM     35  C   UNL     1       4.301   0.654  11.575  1.00  0.00     0.010 A 
ATOM     36  C   UNL     1       3.822   1.004  12.847  1.00  0.00    -0.014 A 
BRANCH  36  37
ATOM     37  C   UNL     1       3.658  -0.041  13.894  1.00  0.00     0.031 A 
ATOM     38  C   UNL     1       4.855  -0.809  14.387  1.00  0.00     0.074 A 
ATOM     39  C   UNL     1       2.430  -0.320  14.377  1.00  0.00     0.049 A 
ATOM     40  N   UNL     1       4.912  -1.792  15.250  1.00  0.00    -0.248 NA
ATOM     41  C   UNL     1       6.158  -0.441  13.812  1.00  0.00     0.031 C 
ATOM     42  C   UNL     1       1.188   0.332  13.954  1.00  0.00     0.029 A 
ATOM     43  N   UNL     1       2.021  -1.225  15.325  1.00  0.00    -0.354 N 
ATOM     44  C   UNL     1       6.253  -2.155  15.324  1.00  0.00     0.074 A 
ATOM     45  C   UNL     1       6.960  -1.343  14.357  1.00  0.00     0.031 C 
ATOM     46  C   UNL     1       0.163  -0.174  14.659  1.00  0.00     0.029 A 
ATOM     47  C   UNL     1       0.662  -1.220  15.547  1.00  0.00     0.049 A 
ATOM     48  H   UNL     1       2.641  -1.821  15.802  1.00  0.00     0.167 HD
ATOM     49  C   UNL     1       6.847  -3.057  16.145  1.00  0.00     0.034 A 
ATOM     50  C   UNL     1      -0.097  -1.980  16.362  1.00  0.00     0.034 A 
ATOM     51  C   UNL     1       6.129  -3.862  17.104  1.00  0.00     0.049 A 
ATOM     52  C   UNL     1       0.581  -3.012  17.232  1.00  0.00     0.074 A 
ATOM     53  C   UNL     1       6.631  -4.796  17.994  1.00  0.00     0.029 A 
ATOM     54  N   UNL     1       4.753  -3.831  17.298  1.00  0.00    -0.354 N 
ATOM     55  N   UNL     1       1.856  -3.317  17.313  1.00  0.00    -0.248 NA
ATOM     56  C   UNL     1      -0.281  -3.788  18.133  1.00  0.00     0.031 C 
ATOM     57  C   UNL     1       5.556  -5.377  18.675  1.00  0.00     0.029 A 
ATOM     58  C   UNL     1       4.390  -4.743  18.277  1.00  0.00     0.049 A 
ATOM     59  H   UNL     1       4.128  -3.246  16.812  1.00  0.00     0.167 HD
ATOM     60  C   UNL     1       1.950  -4.291  18.306  1.00  0.00     0.074 A 
ATOM     61  C   UNL     1       0.608  -4.504  18.804  1.00  0.00     0.031 C 
ATOM     62  C   UNL     1       3.046  -4.947  18.767  1.00  0.00     0.034 A 
BRANCH  49  63
ATOM     63  C   UNL     1       8.344  -3.223  16.027  1.00  0.00     0.023 A 
ATOM     64  C   UNL     1       9.223  -2.157  16.292  1.00  0.00     0.031 A 
ATOM     65  C   UNL     1       8.903  -4.448  15.624  1.00  0.00     0.131 A 
ATOM     66  C   UNL     1      10.601  -2.313  16.078  1.00  0.00     0.055 A 
ATOM     67  C   UNL     1      10.283  -4.623  15.499  1.00  0.00     0.041 A 
ATOM     68  F   UNL     1       8.116  -5.497  15.334  1.00  0.00    -0.206 F 
ATOM     69  C   UNL     1      11.140  -3.547  15.711  1.00  0.00     0.022 A 
BRANCH  66  70
ATOM     70  S   UNL     1      11.657  -0.840  16.139  1.00  0.00     0.124 S 
ATOM     71  O   UNL     1      11.061  -0.007  15.097  1.00  0.00    -0.237 OA
ATOM     72  O   UNL     1      11.475  -0.377  17.510  1.00  0.00    -0.237 OA
ATOM     73  O   UNL     1      12.987  -1.359  15.826  1.00  0.00    -0.744 OA
ENDBRANCH  66  70
ENDBRANCH  49  63
BRANCH  50  74
ATOM     74  C   UNL     1      -1.581  -1.819  16.394  1.00  0.00     0.023 A 
ATOM     75  C   UNL     1      -2.247  -1.449  17.574  1.00  0.00     0.031 A 
ATOM     76  C   UNL     1      -2.365  -2.106  15.262  1.00  0.00     0.131 A 
ATOM     77  C   UNL     1      -3.650  -1.446  17.616  1.00  0.00     0.055 A 
ATOM     78  C   UNL     1      -3.759  -2.033  15.289  1.00  0.00     0.041 A 
ATOM     79  F   UNL     1      -1.784  -2.464  14.105  1.00  0.00    -0.206 F 
ATOM     80  C   UNL     1      -4.410  -1.721  16.478  1.00  0.00     0.022 A 
BRANCH  77  81
ATOM     81  S   UNL     1      -4.469  -1.206  19.218  1.00  0.00     0.124 S 
ATOM     82  O   UNL     1      -3.869  -2.267  20.018  1.00  0.00    -0.237 OA
ATOM     83  O   UNL     1      -4.074   0.157  19.557  1.00  0.00    -0.237 OA
ATOM     84  O   UNL     1      -5.885  -1.384  18.905  1.00  0.00    -0.744 OA
ENDBRANCH  77  81
ENDBRANCH  50  74
BRANCH  62  85
ATOM     85  C   UNL     1       2.840  -5.908  19.915  1.00  0.00     0.023 A 
ATOM     86  C   UNL     1       2.058  -7.069  19.784  1.00  0.00     0.031 A 
ATOM     87  C   UNL     1       3.419  -5.641  21.169  1.00  0.00     0.131 A 
ATOM     88  C   UNL     1       1.816  -7.879  20.905  1.00  0.00     0.055 A 
ATOM     89  C   UNL     1       3.235  -6.490  22.261  1.00  0.00     0.041 A 
ATOM     90  F   UNL     1       4.174  -4.546  21.355  1.00  0.00    -0.206 F 
ATOM     91  C   UNL     1       2.416  -7.607  22.137  1.00  0.00     0.022 A 
BRANCH  88  92
ATOM     92  S   UNL     1       0.610  -9.226  20.760  1.00  0.00     0.124 S 
ATOM     93  O   UNL     1      -0.585  -8.517  20.316  1.00  0.00    -0.237 OA
ATOM     94  O   UNL     1       1.236 -10.100  19.772  1.00  0.00    -0.237 OA
ATOM     95  O   UNL     1       0.541  -9.772  22.114  1.00  0.00    -0.744 OA
ENDBRANCH  88  92
ENDBRANCH  62  85
ENDBRANCH  36  37
ENDBRANCH  28  31
ENDBRANCH  26  27
ENDBRANCH  25  26
ENDBRANCH  24  25
ENDBRANCH   1  24
TORSDOF 22
