REMARK SMILES CCn1cc(CC(=O)NCCCCCCNC(=O)c2ccc(-c3c4nc(c(-c5cc(S(=O)(=O)[O-])ccc5F)c5ccc([nH]5)c(-c5cc(S(=O)(=O)[O-])ccc5F)c5nc(c(-c6cc(S(=O)(=O)[O-])ccc6F)c6ccc3[nH]6)C=C5)C=C4)cc2)c2ccccc21
REMARK SMILES IDX 13 1 12 2 11 3 10 4 9 5 7 6 8 7 6 9 5 10 3 11 4 12 87 13
REMARK SMILES IDX 82 14 86 15 83 16 85 17 84 18 2 19 1 20 14 21 15 22 16 23
REMARK SMILES IDX 17 24 18 26 19 27 20 28 81 29 21 30 80 31 22 32 23 33 24 34
REMARK SMILES IDX 74 35 25 36 79 37 73 38 75 39 26 40 78 41 72 42 71 43 27 45
REMARK SMILES IDX 59 46 39 47 58 48 40 49 43 50 57 51 76 52 41 53 42 54 56 56
REMARK SMILES IDX 77 57 44 58 28 59 29 60 37 61 30 62 36 63 38 64 35 65 31 66
REMARK SMILES IDX 32 67 33 68 34 69 60 70 61 71 69 72 62 73 68 74 70 75 67 76
REMARK SMILES IDX 63 77 64 78 65 79 66 80 45 81 46 82 54 83 47 84 53 85 55 86
REMARK SMILES IDX 52 87 48 88 49 89 50 90 51 91
REMARK H PARENT 9 8 16 25 75 44 43 55
REMARK Flexibility Score: inf
ROOT
ATOM      1  C   UNL     1       7.255  -2.540  -0.862  1.00  0.00     0.002 C 
ENDROOT
BRANCH   1   2
ATOM      2  C   UNL     1       5.880  -3.212  -0.777  1.00  0.00     0.002 C 
BRANCH   2   3
ATOM      3  C   UNL     1       4.752  -2.466  -1.500  1.00  0.00     0.021 C 
BRANCH   3   4
ATOM      4  C   UNL     1       4.949  -2.380  -3.014  1.00  0.00     0.116 C 
BRANCH   4   5
ATOM      5  N   UNL     1       4.740  -3.672  -3.640  1.00  0.00    -0.356 N 
ATOM      6  C   UNL     1       3.655  -4.115  -4.342  1.00  0.00     0.224 C 
ATOM      7  O   UNL     1       3.626  -5.295  -4.699  1.00  0.00    -0.275 OA
ATOM      8  H   UNL     1       5.480  -4.316  -3.547  1.00  0.00     0.163 HD
BRANCH   6   9
ATOM      9  C   UNL     1       2.549  -3.145  -4.725  1.00  0.00     0.137 C 
BRANCH   9  10
ATOM     10  C   UNL     1       1.729  -2.673  -3.565  1.00  0.00    -0.013 A 
ATOM     11  N   UNL     1       0.775  -1.333  -2.052  1.00  0.00    -0.347 N 
ATOM     12  C   UNL     1       1.531  -1.356  -3.194  1.00  0.00     0.091 A 
ATOM     13  C   UNL     1       0.403  -2.615  -1.706  1.00  0.00     0.048 A 
ATOM     14  C   UNL     1       0.998  -3.477  -2.635  1.00  0.00     0.003 A 
ATOM     15  C   UNL     1      -0.390  -3.095  -0.651  1.00  0.00     0.027 A 
ATOM     16  C   UNL     1       0.799  -4.866  -2.493  1.00  0.00     0.010 A 
ATOM     17  C   UNL     1      -0.567  -4.476  -0.532  1.00  0.00     0.002 A 
ATOM     18  C   UNL     1       0.019  -5.352  -1.439  1.00  0.00     0.001 A 
BRANCH  11  19
ATOM     19  C   UNL     1       0.422  -0.120  -1.335  1.00  0.00     0.119 C 
ATOM     20  C   UNL     1       1.164   0.026  -0.015  1.00  0.00     0.027 C 
ENDBRANCH  11  19
ENDBRANCH   9  10
ENDBRANCH   6   9
ENDBRANCH   4   5
ENDBRANCH   3   4
ENDBRANCH   2   3
ENDBRANCH   1   2
BRANCH   1  21
ATOM     21  C   UNL     1       7.306  -1.093  -0.354  1.00  0.00     0.021 C 
BRANCH  21  22
ATOM     22  C   UNL     1       6.759  -0.904   1.062  1.00  0.00     0.116 C 
BRANCH  22  23
ATOM     23  N   UNL     1       7.434  -1.716   2.052  1.00  0.00    -0.352 N 
ATOM     24  C   UNL     1       8.564  -1.571   2.808  1.00  0.00     0.251 C 
ATOM     25  H   UNL     1       6.972  -2.569   2.221  1.00  0.00     0.163 HD
ATOM     26  O   UNL     1       8.782  -2.473   3.622  1.00  0.00    -0.269 OA
BRANCH  24  27
ATOM     27  C   UNL     1       9.550  -0.463   2.672  1.00  0.00     0.039 A 
ATOM     28  C   UNL     1       9.431   0.630   1.813  1.00  0.00     0.014 A 
ATOM     29  C   UNL     1      10.730  -0.592   3.430  1.00  0.00     0.014 A 
ATOM     30  C   UNL     1      10.502   1.492   1.614  1.00  0.00     0.010 A 
ATOM     31  C   UNL     1      11.795   0.286   3.256  1.00  0.00     0.010 A 
ATOM     32  C   UNL     1      11.703   1.283   2.292  1.00  0.00    -0.014 A 
BRANCH  32  33
ATOM     33  C   UNL     1      12.836   2.122   1.915  1.00  0.00     0.031 A 
ATOM     34  C   UNL     1      12.691   3.589   2.145  1.00  0.00     0.074 A 
ATOM     35  C   UNL     1      13.984   1.605   1.437  1.00  0.00     0.049 A 
ATOM     36  N   UNL     1      12.704   4.560   1.285  1.00  0.00    -0.248 NA
ATOM     37  C   UNL     1      12.408   4.012   3.522  1.00  0.00     0.031 C 
ATOM     38  C   UNL     1      14.421   0.205   1.434  1.00  0.00     0.029 A 
ATOM     39  N   UNL     1      15.061   2.266   0.935  1.00  0.00    -0.354 N 
ATOM     40  C   UNL     1      12.592   5.738   2.029  1.00  0.00     0.074 A 
ATOM     41  C   UNL     1      12.290   5.332   3.379  1.00  0.00     0.031 C 
ATOM     42  C   UNL     1      15.748   0.156   1.181  1.00  0.00     0.029 A 
ATOM     43  C   UNL     1      16.203   1.491   0.840  1.00  0.00     0.049 A 
ATOM     44  H   UNL     1      15.031   3.212   0.664  1.00  0.00     0.167 HD
ATOM     45  C   UNL     1      12.902   6.970   1.530  1.00  0.00     0.034 A 
ATOM     46  C   UNL     1      17.458   1.936   0.594  1.00  0.00     0.034 A 
ATOM     47  C   UNL     1      12.975   6.969   0.097  1.00  0.00     0.049 A 
ATOM     48  C   UNL     1      17.358   3.280  -0.022  1.00  0.00     0.074 A 
ATOM     49  C   UNL     1      12.070   6.804  -0.929  1.00  0.00     0.029 A 
ATOM     50  N   UNL     1      14.216   6.881  -0.482  1.00  0.00    -0.354 N 
ATOM     51  N   UNL     1      16.881   3.515  -1.213  1.00  0.00    -0.248 NA
ATOM     52  C   UNL     1      17.433   4.434   0.860  1.00  0.00     0.031 C 
ATOM     53  C   UNL     1      12.802   6.163  -1.969  1.00  0.00     0.029 A 
ATOM     54  C   UNL     1      14.115   5.995  -1.523  1.00  0.00     0.049 A 
ATOM     55  H   UNL     1      15.027   7.364  -0.202  1.00  0.00     0.167 HD
ATOM     56  C   UNL     1      16.213   4.725  -1.093  1.00  0.00     0.074 A 
ATOM     57  C   UNL     1      16.685   5.294   0.166  1.00  0.00     0.031 C 
ATOM     58  C   UNL     1      15.142   5.036  -1.884  1.00  0.00     0.034 A 
BRANCH  45  59
ATOM     59  C   UNL     1      13.400   8.130   2.362  1.00  0.00     0.023 A 
ATOM     60  C   UNL     1      13.869   7.967   3.679  1.00  0.00     0.031 A 
ATOM     61  C   UNL     1      13.622   9.399   1.787  1.00  0.00     0.131 A 
ATOM     62  C   UNL     1      14.481   9.015   4.380  1.00  0.00     0.055 A 
ATOM     63  C   UNL     1      14.298  10.427   2.462  1.00  0.00     0.041 A 
ATOM     64  F   UNL     1      13.237   9.667   0.529  1.00  0.00    -0.206 F 
ATOM     65  C   UNL     1      14.727  10.239   3.769  1.00  0.00     0.022 A 
BRANCH  62  66
ATOM     66  S   UNL     1      14.956   8.790   6.115  1.00  0.00     0.124 S 
ATOM     67  O   UNL     1      16.414   8.884   6.038  1.00  0.00    -0.237 OA
ATOM     68  O   UNL     1      14.286   9.923   6.756  1.00  0.00    -0.237 OA
ATOM     69  O   UNL     1      14.414   7.485   6.451  1.00  0.00    -0.744 OA
ENDBRANCH  62  66
ENDBRANCH  45  59
BRANCH  46  70
ATOM     70  C   UNL     1      18.653   1.510   1.357  1.00  0.00     0.023 A 
ATOM     71  C   UNL     1      18.520   1.146   2.712  1.00  0.00     0.031 A 
ATOM     72  C   UNL     1      19.948   1.737   0.869  1.00  0.00     0.131 A 
ATOM     73  C   UNL     1      19.645   1.060   3.540  1.00  0.00     0.055 A 
ATOM     74  C   UNL     1      21.074   1.637   1.695  1.00  0.00     0.041 A 
ATOM     75  F   UNL     1      20.137   2.123  -0.402  1.00  0.00    -0.206 F 
ATOM     76  C   UNL     1      20.924   1.310   3.041  1.00  0.00     0.022 A 
BRANCH  73  77
ATOM     77  S   UNL     1      19.458   0.696   5.307  1.00  0.00     0.124 S 
ATOM     78  O   UNL     1      20.459  -0.349   5.512  1.00  0.00    -0.237 OA
ATOM     79  O   UNL     1      19.765   1.988   5.910  1.00  0.00    -0.237 OA
ATOM     80  O   UNL     1      18.072   0.252   5.420  1.00  0.00    -0.744 OA
ENDBRANCH  73  77
ENDBRANCH  46  70
BRANCH  58  81
ATOM     81  C   UNL     1      14.819   4.147  -3.066  1.00  0.00     0.023 A 
ATOM     82  C   UNL     1      14.591   4.768  -4.308  1.00  0.00     0.031 A 
ATOM     83  C   UNL     1      14.482   2.784  -2.951  1.00  0.00     0.131 A 
ATOM     84  C   UNL     1      14.003   4.052  -5.359  1.00  0.00     0.055 A 
ATOM     85  C   UNL     1      13.963   2.055  -4.025  1.00  0.00     0.041 A 
ATOM     86  F   UNL     1      14.553   2.144  -1.777  1.00  0.00    -0.206 F 
ATOM     87  C   UNL     1      13.703   2.693  -5.232  1.00  0.00     0.022 A 
BRANCH  84  88
ATOM     88  S   UNL     1      13.456   4.907  -6.860  1.00  0.00     0.124 S 
ATOM     89  O   UNL     1      14.246   4.251  -7.897  1.00  0.00    -0.237 OA
ATOM     90  O   UNL     1      12.025   4.608  -6.880  1.00  0.00    -0.237 OA
ATOM     91  O   UNL     1      13.789   6.307  -6.612  1.00  0.00    -0.744 OA
ENDBRANCH  84  88
ENDBRANCH  58  81
ENDBRANCH  32  33
ENDBRANCH  24  27
ENDBRANCH  22  23
ENDBRANCH  21  22
ENDBRANCH   1  21
TORSDOF 18
