REMARK SMILES C[C@H](COc1ccccc1C(=O)NCCCCCCNC(=O)c1ccc(-c2c3nc(c(-c4cc(S(=O)(=O)[O-])ccc4F)c4ccc([nH]4)c(-c4cc(S(=O)(=O)[O-])ccc4F)c4nc(c(-c5cc(S(=O)(=O)[O-])ccc5F)c5ccc2[nH]5)C=C4)C=C3)cc1)C(N)=O
REMARK SMILES IDX 16 1 15 2 14 3 13 4 11 5 12 6 10 8 5 9 6 10 7 11 9 12 8 13
REMARK SMILES IDX 4 14 3 15 2 16 1 17 86 18 87 19 88 20 17 23 18 24 19 25
REMARK SMILES IDX 20 26 21 27 22 29 23 30 24 31 85 32 25 33 84 34 26 35 27 36
REMARK SMILES IDX 28 37 78 38 29 39 83 40 77 41 79 42 30 43 82 44 76 45 75 46
REMARK SMILES IDX 31 48 63 49 43 50 62 51 44 52 47 53 61 54 80 55 45 56 46 57
REMARK SMILES IDX 60 59 81 60 48 61 32 62 33 63 41 64 34 65 40 66 42 67 39 68
REMARK SMILES IDX 35 69 36 70 37 71 38 72 64 73 65 74 73 75 66 76 72 77 74 78
REMARK SMILES IDX 71 79 67 80 68 81 69 82 70 83 49 84 50 85 58 86 51 87 57 88
REMARK SMILES IDX 59 89 56 90 52 91 53 92 54 93 55 94
REMARK H PARENT 13 7 87 21 87 22 20 28 79 47 47 58
REMARK Flexibility Score: inf
ROOT
ATOM      1  C   UNL     1       2.981   2.413  -0.215  1.00  0.00     0.002 C 
ENDROOT
BRANCH   1   2
ATOM      2  C   UNL     1       3.918   1.270  -0.642  1.00  0.00     0.021 C 
BRANCH   2   3
ATOM      3  C   UNL     1       3.309  -0.001  -1.237  1.00  0.00     0.116 C 
BRANCH   3   4
ATOM      4  N   UNL     1       2.047   0.228  -1.900  1.00  0.00    -0.352 N 
ATOM      5  C   UNL     1       1.575  -0.593  -2.903  1.00  0.00     0.255 C 
ATOM      6  O   UNL     1       1.841  -0.437  -4.088  1.00  0.00    -0.269 OA
ATOM      7  H   UNL     1       1.502   1.000  -1.625  1.00  0.00     0.163 HD
BRANCH   5   8
ATOM      8  C   UNL     1       0.768  -1.757  -2.427  1.00  0.00     0.081 A 
ATOM      9  C   UNL     1       0.344  -1.854  -1.093  1.00  0.00     0.132 A 
ATOM     10  C   UNL     1       0.106  -3.111  -0.539  1.00  0.00     0.047 A 
ATOM     11  C   UNL     1       0.125  -4.243  -1.361  1.00  0.00     0.004 A 
ATOM     12  C   UNL     1       0.656  -2.866  -3.272  1.00  0.00     0.018 A 
ATOM     13  C   UNL     1       0.324  -4.111  -2.738  1.00  0.00     0.001 A 
BRANCH   9  14
ATOM     14  O   UNL     1       0.245  -0.717  -0.315  1.00  0.00    -0.492 OA
BRANCH  14  15
ATOM     15  C   UNL     1      -1.122  -0.267  -0.228  1.00  0.00     0.242 C 
BRANCH  15  16
ATOM     16  C   UNL     1      -1.334   1.234  -0.564  1.00  0.00     0.113 C 
ATOM     17  C   UNL     1      -0.765   1.761  -1.885  1.00  0.00     0.022 C 
BRANCH  16  18
ATOM     18  C   UNL     1      -2.829   1.512  -0.601  1.00  0.00     0.223 C 
ATOM     19  N   UNL     1      -3.176   2.831  -0.598  1.00  0.00    -0.369 N 
ATOM     20  O   UNL     1      -3.692   0.646  -0.672  1.00  0.00    -0.275 OA
ATOM     21  H   UNL     1      -2.479   3.524  -0.540  1.00  0.00     0.159 HD
ATOM     22  H   UNL     1      -4.125   3.090  -0.653  1.00  0.00     0.159 HD
ENDBRANCH  16  18
ENDBRANCH  15  16
ENDBRANCH  14  15
ENDBRANCH   9  14
ENDBRANCH   5   8
ENDBRANCH   3   4
ENDBRANCH   2   3
ENDBRANCH   1   2
BRANCH   1  23
ATOM     23  C   UNL     1       2.048   2.203   0.981  1.00  0.00     0.002 C 
BRANCH  23  24
ATOM     24  C   UNL     1       2.678   1.857   2.326  1.00  0.00     0.021 C 
BRANCH  24  25
ATOM     25  C   UNL     1       3.872   2.694   2.763  1.00  0.00     0.116 C 
BRANCH  25  26
ATOM     26  N   UNL     1       3.576   4.096   3.018  1.00  0.00    -0.352 N 
ATOM     27  C   UNL     1       4.088   4.913   4.008  1.00  0.00     0.251 C 
ATOM     28  H   UNL     1       2.929   4.516   2.406  1.00  0.00     0.163 HD
ATOM     29  O   UNL     1       3.693   6.071   4.111  1.00  0.00    -0.269 OA
BRANCH  27  30
ATOM     30  C   UNL     1       5.069   4.367   4.980  1.00  0.00     0.039 A 
ATOM     31  C   UNL     1       4.874   4.598   6.346  1.00  0.00     0.014 A 
ATOM     32  C   UNL     1       6.136   3.572   4.557  1.00  0.00     0.014 A 
ATOM     33  C   UNL     1       5.676   3.939   7.285  1.00  0.00     0.010 A 
ATOM     34  C   UNL     1       6.876   2.851   5.491  1.00  0.00     0.010 A 
ATOM     35  C   UNL     1       6.643   3.012   6.866  1.00  0.00    -0.014 A 
BRANCH  35  36
ATOM     36  C   UNL     1       7.413   2.179   7.832  1.00  0.00     0.031 A 
ATOM     37  C   UNL     1       8.914   2.282   7.880  1.00  0.00     0.074 A 
ATOM     38  C   UNL     1       6.776   1.259   8.585  1.00  0.00     0.049 A 
ATOM     39  N   UNL     1       9.776   1.541   8.528  1.00  0.00    -0.248 NA
ATOM     40  C   UNL     1       9.524   3.338   7.059  1.00  0.00     0.031 C 
ATOM     41  C   UNL     1       5.329   1.033   8.602  1.00  0.00     0.029 A 
ATOM     42  N   UNL     1       7.263   0.325   9.467  1.00  0.00    -0.354 N 
ATOM     43  C   UNL     1      11.032   2.027   8.177  1.00  0.00     0.074 A 
ATOM     44  C   UNL     1      10.815   3.086   7.213  1.00  0.00     0.031 C 
ATOM     45  C   UNL     1       5.046   0.040   9.460  1.00  0.00     0.029 A 
ATOM     46  C   UNL     1       6.291  -0.481  10.016  1.00  0.00     0.049 A 
ATOM     47  H   UNL     1       8.219   0.241   9.687  1.00  0.00     0.167 HD
ATOM     48  C   UNL     1      12.250   1.640   8.631  1.00  0.00     0.034 A 
ATOM     49  C   UNL     1       6.391  -1.535  10.852  1.00  0.00     0.034 A 
ATOM     50  C   UNL     1      12.447   0.596   9.607  1.00  0.00     0.049 A 
ATOM     51  C   UNL     1       7.758  -1.970  11.318  1.00  0.00     0.074 A 
ATOM     52  C   UNL     1      13.630   0.173  10.189  1.00  0.00     0.029 A 
ATOM     53  N   UNL     1      11.438  -0.196  10.139  1.00  0.00    -0.354 N 
ATOM     54  N   UNL     1       8.932  -1.467  11.013  1.00  0.00    -0.248 NA
ATOM     55  C   UNL     1       7.813  -3.112  12.240  1.00  0.00     0.031 C 
ATOM     56  C   UNL     1      13.345  -0.916  11.021  1.00  0.00     0.029 A 
ATOM     57  C   UNL     1      11.975  -1.128  11.014  1.00  0.00     0.049 A 
ATOM     58  H   UNL     1      10.481  -0.108   9.927  1.00  0.00     0.167 HD
ATOM     59  C   UNL     1       9.862  -2.218  11.726  1.00  0.00     0.074 A 
ATOM     60  C   UNL     1       9.112  -3.196  12.487  1.00  0.00     0.031 C 
ATOM     61  C   UNL     1      11.215  -2.108  11.753  1.00  0.00     0.034 A 
BRANCH  48  62
ATOM     62  C   UNL     1      13.459   2.338   8.056  1.00  0.00     0.023 A 
ATOM     63  C   UNL     1      13.668   3.717   8.233  1.00  0.00     0.031 A 
ATOM     64  C   UNL     1      14.401   1.624   7.295  1.00  0.00     0.131 A 
ATOM     65  C   UNL     1      14.742   4.352   7.591  1.00  0.00     0.055 A 
ATOM     66  C   UNL     1      15.515   2.247   6.728  1.00  0.00     0.041 A 
ATOM     67  F   UNL     1      14.246   0.308   7.075  1.00  0.00    -0.206 F 
ATOM     68  C   UNL     1      15.681   3.622   6.860  1.00  0.00     0.022 A 
BRANCH  65  69
ATOM     69  S   UNL     1      14.806   6.164   7.603  1.00  0.00     0.124 S 
ATOM     70  O   UNL     1      13.538   6.508   6.964  1.00  0.00    -0.237 OA
ATOM     71  O   UNL     1      14.907   6.467   9.026  1.00  0.00    -0.237 OA
ATOM     72  O   UNL     1      15.996   6.471   6.813  1.00  0.00    -0.744 OA
ENDBRANCH  65  69
ENDBRANCH  48  62
BRANCH  49  73
ATOM     73  C   UNL     1       5.171  -2.275  11.288  1.00  0.00     0.023 A 
ATOM     74  C   UNL     1       4.776  -2.287  12.635  1.00  0.00     0.031 A 
ATOM     75  C   UNL     1       4.407  -3.020  10.371  1.00  0.00     0.131 A 
ATOM     76  C   UNL     1       3.677  -3.062  13.036  1.00  0.00     0.055 A 
ATOM     77  C   UNL     1       3.283  -3.748  10.767  1.00  0.00     0.041 A 
ATOM     78  F   UNL     1       4.738  -3.042   9.070  1.00  0.00    -0.206 F 
ATOM     79  C   UNL     1       2.920  -3.782  12.109  1.00  0.00     0.022 A 
BRANCH  76  80
ATOM     80  S   UNL     1       3.297  -3.181  14.806  1.00  0.00     0.124 S 
ATOM     81  O   UNL     1       4.543  -3.719  15.341  1.00  0.00    -0.237 OA
ATOM     82  O   UNL     1       2.998  -1.794  15.145  1.00  0.00    -0.237 OA
ATOM     83  O   UNL     1       2.155  -4.091  14.848  1.00  0.00    -0.744 OA
ENDBRANCH  76  80
ENDBRANCH  49  73
BRANCH  61  84
ATOM     84  C   UNL     1      11.962  -3.051  12.663  1.00  0.00     0.023 A 
ATOM     85  C   UNL     1      12.033  -4.429  12.398  1.00  0.00     0.031 A 
ATOM     86  C   UNL     1      12.611  -2.561  13.809  1.00  0.00     0.131 A 
ATOM     87  C   UNL     1      12.703  -5.278  13.292  1.00  0.00     0.055 A 
ATOM     88  C   UNL     1      13.322  -3.402  14.666  1.00  0.00     0.041 A 
ATOM     89  F   UNL     1      12.572  -1.253  14.111  1.00  0.00    -0.206 F 
ATOM     90  C   UNL     1      13.362  -4.771  14.415  1.00  0.00     0.022 A 
BRANCH  87  91
ATOM     91  S   UNL     1      12.642  -7.068  13.006  1.00  0.00     0.124 S 
ATOM     92  O   UNL     1      11.210  -7.339  13.084  1.00  0.00    -0.237 OA
ATOM     93  O   UNL     1      13.244  -7.195  11.683  1.00  0.00    -0.237 OA
ATOM     94  O   UNL     1      13.438  -7.618  14.102  1.00  0.00    -0.744 OA
ENDBRANCH  87  91
ENDBRANCH  61  84
ENDBRANCH  35  36
ENDBRANCH  27  30
ENDBRANCH  25  26
ENDBRANCH  24  25
ENDBRANCH  23  24
ENDBRANCH   1  23
TORSDOF 20
