REMARK SMILES O=C(CCC(=O)Nc1scc2c1c(=O)oc1ccccc12)NCCCCCCNC(=O)c1ccc(-c2c3nc(c(-c4cc(S(=O)(=O)[O-])ccc4F)c4ccc([nH]4)c(-c4cc(S(=O)(=O)[O-])ccc4F)c4nc(c(-c5cc(S(=O)(=O)[O-])ccc5F)c5ccc2[nH]5)C=C4)C=C3)cc1
REMARK SMILES IDX 25 1 24 2 23 3 22 4 1 5 2 6 3 8 4 9 5 10 6 11 7 12 8 14 9 15
REMARK SMILES IDX 12 16 10 17 11 18 13 19 21 20 14 21 15 22 16 23 20 24 17 25
REMARK SMILES IDX 19 26 18 27 26 28 27 29 28 30 29 31 30 32 31 34 32 35 33 36
REMARK SMILES IDX 94 37 34 38 93 39 35 40 36 41 37 42 87 43 38 44 92 45 86 46
REMARK SMILES IDX 88 47 39 48 91 49 85 50 84 51 40 53 72 54 52 55 71 56 53 57
REMARK SMILES IDX 56 58 70 59 89 60 54 61 55 62 69 64 90 65 57 66 41 67 42 68
REMARK SMILES IDX 50 69 43 70 49 71 51 72 48 73 44 74 45 75 46 76 47 77 73 78
REMARK SMILES IDX 74 79 82 80 75 81 81 82 83 83 80 84 76 85 77 86 78 87 79 88
REMARK SMILES IDX 58 89 59 90 67 91 60 92 66 93 68 94 65 95 61 96 62 97 63 98
REMARK SMILES IDX 64 99
REMARK H PARENT 22 7 7 13 29 33 88 52 56 63
REMARK Flexibility Score: inf
ROOT
ATOM      1  C   UNL     1       5.085   4.085  -0.842  1.00  0.00     0.002 C 
ENDROOT
BRANCH   1   2
ATOM      2  C   UNL     1       3.829   3.573  -0.149  1.00  0.00     0.021 C 
BRANCH   2   3
ATOM      3  C   UNL     1       3.617   2.095  -0.373  1.00  0.00     0.116 C 
BRANCH   3   4
ATOM      4  N   UNL     1       4.533   1.200   0.310  1.00  0.00    -0.356 N 
ATOM      5  O   UNL     1       3.197   0.255   1.970  1.00  0.00    -0.275 OA
ATOM      6  C   UNL     1       4.114   0.193   1.153  1.00  0.00     0.220 C 
ATOM      7  H   UNL     1       5.500   1.317   0.164  1.00  0.00     0.163 HD
BRANCH   6   8
ATOM      8  C   UNL     1       4.768  -1.132   0.870  1.00  0.00     0.110 C 
BRANCH   8   9
ATOM      9  C   UNL     1       3.994  -1.810  -0.263  1.00  0.00     0.110 C 
BRANCH   9  10
ATOM     10  C   UNL     1       4.133  -1.028  -1.539  1.00  0.00     0.225 C 
ATOM     11  O   UNL     1       5.266  -0.849  -2.006  1.00  0.00    -0.275 OA
ATOM     12  N   UNL     1       3.087  -0.537  -2.245  1.00  0.00    -0.317 N 
ATOM     13  H   UNL     1       3.363  -0.257  -3.147  1.00  0.00     0.170 HD
BRANCH  12  14
ATOM     14  C   UNL     1       1.741  -0.322  -2.043  1.00  0.00     0.110 A 
ATOM     15  S   UNL     1       1.052  -0.030  -3.606  1.00  0.00    -0.125 S 
ATOM     16  C   UNL     1       0.771  -0.192  -1.067  1.00  0.00     0.103 A 
ATOM     17  C   UNL     1      -0.531   0.134  -2.999  1.00  0.00     0.076 A 
ATOM     18  C   UNL     1      -0.552  -0.034  -1.641  1.00  0.00     0.013 A 
ATOM     19  C   UNL     1       0.733  -0.002   0.385  1.00  0.00     0.347 A 
ATOM     20  C   UNL     1      -1.688   0.116  -0.736  1.00  0.00     0.026 A 
ATOM     21  O   UNL     1       1.029   1.063   0.932  1.00  0.00    -0.246 OA
ATOM     22  O   UNL     1      -0.212  -0.828   0.975  1.00  0.00    -0.422 OA
ATOM     23  C   UNL     1      -1.447  -0.262   0.610  1.00  0.00     0.139 A 
ATOM     24  C   UNL     1      -2.898   0.716  -1.062  1.00  0.00     0.012 A 
ATOM     25  C   UNL     1      -2.379  -0.034   1.615  1.00  0.00     0.048 A 
ATOM     26  C   UNL     1      -3.842   0.945  -0.052  1.00  0.00     0.001 A 
ATOM     27  C   UNL     1      -3.581   0.582   1.277  1.00  0.00     0.004 A 
ENDBRANCH  12  14
ENDBRANCH   9  10
ENDBRANCH   8   9
ENDBRANCH   6   8
ENDBRANCH   3   4
ENDBRANCH   2   3
ENDBRANCH   1   2
BRANCH   1  28
ATOM     28  C   UNL     1       5.059   4.036  -2.379  1.00  0.00     0.002 C 
BRANCH  28  29
ATOM     29  C   UNL     1       4.005   4.902  -3.084  1.00  0.00     0.021 C 
BRANCH  29  30
ATOM     30  C   UNL     1       3.931   6.357  -2.620  1.00  0.00     0.116 C 
BRANCH  30  31
ATOM     31  N   UNL     1       5.225   6.980  -2.424  1.00  0.00    -0.352 N 
ATOM     32  C   UNL     1       6.150   7.614  -3.198  1.00  0.00     0.251 C 
ATOM     33  H   UNL     1       5.511   6.933  -1.483  1.00  0.00     0.163 HD
ATOM     34  O   UNL     1       7.152   8.012  -2.596  1.00  0.00    -0.269 OA
BRANCH  32  35
ATOM     35  C   UNL     1       6.064   7.819  -4.667  1.00  0.00     0.039 A 
ATOM     36  C   UNL     1       5.000   7.441  -5.482  1.00  0.00     0.014 A 
ATOM     37  C   UNL     1       7.191   8.418  -5.266  1.00  0.00     0.014 A 
ATOM     38  C   UNL     1       5.096   7.580  -6.865  1.00  0.00     0.010 A 
ATOM     39  C   UNL     1       7.284   8.575  -6.644  1.00  0.00     0.010 A 
ATOM     40  C   UNL     1       6.253   8.110  -7.450  1.00  0.00    -0.014 A 
BRANCH  40  41
ATOM     41  C   UNL     1       6.298   8.208  -8.907  1.00  0.00     0.031 A 
ATOM     42  C   UNL     1       5.221   9.031  -9.526  1.00  0.00     0.074 A 
ATOM     43  C   UNL     1       7.259   7.665  -9.680  1.00  0.00     0.049 A 
ATOM     44  N   UNL     1       4.235   8.630 -10.261  1.00  0.00    -0.248 NA
ATOM     45  C   UNL     1       5.173  10.457  -9.182  1.00  0.00     0.031 C 
ATOM     46  C   UNL     1       8.541   7.084  -9.274  1.00  0.00     0.029 A 
ATOM     47  N   UNL     1       7.307   7.597 -11.041  1.00  0.00    -0.354 N 
ATOM     48  C   UNL     1       3.528   9.777 -10.623  1.00  0.00     0.074 A 
ATOM     49  C   UNL     1       4.069  10.847  -9.821  1.00  0.00     0.031 C 
ATOM     50  C   UNL     1       9.324   6.925 -10.367  1.00  0.00     0.029 A 
ATOM     51  C   UNL     1       8.543   7.234 -11.552  1.00  0.00     0.049 A 
ATOM     52  H   UNL     1       6.529   7.789 -11.612  1.00  0.00     0.167 HD
ATOM     53  C   UNL     1       2.659   9.794 -11.676  1.00  0.00     0.034 A 
ATOM     54  C   UNL     1       8.917   7.239 -12.855  1.00  0.00     0.034 A 
ATOM     55  C   UNL     1       2.317   8.462 -12.097  1.00  0.00     0.049 A 
ATOM     56  C   UNL     1       7.694   7.205 -13.690  1.00  0.00     0.074 A 
ATOM     57  C   UNL     1       1.656   7.397 -11.520  1.00  0.00     0.029 A 
ATOM     58  N   UNL     1       2.973   7.948 -13.188  1.00  0.00    -0.354 N 
ATOM     59  N   UNL     1       6.907   6.173 -13.794  1.00  0.00    -0.248 NA
ATOM     60  C   UNL     1       7.115   8.476 -14.096  1.00  0.00     0.031 C 
ATOM     61  C   UNL     1       2.330   6.239 -12.004  1.00  0.00     0.029 A 
ATOM     62  C   UNL     1       3.330   6.660 -12.883  1.00  0.00     0.049 A 
ATOM     63  H   UNL     1       3.153   8.418 -14.034  1.00  0.00     0.167 HD
ATOM     64  C   UNL     1       5.630   6.713 -13.823  1.00  0.00     0.074 A 
ATOM     65  C   UNL     1       5.827   8.129 -14.125  1.00  0.00     0.031 C 
ATOM     66  C   UNL     1       4.557   6.028 -13.327  1.00  0.00     0.034 A 
BRANCH  53  67
ATOM     67  C   UNL     1       2.350  11.012 -12.517  1.00  0.00     0.023 A 
ATOM     68  C   UNL     1       3.102  12.199 -12.444  1.00  0.00     0.031 A 
ATOM     69  C   UNL     1       1.429  10.937 -13.583  1.00  0.00     0.131 A 
ATOM     70  C   UNL     1       2.933  13.237 -13.370  1.00  0.00     0.055 A 
ATOM     71  C   UNL     1       1.307  11.945 -14.549  1.00  0.00     0.041 A 
ATOM     72  F   UNL     1       0.657   9.852 -13.758  1.00  0.00    -0.206 F 
ATOM     73  C   UNL     1       2.063  13.105 -14.446  1.00  0.00     0.022 A 
BRANCH  70  74
ATOM     74  S   UNL     1       3.866  14.782 -13.189  1.00  0.00     0.124 S 
ATOM     75  O   UNL     1       4.649  14.804 -14.422  1.00  0.00    -0.237 OA
ATOM     76  O   UNL     1       2.791  15.768 -13.105  1.00  0.00    -0.237 OA
ATOM     77  O   UNL     1       4.620  14.583 -11.957  1.00  0.00    -0.744 OA
ENDBRANCH  70  74
ENDBRANCH  53  67
BRANCH  54  78
ATOM     78  C   UNL     1      10.197   7.760 -13.387  1.00  0.00     0.023 A 
ATOM     79  C   UNL     1      10.862   8.791 -12.698  1.00  0.00     0.031 A 
ATOM     80  C   UNL     1      10.595   7.501 -14.710  1.00  0.00     0.131 A 
ATOM     81  C   UNL     1      11.837   9.561 -13.343  1.00  0.00     0.055 A 
ATOM     82  C   UNL     1      11.585   8.259 -15.346  1.00  0.00     0.041 A 
ATOM     83  F   UNL     1       9.976   6.556 -15.434  1.00  0.00    -0.206 F 
ATOM     84  C   UNL     1      12.200   9.307 -14.666  1.00  0.00     0.022 A 
BRANCH  81  85
ATOM     85  S   UNL     1      12.586  10.980 -12.496  1.00  0.00     0.124 S 
ATOM     86  O   UNL     1      14.009  10.780 -12.761  1.00  0.00    -0.237 OA
ATOM     87  O   UNL     1      11.968  12.101 -13.195  1.00  0.00    -0.237 OA
ATOM     88  O   UNL     1      12.186  10.798 -11.104  1.00  0.00    -0.744 OA
ENDBRANCH  81  85
ENDBRANCH  54  78
BRANCH  66  89
ATOM     89  C   UNL     1       4.725   4.567 -12.963  1.00  0.00     0.023 A 
ATOM     90  C   UNL     1       3.741   3.669 -13.414  1.00  0.00     0.031 A 
ATOM     91  C   UNL     1       5.666   4.080 -12.035  1.00  0.00     0.131 A 
ATOM     92  C   UNL     1       3.692   2.360 -12.918  1.00  0.00     0.055 A 
ATOM     93  C   UNL     1       5.659   2.751 -11.598  1.00  0.00     0.041 A 
ATOM     94  F   UNL     1       6.565   4.887 -11.456  1.00  0.00    -0.206 F 
ATOM     95  C   UNL     1       4.658   1.888 -12.027  1.00  0.00     0.022 A 
BRANCH  92  96
ATOM     96  S   UNL     1       2.279   1.291 -13.292  1.00  0.00     0.124 S 
ATOM     97  O   UNL     1       2.902   0.208 -14.047  1.00  0.00    -0.237 OA
ATOM     98  O   UNL     1       1.801   0.930 -11.958  1.00  0.00    -0.237 OA
ATOM     99  O   UNL     1       1.378   2.148 -14.056  1.00  0.00    -0.744 OA
ENDBRANCH  92  96
ENDBRANCH  66  89
ENDBRANCH  40  41
ENDBRANCH  32  35
ENDBRANCH  30  31
ENDBRANCH  29  30
ENDBRANCH  28  29
ENDBRANCH   1  28
TORSDOF 19
