REMARK SMILES O=C(NCCCCCCNC(=O)[C@@H]1CC[C@@]2(CCN(C(=O)OCc3ccccc3)C2)C1)c1ccc(-c2c3nc(c(-c4cc(S(=O)(=O)[O-])ccc4F)c4ccc([nH]4)c(-c4cc(S(=O)(=O)[O-])ccc4F)c4nc(c(-c5cc(S(=O)(=O)[O-])ccc5F)c5ccc2[nH]5)C=C4)C=C3)cc1
REMARK SMILES IDX 7 1 6 2 5 3 4 4 3 5 1 6 2 7 32 9 33 10 94 11 34 12 93 13
REMARK SMILES IDX 35 14 36 15 37 16 87 17 38 18 92 19 86 20 88 21 39 22 91 23
REMARK SMILES IDX 85 24 84 25 40 27 72 28 52 29 71 30 53 31 56 32 70 33 89 34
REMARK SMILES IDX 54 35 55 36 69 38 90 39 57 40 41 41 42 42 50 43 43 44 49 45
REMARK SMILES IDX 51 46 48 47 44 48 45 49 46 50 47 51 73 52 74 53 82 54 75 55
REMARK SMILES IDX 81 56 83 57 80 58 76 59 77 60 78 61 79 62 58 63 59 64 67 65
REMARK SMILES IDX 60 66 66 67 68 68 65 69 61 70 62 71 63 72 64 73 8 74 9 75
REMARK SMILES IDX 10 76 11 77 12 79 13 80 14 81 31 82 15 83 16 84 17 85 30 86
REMARK SMILES IDX 18 87 19 88 20 89 21 90 22 91 23 92 24 93 25 94 29 95 26 96
REMARK SMILES IDX 28 97 27 98
REMARK H PARENT 3 8 88 26 56 37 10 78
REMARK Flexibility Score: inf
ROOT
ATOM      1  C   UNL     1       4.459  -2.555  -3.542  1.00  0.00     0.002 C 
ENDROOT
BRANCH   1   2
ATOM      2  C   UNL     1       4.126  -3.095  -2.146  1.00  0.00     0.002 C 
BRANCH   2   3
ATOM      3  C   UNL     1       4.741  -2.332  -0.974  1.00  0.00     0.021 C 
BRANCH   3   4
ATOM      4  C   UNL     1       4.460  -0.837  -0.934  1.00  0.00     0.116 C 
BRANCH   4   5
ATOM      5  N   UNL     1       3.041  -0.523  -0.866  1.00  0.00    -0.352 N 
ATOM      6  O   UNL     1       1.125   0.299  -0.016  1.00  0.00    -0.269 OA
ATOM      7  C   UNL     1       2.351   0.253   0.035  1.00  0.00     0.251 C 
ATOM      8  H   UNL     1       2.490  -0.927  -1.575  1.00  0.00     0.163 HD
BRANCH   7   9
ATOM      9  C   UNL     1       3.079   1.003   1.085  1.00  0.00     0.039 A 
ATOM     10  C   UNL     1       4.266   1.677   0.797  1.00  0.00     0.014 A 
ATOM     11  C   UNL     1       2.565   1.025   2.386  1.00  0.00     0.014 A 
ATOM     12  C   UNL     1       5.026   2.211   1.831  1.00  0.00     0.010 A 
ATOM     13  C   UNL     1       3.282   1.657   3.409  1.00  0.00     0.010 A 
ATOM     14  C   UNL     1       4.542   2.216   3.149  1.00  0.00    -0.014 A 
BRANCH  14  15
ATOM     15  C   UNL     1       5.369   2.835   4.221  1.00  0.00     0.031 A 
ATOM     16  C   UNL     1       5.898   2.016   5.368  1.00  0.00     0.074 A 
ATOM     17  C   UNL     1       5.688   4.141   4.120  1.00  0.00     0.049 A 
ATOM     18  N   UNL     1       6.673   2.385   6.358  1.00  0.00    -0.248 NA
ATOM     19  C   UNL     1       5.496   0.603   5.420  1.00  0.00     0.031 C 
ATOM     20  C   UNL     1       5.225   5.039   3.057  1.00  0.00     0.029 A 
ATOM     21  N   UNL     1       6.494   4.936   4.893  1.00  0.00    -0.354 N 
ATOM     22  C   UNL     1       6.830   1.261   7.163  1.00  0.00     0.074 A 
ATOM     23  C   UNL     1       6.042   0.206   6.560  1.00  0.00     0.031 C 
ATOM     24  C   UNL     1       5.808   6.236   3.207  1.00  0.00     0.029 A 
ATOM     25  C   UNL     1       6.626   6.218   4.413  1.00  0.00     0.049 A 
ATOM     26  H   UNL     1       6.937   4.619   5.714  1.00  0.00     0.167 HD
ATOM     27  C   UNL     1       7.569   1.122   8.294  1.00  0.00     0.034 A 
ATOM     28  C   UNL     1       7.319   7.268   4.893  1.00  0.00     0.034 A 
ATOM     29  C   UNL     1       8.361   2.182   8.873  1.00  0.00     0.049 A 
ATOM     30  C   UNL     1       8.120   7.090   6.154  1.00  0.00     0.074 A 
ATOM     31  C   UNL     1       9.173   2.140   9.994  1.00  0.00     0.029 A 
ATOM     32  N   UNL     1       8.438   3.480   8.382  1.00  0.00    -0.354 N 
ATOM     33  N   UNL     1       8.270   6.014   6.891  1.00  0.00    -0.248 NA
ATOM     34  C   UNL     1       8.846   8.267   6.643  1.00  0.00     0.031 C 
ATOM     35  C   UNL     1       9.688   3.423  10.216  1.00  0.00     0.029 A 
ATOM     36  C   UNL     1       9.259   4.252   9.192  1.00  0.00     0.049 A 
ATOM     37  H   UNL     1       7.976   3.805   7.575  1.00  0.00     0.167 HD
ATOM     38  C   UNL     1       9.127   6.383   7.923  1.00  0.00     0.074 A 
ATOM     39  C   UNL     1       9.477   7.771   7.696  1.00  0.00     0.031 C 
ATOM     40  C   UNL     1       9.585   5.640   8.964  1.00  0.00     0.034 A 
BRANCH  27  41
ATOM     41  C   UNL     1       7.513  -0.212   9.002  1.00  0.00     0.023 A 
ATOM     42  C   UNL     1       7.992  -1.392   8.407  1.00  0.00     0.031 A 
ATOM     43  C   UNL     1       6.945  -0.309  10.286  1.00  0.00     0.131 A 
ATOM     44  C   UNL     1       7.830  -2.624   9.059  1.00  0.00     0.055 A 
ATOM     45  C   UNL     1       6.857  -1.527  10.964  1.00  0.00     0.041 A 
ATOM     46  F   UNL     1       6.452   0.778  10.899  1.00  0.00    -0.206 F 
ATOM     47  C   UNL     1       7.287  -2.697  10.344  1.00  0.00     0.022 A 
BRANCH  44  48
ATOM     48  S   UNL     1       8.205  -4.146   8.145  1.00  0.00     0.124 S 
ATOM     49  O   UNL     1       7.339  -4.011   6.975  1.00  0.00    -0.237 OA
ATOM     50  O   UNL     1       9.636  -4.019   7.895  1.00  0.00    -0.237 OA
ATOM     51  O   UNL     1       7.824  -5.208   9.073  1.00  0.00    -0.744 OA
ENDBRANCH  44  48
ENDBRANCH  27  41
BRANCH  28  52
ATOM     52  C   UNL     1       7.274   8.581   4.190  1.00  0.00     0.023 A 
ATOM     53  C   UNL     1       8.428   9.134   3.614  1.00  0.00     0.031 A 
ATOM     54  C   UNL     1       6.076   9.313   4.105  1.00  0.00     0.131 A 
ATOM     55  C   UNL     1       8.368  10.400   3.010  1.00  0.00     0.055 A 
ATOM     56  C   UNL     1       6.010  10.547   3.457  1.00  0.00     0.041 A 
ATOM     57  F   UNL     1       4.943   8.826   4.634  1.00  0.00    -0.206 F 
ATOM     58  C   UNL     1       7.165  11.103   2.915  1.00  0.00     0.022 A 
BRANCH  55  59
ATOM     59  S   UNL     1       9.907  11.149   2.412  1.00  0.00     0.124 S 
ATOM     60  O   UNL     1      10.716  11.177   3.626  1.00  0.00    -0.237 OA
ATOM     61  O   UNL     1      10.325  10.202   1.384  1.00  0.00    -0.237 OA
ATOM     62  O   UNL     1       9.479  12.455   1.916  1.00  0.00    -0.744 OA
ENDBRANCH  55  59
ENDBRANCH  28  52
BRANCH  40  63
ATOM     63  C   UNL     1      10.549   6.320   9.905  1.00  0.00     0.023 A 
ATOM     64  C   UNL     1      10.149   7.391  10.724  1.00  0.00     0.031 A 
ATOM     65  C   UNL     1      11.895   5.917   9.951  1.00  0.00     0.131 A 
ATOM     66  C   UNL     1      11.101   8.066  11.503  1.00  0.00     0.055 A 
ATOM     67  C   UNL     1      12.824   6.553  10.775  1.00  0.00     0.041 A 
ATOM     68  F   UNL     1      12.331   4.902   9.188  1.00  0.00    -0.206 F 
ATOM     69  C   UNL     1      12.432   7.645  11.544  1.00  0.00     0.022 A 
BRANCH  66  70
ATOM     70  S   UNL     1      10.598   9.575  12.376  1.00  0.00     0.124 S 
ATOM     71  O   UNL     1      10.091  10.402  11.285  1.00  0.00    -0.237 OA
ATOM     72  O   UNL     1       9.599   9.074  13.313  1.00  0.00    -0.237 OA
ATOM     73  O   UNL     1      11.839  10.048  12.986  1.00  0.00    -0.744 OA
ENDBRANCH  66  70
ENDBRANCH  40  63
ENDBRANCH  14  15
ENDBRANCH   7   9
ENDBRANCH   4   5
ENDBRANCH   3   4
ENDBRANCH   2   3
ENDBRANCH   1   2
BRANCH   1  74
ATOM     74  C   UNL     1       5.939  -2.268  -3.810  1.00  0.00     0.021 C 
BRANCH  74  75
ATOM     75  C   UNL     1       6.853  -3.475  -3.657  1.00  0.00     0.116 C 
BRANCH  75  76
ATOM     76  N   UNL     1       6.909  -4.295  -4.854  1.00  0.00    -0.356 N 
ATOM     77  C   UNL     1       7.913  -5.159  -5.212  1.00  0.00     0.223 C 
ATOM     78  H   UNL     1       6.147  -4.223  -5.473  1.00  0.00     0.163 HD
ATOM     79  O   UNL     1       7.846  -5.760  -6.282  1.00  0.00    -0.275 OA
BRANCH  77  80
ATOM     80  C   UNL     1       9.058  -5.336  -4.231  1.00  0.00     0.079 C 
ATOM     81  C   UNL     1      10.271  -6.096  -4.751  1.00  0.00     0.014 C 
ATOM     82  C   UNL     1       8.638  -6.214  -3.057  1.00  0.00     0.022 C 
ATOM     83  C   UNL     1      11.042  -6.412  -3.466  1.00  0.00     0.010 C 
ATOM     84  C   UNL     1       9.968  -6.620  -2.388  1.00  0.00    -0.009 C 
ATOM     85  C   UNL     1      10.207  -5.795  -1.098  1.00  0.00     0.030 C 
ATOM     86  C   UNL     1       9.876  -8.041  -1.834  1.00  0.00     0.130 C 
ATOM     87  C   UNL     1       9.510  -6.592   0.014  1.00  0.00     0.124 C 
ATOM     88  N   UNL     1       9.096  -7.825  -0.636  1.00  0.00    -0.308 N 
BRANCH  88  89
ATOM     89  C   UNL     1       7.887  -8.453  -0.437  1.00  0.00     0.410 C 
ATOM     90  O   UNL     1       7.476  -9.371  -1.134  1.00  0.00    -0.224 OA
BRANCH  89  91
ATOM     91  O   UNL     1       7.191  -7.888   0.578  1.00  0.00    -0.445 OA
BRANCH  91  92
ATOM     92  C   UNL     1       5.835  -8.314   0.749  1.00  0.00     0.270 C 
BRANCH  92  93
ATOM     93  C   UNL     1       4.946  -7.098   0.867  1.00  0.00    -0.011 A 
ATOM     94  C   UNL     1       5.266  -6.064   1.759  1.00  0.00     0.007 A 
ATOM     95  C   UNL     1       3.759  -7.005   0.124  1.00  0.00     0.007 A 
ATOM     96  C   UNL     1       4.416  -4.969   1.913  1.00  0.00     0.000 A 
ATOM     97  C   UNL     1       2.908  -5.908   0.279  1.00  0.00     0.000 A 
ATOM     98  C   UNL     1       3.232  -4.897   1.181  1.00  0.00     0.000 A 
ENDBRANCH  92  93
ENDBRANCH  91  92
ENDBRANCH  89  91
ENDBRANCH  88  89
ENDBRANCH  77  80
ENDBRANCH  75  76
ENDBRANCH  74  75
ENDBRANCH   1  74
TORSDOF 20
