REMARK SMILES Cc1ccc(O)c(C(=O)CCCC(=O)NCCCCCCNC(=O)c2ccc(-c3c4nc(c(-c5cc(S(=O)(=O)[O-])ccc5F)c5ccc([nH]5)c(-c5cc(S(=O)(=O)[O-])ccc5F)c5nc(c(-c6cc(S(=O)(=O)[O-])ccc6F)c6ccc3[nH]6)C=C5)C=C4)cc2)c1
REMARK SMILES IDX 17 1 16 2 15 3 13 4 14 5 12 7 11 8 10 9 8 10 9 11 7 12 1 13
REMARK SMILES IDX 2 14 3 15 88 16 4 17 5 18 6 19 18 21 19 22 20 23 21 24 22 25
REMARK SMILES IDX 23 26 24 28 25 29 26 30 87 31 27 32 86 33 28 34 29 35 30 36
REMARK SMILES IDX 80 37 31 38 85 39 79 40 81 41 32 42 84 43 78 44 77 45 33 47
REMARK SMILES IDX 65 48 45 49 64 50 46 51 49 52 63 53 82 54 47 55 48 56 62 58
REMARK SMILES IDX 83 59 50 60 34 61 35 62 43 63 36 64 42 65 44 66 41 67 37 68
REMARK SMILES IDX 38 69 39 70 40 71 66 72 67 73 75 74 68 75 74 76 76 77 73 78
REMARK SMILES IDX 69 79 70 80 71 81 72 82 51 83 52 84 60 85 53 86 59 87 61 88
REMARK SMILES IDX 58 89 54 90 55 91 56 92 57 93
REMARK H PARENT 15 6 6 20 22 27 81 46 49 57
REMARK Flexibility Score: inf
ROOT
ATOM      1  C   UNL     1       0.326  -4.189   2.604  1.00  0.00     0.021 C 
ENDROOT
BRANCH   1   2
ATOM      2  C   UNL     1       1.072  -3.160   1.755  1.00  0.00     0.116 C 
BRANCH   2   3
ATOM      3  N   UNL     1       2.195  -3.751   1.058  1.00  0.00    -0.356 N 
ATOM      4  C   UNL     1       2.535  -3.956  -0.233  1.00  0.00     0.220 C 
ATOM      5  O   UNL     1       3.655  -4.461  -0.402  1.00  0.00    -0.275 OA
ATOM      6  H   UNL     1       2.881  -4.087   1.679  1.00  0.00     0.163 HD
BRANCH   4   7
ATOM      7  C   UNL     1       1.750  -3.514  -1.467  1.00  0.00     0.100 C 
BRANCH   7   8
ATOM      8  C   UNL     1       0.297  -3.883  -1.753  1.00  0.00     0.018 C 
BRANCH   8   9
ATOM      9  C   UNL     1      -0.894  -3.465  -0.899  1.00  0.00     0.082 C 
BRANCH   9  10
ATOM     10  C   UNL     1      -1.554  -2.074  -0.897  1.00  0.00     0.166 C 
ATOM     11  O   UNL     1      -2.783  -2.027  -1.050  1.00  0.00    -0.294 OA
BRANCH  10  12
ATOM     12  C   UNL     1      -0.885  -0.758  -0.589  1.00  0.00     0.060 A 
ATOM     13  C   UNL     1       2.590   0.713   0.048  1.00  0.00     0.044 C 
ATOM     14  C   UNL     1       1.101   0.625  -0.124  1.00  0.00    -0.050 A 
ATOM     15  C   UNL     1       0.306   1.763  -0.044  1.00  0.00     0.007 A 
ATOM     16  C   UNL     1       0.487  -0.611  -0.389  1.00  0.00     0.019 A 
ATOM     17  C   UNL     1      -1.073   1.651  -0.198  1.00  0.00     0.047 A 
ATOM     18  C   UNL     1      -1.659   0.408  -0.462  1.00  0.00     0.126 A 
BRANCH  18  19
ATOM     19  O   UNL     1      -3.026   0.424  -0.559  1.00  0.00    -0.507 OA
ATOM     20  H   UNL     1      -3.493   1.231  -0.467  1.00  0.00     0.293 HD
ENDBRANCH  18  19
ENDBRANCH  10  12
ENDBRANCH   9  10
ENDBRANCH   8   9
ENDBRANCH   7   8
ENDBRANCH   4   7
ENDBRANCH   2   3
ENDBRANCH   1   2
BRANCH   1  21
ATOM     21  C   UNL     1       0.675  -4.090   4.089  1.00  0.00     0.002 C 
BRANCH  21  22
ATOM     22  C   UNL     1       0.182  -2.807   4.773  1.00  0.00     0.002 C 
BRANCH  22  23
ATOM     23  C   UNL     1      -1.332  -2.575   4.737  1.00  0.00     0.021 C 
BRANCH  23  24
ATOM     24  C   UNL     1      -2.178  -3.730   5.266  1.00  0.00     0.116 C 
BRANCH  24  25
ATOM     25  N   UNL     1      -1.792  -4.116   6.614  1.00  0.00    -0.352 N 
ATOM     26  C   UNL     1      -2.554  -4.217   7.751  1.00  0.00     0.251 C 
ATOM     27  H   UNL     1      -0.840  -4.338   6.729  1.00  0.00     0.163 HD
ATOM     28  O   UNL     1      -2.003  -4.352   8.838  1.00  0.00    -0.269 OA
BRANCH  26  29
ATOM     29  C   UNL     1      -4.028  -4.145   7.662  1.00  0.00     0.039 A 
ATOM     30  C   UNL     1      -4.724  -3.384   8.604  1.00  0.00     0.014 A 
ATOM     31  C   UNL     1      -4.722  -4.841   6.668  1.00  0.00     0.014 A 
ATOM     32  C   UNL     1      -6.114  -3.276   8.514  1.00  0.00     0.010 A 
ATOM     33  C   UNL     1      -6.098  -4.674   6.537  1.00  0.00     0.010 A 
ATOM     34  C   UNL     1      -6.809  -3.894   7.463  1.00  0.00    -0.014 A 
BRANCH  34  35
ATOM     35  C   UNL     1      -8.280  -3.745   7.321  1.00  0.00     0.031 A 
ATOM     36  C   UNL     1      -9.174  -4.949   7.444  1.00  0.00     0.074 A 
ATOM     37  C   UNL     1      -8.801  -2.539   7.022  1.00  0.00     0.049 A 
ATOM     38  N   UNL     1     -10.469  -5.040   7.279  1.00  0.00    -0.248 NA
ATOM     39  C   UNL     1      -8.517  -6.225   7.765  1.00  0.00     0.031 C 
ATOM     40  C   UNL     1      -8.027  -1.310   6.835  1.00  0.00     0.029 A 
ATOM     41  N   UNL     1     -10.099  -2.149   6.809  1.00  0.00    -0.354 N 
ATOM     42  C   UNL     1     -10.781  -6.383   7.465  1.00  0.00     0.074 A 
ATOM     43  C   UNL     1      -9.529  -7.075   7.687  1.00  0.00     0.031 C 
ATOM     44  C   UNL     1      -8.867  -0.300   6.555  1.00  0.00     0.029 A 
ATOM     45  C   UNL     1     -10.231  -0.816   6.494  1.00  0.00     0.049 A 
ATOM     46  H   UNL     1     -10.864  -2.765   6.875  1.00  0.00     0.167 HD
ATOM     47  C   UNL     1     -12.000  -6.978   7.473  1.00  0.00     0.034 A 
ATOM     48  C   UNL     1     -11.324  -0.095   6.176  1.00  0.00     0.034 A 
ATOM     49  C   UNL     1     -13.237  -6.267   7.252  1.00  0.00     0.049 A 
ATOM     50  C   UNL     1     -12.667  -0.781   6.164  1.00  0.00     0.074 A 
ATOM     51  C   UNL     1     -14.531  -6.755   7.288  1.00  0.00     0.029 A 
ATOM     52  N   UNL     1     -13.333  -4.915   6.942  1.00  0.00    -0.354 N 
ATOM     53  N   UNL     1     -12.953  -2.041   6.398  1.00  0.00    -0.248 NA
ATOM     54  C   UNL     1     -13.834   0.056   5.860  1.00  0.00     0.031 C 
ATOM     55  C   UNL     1     -15.402  -5.720   6.930  1.00  0.00     0.029 A 
ATOM     56  C   UNL     1     -14.661  -4.562   6.752  1.00  0.00     0.049 A 
ATOM     57  H   UNL     1     -12.570  -4.298   6.868  1.00  0.00     0.167 HD
ATOM     58  C   UNL     1     -14.338  -2.141   6.296  1.00  0.00     0.074 A 
ATOM     59  C   UNL     1     -14.828  -0.810   5.998  1.00  0.00     0.031 C 
ATOM     60  C   UNL     1     -15.134  -3.232   6.441  1.00  0.00     0.034 A 
BRANCH  47  61
ATOM     61  C   UNL     1     -12.042  -8.472   7.702  1.00  0.00     0.023 A 
ATOM     62  C   UNL     1     -11.562  -9.051   8.891  1.00  0.00     0.031 A 
ATOM     63  C   UNL     1     -12.532  -9.334   6.706  1.00  0.00     0.131 A 
ATOM     64  C   UNL     1     -11.499 -10.447   9.017  1.00  0.00     0.055 A 
ATOM     65  C   UNL     1     -12.550 -10.721   6.874  1.00  0.00     0.041 A 
ATOM     66  F   UNL     1     -12.985  -8.846   5.540  1.00  0.00    -0.206 F 
ATOM     67  C   UNL     1     -12.015 -11.286   8.028  1.00  0.00     0.022 A 
BRANCH  64  68
ATOM     68  S   UNL     1     -10.584 -11.148  10.418  1.00  0.00     0.124 S 
ATOM     69  O   UNL     1      -9.261 -10.557  10.231  1.00  0.00    -0.237 OA
ATOM     70  O   UNL     1     -11.344 -10.664  11.565  1.00  0.00    -0.237 OA
ATOM     71  O   UNL     1     -10.653 -12.589  10.186  1.00  0.00    -0.744 OA
ENDBRANCH  64  68
ENDBRANCH  47  61
BRANCH  48  72
ATOM     72  C   UNL     1     -11.198   1.349   5.827  1.00  0.00     0.023 A 
ATOM     73  C   UNL     1     -11.784   2.344   6.627  1.00  0.00     0.031 A 
ATOM     74  C   UNL     1     -10.516   1.755   4.666  1.00  0.00     0.131 A 
ATOM     75  C   UNL     1     -11.716   3.689   6.233  1.00  0.00     0.055 A 
ATOM     76  C   UNL     1     -10.403   3.099   4.308  1.00  0.00     0.041 A 
ATOM     77  F   UNL     1      -9.933   0.846   3.869  1.00  0.00    -0.206 F 
ATOM     78  C   UNL     1     -11.017   4.075   5.086  1.00  0.00     0.022 A 
BRANCH  75  79
ATOM     79  S   UNL     1     -12.627   4.925   7.198  1.00  0.00     0.124 S 
ATOM     80  O   UNL     1     -13.992   4.415   7.120  1.00  0.00    -0.237 OA
ATOM     81  O   UNL     1     -11.980   4.828   8.502  1.00  0.00    -0.237 OA
ATOM     82  O   UNL     1     -12.383   6.170   6.474  1.00  0.00    -0.744 OA
ENDBRANCH  75  79
ENDBRANCH  48  72
BRANCH  60  83
ATOM     83  C   UNL     1     -16.623  -3.014   6.322  1.00  0.00     0.023 A 
ATOM     84  C   UNL     1     -17.223  -2.631   5.109  1.00  0.00     0.031 A 
ATOM     85  C   UNL     1     -17.453  -3.182   7.445  1.00  0.00     0.131 A 
ATOM     86  C   UNL     1     -18.602  -2.373   5.062  1.00  0.00     0.055 A 
ATOM     87  C   UNL     1     -18.833  -2.987   7.377  1.00  0.00     0.041 A 
ATOM     88  F   UNL     1     -16.934  -3.544   8.630  1.00  0.00    -0.206 F 
ATOM     89  C   UNL     1     -19.413  -2.567   6.183  1.00  0.00     0.022 A 
BRANCH  86  90
ATOM     90  S   UNL     1     -19.309  -1.688   3.539  1.00  0.00     0.124 S 
ATOM     91  O   UNL     1     -18.543  -0.456   3.377  1.00  0.00    -0.237 OA
ATOM     92  O   UNL     1     -19.037  -2.741   2.567  1.00  0.00    -0.237 OA
ATOM     93  O   UNL     1     -20.721  -1.501   3.870  1.00  0.00    -0.744 OA
ENDBRANCH  86  90
ENDBRANCH  60  83
ENDBRANCH  34  35
ENDBRANCH  26  29
ENDBRANCH  24  25
ENDBRANCH  23  24
ENDBRANCH  22  23
ENDBRANCH  21  22
ENDBRANCH   1  21
TORSDOF 21
