REMARK SMILES CC1(C)O[C@@H]2C[C@@H]3[C@H]4CCC5=CC(=O)C=C[C@@]5(C)[C@]4(F)[C@H](O)C[C@]3(C)[C@]2(C(=O)NCCCCCCNC(=O)c2ccc(-c3c4nc(c(-c5cc(S(=O)(=O)[O-])ccc5F)c5ccc([nH]5)c(-c5cc(S(=O)(=O)[O-])ccc5F)c5nc(c(-c6cc(S(=O)(=O)[O-])ccc6F)c6ccc3[nH]6)C=C5)C=C4)cc2)O1
REMARK SMILES IDX 33 1 32 2 31 3 30 4 29 5 27 6 28 7 26 9 1 10 2 11 4 12
REMARK SMILES IDX 102 13 3 14 5 15 6 16 24 17 7 18 23 19 25 20 8 21 21 22 9 23
REMARK SMILES IDX 19 24 10 25 17 26 20 27 11 28 16 29 18 30 12 31 15 32 13 33
REMARK SMILES IDX 14 34 22 35 34 37 35 38 36 39 37 40 38 42 39 43 40 44 101 45
REMARK SMILES IDX 41 46 100 47 42 48 43 49 44 50 94 51 45 52 99 53 93 54 95 55
REMARK SMILES IDX 46 56 98 57 92 58 91 59 47 61 79 62 59 63 78 64 60 65 63 66
REMARK SMILES IDX 77 67 96 68 61 69 62 70 76 72 97 73 64 74 48 75 49 76 57 77
REMARK SMILES IDX 50 78 56 79 58 80 55 81 51 82 52 83 53 84 54 85 80 86 81 87
REMARK SMILES IDX 89 88 82 89 88 90 90 91 87 92 83 93 84 94 85 95 86 96 65 97
REMARK SMILES IDX 66 98 74 99 67 100 73 101 75 102 72 103 68 104 69 105 70 106
REMARK SMILES IDX 71 107
REMARK H PARENT 29 8 22 36 36 41 95 60 63 71
REMARK Flexibility Score: inf
ROOT
ATOM      1  C   UNL     1      -2.025   7.546  -1.435  1.00  0.00     0.002 C 
ENDROOT
BRANCH   1   2
ATOM      2  C   UNL     1      -3.156   6.585  -1.818  1.00  0.00     0.002 C 
BRANCH   2   3
ATOM      3  C   UNL     1      -2.691   5.248  -2.388  1.00  0.00     0.021 C 
BRANCH   3   4
ATOM      4  C   UNL     1      -2.017   4.273  -1.401  1.00  0.00     0.116 C 
BRANCH   4   5
ATOM      5  N   UNL     1      -2.834   3.083  -1.162  1.00  0.00    -0.353 N 
ATOM      6  C   UNL     1      -2.731   1.765  -1.518  1.00  0.00     0.255 C 
ATOM      7  O   UNL     1      -3.606   1.021  -1.059  1.00  0.00    -0.272 OA
ATOM      8  H   UNL     1      -3.638   3.272  -0.626  1.00  0.00     0.163 HD
BRANCH   6   9
ATOM      9  C   UNL     1      -1.594   1.190  -2.411  1.00  0.00     0.181 C 
ATOM     10  C   UNL     1      -0.004   0.088   0.361  1.00  0.00     0.075 C 
ATOM     11  C   UNL     1       0.022   0.026  -1.159  1.00  0.00     0.164 C 
ATOM     12  O   UNL     1      -0.907  -0.968  -1.591  1.00  0.00    -0.344 OA
ATOM     13  O   UNL     1      -0.321   1.330  -1.706  1.00  0.00    -0.331 OA
ATOM     14  C   UNL     1       1.430  -0.422  -1.597  1.00  0.00     0.075 C 
ATOM     15  C   UNL     1      -1.705  -0.380  -2.615  1.00  0.00     0.164 C 
ATOM     16  C   UNL     1      -1.085  -0.729  -4.047  1.00  0.00     0.040 C 
ATOM     17  C   UNL     1      -1.540   1.635  -3.941  1.00  0.00     0.014 C 
ATOM     18  C   UNL     1      -0.459   0.615  -4.420  1.00  0.00     0.008 C 
ATOM     19  C   UNL     1      -1.164   3.022  -4.439  1.00  0.00     0.046 C 
ATOM     20  C   UNL     1      -2.983   1.429  -4.519  1.00  0.00     0.015 C 
ATOM     21  C   UNL     1       0.924   1.026  -5.028  1.00  0.00     0.035 C 
ATOM     22  C   UNL     1       0.298   3.410  -4.426  1.00  0.00     0.154 C 
ATOM     23  C   UNL     1       1.558   0.098  -6.051  1.00  0.00     0.012 C 
ATOM     24  C   UNL     1       1.085   2.514  -5.416  1.00  0.00     0.152 C 
ATOM     25  C   UNL     1       3.072   0.381  -6.068  1.00  0.00     0.032 C 
ATOM     26  C   UNL     1       2.609   2.925  -5.559  1.00  0.00     0.044 C 
ATOM     27  F   UNL     1       0.489   2.651  -6.648  1.00  0.00    -0.239 F 
ATOM     28  C   UNL     1       3.422   1.837  -6.292  1.00  0.00    -0.053 C 
ATOM     29  C   UNL     1       2.746   4.263  -6.290  1.00  0.00    -0.009 C 
ATOM     30  C   UNL     1       3.307   3.147  -4.186  1.00  0.00     0.024 C 
ATOM     31  C   UNL     1       4.490   2.161  -7.048  1.00  0.00     0.052 C 
ATOM     32  C   UNL     1       3.802   4.579  -7.055  1.00  0.00     0.048 C 
ATOM     33  C   UNL     1       4.854   3.573  -7.288  1.00  0.00     0.178 C 
ATOM     34  O   UNL     1       5.973   3.881  -7.699  1.00  0.00    -0.290 OA
BRANCH  22  35
ATOM     35  O   UNL     1       0.786   3.408  -3.093  1.00  0.00    -0.390 OA
ATOM     36  H   UNL     1       0.690   2.519  -2.715  1.00  0.00     0.211 HD
ENDBRANCH  22  35
ENDBRANCH   6   9
ENDBRANCH   4   5
ENDBRANCH   3   4
ENDBRANCH   2   3
ENDBRANCH   1   2
BRANCH   1  37
ATOM     37  C   UNL     1      -1.039   7.933  -2.550  1.00  0.00     0.021 C 
BRANCH  37  38
ATOM     38  C   UNL     1      -1.649   8.526  -3.822  1.00  0.00     0.116 C 
BRANCH  38  39
ATOM     39  N   UNL     1      -2.465   9.697  -3.547  1.00  0.00    -0.352 N 
ATOM     40  C   UNL     1      -2.307  11.004  -3.929  1.00  0.00     0.251 C 
ATOM     41  H   UNL     1      -3.263   9.523  -2.997  1.00  0.00     0.163 HD
ATOM     42  O   UNL     1      -2.991  11.871  -3.381  1.00  0.00    -0.269 OA
BRANCH  40  43
ATOM     43  C   UNL     1      -1.329  11.389  -4.972  1.00  0.00     0.039 A 
ATOM     44  C   UNL     1      -0.586  12.562  -4.800  1.00  0.00     0.014 A 
ATOM     45  C   UNL     1      -1.186  10.645  -6.146  1.00  0.00     0.014 A 
ATOM     46  C   UNL     1       0.334  12.957  -5.776  1.00  0.00     0.010 A 
ATOM     47  C   UNL     1      -0.222  11.006  -7.090  1.00  0.00     0.010 A 
ATOM     48  C   UNL     1       0.545  12.169  -6.918  1.00  0.00    -0.014 A 
BRANCH  48  49
ATOM     49  C   UNL     1       1.555  12.553  -7.943  1.00  0.00     0.031 A 
ATOM     50  C   UNL     1       1.123  12.899  -9.343  1.00  0.00     0.074 A 
ATOM     51  C   UNL     1       2.866  12.540  -7.626  1.00  0.00     0.049 A 
ATOM     52  N   UNL     1       1.854  13.187 -10.390  1.00  0.00    -0.248 NA
ATOM     53  C   UNL     1      -0.324  12.892  -9.606  1.00  0.00     0.031 C 
ATOM     54  C   UNL     1       3.412  12.194  -6.312  1.00  0.00     0.029 A 
ATOM     55  N   UNL     1       3.978  12.817  -8.382  1.00  0.00    -0.354 N 
ATOM     56  C   UNL     1       0.960  13.384 -11.438  1.00  0.00     0.074 A 
ATOM     57  C   UNL     1      -0.362  13.121 -10.910  1.00  0.00     0.031 C 
ATOM     58  C   UNL     1       4.749  12.301  -6.349  1.00  0.00     0.029 A 
ATOM     59  C   UNL     1       5.163  12.674  -7.698  1.00  0.00     0.049 A 
ATOM     60  H   UNL     1       3.931  13.091  -9.327  1.00  0.00     0.167 HD
ATOM     61  C   UNL     1       1.216  13.769 -12.714  1.00  0.00     0.034 A 
ATOM     62  C   UNL     1       6.439  12.814  -8.111  1.00  0.00     0.034 A 
ATOM     63  C   UNL     1       2.542  14.035 -13.221  1.00  0.00     0.049 A 
ATOM     64  C   UNL     1       6.701  13.209  -9.543  1.00  0.00     0.074 A 
ATOM     65  C   UNL     1       2.911  14.477 -14.480  1.00  0.00     0.029 A 
ATOM     66  N   UNL     1       3.719  13.874 -12.499  1.00  0.00    -0.354 N 
ATOM     67  N   UNL     1       5.841  13.437 -10.509  1.00  0.00    -0.248 NA
ATOM     68  C   UNL     1       8.106  13.378  -9.937  1.00  0.00     0.031 C 
ATOM     69  C   UNL     1       4.309  14.512 -14.542  1.00  0.00     0.029 A 
ATOM     70  C   UNL     1       4.813  14.177 -13.296  1.00  0.00     0.049 A 
ATOM     71  H   UNL     1       3.768  13.588 -11.558  1.00  0.00     0.167 HD
ATOM     72  C   UNL     1       6.602  13.810 -11.614  1.00  0.00     0.074 A 
ATOM     73  C   UNL     1       7.986  13.790 -11.190  1.00  0.00     0.031 C 
ATOM     74  C   UNL     1       6.192  14.146 -12.864  1.00  0.00     0.034 A 
BRANCH  61  75
ATOM     75  C   UNL     1       0.039  13.896 -13.654  1.00  0.00     0.023 A 
ATOM     76  C   UNL     1      -0.997  14.818 -13.422  1.00  0.00     0.031 A 
ATOM     77  C   UNL     1      -0.063  13.069 -14.787  1.00  0.00     0.131 A 
ATOM     78  C   UNL     1      -2.123  14.836 -14.260  1.00  0.00     0.055 A 
ATOM     79  C   UNL     1      -1.144  13.152 -15.667  1.00  0.00     0.041 A 
ATOM     80  F   UNL     1       0.883  12.154 -15.053  1.00  0.00    -0.206 F 
ATOM     81  C   UNL     1      -2.191  14.028 -15.397  1.00  0.00     0.022 A 
BRANCH  78  82
ATOM     82  S   UNL     1      -3.561  15.820 -13.758  1.00  0.00     0.124 S 
ATOM     83  O   UNL     1      -3.874  15.240 -12.454  1.00  0.00    -0.237 OA
ATOM     84  O   UNL     1      -3.026  17.177 -13.742  1.00  0.00    -0.237 OA
ATOM     85  O   UNL     1      -4.545  15.549 -14.805  1.00  0.00    -0.744 OA
ENDBRANCH  78  82
ENDBRANCH  61  75
BRANCH  62  86
ATOM     86  C   UNL     1       7.570  12.569  -7.170  1.00  0.00     0.023 A 
ATOM     87  C   UNL     1       8.452  13.601  -6.812  1.00  0.00     0.031 A 
ATOM     88  C   UNL     1       7.814  11.286  -6.647  1.00  0.00     0.131 A 
ATOM     89  C   UNL     1       9.561  13.325  -5.998  1.00  0.00     0.055 A 
ATOM     90  C   UNL     1       8.886  11.027  -5.793  1.00  0.00     0.041 A 
ATOM     91  F   UNL     1       6.999  10.263  -6.953  1.00  0.00    -0.206 F 
ATOM     92  C   UNL     1       9.777  12.048  -5.474  1.00  0.00     0.022 A 
BRANCH  89  93
ATOM     93  S   UNL     1      10.773  14.642  -5.705  1.00  0.00     0.124 S 
ATOM     94  O   UNL     1      11.178  14.981  -7.064  1.00  0.00    -0.237 OA
ATOM     95  O   UNL     1       9.971  15.641  -5.006  1.00  0.00    -0.237 OA
ATOM     96  O   UNL     1      11.797  13.989  -4.892  1.00  0.00    -0.744 OA
ENDBRANCH  89  93
ENDBRANCH  62  86
BRANCH  74  97
ATOM     97  C   UNL     1       7.257  14.572 -13.846  1.00  0.00     0.023 A 
ATOM     98  C   UNL     1       8.239  13.681 -14.315  1.00  0.00     0.031 A 
ATOM     99  C   UNL     1       7.295  15.899 -14.312  1.00  0.00     0.131 A 
ATOM    100  C   UNL     1       9.248  14.141 -15.175  1.00  0.00     0.055 A 
ATOM    101  C   UNL     1       8.262  16.335 -15.218  1.00  0.00     0.041 A 
ATOM    102  F   UNL     1       6.385  16.796 -13.897  1.00  0.00    -0.206 F 
ATOM    103  C   UNL     1       9.255  15.457 -15.644  1.00  0.00     0.022 A 
BRANCH 100 104
ATOM    104  S   UNL     1      10.611  13.021 -15.598  1.00  0.00     0.124 S 
ATOM    105  O   UNL     1      11.152  12.692 -14.283  1.00  0.00    -0.237 OA
ATOM    106  O   UNL     1       9.922  11.940 -16.293  1.00  0.00    -0.237 OA
ATOM    107  O   UNL     1      11.481  13.842 -16.438  1.00  0.00    -0.744 OA
ENDBRANCH 100 104
ENDBRANCH  74  97
ENDBRANCH  48  49
ENDBRANCH  40  43
ENDBRANCH  38  39
ENDBRANCH  37  38
ENDBRANCH   1  37
TORSDOF 17
