REMARK SMILES CC(C)CCn1cc(C(=O)NCCCCCCNC(=O)c2ccc(-c3c4nc(c(-c5cc(S(=O)(=O)[O-])ccc5F)c5ccc([nH]5)c(-c5cc(S(=O)(=O)[O-])ccc5F)c5nc(c(-c6cc(S(=O)(=O)[O-])ccc6F)c6ccc3[nH]6)C=C5)C=C4)cc2)c(-c2ccoc2)n1
REMARK SMILES IDX 14 1 13 2 12 3 11 4 9 5 10 6 8 8 6 9 7 10 90 11 84 12 5 13
REMARK SMILES IDX 4 14 2 15 1 16 3 17 85 18 86 19 89 20 87 21 88 22 15 23
REMARK SMILES IDX 16 24 17 25 18 26 19 27 20 29 21 30 22 31 83 32 23 33 82 34
REMARK SMILES IDX 24 35 25 36 26 37 76 38 27 39 81 40 75 41 77 42 28 43 80 44
REMARK SMILES IDX 74 45 73 46 29 48 61 49 41 50 60 51 42 52 45 53 59 54 78 55
REMARK SMILES IDX 43 56 44 57 58 59 79 60 46 61 30 62 31 63 39 64 32 65 38 66
REMARK SMILES IDX 40 67 37 68 33 69 34 70 35 71 36 72 62 73 63 74 71 75 64 76
REMARK SMILES IDX 70 77 72 78 69 79 65 80 66 81 67 82 68 83 47 84 48 85 56 86
REMARK SMILES IDX 49 87 55 88 57 89 54 90 50 91 51 92 52 93 53 94
REMARK H PARENT 11 7 18 28 77 47 45 58
REMARK Flexibility Score: inf
ROOT
ATOM      1  C   UNL     1       5.437  -3.887  -0.197  1.00  0.00     0.002 C 
ENDROOT
BRANCH   1   2
ATOM      2  C   UNL     1       4.130  -3.229   0.240  1.00  0.00     0.021 C 
BRANCH   2   3
ATOM      3  C   UNL     1       2.963  -3.370  -0.730  1.00  0.00     0.116 C 
BRANCH   3   4
ATOM      4  N   UNL     1       2.510  -4.737  -0.904  1.00  0.00    -0.352 N 
ATOM      5  C   UNL     1       1.256  -5.298  -0.862  1.00  0.00     0.255 C 
ATOM      6  O   UNL     1       1.190  -6.519  -1.024  1.00  0.00    -0.269 OA
ATOM      7  H   UNL     1       3.233  -5.381  -1.086  1.00  0.00     0.163 HD
BRANCH   5   8
ATOM      8  C   UNL     1       0.078  -4.487  -0.601  1.00  0.00     0.085 A 
ATOM      9  N   UNL     1      -1.276  -2.789  -0.241  1.00  0.00    -0.271 N 
ATOM     10  C   UNL     1      -0.129  -3.148  -0.883  1.00  0.00     0.123 A 
ATOM     11  N   UNL     1      -2.020  -3.850   0.111  1.00  0.00    -0.172 NA
ATOM     12  C   UNL     1      -1.197  -4.889  -0.105  1.00  0.00     0.108 A 
BRANCH   9  13
ATOM     13  C   UNL     1      -1.724  -1.432   0.010  1.00  0.00     0.144 C 
BRANCH  13  14
ATOM     14  C   UNL     1      -1.104  -0.783   1.260  1.00  0.00     0.027 C 
BRANCH  14  15
ATOM     15  C   UNL     1       0.435  -0.641   1.278  1.00  0.00    -0.016 C 
ATOM     16  C   UNL     1       0.975   0.214   0.130  1.00  0.00     0.007 C 
ATOM     17  C   UNL     1       0.900  -0.041   2.610  1.00  0.00     0.007 C 
ENDBRANCH  14  15
ENDBRANCH  13  14
ENDBRANCH   9  13
BRANCH  12  18
ATOM     18  C   UNL     1      -1.638  -6.267   0.057  1.00  0.00     0.041 A 
ATOM     19  C   UNL     1      -2.631  -6.879  -0.748  1.00  0.00     0.052 A 
ATOM     20  C   UNL     1      -1.181  -7.236   0.917  1.00  0.00     0.205 A 
ATOM     21  C   UNL     1      -2.692  -8.191  -0.341  1.00  0.00     0.195 A 
ATOM     22  O   UNL     1      -1.824  -8.414   0.682  1.00  0.00    -0.472 OA
ENDBRANCH  12  18
ENDBRANCH   5   8
ENDBRANCH   3   4
ENDBRANCH   2   3
ENDBRANCH   1   2
BRANCH   1  23
ATOM     23  C   UNL     1       5.940  -3.527  -1.602  1.00  0.00     0.002 C 
BRANCH  23  24
ATOM     24  C   UNL     1       6.049  -2.032  -1.936  1.00  0.00     0.021 C 
BRANCH  24  25
ATOM     25  C   UNL     1       7.031  -1.266  -1.063  1.00  0.00     0.116 C 
BRANCH  25  26
ATOM     26  N   UNL     1       8.416  -1.675  -1.286  1.00  0.00    -0.352 N 
ATOM     27  C   UNL     1       9.552  -1.157  -0.700  1.00  0.00     0.251 C 
ATOM     28  H   UNL     1       8.555  -2.407  -1.930  1.00  0.00     0.163 HD
ATOM     29  O   UNL     1      10.648  -1.284  -1.250  1.00  0.00    -0.269 OA
BRANCH  27  30
ATOM     30  C   UNL     1       9.434  -0.466   0.596  1.00  0.00     0.039 A 
ATOM     31  C   UNL     1      10.183   0.675   0.901  1.00  0.00     0.014 A 
ATOM     32  C   UNL     1       8.534  -0.992   1.522  1.00  0.00     0.014 A 
ATOM     33  C   UNL     1       9.962   1.319   2.119  1.00  0.00     0.010 A 
ATOM     34  C   UNL     1       8.213  -0.280   2.647  1.00  0.00     0.010 A 
ATOM     35  C   UNL     1       8.963   0.840   2.982  1.00  0.00    -0.014 A 
BRANCH  35  36
ATOM     36  C   UNL     1       8.540   1.584   4.166  1.00  0.00     0.031 A 
ATOM     37  C   UNL     1       8.019   2.938   3.837  1.00  0.00     0.074 A 
ATOM     38  C   UNL     1       8.364   0.997   5.373  1.00  0.00     0.049 A 
ATOM     39  N   UNL     1       8.587   4.077   4.061  1.00  0.00    -0.248 NA
ATOM     40  C   UNL     1       6.836   3.039   2.961  1.00  0.00     0.031 C 
ATOM     41  C   UNL     1       8.559  -0.416   5.720  1.00  0.00     0.029 A 
ATOM     42  N   UNL     1       7.860   1.509   6.530  1.00  0.00    -0.354 N 
ATOM     43  C   UNL     1       7.674   5.036   3.634  1.00  0.00     0.074 A 
ATOM     44  C   UNL     1       6.793   4.353   2.730  1.00  0.00     0.031 C 
ATOM     45  C   UNL     1       7.964  -0.685   6.905  1.00  0.00     0.029 A 
ATOM     46  C   UNL     1       7.476   0.557   7.482  1.00  0.00     0.049 A 
ATOM     47  H   UNL     1       7.772   2.477   6.686  1.00  0.00     0.167 HD
ATOM     48  C   UNL     1       7.525   6.205   4.320  1.00  0.00     0.034 A 
ATOM     49  C   UNL     1       6.795   0.767   8.646  1.00  0.00     0.034 A 
ATOM     50  C   UNL     1       8.640   6.401   5.228  1.00  0.00     0.049 A 
ATOM     51  C   UNL     1       6.966   2.205   8.974  1.00  0.00     0.074 A 
ATOM     52  C   UNL     1      10.014   6.457   5.081  1.00  0.00     0.029 A 
ATOM     53  N   UNL     1       8.425   6.157   6.568  1.00  0.00    -0.354 N 
ATOM     54  N   UNL     1       8.121   2.731   9.273  1.00  0.00    -0.248 NA
ATOM     55  C   UNL     1       5.976   3.139   8.458  1.00  0.00     0.031 C 
ATOM     56  C   UNL     1      10.532   5.744   6.204  1.00  0.00     0.029 A 
ATOM     57  C   UNL     1       9.465   5.392   7.033  1.00  0.00     0.049 A 
ATOM     58  H   UNL     1       7.659   6.475   7.098  1.00  0.00     0.167 HD
ATOM     59  C   UNL     1       8.161   3.925   8.570  1.00  0.00     0.074 A 
ATOM     60  C   UNL     1       6.776   4.170   8.164  1.00  0.00     0.031 C 
ATOM     61  C   UNL     1       9.347   4.439   8.122  1.00  0.00     0.034 A 
BRANCH  48  62
ATOM     62  C   UNL     1       6.205   6.935   4.519  1.00  0.00     0.023 A 
ATOM     63  C   UNL     1       6.240   8.071   5.351  1.00  0.00     0.031 A 
ATOM     64  C   UNL     1       4.913   6.444   4.221  1.00  0.00     0.131 A 
ATOM     65  C   UNL     1       5.075   8.557   5.966  1.00  0.00     0.055 A 
ATOM     66  C   UNL     1       3.748   6.975   4.782  1.00  0.00     0.041 A 
ATOM     67  F   UNL     1       4.692   5.382   3.440  1.00  0.00    -0.206 F 
ATOM     68  C   UNL     1       3.826   8.011   5.694  1.00  0.00     0.022 A 
BRANCH  65  69
ATOM     69  S   UNL     1       5.259   9.783   7.283  1.00  0.00     0.124 S 
ATOM     70  O   UNL     1       6.173   9.095   8.187  1.00  0.00    -0.237 OA
ATOM     71  O   UNL     1       5.806  10.923   6.554  1.00  0.00    -0.237 OA
ATOM     72  O   UNL     1       3.895   9.954   7.777  1.00  0.00    -0.744 OA
ENDBRANCH  65  69
ENDBRANCH  48  62
BRANCH  49  73
ATOM     73  C   UNL     1       5.762  -0.098   9.301  1.00  0.00     0.023 A 
ATOM     74  C   UNL     1       5.359   0.043  10.653  1.00  0.00     0.031 A 
ATOM     75  C   UNL     1       4.953  -0.930   8.494  1.00  0.00     0.131 A 
ATOM     76  C   UNL     1       4.200  -0.624  11.134  1.00  0.00     0.055 A 
ATOM     77  C   UNL     1       3.810  -1.579   8.972  1.00  0.00     0.041 A 
ATOM     78  F   UNL     1       5.195  -1.069   7.181  1.00  0.00    -0.206 F 
ATOM     79  C   UNL     1       3.422  -1.420  10.292  1.00  0.00     0.022 A 
BRANCH  76  80
ATOM     80  S   UNL     1       3.624  -0.406  12.857  1.00  0.00     0.124 S 
ATOM     81  O   UNL     1       4.673  -1.068  13.624  1.00  0.00    -0.237 OA
ATOM     82  O   UNL     1       3.543   1.044  12.982  1.00  0.00    -0.237 OA
ATOM     83  O   UNL     1       2.330  -1.091  12.874  1.00  0.00    -0.744 OA
ENDBRANCH  76  80
ENDBRANCH  49  73
BRANCH  61  84
ATOM     84  C   UNL     1      10.637   3.857   8.669  1.00  0.00     0.023 A 
ATOM     85  C   UNL     1      11.039   2.504   8.568  1.00  0.00     0.031 A 
ATOM     86  C   UNL     1      11.552   4.767   9.227  1.00  0.00     0.131 A 
ATOM     87  C   UNL     1      12.313   2.111   9.031  1.00  0.00     0.055 A 
ATOM     88  C   UNL     1      12.817   4.380   9.660  1.00  0.00     0.041 A 
ATOM     89  F   UNL     1      11.238   6.070   9.329  1.00  0.00    -0.206 F 
ATOM     90  C   UNL     1      13.201   3.048   9.569  1.00  0.00     0.022 A 
BRANCH  87  91
ATOM     91  S   UNL     1      12.839   0.366   8.967  1.00  0.00     0.124 S 
ATOM     92  O   UNL     1      11.697  -0.356   9.515  1.00  0.00    -0.237 OA
ATOM     93  O   UNL     1      13.100   0.165   7.544  1.00  0.00    -0.237 OA
ATOM     94  O   UNL     1      14.037   0.341   9.810  1.00  0.00    -0.744 OA
ENDBRANCH  87  91
ENDBRANCH  61  84
ENDBRANCH  35  36
ENDBRANCH  27  30
ENDBRANCH  25  26
ENDBRANCH  24  25
ENDBRANCH  23  24
ENDBRANCH   1  23
TORSDOF 20
