REMARK SMILES O=C(NCCCCCCNC(=O)[C@]1(NC(=O)C2CCN(C(=O)C3CC3)CC2)CCCc2ccccc21)c1ccc(-c2c3nc(c(-c4cc(S(=O)(=O)[O-])ccc4F)c4ccc([nH]4)c(-c4cc(S(=O)(=O)[O-])ccc4F)c4nc(c(-c5cc(S(=O)(=O)[O-])ccc5F)c5ccc2[nH]5)C=C4)C=C3)cc1
REMARK SMILES IDX 6 1 5 2 4 3 3 4 1 5 2 6 37 8 38 9 99 10 39 11 98 12 40 13
REMARK SMILES IDX 41 14 42 15 92 16 43 17 97 18 91 19 93 20 44 21 96 22 90 23
REMARK SMILES IDX 89 24 45 26 77 27 57 28 76 29 58 30 61 31 75 32 94 33 59 34
REMARK SMILES IDX 60 35 74 37 95 38 62 39 46 40 47 41 55 42 48 43 54 44 56 45
REMARK SMILES IDX 53 46 49 47 50 48 51 49 52 50 78 51 79 52 87 53 80 54 86 55
REMARK SMILES IDX 88 56 85 57 81 58 82 59 83 60 84 61 63 62 64 63 72 64 65 65
REMARK SMILES IDX 71 66 73 67 70 68 66 69 67 70 68 71 69 72 7 73 8 74 9 75
REMARK SMILES IDX 10 76 11 77 12 79 13 80 28 81 36 82 29 83 31 84 35 85 30 86
REMARK SMILES IDX 32 87 34 88 33 89 14 90 15 91 16 93 17 94 18 95 27 96 19 97
REMARK SMILES IDX 26 98 20 99 21 100 22 101 23 102 24 103 25 104
REMARK H PARENT 3 7 93 25 61 36 10 78 14 92
REMARK Flexibility Score: inf
ROOT
ATOM      1  C   UNL     1       3.732  -3.481  -1.295  1.00  0.00     0.002 C 
ENDROOT
BRANCH   1   2
ATOM      2  C   UNL     1       4.221  -2.548  -0.185  1.00  0.00     0.021 C 
BRANCH   2   3
ATOM      3  C   UNL     1       4.130  -1.065  -0.510  1.00  0.00     0.116 C 
BRANCH   3   4
ATOM      4  N   UNL     1       2.760  -0.623  -0.706  1.00  0.00    -0.352 N 
ATOM      5  O   UNL     1       0.885   0.547  -0.243  1.00  0.00    -0.269 OA
ATOM      6  C   UNL     1       2.094   0.406  -0.085  1.00  0.00     0.251 C 
ATOM      7  H   UNL     1       2.239  -1.128  -1.372  1.00  0.00     0.163 HD
BRANCH   6   8
ATOM      8  C   UNL     1       2.848   1.325   0.794  1.00  0.00     0.039 A 
ATOM      9  C   UNL     1       4.069   1.856   0.373  1.00  0.00     0.014 A 
ATOM     10  C   UNL     1       2.345   1.630   2.060  1.00  0.00     0.014 A 
ATOM     11  C   UNL     1       4.856   2.566   1.272  1.00  0.00     0.010 A 
ATOM     12  C   UNL     1       3.098   2.424   2.930  1.00  0.00     0.010 A 
ATOM     13  C   UNL     1       4.377   2.868   2.557  1.00  0.00    -0.014 A 
BRANCH  13  14
ATOM     14  C   UNL     1       5.223   3.678   3.473  1.00  0.00     0.031 A 
ATOM     15  C   UNL     1       5.740   3.103   4.764  1.00  0.00     0.074 A 
ATOM     16  C   UNL     1       5.555   4.931   3.106  1.00  0.00     0.049 A 
ATOM     17  N   UNL     1       6.509   3.660   5.665  1.00  0.00    -0.248 NA
ATOM     18  C   UNL     1       5.330   1.731   5.093  1.00  0.00     0.031 C 
ATOM     19  C   UNL     1       5.107   5.593   1.877  1.00  0.00     0.029 A 
ATOM     20  N   UNL     1       6.362   5.862   3.707  1.00  0.00    -0.354 N 
ATOM     21  C   UNL     1       6.657   2.719   6.680  1.00  0.00     0.074 A 
ATOM     22  C   UNL     1       5.868   1.567   6.293  1.00  0.00     0.031 C 
ATOM     23  C   UNL     1       5.690   6.796   1.787  1.00  0.00     0.029 A 
ATOM     24  C   UNL     1       6.494   7.024   2.982  1.00  0.00     0.049 A 
ATOM     25  H   UNL     1       6.804   5.714   4.574  1.00  0.00     0.167 HD
ATOM     26  C   UNL     1       7.387   2.808   7.821  1.00  0.00     0.034 A 
ATOM     27  C   UNL     1       7.173   8.154   3.253  1.00  0.00     0.034 A 
ATOM     28  C   UNL     1       8.174   3.965   8.182  1.00  0.00     0.049 A 
ATOM     29  C   UNL     1       7.958   8.234   4.534  1.00  0.00     0.074 A 
ATOM     30  C   UNL     1       8.975   4.150   9.296  1.00  0.00     0.029 A 
ATOM     31  N   UNL     1       8.257   5.138   7.440  1.00  0.00    -0.354 N 
ATOM     32  N   UNL     1       8.100   7.327   5.473  1.00  0.00    -0.248 NA
ATOM     33  C   UNL     1       8.679   9.486   4.786  1.00  0.00     0.031 C 
ATOM     34  C   UNL     1       9.485   5.453   9.262  1.00  0.00     0.029 A 
ATOM     35  C   UNL     1       9.071   6.057   8.086  1.00  0.00     0.049 A 
ATOM     36  H   UNL     1       7.803   5.293   6.580  1.00  0.00     0.167 HD
ATOM     37  C   UNL     1       8.952   7.893   6.416  1.00  0.00     0.074 A 
ATOM     38  C   UNL     1       9.305   9.208   5.919  1.00  0.00     0.031 C 
ATOM     39  C   UNL     1       9.405   7.371   7.585  1.00  0.00     0.034 A 
BRANCH  26  40
ATOM     40  C   UNL     1       7.324   1.642   8.781  1.00  0.00     0.023 A 
ATOM     41  C   UNL     1       7.795   0.364   8.434  1.00  0.00     0.031 A 
ATOM     42  C   UNL     1       6.758   1.806  10.059  1.00  0.00     0.131 A 
ATOM     43  C   UNL     1       7.625  -0.713   9.319  1.00  0.00     0.055 A 
ATOM     44  C   UNL     1       6.665   0.749  10.967  1.00  0.00     0.041 A 
ATOM     45  F   UNL     1       6.272   2.997  10.443  1.00  0.00    -0.206 F 
ATOM     46  C   UNL     1       7.086  -0.524  10.593  1.00  0.00     0.022 A 
BRANCH  43  47
ATOM     47  S   UNL     1       7.984  -2.389   8.724  1.00  0.00     0.124 S 
ATOM     48  O   UNL     1       7.106  -2.485   7.559  1.00  0.00    -0.237 OA
ATOM     49  O   UNL     1       9.412  -2.325   8.441  1.00  0.00    -0.237 OA
ATOM     50  O   UNL     1       7.606  -3.241   9.850  1.00  0.00    -0.744 OA
ENDBRANCH  43  47
ENDBRANCH  26  40
BRANCH  27  51
ATOM     51  C   UNL     1       7.130   9.302   2.304  1.00  0.00     0.023 A 
ATOM     52  C   UNL     1       8.290   9.745   1.651  1.00  0.00     0.031 A 
ATOM     53  C   UNL     1       5.929   9.990   2.056  1.00  0.00     0.131 A 
ATOM     54  C   UNL     1       8.234  10.870   0.815  1.00  0.00     0.055 A 
ATOM     55  C   UNL     1       5.867  11.074   1.179  1.00  0.00     0.041 A 
ATOM     56  F   UNL     1       4.788   9.603   2.650  1.00  0.00    -0.206 F 
ATOM     57  C   UNL     1       7.028  11.528   0.563  1.00  0.00     0.022 A 
BRANCH  54  58
ATOM     58  S   UNL     1       9.782  11.510   0.119  1.00  0.00     0.124 S 
ATOM     59  O   UNL     1      10.561  11.776   1.322  1.00  0.00    -0.237 OA
ATOM     60  O   UNL     1      10.230  10.390  -0.702  1.00  0.00    -0.237 OA
ATOM     61  O   UNL     1       9.355  12.694  -0.625  1.00  0.00    -0.744 OA
ENDBRANCH  54  58
ENDBRANCH  27  51
BRANCH  39  62
ATOM     62  C   UNL     1      10.376   8.217   8.373  1.00  0.00     0.023 A 
ATOM     63  C   UNL     1       9.995   9.441   8.950  1.00  0.00     0.031 A 
ATOM     64  C   UNL     1      11.714   7.808   8.512  1.00  0.00     0.131 A 
ATOM     65  C   UNL     1      10.957  10.248   9.576  1.00  0.00     0.055 A 
ATOM     66  C   UNL     1      12.652   8.584   9.194  1.00  0.00     0.041 A 
ATOM     67  F   UNL     1      12.134   6.650   7.978  1.00  0.00    -0.206 F 
ATOM     68  C   UNL     1      12.280   9.819   9.716  1.00  0.00     0.022 A 
BRANCH  65  69
ATOM     69  S   UNL     1      10.483  11.917  10.104  1.00  0.00     0.124 S 
ATOM     70  O   UNL     1       9.990  12.500   8.860  1.00  0.00    -0.237 OA
ATOM     71  O   UNL     1       9.476  11.647  11.124  1.00  0.00    -0.237 OA
ATOM     72  O   UNL     1      11.733  12.487  10.602  1.00  0.00    -0.744 OA
ENDBRANCH  65  69
ENDBRANCH  39  62
ENDBRANCH  13  14
ENDBRANCH   6   8
ENDBRANCH   3   4
ENDBRANCH   2   3
ENDBRANCH   1   2
BRANCH   1  73
ATOM     73  C   UNL     1       4.396  -3.292  -2.664  1.00  0.00     0.002 C 
BRANCH  73  74
ATOM     74  C   UNL     1       5.927  -3.234  -2.656  1.00  0.00     0.021 C 
BRANCH  74  75
ATOM     75  C   UNL     1       6.593  -4.392  -1.926  1.00  0.00     0.116 C 
BRANCH  75  76
ATOM     76  N   UNL     1       6.489  -5.638  -2.653  1.00  0.00    -0.354 N 
ATOM     77  C   UNL     1       7.415  -6.601  -2.903  1.00  0.00     0.250 C 
ATOM     78  H   UNL     1       5.598  -5.819  -3.030  1.00  0.00     0.163 HD
ATOM     79  O   UNL     1       6.927  -7.739  -2.947  1.00  0.00    -0.272 OA
BRANCH  77  80
ATOM     80  C   UNL     1       8.960  -6.368  -3.151  1.00  0.00     0.145 C 
ATOM     81  C   UNL     1       9.653  -7.249  -2.062  1.00  0.00     0.044 C 
ATOM     82  C   UNL     1       9.449  -4.918  -3.013  1.00  0.00    -0.010 A 
ATOM     83  C   UNL     1       9.509  -6.654  -0.672  1.00  0.00     0.008 C 
ATOM     84  C   UNL     1      10.027  -4.444  -1.806  1.00  0.00    -0.042 A 
ATOM     85  C   UNL     1       9.266  -4.001  -4.068  1.00  0.00     0.007 A 
ATOM     86  C   UNL     1      10.254  -5.330  -0.602  1.00  0.00     0.036 C 
ATOM     87  C   UNL     1      10.387  -3.090  -1.686  1.00  0.00     0.004 A 
ATOM     88  C   UNL     1       9.623  -2.657  -3.927  1.00  0.00     0.000 A 
ATOM     89  C   UNL     1      10.175  -2.201  -2.736  1.00  0.00     0.000 A 
BRANCH  80  90
ATOM     90  N   UNL     1       9.507  -6.934  -4.435  1.00  0.00    -0.338 N 
ATOM     91  C   UNL     1       9.047  -7.073  -5.704  1.00  0.00     0.224 C 
ATOM     92  H   UNL     1      10.419  -7.289  -4.327  1.00  0.00     0.164 HD
ATOM     93  O   UNL     1       9.885  -7.051  -6.609  1.00  0.00    -0.275 OA
BRANCH  91  94
ATOM     94  C   UNL     1       7.583  -7.376  -5.994  1.00  0.00     0.082 C 
ATOM     95  C   UNL     1       7.239  -8.803  -5.516  1.00  0.00     0.035 C 
ATOM     96  C   UNL     1       7.243  -7.186  -7.494  1.00  0.00     0.035 C 
ATOM     97  C   UNL     1       7.637  -9.899  -6.495  1.00  0.00     0.120 C 
ATOM     98  C   UNL     1       7.667  -8.378  -8.361  1.00  0.00     0.120 C 
ATOM     99  N   UNL     1       7.095  -9.598  -7.810  1.00  0.00    -0.342 N 
ATOM    100  C   UNL     1       6.006 -10.353  -8.245  1.00  0.00     0.225 C 
ATOM    101  O   UNL     1       5.557 -11.268  -7.555  1.00  0.00    -0.275 OA
BRANCH 100 102
ATOM    102  C   UNL     1       5.313 -10.165  -9.554  1.00  0.00     0.079 C 
ATOM    103  C   UNL     1       5.157  -8.928 -10.386  1.00  0.00     0.014 C 
ATOM    104  C   UNL     1       6.076 -10.032 -10.845  1.00  0.00     0.014 C 
ENDBRANCH 100 102
ENDBRANCH  91  94
ENDBRANCH  80  90
ENDBRANCH  77  80
ENDBRANCH  75  76
ENDBRANCH  74  75
ENDBRANCH  73  74
ENDBRANCH   1  73
TORSDOF 19
