REMARK SMILES CCC[C@@H](C)C[NH2+][C@@](C)(CC)C(=O)NCCCCCCNC(=O)c1ccc(-c2c3nc(c(-c4cc(S(=O)(=O)[O-])ccc4F)c4ccc([nH]4)c(-c4cc(S(=O)(=O)[O-])ccc4F)c4nc(c(-c5cc(S(=O)(=O)[O-])ccc5F)c5ccc2[nH]5)C=C4)C=C3)cc1
REMARK SMILES IDX 16 1 15 2 14 3 12 4 13 5 8 7 9 8 7 9 6 12 4 13 5 14 3 15
REMARK SMILES IDX 2 16 1 17 10 18 11 19 17 20 18 21 19 22 20 23 21 24 22 25
REMARK SMILES IDX 23 27 24 28 25 29 86 30 26 31 85 32 27 33 28 34 29 35 79 36
REMARK SMILES IDX 30 37 84 38 78 39 80 40 31 41 83 42 77 43 76 44 32 46 64 47
REMARK SMILES IDX 44 48 63 49 45 50 48 51 62 52 81 53 46 54 47 55 61 57 82 58
REMARK SMILES IDX 49 59 33 60 34 61 42 62 35 63 41 64 43 65 40 66 36 67 37 68
REMARK SMILES IDX 38 69 39 70 65 71 66 72 74 73 67 74 73 75 75 76 72 77 68 78
REMARK SMILES IDX 69 79 70 80 71 81 50 82 51 83 59 84 52 85 58 86 60 87 57 88
REMARK SMILES IDX 53 89 54 90 55 91 56 92
REMARK H PARENT 14 6 7 10 7 11 21 26 80 45 48 56
REMARK Flexibility Score: inf
ROOT
ATOM      1  C   UNL     1       4.908   8.376  -3.822  1.00  0.00     0.021 C 
ENDROOT
BRANCH   1   2
ATOM      2  C   UNL     1       3.769   8.210  -2.818  1.00  0.00     0.116 C 
BRANCH   2   3
ATOM      3  N   UNL     1       2.833   7.205  -3.271  1.00  0.00    -0.351 N 
ATOM      4  C   UNL     1       2.528   5.965  -2.804  1.00  0.00     0.281 C 
ATOM      5  O   UNL     1       1.852   5.275  -3.576  1.00  0.00    -0.268 OA
ATOM      6  H   UNL     1       2.319   7.468  -4.068  1.00  0.00     0.163 HD
BRANCH   4   7
ATOM      7  C   UNL     1       3.003   5.465  -1.391  1.00  0.00     0.172 C 
ATOM      8  C   UNL     1       2.591   6.455  -0.280  1.00  0.00     0.090 C 
BRANCH   7   9
ATOM      9  N   UNL     1       2.400   4.132  -1.077  1.00  0.00    -0.334 N 
ATOM     10  H   UNL     1       2.659   3.487  -1.824  1.00  0.00     0.347 HD
ATOM     11  H   UNL     1       2.763   3.872  -0.160  1.00  0.00     0.347 HD
BRANCH   9  12
ATOM     12  C   UNL     1       0.940   4.107  -0.948  1.00  0.00     0.264 C 
BRANCH  12  13
ATOM     13  C   UNL     1       0.432   2.680  -0.635  1.00  0.00     0.041 C 
ATOM     14  C   UNL     1      -1.097   2.668  -0.739  1.00  0.00     0.013 C 
BRANCH  13  15
ATOM     15  C   UNL     1       0.909   2.207   0.757  1.00  0.00     0.009 C 
BRANCH  15  16
ATOM     16  C   UNL     1       0.487   0.793   1.161  1.00  0.00    -0.003 C 
ATOM     17  C   UNL     1       1.006  -0.280   0.216  1.00  0.00     0.004 C 
ENDBRANCH  15  16
ENDBRANCH  13  15
ENDBRANCH  12  13
ENDBRANCH   9  12
ENDBRANCH   7   9
BRANCH   7  18
ATOM     18  C   UNL     1       4.542   5.249  -1.365  1.00  0.00     0.075 C 
ATOM     19  C   UNL     1       5.074   4.288  -2.426  1.00  0.00     0.011 C 
ENDBRANCH   7  18
ENDBRANCH   4   7
ENDBRANCH   2   3
ENDBRANCH   1   2
BRANCH   1  20
ATOM     20  C   UNL     1       4.468   8.954  -5.172  1.00  0.00     0.002 C 
BRANCH  20  21
ATOM     21  C   UNL     1       3.681  10.266  -5.087  1.00  0.00     0.002 C 
BRANCH  21  22
ATOM     22  C   UNL     1       4.354  11.371  -4.269  1.00  0.00     0.021 C 
BRANCH  22  23
ATOM     23  C   UNL     1       5.751  11.748  -4.746  1.00  0.00     0.116 C 
BRANCH  23  24
ATOM     24  N   UNL     1       5.734  12.277  -6.098  1.00  0.00    -0.352 N 
ATOM     25  C   UNL     1       6.285  13.437  -6.573  1.00  0.00     0.251 C 
ATOM     26  H   UNL     1       5.261  11.727  -6.763  1.00  0.00     0.163 HD
ATOM     27  O   UNL     1       5.979  13.838  -7.697  1.00  0.00    -0.269 OA
BRANCH  25  28
ATOM     28  C   UNL     1       7.226  14.208  -5.734  1.00  0.00     0.039 A 
ATOM     29  C   UNL     1       7.124  15.601  -5.710  1.00  0.00     0.014 A 
ATOM     30  C   UNL     1       8.220  13.565  -4.989  1.00  0.00     0.014 A 
ATOM     31  C   UNL     1       7.999  16.345  -4.916  1.00  0.00     0.010 A 
ATOM     32  C   UNL     1       9.038  14.302  -4.138  1.00  0.00     0.010 A 
ATOM     33  C   UNL     1       8.952  15.702  -4.109  1.00  0.00    -0.014 A 
BRANCH  33  34
ATOM     34  C   UNL     1       9.899  16.482  -3.272  1.00  0.00     0.031 A 
ATOM     35  C   UNL     1      11.377  16.421  -3.561  1.00  0.00     0.074 A 
ATOM     36  C   UNL     1       9.439  17.215  -2.239  1.00  0.00     0.049 A 
ATOM     37  N   UNL     1      12.371  16.981  -2.920  1.00  0.00    -0.248 NA
ATOM     38  C   UNL     1      11.791  15.596  -4.707  1.00  0.00     0.031 C 
ATOM     39  C   UNL     1       8.033  17.327  -1.843  1.00  0.00     0.029 A 
ATOM     40  N   UNL     1      10.101  18.004  -1.332  1.00  0.00    -0.354 N 
ATOM     41  C   UNL     1      13.526  16.569  -3.578  1.00  0.00     0.074 A 
ATOM     42  C   UNL     1      13.111  15.655  -4.620  1.00  0.00     0.031 C 
ATOM     43  C   UNL     1       7.937  18.162  -0.795  1.00  0.00     0.029 A 
ATOM     44  C   UNL     1       9.273  18.608  -0.414  1.00  0.00     0.049 A 
ATOM     45  H   UNL     1      11.078  18.126  -1.338  1.00  0.00     0.167 HD
ATOM     46  C   UNL     1      14.811  16.940  -3.353  1.00  0.00     0.034 A 
ATOM     47  C   UNL     1       9.561  19.424   0.620  1.00  0.00     0.034 A 
ATOM     48  C   UNL     1      15.206  17.864  -2.318  1.00  0.00     0.049 A 
ATOM     49  C   UNL     1      11.001  19.803   0.866  1.00  0.00     0.074 A 
ATOM     50  C   UNL     1      16.472  18.335  -2.019  1.00  0.00     0.029 A 
ATOM     51  N   UNL     1      14.338  18.458  -1.409  1.00  0.00    -0.354 N 
ATOM     52  N   UNL     1      12.078  19.432   0.212  1.00  0.00    -0.248 NA
ATOM     53  C   UNL     1      11.261  20.726   1.978  1.00  0.00     0.031 C 
ATOM     54  C   UNL     1      16.380  19.160  -0.893  1.00  0.00     0.029 A 
ATOM     55  C   UNL     1      15.046  19.273  -0.538  1.00  0.00     0.049 A 
ATOM     56  H   UNL     1      13.364  18.321  -1.387  1.00  0.00     0.167 HD
ATOM     57  C   UNL     1      13.137  20.114   0.808  1.00  0.00     0.074 A 
ATOM     58  C   UNL     1      12.565  20.925   1.863  1.00  0.00     0.031 C 
ATOM     59  C   UNL     1      14.460  20.078   0.508  1.00  0.00     0.034 A 
BRANCH  46  60
ATOM     60  C   UNL     1      15.876  16.328  -4.233  1.00  0.00     0.023 A 
ATOM     61  C   UNL     1      15.897  16.539  -5.623  1.00  0.00     0.031 A 
ATOM     62  C   UNL     1      16.870  15.500  -3.681  1.00  0.00     0.131 A 
ATOM     63  C   UNL     1      16.838  15.871  -6.421  1.00  0.00     0.055 A 
ATOM     64  C   UNL     1      17.858  14.908  -4.470  1.00  0.00     0.041 A 
ATOM     65  F   UNL     1      16.891  15.241  -2.364  1.00  0.00    -0.206 F 
ATOM     66  C   UNL     1      17.837  15.079  -5.851  1.00  0.00     0.022 A 
BRANCH  63  67
ATOM     67  S   UNL     1      16.647  15.936  -8.223  1.00  0.00     0.124 S 
ATOM     68  O   UNL     1      15.319  15.350  -8.398  1.00  0.00    -0.237 OA
ATOM     69  O   UNL     1      16.758  17.362  -8.502  1.00  0.00    -0.237 OA
ATOM     70  O   UNL     1      17.751  15.114  -8.715  1.00  0.00    -0.744 OA
ENDBRANCH  63  67
ENDBRANCH  46  60
BRANCH  47  71
ATOM     71  C   UNL     1       8.477  19.944   1.504  1.00  0.00     0.023 A 
ATOM     72  C   UNL     1       8.215  21.320   1.593  1.00  0.00     0.031 A 
ATOM     73  C   UNL     1       7.727  19.077   2.319  1.00  0.00     0.131 A 
ATOM     74  C   UNL     1       7.275  21.796   2.521  1.00  0.00     0.055 A 
ATOM     75  C   UNL     1       6.749  19.551   3.196  1.00  0.00     0.041 A 
ATOM     76  F   UNL     1       7.931  17.751   2.271  1.00  0.00    -0.206 F 
ATOM     77  C   UNL     1       6.530  20.920   3.313  1.00  0.00     0.022 A 
BRANCH  74  78
ATOM     78  S   UNL     1       7.118  23.588   2.755  1.00  0.00     0.124 S 
ATOM     79  O   UNL     1       8.484  23.961   3.104  1.00  0.00    -0.237 OA
ATOM     80  O   UNL     1       6.649  24.024   1.444  1.00  0.00    -0.237 OA
ATOM     81  O   UNL     1       6.142  23.705   3.836  1.00  0.00    -0.744 OA
ENDBRANCH  74  78
ENDBRANCH  47  71
BRANCH  59  82
ATOM     82  C   UNL     1      15.367  20.998   1.290  1.00  0.00     0.023 A 
ATOM     83  C   UNL     1      15.578  20.840   2.671  1.00  0.00     0.031 A 
ATOM     84  C   UNL     1      16.018  22.063   0.641  1.00  0.00     0.131 A 
ATOM     85  C   UNL     1      16.362  21.772   3.369  1.00  0.00     0.055 A 
ATOM     86  C   UNL     1      16.851  22.946   1.328  1.00  0.00     0.041 A 
ATOM     87  F   UNL     1      15.853  22.263  -0.677  1.00  0.00    -0.206 F 
ATOM     88  C   UNL     1      17.014  22.812   2.704  1.00  0.00     0.022 A 
BRANCH  85  89
ATOM     89  S   UNL     1      16.429  21.669   5.179  1.00  0.00     0.124 S 
ATOM     90  O   UNL     1      15.018  21.753   5.541  1.00  0.00    -0.237 OA
ATOM     91  O   UNL     1      17.066  20.374   5.394  1.00  0.00    -0.237 OA
ATOM     92  O   UNL     1      17.237  22.827   5.559  1.00  0.00    -0.744 OA
ENDBRANCH  85  89
ENDBRANCH  59  82
ENDBRANCH  33  34
ENDBRANCH  25  28
ENDBRANCH  23  24
ENDBRANCH  22  23
ENDBRANCH  21  22
ENDBRANCH  20  21
ENDBRANCH   1  20
TORSDOF 22
