REMARK SMILES COc1c[nH]c(C[N@H+]2CCC[C@@H](c3ccc(C(=O)NCCCCCCNC(=O)c4ccc(-c5c6nc(c(-c7cc(S(=O)(=O)[O-])ccc7F)c7ccc([nH]7)c(-c7cc(S(=O)(=O)[O-])ccc7F)c7nc(c(-c8cc(S(=O)(=O)[O-])ccc8F)c8ccc5[nH]8)C=C7)C=C6)cc4)cc3)C2)cc1=O
REMARK SMILES IDX 22 1 21 2 20 3 19 4 17 5 18 6 16 8 13 9 14 10 93 11 15 12
REMARK SMILES IDX 92 13 12 14 8 15 9 16 94 17 10 19 11 20 7 21 6 22 3 23 4 24
REMARK SMILES IDX 96 25 5 26 95 27 97 28 2 30 1 31 23 32 24 33 25 34 26 35
REMARK SMILES IDX 27 36 28 38 29 39 30 40 91 41 31 42 90 43 32 44 33 45 34 46
REMARK SMILES IDX 84 47 35 48 89 49 83 50 85 51 36 52 88 53 82 54 81 55 37 57
REMARK SMILES IDX 69 58 49 59 68 60 50 61 53 62 67 63 86 64 51 65 52 66 66 68
REMARK SMILES IDX 87 69 54 70 38 71 39 72 47 73 40 74 46 75 48 76 45 77 41 78
REMARK SMILES IDX 42 79 43 80 44 81 70 82 71 83 79 84 72 85 78 86 80 87 77 88
REMARK SMILES IDX 73 89 74 90 75 91 76 92 55 93 56 94 64 95 57 96 63 97 65 98
REMARK SMILES IDX 62 99 58 100 59 101 60 102 61 103
REMARK H PARENT 19 7 8 18 5 29 26 37 85 56 53 67
REMARK Flexibility Score: inf
ROOT
ATOM      1  C   UNL     1      -8.776  -8.389  -7.787  1.00  0.00     0.002 C 
ENDROOT
BRANCH   1   2
ATOM      2  C   UNL     1      -7.322  -7.912  -7.902  1.00  0.00     0.021 C 
BRANCH   2   3
ATOM      3  C   UNL     1      -7.084  -6.543  -7.262  1.00  0.00     0.116 C 
BRANCH   3   4
ATOM      4  N   UNL     1      -7.047  -6.675  -5.819  1.00  0.00    -0.352 N 
ATOM      5  C   UNL     1      -6.005  -6.714  -4.932  1.00  0.00     0.251 C 
ATOM      6  O   UNL     1      -6.271  -6.839  -3.736  1.00  0.00    -0.269 OA
ATOM      7  H   UNL     1      -7.934  -6.749  -5.399  1.00  0.00     0.163 HD
BRANCH   5   8
ATOM      8  C   UNL     1      -4.587  -6.532  -5.343  1.00  0.00     0.039 A 
ATOM      9  C   UNL     1      -1.889  -5.976  -5.984  1.00  0.00    -0.039 A 
ATOM     10  C   UNL     1      -2.414  -5.640  -4.727  1.00  0.00     0.005 A 
ATOM     11  C   UNL     1      -2.710  -6.669  -6.881  1.00  0.00     0.005 A 
ATOM     12  C   UNL     1      -3.750  -5.899  -4.419  1.00  0.00     0.014 A 
ATOM     13  C   UNL     1      -4.038  -6.969  -6.551  1.00  0.00     0.014 A 
BRANCH   9  14
ATOM     14  C   UNL     1      -0.458  -5.630  -6.372  1.00  0.00     0.074 C 
ATOM     15  N   UNL     1       1.290  -3.809  -6.285  1.00  0.00    -0.329 N 
ATOM     16  C   UNL     1       2.210  -4.714  -5.585  1.00  0.00     0.262 C 
ATOM     17  C   UNL     1      -0.110  -4.165  -6.024  1.00  0.00     0.270 C 
ATOM     18  H   UNL     1       1.443  -3.931  -7.286  1.00  0.00     0.348 HD
ATOM     19  C   UNL     1       1.969  -6.170  -5.989  1.00  0.00     0.062 C 
ATOM     20  C   UNL     1       0.531  -6.596  -5.708  1.00  0.00     0.020 C 
BRANCH  15  21
ATOM     21  C   UNL     1       1.585  -2.387  -6.009  1.00  0.00     0.317 C 
BRANCH  21  22
ATOM     22  C   UNL     1       1.417  -1.916  -4.566  1.00  0.00     0.074 A 
ATOM     23  C   UNL     1       0.849  -1.238  -1.847  1.00  0.00     0.182 A 
ATOM     24  C   UNL     1      -0.110  -1.456  -2.757  1.00  0.00     0.133 A 
ATOM     25  C   UNL     1       2.269  -1.302  -2.348  1.00  0.00     0.223 A 
ATOM     26  N   UNL     1       0.138  -1.722  -4.076  1.00  0.00    -0.357 N 
ATOM     27  C   UNL     1       2.482  -1.688  -3.774  1.00  0.00     0.083 A 
ATOM     28  O   UNL     1       3.241  -1.071  -1.634  1.00  0.00    -0.286 OA
ATOM     29  H   UNL     1      -0.622  -1.778  -4.699  1.00  0.00     0.166 HD
BRANCH  23  30
ATOM     30  O   UNL     1       0.529  -1.050  -0.517  1.00  0.00    -0.491 OA
ATOM     31  C   UNL     1       1.058   0.162   0.009  1.00  0.00     0.278 C 
ENDBRANCH  23  30
ENDBRANCH  21  22
ENDBRANCH  15  21
ENDBRANCH   9  14
ENDBRANCH   5   8
ENDBRANCH   3   4
ENDBRANCH   2   3
ENDBRANCH   1   2
BRANCH   1  32
ATOM     32  C   UNL     1      -9.798  -7.507  -8.512  1.00  0.00     0.002 C 
BRANCH  32  33
ATOM     33  C   UNL     1      -9.505  -7.266  -9.996  1.00  0.00     0.021 C 
BRANCH  33  34
ATOM     34  C   UNL     1      -9.455  -8.536 -10.841  1.00  0.00     0.116 C 
BRANCH  34  35
ATOM     35  N   UNL     1     -10.745  -9.201 -10.870  1.00  0.00    -0.352 N 
ATOM     36  C   UNL     1     -11.491  -9.606 -11.947  1.00  0.00     0.251 C 
ATOM     37  H   UNL     1     -11.141  -9.390  -9.989  1.00  0.00     0.163 HD
ATOM     38  O   UNL     1     -12.669  -9.904 -11.783  1.00  0.00    -0.269 OA
BRANCH  36  39
ATOM     39  C   UNL     1     -10.882  -9.680 -13.295  1.00  0.00     0.039 A 
ATOM     40  C   UNL     1     -11.654  -9.313 -14.401  1.00  0.00     0.014 A 
ATOM     41  C   UNL     1      -9.587 -10.175 -13.481  1.00  0.00     0.014 A 
ATOM     42  C   UNL     1     -11.126  -9.432 -15.688  1.00  0.00     0.010 A 
ATOM     43  C   UNL     1      -9.037 -10.229 -14.760  1.00  0.00     0.010 A 
ATOM     44  C   UNL     1      -9.812  -9.888 -15.878  1.00  0.00    -0.014 A 
BRANCH  44  45
ATOM     45  C   UNL     1      -9.269 -10.090 -17.246  1.00  0.00     0.031 A 
ATOM     46  C   UNL     1      -8.957 -11.484 -17.726  1.00  0.00     0.074 A 
ATOM     47  C   UNL     1      -9.036  -9.029 -18.041  1.00  0.00     0.049 A 
ATOM     48  N   UNL     1      -8.449 -11.876 -18.866  1.00  0.00    -0.248 NA
ATOM     49  C   UNL     1      -9.225 -12.580 -16.782  1.00  0.00     0.031 C 
ATOM     50  C   UNL     1      -9.266  -7.630 -17.672  1.00  0.00     0.029 A 
ATOM     51  N   UNL     1      -8.557  -8.959 -19.324  1.00  0.00    -0.354 N 
ATOM     52  C   UNL     1      -8.324 -13.259 -18.772  1.00  0.00     0.074 A 
ATOM     53  C   UNL     1      -8.745 -13.625 -17.436  1.00  0.00     0.031 C 
ATOM     54  C   UNL     1      -8.952  -6.844 -18.714  1.00  0.00     0.029 A 
ATOM     55  C   UNL     1      -8.470  -7.676 -19.813  1.00  0.00     0.049 A 
ATOM     56  H   UNL     1      -8.299  -9.752 -19.847  1.00  0.00     0.167 HD
ATOM     57  C   UNL     1      -7.923 -14.144 -19.718  1.00  0.00     0.034 A 
ATOM     58  C   UNL     1      -8.052  -7.225 -21.012  1.00  0.00     0.034 A 
ATOM     59  C   UNL     1      -7.524 -13.761 -21.051  1.00  0.00     0.049 A 
ATOM     60  C   UNL     1      -7.621  -8.227 -22.054  1.00  0.00     0.074 A 
ATOM     61  C   UNL     1      -7.126 -14.569 -22.102  1.00  0.00     0.029 A 
ATOM     62  N   UNL     1      -7.477 -12.453 -21.519  1.00  0.00    -0.354 N 
ATOM     63  N   UNL     1      -7.543  -9.535 -21.962  1.00  0.00    -0.248 NA
ATOM     64  C   UNL     1      -7.246  -7.692 -23.369  1.00  0.00     0.031 C 
ATOM     65  C   UNL     1      -6.788 -13.749 -23.185  1.00  0.00     0.029 A 
ATOM     66  C   UNL     1      -7.044 -12.432 -22.836  1.00  0.00     0.049 A 
ATOM     67  H   UNL     1      -7.715 -11.656 -20.992  1.00  0.00     0.167 HD
ATOM     68  C   UNL     1      -7.150  -9.980 -23.221  1.00  0.00     0.074 A 
ATOM     69  C   UNL     1      -7.019  -8.803 -24.054  1.00  0.00     0.031 C 
ATOM     70  C   UNL     1      -6.923 -11.248 -23.653  1.00  0.00     0.034 A 
BRANCH  57  71
ATOM     71  C   UNL     1      -7.877 -15.603 -19.327  1.00  0.00     0.023 A 
ATOM     72  C   UNL     1      -9.036 -16.301 -18.942  1.00  0.00     0.031 A 
ATOM     73  C   UNL     1      -6.654 -16.297 -19.295  1.00  0.00     0.131 A 
ATOM     74  C   UNL     1      -8.938 -17.615 -18.460  1.00  0.00     0.055 A 
ATOM     75  C   UNL     1      -6.575 -17.634 -18.899  1.00  0.00     0.041 A 
ATOM     76  F   UNL     1      -5.510 -15.681 -19.631  1.00  0.00    -0.206 F 
ATOM     77  C   UNL     1      -7.719 -18.296 -18.461  1.00  0.00     0.022 A 
BRANCH  74  78
ATOM     78  S   UNL     1     -10.398 -18.366 -17.689  1.00  0.00     0.124 S 
ATOM     79  O   UNL     1     -10.656 -17.440 -16.588  1.00  0.00    -0.237 OA
ATOM     80  O   UNL     1     -11.370 -18.355 -18.775  1.00  0.00    -0.237 OA
ATOM     81  O   UNL     1      -9.928 -19.689 -17.283  1.00  0.00    -0.744 OA
ENDBRANCH  74  78
ENDBRANCH  57  71
BRANCH  58  82
ATOM     82  C   UNL     1      -8.033  -5.764 -21.306  1.00  0.00     0.023 A 
ATOM     83  C   UNL     1      -8.869  -5.213 -22.290  1.00  0.00     0.031 A 
ATOM     84  C   UNL     1      -7.147  -4.902 -20.636  1.00  0.00     0.131 A 
ATOM     85  C   UNL     1      -8.766  -3.852 -22.614  1.00  0.00     0.055 A 
ATOM     86  C   UNL     1      -7.084  -3.538 -20.926  1.00  0.00     0.041 A 
ATOM     87  F   UNL     1      -6.332  -5.376 -19.679  1.00  0.00    -0.206 F 
ATOM     88  C   UNL     1      -7.887  -3.009 -21.932  1.00  0.00     0.022 A 
BRANCH  85  89
ATOM     89  S   UNL     1      -9.740  -3.216 -24.006  1.00  0.00     0.124 S 
ATOM     90  O   UNL     1      -9.291  -4.071 -25.099  1.00  0.00    -0.237 OA
ATOM     91  O   UNL     1     -11.106  -3.430 -23.542  1.00  0.00    -0.237 OA
ATOM     92  O   UNL     1      -9.327  -1.817 -24.098  1.00  0.00    -0.744 OA
ENDBRANCH  85  89
ENDBRANCH  58  82
BRANCH  70  93
ATOM     93  C   UNL     1      -6.574 -11.420 -25.111  1.00  0.00     0.023 A 
ATOM     94  C   UNL     1      -5.371 -10.931 -25.651  1.00  0.00     0.031 A 
ATOM     95  C   UNL     1      -7.475 -12.063 -25.977  1.00  0.00     0.131 A 
ATOM     96  C   UNL     1      -5.132 -11.034 -27.029  1.00  0.00     0.055 A 
ATOM     97  C   UNL     1      -7.204 -12.218 -27.337  1.00  0.00     0.041 A 
ATOM     98  F   UNL     1      -8.639 -12.550 -25.515  1.00  0.00    -0.206 F 
ATOM     99  C   UNL     1      -6.034 -11.687 -27.873  1.00  0.00     0.022 A 
BRANCH  96 100
ATOM    100  S   UNL     1      -3.675 -10.207 -27.724  1.00  0.00     0.124 S 
ATOM    101  O   UNL     1      -3.868  -8.829 -27.283  1.00  0.00    -0.237 OA
ATOM    102  O   UNL     1      -2.576 -10.930 -27.091  1.00  0.00    -0.237 OA
ATOM    103  O   UNL     1      -3.812 -10.422 -29.163  1.00  0.00    -0.744 OA
ENDBRANCH  96 100
ENDBRANCH  70  93
ENDBRANCH  44  45
ENDBRANCH  36  39
ENDBRANCH  34  35
ENDBRANCH  33  34
ENDBRANCH  32  33
ENDBRANCH   1  32
TORSDOF 20
