REMARK SMILES Cc1ccc(S(=O)(=O)n2cc(C(=O)C(=O)N[C@@H](Cc3cnc[nH]3)C(=O)NCCCCCCNC(=O)c3ccc(-c4c5nc(c(-c6cc(S(=O)(=O)[O-])ccc6F)c6ccc([nH]6)c(-c6cc(S(=O)(=O)[O-])ccc6F)c6nc(c(-c7cc(S(=O)(=O)[O-])ccc7F)c7ccc4[nH]7)C=C6)C=C5)cc3)c3ccccc32)cc1
REMARK SMILES IDX 28 1 27 2 26 3 24 4 25 5 17 7 16 8 14 9 15 10 12 12 13 13
REMARK SMILES IDX 11 14 9 15 10 16 104 17 99 18 103 19 100 20 102 21 101 22
REMARK SMILES IDX 6 23 7 24 8 25 5 26 1 27 2 28 3 29 106 30 4 31 105 32 18 33
REMARK SMILES IDX 19 34 20 35 23 36 21 37 22 38 29 40 30 41 31 42 32 43 33 44
REMARK SMILES IDX 34 45 35 47 36 48 37 49 98 50 38 51 97 52 39 53 40 54 41 55
REMARK SMILES IDX 91 56 42 57 96 58 90 59 92 60 43 61 95 62 89 63 88 64 44 66
REMARK SMILES IDX 76 67 56 68 75 69 57 70 60 71 74 72 93 73 58 74 59 75 73 77
REMARK SMILES IDX 94 78 61 79 45 80 46 81 54 82 47 83 53 84 55 85 52 86 48 87
REMARK SMILES IDX 49 88 50 89 51 90 77 91 78 92 86 93 79 94 85 95 87 96 84 97
REMARK SMILES IDX 80 98 81 99 82 100 83 101 62 102 63 103 71 104 64 105 70 106
REMARK SMILES IDX 72 107 69 108 65 109 66 110 67 111 68 112
REMARK H PARENT 26 6 16 11 23 39 33 46 92 65 60 76
REMARK Flexibility Score: inf
ROOT
ATOM      1  C   UNL     1      -7.936   5.553   7.305  1.00  0.00     0.021 C 
ENDROOT
BRANCH   1   2
ATOM      2  C   UNL     1      -8.368   6.096   5.957  1.00  0.00     0.116 C 
BRANCH   2   3
ATOM      3  N   UNL     1      -7.394   6.929   5.290  1.00  0.00    -0.354 N 
ATOM      4  C   UNL     1      -7.308   7.221   3.960  1.00  0.00     0.242 C 
ATOM      5  O   UNL     1      -6.793   8.300   3.645  1.00  0.00    -0.273 OA
ATOM      6  H   UNL     1      -6.708   7.337   5.866  1.00  0.00     0.163 HD
BRANCH   4   7
ATOM      7  C   UNL     1      -7.929   6.318   2.865  1.00  0.00     0.177 C 
BRANCH   7   8
ATOM      8  N   UNL     1      -7.684   4.881   3.055  1.00  0.00    -0.337 N 
ATOM      9  C   UNL     1      -6.792   4.022   2.457  1.00  0.00     0.293 C 
ATOM     10  O   UNL     1      -6.648   2.910   2.956  1.00  0.00    -0.265 OA
ATOM     11  H   UNL     1      -8.262   4.458   3.731  1.00  0.00     0.164 HD
BRANCH   9  12
ATOM     12  C   UNL     1      -6.040   4.400   1.159  1.00  0.00     0.252 C 
ATOM     13  O   UNL     1      -6.215   5.516   0.680  1.00  0.00    -0.283 OA
BRANCH  12  14
ATOM     14  C   UNL     1      -5.186   3.440   0.445  1.00  0.00     0.054 A 
ATOM     15  N   UNL     1      -4.128   1.589  -0.211  1.00  0.00    -0.240 N 
ATOM     16  C   UNL     1      -4.895   2.132   0.786  1.00  0.00     0.117 A 
ATOM     17  C   UNL     1      -3.869   2.511  -1.203  1.00  0.00     0.065 A 
ATOM     18  C   UNL     1      -4.492   3.696  -0.792  1.00  0.00     0.012 A 
ATOM     19  C   UNL     1      -3.137   2.438  -2.402  1.00  0.00     0.028 A 
ATOM     20  C   UNL     1      -4.357   4.844  -1.606  1.00  0.00     0.011 A 
ATOM     21  C   UNL     1      -3.014   3.595  -3.177  1.00  0.00     0.002 A 
ATOM     22  C   UNL     1      -3.611   4.785  -2.785  1.00  0.00     0.001 A 
BRANCH  15  23
ATOM     23  S   UNL     1      -3.546  -0.011  -0.193  1.00  0.00     0.268 S 
ATOM     24  O   UNL     1      -3.836  -0.531  -1.514  1.00  0.00    -0.201 OA
ATOM     25  O   UNL     1      -4.088  -0.619   1.010  1.00  0.00    -0.201 OA
BRANCH  23  26
ATOM     26  C   UNL     1      -1.784   0.049  -0.013  1.00  0.00     0.088 A 
ATOM     27  C   UNL     1       2.514  -0.047   0.037  1.00  0.00     0.044 C 
ATOM     28  C   UNL     1       1.015  -0.008   0.044  1.00  0.00    -0.051 A 
ATOM     29  C   UNL     1       0.286  -1.201  -0.035  1.00  0.00     0.005 A 
ATOM     30  C   UNL     1       0.327   1.208   0.137  1.00  0.00     0.005 A 
ATOM     31  C   UNL     1      -1.108  -1.175  -0.070  1.00  0.00     0.022 A 
ATOM     32  C   UNL     1      -1.070   1.240   0.123  1.00  0.00     0.022 A 
ENDBRANCH  23  26
ENDBRANCH  15  23
ENDBRANCH  12  14
ENDBRANCH   9  12
ENDBRANCH   7   8
BRANCH   7  33
ATOM     33  C   UNL     1      -9.386   6.659   2.500  1.00  0.00     0.090 C 
BRANCH  33  34
ATOM     34  C   UNL     1     -10.435   6.345   3.511  1.00  0.00     0.037 A 
ATOM     35  C   UNL     1     -11.025   5.163   3.911  1.00  0.00     0.134 A 
ATOM     36  N   UNL     1     -11.068   7.314   4.257  1.00  0.00    -0.348 N 
ATOM     37  N   UNL     1     -11.940   5.386   4.906  1.00  0.00    -0.245 NA
ATOM     38  C   UNL     1     -11.943   6.685   5.096  1.00  0.00     0.196 A 
ATOM     39  H   UNL     1     -10.916   8.285   4.197  1.00  0.00     0.167 HD
ENDBRANCH  33  34
ENDBRANCH   7  33
ENDBRANCH   4   7
ENDBRANCH   2   3
ENDBRANCH   1   2
BRANCH   1  40
ATOM     40  C   UNL     1      -7.983   6.578   8.438  1.00  0.00     0.002 C 
BRANCH  40  41
ATOM     41  C   UNL     1      -9.259   7.430   8.533  1.00  0.00     0.002 C 
BRANCH  41  42
ATOM     42  C   UNL     1     -10.582   6.672   8.546  1.00  0.00     0.021 C 
BRANCH  42  43
ATOM     43  C   UNL     1     -10.783   5.741   9.728  1.00  0.00     0.116 C 
BRANCH  43  44
ATOM     44  N   UNL     1     -11.375   6.360  10.908  1.00  0.00    -0.352 N 
ATOM     45  C   UNL     1     -11.942   5.757  12.021  1.00  0.00     0.251 C 
ATOM     46  H   UNL     1     -11.372   7.344  10.915  1.00  0.00     0.163 HD
ATOM     47  O   UNL     1     -12.545   6.405  12.872  1.00  0.00    -0.269 OA
BRANCH  45  48
ATOM     48  C   UNL     1     -11.629   4.331  12.302  1.00  0.00     0.039 A 
ATOM     49  C   UNL     1     -11.033   4.082  13.547  1.00  0.00     0.014 A 
ATOM     50  C   UNL     1     -11.495   3.422  11.262  1.00  0.00     0.014 A 
ATOM     51  C   UNL     1     -10.022   3.139  13.630  1.00  0.00     0.010 A 
ATOM     52  C   UNL     1     -10.397   2.602  11.287  1.00  0.00     0.010 A 
ATOM     53  C   UNL     1      -9.626   2.527  12.448  1.00  0.00    -0.014 A 
BRANCH  53  54
ATOM     54  C   UNL     1      -8.417   1.750  12.309  1.00  0.00     0.031 A 
ATOM     55  C   UNL     1      -8.551   0.303  12.503  1.00  0.00     0.074 A 
ATOM     56  C   UNL     1      -7.295   2.379  11.902  1.00  0.00     0.049 A 
ATOM     57  N   UNL     1      -7.624  -0.469  12.936  1.00  0.00    -0.248 NA
ATOM     58  C   UNL     1      -9.826  -0.385  12.306  1.00  0.00     0.031 C 
ATOM     59  C   UNL     1      -6.042   1.804  11.431  1.00  0.00     0.029 A 
ATOM     60  N   UNL     1      -7.020   3.740  12.028  1.00  0.00    -0.354 N 
ATOM     61  C   UNL     1      -8.063  -1.764  12.750  1.00  0.00     0.074 A 
ATOM     62  C   UNL     1      -9.476  -1.656  12.506  1.00  0.00     0.031 C 
ATOM     63  C   UNL     1      -5.071   2.732  11.541  1.00  0.00     0.029 A 
ATOM     64  C   UNL     1      -5.639   3.879  12.238  1.00  0.00     0.049 A 
ATOM     65  H   UNL     1      -7.677   4.472  11.978  1.00  0.00     0.167 HD
ATOM     66  C   UNL     1      -7.133  -2.751  12.630  1.00  0.00     0.034 A 
ATOM     67  C   UNL     1      -5.192   4.357  13.440  1.00  0.00     0.034 A 
ATOM     68  C   UNL     1      -5.795  -2.181  12.793  1.00  0.00     0.049 A 
ATOM     69  C   UNL     1      -4.482   3.288  14.246  1.00  0.00     0.074 A 
ATOM     70  C   UNL     1      -4.876  -1.718  11.865  1.00  0.00     0.029 A 
ATOM     71  N   UNL     1      -5.424  -1.652  14.020  1.00  0.00    -0.354 N 
ATOM     72  N   UNL     1      -4.640   2.004  14.064  1.00  0.00    -0.248 NA
ATOM     73  C   UNL     1      -3.519   3.592  15.299  1.00  0.00     0.031 C 
ATOM     74  C   UNL     1      -4.012  -0.811  12.534  1.00  0.00     0.029 A 
ATOM     75  C   UNL     1      -4.378  -0.761  13.869  1.00  0.00     0.049 A 
ATOM     76  H   UNL     1      -5.848  -1.879  14.880  1.00  0.00     0.167 HD
ATOM     77  C   UNL     1      -3.850   1.315  14.946  1.00  0.00     0.074 A 
ATOM     78  C   UNL     1      -3.146   2.357  15.676  1.00  0.00     0.031 C 
ATOM     79  C   UNL     1      -3.846  -0.052  15.022  1.00  0.00     0.034 A 
BRANCH  66  80
ATOM     80  C   UNL     1      -7.370  -4.120  12.037  1.00  0.00     0.023 A 
ATOM     81  C   UNL     1      -6.255  -4.805  11.509  1.00  0.00     0.031 A 
ATOM     82  C   UNL     1      -8.601  -4.792  11.908  1.00  0.00     0.131 A 
ATOM     83  C   UNL     1      -6.388  -6.030  10.835  1.00  0.00     0.055 A 
ATOM     84  C   UNL     1      -8.741  -6.000  11.207  1.00  0.00     0.041 A 
ATOM     85  F   UNL     1      -9.721  -4.350  12.488  1.00  0.00    -0.206 F 
ATOM     86  C   UNL     1      -7.631  -6.624  10.660  1.00  0.00     0.022 A 
BRANCH  83  87
ATOM     87  S   UNL     1      -4.895  -6.831  10.196  1.00  0.00     0.124 S 
ATOM     88  O   UNL     1      -4.423  -5.861   9.213  1.00  0.00    -0.237 OA
ATOM     89  O   UNL     1      -4.084  -6.981  11.399  1.00  0.00    -0.237 OA
ATOM     90  O   UNL     1      -5.399  -8.084   9.634  1.00  0.00    -0.744 OA
ENDBRANCH  83  87
ENDBRANCH  66  80
BRANCH  67  91
ATOM     91  C   UNL     1      -6.102   5.405  14.007  1.00  0.00     0.023 A 
ATOM     92  C   UNL     1      -6.269   6.591  13.257  1.00  0.00     0.031 A 
ATOM     93  C   UNL     1      -7.098   5.073  14.937  1.00  0.00     0.131 A 
ATOM     94  C   UNL     1      -7.486   7.291  13.305  1.00  0.00     0.055 A 
ATOM     95  C   UNL     1      -8.290   5.805  15.014  1.00  0.00     0.041 A 
ATOM     96  F   UNL     1      -7.001   3.960  15.678  1.00  0.00    -0.206 F 
ATOM     97  C   UNL     1      -8.514   6.878  14.153  1.00  0.00     0.022 A 
BRANCH  94  98
ATOM     98  S   UNL     1      -7.827   8.576  12.068  1.00  0.00     0.124 S 
ATOM     99  O   UNL     1      -7.438   9.795  12.767  1.00  0.00    -0.237 OA
ATOM    100  O   UNL     1      -6.968   8.193  10.950  1.00  0.00    -0.237 OA
ATOM    101  O   UNL     1      -9.259   8.424  11.812  1.00  0.00    -0.744 OA
ENDBRANCH  94  98
ENDBRANCH  67  91
BRANCH  79 102
ATOM    102  C   UNL     1      -3.259  -0.842  16.168  1.00  0.00     0.023 A 
ATOM    103  C   UNL     1      -2.959  -0.256  17.401  1.00  0.00     0.031 A 
ATOM    104  C   UNL     1      -3.044  -2.239  16.086  1.00  0.00     0.131 A 
ATOM    105  C   UNL     1      -2.334  -0.987  18.420  1.00  0.00     0.055 A 
ATOM    106  C   UNL     1      -2.545  -2.994  17.151  1.00  0.00     0.041 A 
ATOM    107  F   UNL     1      -3.315  -2.937  14.974  1.00  0.00    -0.206 F 
ATOM    108  C   UNL     1      -2.151  -2.361  18.319  1.00  0.00     0.022 A 
BRANCH 105 109
ATOM    109  S   UNL     1      -1.640  -0.054  19.804  1.00  0.00     0.124 S 
ATOM    110  O   UNL     1      -0.675   0.808  19.125  1.00  0.00    -0.237 OA
ATOM    111  O   UNL     1      -2.813   0.620  20.351  1.00  0.00    -0.237 OA
ATOM    112  O   UNL     1      -1.057  -1.087  20.657  1.00  0.00    -0.744 OA
ENDBRANCH 105 109
ENDBRANCH  79 102
ENDBRANCH  53  54
ENDBRANCH  45  48
ENDBRANCH  43  44
ENDBRANCH  42  43
ENDBRANCH  41  42
ENDBRANCH  40  41
ENDBRANCH   1  40
TORSDOF 23
