REMARK SMILES CC(=O)Oc1cc(CCC(=O)NCCCCCCNC(=O)c2ccc(-c3c4nc(c(-c5cc(S(=O)(=O)[O-])ccc5F)c5ccc([nH]5)c(-c5cc(S(=O)(=O)[O-])ccc5F)c5nc(c(-c6cc(S(=O)(=O)[O-])ccc6F)c6ccc3[nH]6)C=C5)C=C4)cc2)c(OC(C)=O)c2c1C(=O)c1ccccc1C2=O
REMARK SMILES IDX 15 1 14 2 13 3 12 4 10 5 11 6 9 8 8 9 7 10 5 11 6 12 91 13
REMARK SMILES IDX 90 14 92 15 85 16 100 17 93 18 94 19 99 20 101 21 95 22
REMARK SMILES IDX 98 23 96 24 97 25 4 26 2 27 1 28 3 29 86 30 87 31 88 32
REMARK SMILES IDX 89 33 16 34 17 35 18 36 19 37 20 38 21 40 22 41 23 42 84 43
REMARK SMILES IDX 24 44 83 45 25 46 26 47 27 48 77 49 28 50 82 51 76 52 78 53
REMARK SMILES IDX 29 54 81 55 75 56 74 57 30 59 62 60 42 61 61 62 43 63 46 64
REMARK SMILES IDX 60 65 79 66 44 67 45 68 59 70 80 71 47 72 31 73 32 74 40 75
REMARK SMILES IDX 33 76 39 77 41 78 38 79 34 80 35 81 36 82 37 83 63 84 64 85
REMARK SMILES IDX 72 86 65 87 71 88 73 89 70 90 66 91 67 92 68 93 69 94 48 95
REMARK SMILES IDX 49 96 57 97 50 98 56 99 58 100 55 101 51 102 52 103 53 104
REMARK SMILES IDX 54 105
REMARK H PARENT 12 7 19 39 78 58 46 69
REMARK Flexibility Score: inf
ROOT
ATOM      1  C   UNL     1      -2.812   5.351  -3.936  1.00  0.00     0.002 C 
ENDROOT
BRANCH   1   2
ATOM      2  C   UNL     1      -1.493   5.418  -3.174  1.00  0.00     0.021 C 
BRANCH   2   3
ATOM      3  C   UNL     1      -0.195   5.426  -3.977  1.00  0.00     0.116 C 
BRANCH   3   4
ATOM      4  N   UNL     1       0.319   6.784  -4.104  1.00  0.00    -0.356 N 
ATOM      5  C   UNL     1       1.303   7.426  -3.417  1.00  0.00     0.220 C 
ATOM      6  O   UNL     1       1.461   8.632  -3.623  1.00  0.00    -0.275 OA
ATOM      7  H   UNL     1      -0.118   7.326  -4.800  1.00  0.00     0.163 HD
BRANCH   5   8
ATOM      8  C   UNL     1       2.225   6.683  -2.466  1.00  0.00     0.105 C 
BRANCH   8   9
ATOM      9  C   UNL     1       1.929   6.837  -0.970  1.00  0.00     0.049 C 
BRANCH   9  10
ATOM     10  C   UNL     1       0.835   5.962  -0.421  1.00  0.00    -0.000 A 
ATOM     11  C   UNL     1       0.142   3.766   0.375  1.00  0.00     0.143 A 
ATOM     12  C   UNL     1       1.137   4.635  -0.095  1.00  0.00     0.055 A 
ATOM     13  C   UNL     1      -1.190   4.185   0.532  1.00  0.00     0.080 A 
ATOM     14  C   UNL     1      -1.532   5.488   0.153  1.00  0.00     0.081 A 
ATOM     15  C   UNL     1      -2.231   3.262   1.048  1.00  0.00     0.198 C 
ATOM     16  C   UNL     1      -0.498   6.367  -0.255  1.00  0.00     0.146 A 
ATOM     17  C   UNL     1      -2.970   5.832   0.007  1.00  0.00     0.198 C 
ATOM     18  O   UNL     1      -1.933   2.194   1.566  1.00  0.00    -0.288 OA
ATOM     19  C   UNL     1      -3.653   3.608   0.868  1.00  0.00     0.034 A 
ATOM     20  C   UNL     1      -3.997   4.799   0.241  1.00  0.00     0.034 A 
ATOM     21  O   UNL     1      -3.335   6.939  -0.358  1.00  0.00    -0.288 OA
ATOM     22  C   UNL     1      -4.649   2.685   1.206  1.00  0.00     0.013 A 
ATOM     23  C   UNL     1      -5.318   5.006  -0.182  1.00  0.00     0.013 A 
ATOM     24  C   UNL     1      -5.968   2.897   0.797  1.00  0.00     0.001 A 
ATOM     25  C   UNL     1      -6.294   4.040   0.070  1.00  0.00     0.001 A 
BRANCH  11  26
ATOM     26  O   UNL     1       0.553   2.457   0.656  1.00  0.00    -0.426 OA
BRANCH  26  27
ATOM     27  C   UNL     1       0.324   1.591  -0.410  1.00  0.00     0.308 C 
ATOM     28  C   UNL     1       0.790   0.213  -0.039  1.00  0.00     0.139 C 
ATOM     29  O   UNL     1      -0.123   1.907  -1.507  1.00  0.00    -0.252 OA
ENDBRANCH  26  27
ENDBRANCH  11  26
BRANCH  16  30
ATOM     30  O   UNL     1      -0.855   7.785  -0.625  1.00  0.00    -0.426 OA
BRANCH  30  31
ATOM     31  C   UNL     1      -1.123   9.157  -0.980  1.00  0.00     0.308 C 
ATOM     32  C   UNL     1       0.115   9.993  -0.920  1.00  0.00     0.139 C 
ATOM     33  O   UNL     1      -2.236   9.591  -1.238  1.00  0.00    -0.252 OA
ENDBRANCH  30  31
ENDBRANCH  16  30
ENDBRANCH   9  10
ENDBRANCH   8   9
ENDBRANCH   5   8
ENDBRANCH   3   4
ENDBRANCH   2   3
ENDBRANCH   1   2
BRANCH   1  34
ATOM     34  C   UNL     1      -3.145   4.045  -4.661  1.00  0.00     0.002 C 
BRANCH  34  35
ATOM     35  C   UNL     1      -2.781   2.715  -3.986  1.00  0.00     0.021 C 
BRANCH  35  36
ATOM     36  C   UNL     1      -3.632   2.256  -2.799  1.00  0.00     0.116 C 
BRANCH  36  37
ATOM     37  N   UNL     1      -5.037   2.065  -3.123  1.00  0.00    -0.352 N 
ATOM     38  C   UNL     1      -5.926   1.054  -2.842  1.00  0.00     0.251 C 
ATOM     39  H   UNL     1      -5.427   2.803  -3.646  1.00  0.00     0.163 HD
ATOM     40  O   UNL     1      -7.057   1.140  -3.325  1.00  0.00    -0.269 OA
BRANCH  38  41
ATOM     41  C   UNL     1      -5.591  -0.133  -2.007  1.00  0.00     0.039 A 
ATOM     42  C   UNL     1      -6.218  -1.350  -2.309  1.00  0.00     0.014 A 
ATOM     43  C   UNL     1      -4.739  -0.080  -0.903  1.00  0.00     0.014 A 
ATOM     44  C   UNL     1      -5.943  -2.498  -1.556  1.00  0.00     0.010 A 
ATOM     45  C   UNL     1      -4.441  -1.230  -0.160  1.00  0.00     0.010 A 
ATOM     46  C   UNL     1      -5.020  -2.457  -0.497  1.00  0.00    -0.014 A 
BRANCH  46  47
ATOM     47  C   UNL     1      -4.530  -3.725   0.108  1.00  0.00     0.031 A 
ATOM     48  C   UNL     1      -4.853  -4.131   1.517  1.00  0.00     0.074 A 
ATOM     49  C   UNL     1      -3.736  -4.504  -0.653  1.00  0.00     0.049 A 
ATOM     50  N   UNL     1      -4.599  -5.263   2.125  1.00  0.00    -0.248 NA
ATOM     51  C   UNL     1      -5.515  -3.130   2.363  1.00  0.00     0.031 C 
ATOM     52  C   UNL     1      -3.274  -4.155  -2.000  1.00  0.00     0.029 A 
ATOM     53  N   UNL     1      -3.192  -5.741  -0.427  1.00  0.00    -0.354 N 
ATOM     54  C   UNL     1      -5.081  -5.122   3.423  1.00  0.00     0.074 A 
ATOM     55  C   UNL     1      -5.586  -3.767   3.526  1.00  0.00     0.031 C 
ATOM     56  C   UNL     1      -2.572  -5.179  -2.503  1.00  0.00     0.029 A 
ATOM     57  C   UNL     1      -2.505  -6.243  -1.508  1.00  0.00     0.049 A 
ATOM     58  H   UNL     1      -3.284  -6.224   0.426  1.00  0.00     0.167 HD
ATOM     59  C   UNL     1      -5.111  -6.045   4.421  1.00  0.00     0.034 A 
ATOM     60  C   UNL     1      -1.905  -7.435  -1.692  1.00  0.00     0.034 A 
ATOM     61  C   UNL     1      -4.572  -7.383   4.291  1.00  0.00     0.049 A 
ATOM     62  C   UNL     1      -1.983  -8.453  -0.587  1.00  0.00     0.074 A 
ATOM     63  C   UNL     1      -4.606  -8.423   5.205  1.00  0.00     0.029 A 
ATOM     64  N   UNL     1      -3.881  -7.863   3.182  1.00  0.00    -0.354 N 
ATOM     65  N   UNL     1      -2.542  -8.346   0.597  1.00  0.00    -0.248 NA
ATOM     66  C   UNL     1      -1.371  -9.759  -0.853  1.00  0.00     0.031 C 
ATOM     67  C   UNL     1      -3.871  -9.496   4.685  1.00  0.00     0.029 A 
ATOM     68  C   UNL     1      -3.453  -9.165   3.406  1.00  0.00     0.049 A 
ATOM     69  H   UNL     1      -3.719  -7.352   2.356  1.00  0.00     0.167 HD
ATOM     70  C   UNL     1      -2.367  -9.582   1.210  1.00  0.00     0.074 A 
ATOM     71  C   UNL     1      -1.681 -10.424   0.249  1.00  0.00     0.031 C 
ATOM     72  C   UNL     1      -2.736  -9.985   2.454  1.00  0.00     0.034 A 
BRANCH  59  73
ATOM     73  C   UNL     1      -5.727  -5.635   5.744  1.00  0.00     0.023 A 
ATOM     74  C   UNL     1      -7.070  -5.227   5.840  1.00  0.00     0.031 A 
ATOM     75  C   UNL     1      -4.968  -5.652   6.929  1.00  0.00     0.131 A 
ATOM     76  C   UNL     1      -7.589  -4.785   7.068  1.00  0.00     0.055 A 
ATOM     77  C   UNL     1      -5.514  -5.292   8.165  1.00  0.00     0.041 A 
ATOM     78  F   UNL     1      -3.675  -6.014   6.909  1.00  0.00    -0.206 F 
ATOM     79  C   UNL     1      -6.828  -4.840   8.237  1.00  0.00     0.022 A 
BRANCH  76  80
ATOM     80  S   UNL     1      -9.225  -4.002   7.087  1.00  0.00     0.124 S 
ATOM     81  O   UNL     1      -9.042  -2.911   6.132  1.00  0.00    -0.237 OA
ATOM     82  O   UNL     1     -10.099  -5.087   6.657  1.00  0.00    -0.237 OA
ATOM     83  O   UNL     1      -9.388  -3.581   8.477  1.00  0.00    -0.744 OA
ENDBRANCH  76  80
ENDBRANCH  59  73
BRANCH  60  84
ATOM     84  C   UNL     1      -1.222  -7.736  -2.982  1.00  0.00     0.023 A 
ATOM     85  C   UNL     1      -1.694  -8.746  -3.835  1.00  0.00     0.031 A 
ATOM     86  C   UNL     1      -0.084  -7.014  -3.383  1.00  0.00     0.131 A 
ATOM     87  C   UNL     1      -1.011  -9.032  -5.027  1.00  0.00     0.055 A 
ATOM     88  C   UNL     1       0.559  -7.263  -4.597  1.00  0.00     0.041 A 
ATOM     89  F   UNL     1       0.404  -6.030  -2.610  1.00  0.00    -0.206 F 
ATOM     90  C   UNL     1       0.102  -8.286  -5.421  1.00  0.00     0.022 A 
BRANCH  87  91
ATOM     91  S   UNL     1      -1.552 -10.448  -6.022  1.00  0.00     0.124 S 
ATOM     92  O   UNL     1      -1.458 -11.541  -5.061  1.00  0.00    -0.237 OA
ATOM     93  O   UNL     1      -2.901 -10.048  -6.409  1.00  0.00    -0.237 OA
ATOM     94  O   UNL     1      -0.580 -10.489  -7.111  1.00  0.00    -0.744 OA
ENDBRANCH  87  91
ENDBRANCH  60  84
BRANCH  72  95
ATOM     95  C   UNL     1      -2.408 -11.414   2.825  1.00  0.00     0.023 A 
ATOM     96  C   UNL     1      -1.079 -11.869   2.899  1.00  0.00     0.031 A 
ATOM     97  C   UNL     1      -3.436 -12.346   3.048  1.00  0.00     0.131 A 
ATOM     98  C   UNL     1      -0.815 -13.232   3.099  1.00  0.00     0.055 A 
ATOM     99  C   UNL     1      -3.166 -13.688   3.325  1.00  0.00     0.041 A 
ATOM    100  F   UNL     1      -4.724 -11.973   2.986  1.00  0.00    -0.206 F 
ATOM    101  C   UNL     1      -1.850 -14.142   3.331  1.00  0.00     0.022 A 
BRANCH  98 102
ATOM    102  S   UNL     1       0.889 -13.823   2.907  1.00  0.00     0.124 S 
ATOM    103  O   UNL     1       1.213 -13.378   1.556  1.00  0.00    -0.237 OA
ATOM    104  O   UNL     1       1.583 -13.132   3.989  1.00  0.00    -0.237 OA
ATOM    105  O   UNL     1       0.771 -15.271   3.071  1.00  0.00    -0.744 OA
ENDBRANCH  98 102
ENDBRANCH  72  95
ENDBRANCH  46  47
ENDBRANCH  38  41
ENDBRANCH  36  37
ENDBRANCH  35  36
ENDBRANCH  34  35
ENDBRANCH   1  34
TORSDOF 22
