REMARK SMILES COc1ccc2c(c1)C=C(C(=O)NCCCCCCNC(=O)c1ccc(-c3c4nc(c(-c5cc(S(=O)(=O)[O-])ccc5F)c5ccc([nH]5)c(-c5cc(S(=O)(=O)[O-])ccc5F)c5nc(c(-c6cc(S(=O)(=O)[O-])ccc6F)c6ccc3[nH]6)C=C5)C=C4)cc1)[C@H](C(F)(F)F)O2
REMARK SMILES IDX 17 1 16 2 15 3 14 4 13 5 11 6 12 7 10 9 3 10 4 11 8 12 5 13
REMARK SMILES IDX 7 14 6 15 9 16 91 17 86 18 2 19 1 20 87 21 88 22 89 23 90 24
REMARK SMILES IDX 18 25 19 26 20 27 21 28 22 30 23 31 24 32 85 33 25 34 84 35
REMARK SMILES IDX 26 36 27 37 28 38 78 39 29 40 83 41 77 42 79 43 30 44 82 45
REMARK SMILES IDX 76 46 75 47 31 49 63 50 43 51 62 52 44 53 47 54 61 55 80 56
REMARK SMILES IDX 45 57 46 58 60 60 81 61 48 62 32 63 33 64 41 65 34 66 40 67
REMARK SMILES IDX 42 68 39 69 35 70 36 71 37 72 38 73 64 74 65 75 73 76 66 77
REMARK SMILES IDX 72 78 74 79 71 80 67 81 68 82 69 83 70 84 49 85 50 86 58 87
REMARK SMILES IDX 51 88 57 89 59 90 56 91 52 92 53 93 54 94 55 95
REMARK H PARENT 13 8 20 29 79 48 47 59
REMARK Flexibility Score: inf
ROOT
ATOM      1  C   UNL     1      -5.909   6.092  -5.299  1.00  0.00     0.002 C 
ENDROOT
BRANCH   1   2
ATOM      2  C   UNL     1      -5.340   6.472  -3.927  1.00  0.00     0.002 C 
BRANCH   2   3
ATOM      3  C   UNL     1      -4.132   5.633  -3.482  1.00  0.00     0.021 C 
BRANCH   3   4
ATOM      4  C   UNL     1      -2.908   5.819  -4.387  1.00  0.00     0.116 C 
BRANCH   4   5
ATOM      5  N   UNL     1      -2.248   7.070  -4.050  1.00  0.00    -0.352 N 
ATOM      6  C   UNL     1      -1.225   7.378  -3.213  1.00  0.00     0.251 C 
ATOM      7  O   UNL     1      -1.036   8.564  -2.950  1.00  0.00    -0.270 OA
ATOM      8  H   UNL     1      -2.616   7.849  -4.525  1.00  0.00     0.163 HD
BRANCH   6   9
ATOM      9  C   UNL     1      -0.277   6.363  -2.683  1.00  0.00     0.067 C 
ATOM     10  C   UNL     1       0.985   1.894  -1.372  1.00  0.00     0.119 A 
ATOM     11  C   UNL     1       2.330   2.260  -1.377  1.00  0.00     0.050 A 
ATOM     12  C   UNL     1      -0.001   2.836  -1.663  1.00  0.00     0.058 A 
ATOM     13  C   UNL     1       2.684   3.580  -1.663  1.00  0.00     0.051 A 
ATOM     14  C   UNL     1       0.353   4.160  -1.939  1.00  0.00     0.021 A 
ATOM     15  C   UNL     1       1.697   4.525  -1.948  1.00  0.00     0.128 A 
ATOM     16  C   UNL     1      -0.660   5.127  -2.330  1.00  0.00     0.025 C 
ATOM     17  O   UNL     1       2.130   5.766  -2.306  1.00  0.00    -0.475 OA
ATOM     18  C   UNL     1       1.148   6.839  -2.410  1.00  0.00     0.314 C 
BRANCH  10  19
ATOM     19  O   UNL     1       0.569   0.603  -1.205  1.00  0.00    -0.497 OA
ATOM     20  C   UNL     1       1.000   0.041   0.031  1.00  0.00     0.278 C 
ENDBRANCH  10  19
BRANCH  18  21
ATOM     21  C   UNL     1       1.737   7.895  -3.375  1.00  0.00     0.429 C 
ATOM     22  F   UNL     1       1.385   9.160  -3.051  1.00  0.00    -0.167 F 
ATOM     23  F   UNL     1       3.099   7.886  -3.330  1.00  0.00    -0.167 F 
ATOM     24  F   UNL     1       1.393   7.673  -4.664  1.00  0.00    -0.167 F 
ENDBRANCH  18  21
ENDBRANCH   6   9
ENDBRANCH   4   5
ENDBRANCH   3   4
ENDBRANCH   2   3
ENDBRANCH   1   2
BRANCH   1  25
ATOM     25  C   UNL     1      -6.299   4.619  -5.447  1.00  0.00     0.021 C 
BRANCH  25  26
ATOM     26  C   UNL     1      -7.388   4.163  -4.482  1.00  0.00     0.116 C 
BRANCH  26  27
ATOM     27  N   UNL     1      -8.648   4.838  -4.747  1.00  0.00    -0.352 N 
ATOM     28  C   UNL     1      -9.870   4.297  -5.062  1.00  0.00     0.251 C 
ATOM     29  H   UNL     1      -8.621   5.821  -4.694  1.00  0.00     0.163 HD
ATOM     30  O   UNL     1     -10.754   5.014  -5.517  1.00  0.00    -0.269 OA
BRANCH  28  31
ATOM     31  C   UNL     1     -10.106   2.850  -4.860  1.00  0.00     0.039 A 
ATOM     32  C   UNL     1     -10.797   2.132  -5.838  1.00  0.00     0.014 A 
ATOM     33  C   UNL     1      -9.664   2.211  -3.698  1.00  0.00     0.014 A 
ATOM     34  C   UNL     1     -11.008   0.762  -5.668  1.00  0.00     0.010 A 
ATOM     35  C   UNL     1      -9.809   0.833  -3.566  1.00  0.00     0.010 A 
ATOM     36  C   UNL     1     -10.495   0.096  -4.543  1.00  0.00    -0.014 A 
BRANCH  36  37
ATOM     37  C   UNL     1     -10.696  -1.365  -4.357  1.00  0.00     0.031 A 
ATOM     38  C   UNL     1     -11.509  -1.869  -3.195  1.00  0.00     0.074 A 
ATOM     39  C   UNL     1     -10.110  -2.234  -5.204  1.00  0.00     0.049 A 
ATOM     40  N   UNL     1     -11.755  -3.101  -2.827  1.00  0.00    -0.248 NA
ATOM     41  C   UNL     1     -12.097  -0.851  -2.312  1.00  0.00     0.031 C 
ATOM     42  C   UNL     1      -9.268  -1.864  -6.343  1.00  0.00     0.029 A 
ATOM     43  N   UNL     1     -10.128  -3.605  -5.237  1.00  0.00    -0.354 N 
ATOM     44  C   UNL     1     -12.515  -3.005  -1.666  1.00  0.00     0.074 A 
ATOM     45  C   UNL     1     -12.626  -1.596  -1.355  1.00  0.00     0.031 C 
ATOM     46  C   UNL     1      -8.876  -2.979  -6.980  1.00  0.00     0.029 A 
ATOM     47  C   UNL     1      -9.398  -4.143  -6.271  1.00  0.00     0.049 A 
ATOM     48  H   UNL     1     -10.617  -4.153  -4.582  1.00  0.00     0.167 HD
ATOM     49  C   UNL     1     -13.090  -3.999  -0.943  1.00  0.00     0.034 A 
ATOM     50  C   UNL     1      -9.168  -5.429  -6.606  1.00  0.00     0.034 A 
ATOM     51  C   UNL     1     -12.975  -5.398  -1.276  1.00  0.00     0.049 A 
ATOM     52  C   UNL     1      -9.794  -6.518  -5.772  1.00  0.00     0.074 A 
ATOM     53  C   UNL     1     -13.553  -6.486  -0.645  1.00  0.00     0.029 A 
ATOM     54  N   UNL     1     -12.223  -5.907  -2.328  1.00  0.00    -0.354 N 
ATOM     55  N   UNL     1     -10.552  -6.411  -4.704  1.00  0.00    -0.248 NA
ATOM     56  C   UNL     1      -9.543  -7.901  -6.196  1.00  0.00     0.031 C 
ATOM     57  C   UNL     1     -13.095  -7.651  -1.269  1.00  0.00     0.029 A 
ATOM     58  C   UNL     1     -12.297  -7.292  -2.343  1.00  0.00     0.049 A 
ATOM     59  H   UNL     1     -11.712  -5.362  -2.970  1.00  0.00     0.167 HD
ATOM     60  C   UNL     1     -10.896  -7.713  -4.351  1.00  0.00     0.074 A 
ATOM     61  C   UNL     1     -10.274  -8.584  -5.327  1.00  0.00     0.031 C 
ATOM     62  C   UNL     1     -11.661  -8.149  -3.317  1.00  0.00     0.034 A 
BRANCH  49  63
ATOM     63  C   UNL     1     -13.867  -3.598   0.291  1.00  0.00     0.023 A 
ATOM     64  C   UNL     1     -14.999  -2.767   0.213  1.00  0.00     0.031 A 
ATOM     65  C   UNL     1     -13.450  -4.019   1.566  1.00  0.00     0.131 A 
ATOM     66  C   UNL     1     -15.618  -2.312   1.387  1.00  0.00     0.055 A 
ATOM     67  C   UNL     1     -14.127  -3.636   2.727  1.00  0.00     0.041 A 
ATOM     68  F   UNL     1     -12.364  -4.795   1.710  1.00  0.00    -0.206 F 
ATOM     69  C   UNL     1     -15.207  -2.762   2.643  1.00  0.00     0.022 A 
BRANCH  66  70
ATOM     70  S   UNL     1     -16.860  -0.996   1.255  1.00  0.00     0.124 S 
ATOM     71  O   UNL     1     -16.096   0.064   0.599  1.00  0.00    -0.237 OA
ATOM     72  O   UNL     1     -17.902  -1.624   0.452  1.00  0.00    -0.237 OA
ATOM     73  O   UNL     1     -17.220  -0.724   2.645  1.00  0.00    -0.744 OA
ENDBRANCH  66  70
ENDBRANCH  49  63
BRANCH  50  74
ATOM     74  C   UNL     1      -8.309  -5.762  -7.778  1.00  0.00     0.023 A 
ATOM     75  C   UNL     1      -8.839  -6.421  -8.899  1.00  0.00     0.031 A 
ATOM     76  C   UNL     1      -6.936  -5.458  -7.780  1.00  0.00     0.131 A 
ATOM     77  C   UNL     1      -7.993  -6.798  -9.954  1.00  0.00     0.055 A 
ATOM     78  C   UNL     1      -6.109  -5.786  -8.856  1.00  0.00     0.041 A 
ATOM     79  F   UNL     1      -6.379  -4.824  -6.736  1.00  0.00    -0.206 F 
ATOM     80  C   UNL     1      -6.635  -6.472  -9.947  1.00  0.00     0.022 A 
BRANCH  77  81
ATOM     81  S   UNL     1      -8.680  -7.796 -11.303  1.00  0.00     0.124 S 
ATOM     82  O   UNL     1      -9.174  -8.966 -10.585  1.00  0.00    -0.237 OA
ATOM     83  O   UNL     1      -9.695  -6.904 -11.853  1.00  0.00    -0.237 OA
ATOM     84  O   UNL     1      -7.528  -8.035 -12.169  1.00  0.00    -0.744 OA
ENDBRANCH  77  81
ENDBRANCH  50  74
BRANCH  62  85
ATOM     85  C   UNL     1     -11.903  -9.637  -3.223  1.00  0.00     0.023 A 
ATOM     86  C   UNL     1     -10.862 -10.543  -2.955  1.00  0.00     0.031 A 
ATOM     87  C   UNL     1     -13.196 -10.155  -3.418  1.00  0.00     0.131 A 
ATOM     88  C   UNL     1     -11.121 -11.922  -2.950  1.00  0.00     0.055 A 
ATOM     89  C   UNL     1     -13.460 -11.523  -3.346  1.00  0.00     0.041 A 
ATOM     90  F   UNL     1     -14.228  -9.336  -3.680  1.00  0.00    -0.206 F 
ATOM     91  C   UNL     1     -12.416 -12.417  -3.125  1.00  0.00     0.022 A 
BRANCH  88  92
ATOM     92  S   UNL     1      -9.723 -13.070  -2.810  1.00  0.00     0.124 S 
ATOM     93  O   UNL     1      -8.902 -12.688  -3.955  1.00  0.00    -0.237 OA
ATOM     94  O   UNL     1      -9.178 -12.740  -1.497  1.00  0.00    -0.237 OA
ATOM     95  O   UNL     1     -10.349 -14.387  -2.907  1.00  0.00    -0.744 OA
ENDBRANCH  88  92
ENDBRANCH  62  85
ENDBRANCH  36  37
ENDBRANCH  28  31
ENDBRANCH  26  27
ENDBRANCH  25  26
ENDBRANCH   1  25
TORSDOF 18
