REMARK SMILES CC[C@@H](C)NC(=O)[C@H](C)[NH+]1CC(n2cc(C(=O)NCCCCCCNC(=O)c3ccc(-c4c5nc(c(-c6cc(S(=O)(=O)[O-])ccc6F)c6ccc([nH]6)c(-c6cc(S(=O)(=O)[O-])ccc6F)c6nc(c(-c7cc(S(=O)(=O)[O-])ccc7F)c7ccc4[nH]7)C=C6)C=C5)cc3)nn2)C1
REMARK SMILES IDX 20 1 19 2 18 3 16 4 17 5 15 7 13 8 14 9 92 10 91 11 12 12
REMARK SMILES IDX 10 13 11 14 93 15 8 17 9 18 6 19 5 20 7 22 3 23 4 24 2 25
REMARK SMILES IDX 1 26 21 27 22 28 23 29 24 30 25 31 26 32 27 34 28 35 29 36
REMARK SMILES IDX 90 37 30 38 89 39 31 40 32 41 33 42 83 43 34 44 88 45 82 46
REMARK SMILES IDX 84 47 35 48 87 49 81 50 80 51 36 53 68 54 48 55 67 56 49 57
REMARK SMILES IDX 52 58 66 59 85 60 50 61 51 62 65 64 86 65 53 66 37 67 38 68
REMARK SMILES IDX 46 69 39 70 45 71 47 72 44 73 40 74 41 75 42 76 43 77 69 78
REMARK SMILES IDX 70 79 78 80 71 81 77 82 79 83 76 84 72 85 73 86 74 87 75 88
REMARK SMILES IDX 54 89 55 90 63 91 56 92 62 93 64 94 61 95 57 96 58 97 59 98
REMARK SMILES IDX 60 99
REMARK H PARENT 18 6 10 16 5 21 25 33 84 52 52 63
REMARK Flexibility Score: inf
ROOT
ATOM      1  C   UNL     1      -0.216  -1.821   8.424  1.00  0.00     0.021 C 
ENDROOT
BRANCH   1   2
ATOM      2  C   UNL     1      -0.877  -1.722   7.050  1.00  0.00     0.116 C 
BRANCH   2   3
ATOM      3  N   UNL     1      -1.087  -0.340   6.679  1.00  0.00    -0.351 N 
ATOM      4  C   UNL     1      -0.566   0.424   5.664  1.00  0.00     0.273 C 
ATOM      5  O   UNL     1      -1.031   1.557   5.534  1.00  0.00    -0.267 OA
ATOM      6  H   UNL     1      -1.720   0.141   7.260  1.00  0.00     0.163 HD
BRANCH   4   7
ATOM      7  C   UNL     1       0.439  -0.104   4.748  1.00  0.00     0.170 A 
ATOM      8  N   UNL     1       1.963  -1.200   3.652  1.00  0.00    -0.237 N 
ATOM      9  C   UNL     1       1.412  -1.077   4.899  1.00  0.00     0.145 A 
ATOM     10  N   UNL     1       1.444  -0.298   2.807  1.00  0.00    -0.066 NA
ATOM     11  N   UNL     1       0.534   0.397   3.468  1.00  0.00    -0.125 NA
BRANCH   8  12
ATOM     12  C   UNL     1       2.926  -2.193   3.277  1.00  0.00     0.218 C 
ATOM     13  N   UNL     1       3.265  -3.671   1.823  1.00  0.00    -0.321 N 
ATOM     14  C   UNL     1       3.324  -2.184   1.784  1.00  0.00     0.296 C 
ATOM     15  C   UNL     1       2.256  -3.543   2.913  1.00  0.00     0.296 C 
ATOM     16  H   UNL     1       4.113  -4.228   1.932  1.00  0.00     0.348 HD
BRANCH  13  17
ATOM     17  C   UNL     1       2.767  -4.336   0.587  1.00  0.00     0.271 C 
ATOM     18  C   UNL     1       1.280  -4.684   0.470  1.00  0.00     0.086 C 
BRANCH  17  19
ATOM     19  C   UNL     1       3.182  -3.608  -0.715  1.00  0.00     0.278 C 
ATOM     20  N   UNL     1       3.993  -4.196  -1.636  1.00  0.00    -0.349 N 
ATOM     21  H   UNL     1       4.312  -3.587  -2.341  1.00  0.00     0.163 HD
ATOM     22  O   UNL     1       2.755  -2.489  -1.018  1.00  0.00    -0.268 OA
BRANCH  20  23
ATOM     23  C   UNL     1       4.476  -5.566  -1.766  1.00  0.00     0.078 C 
ATOM     24  C   UNL     1       5.978  -5.531  -2.038  1.00  0.00     0.031 C 
BRANCH  23  25
ATOM     25  C   UNL     1       3.683  -6.254  -2.891  1.00  0.00     0.021 C 
ATOM     26  C   UNL     1       4.021  -7.725  -3.072  1.00  0.00     0.006 C 
ENDBRANCH  23  25
ENDBRANCH  20  23
ENDBRANCH  17  19
ENDBRANCH  13  17
ENDBRANCH   8  12
ENDBRANCH   4   7
ENDBRANCH   2   3
ENDBRANCH   1   2
BRANCH   1  27
ATOM     27  C   UNL     1      -1.179  -1.570   9.592  1.00  0.00     0.002 C 
BRANCH  27  28
ATOM     28  C   UNL     1      -2.423  -2.472   9.635  1.00  0.00     0.002 C 
BRANCH  28  29
ATOM     29  C   UNL     1      -2.166  -3.981   9.505  1.00  0.00     0.021 C 
BRANCH  29  30
ATOM     30  C   UNL     1      -1.401  -4.576  10.680  1.00  0.00     0.116 C 
BRANCH  30  31
ATOM     31  N   UNL     1      -2.189  -4.545  11.906  1.00  0.00    -0.352 N 
ATOM     32  C   UNL     1      -1.820  -4.929  13.179  1.00  0.00     0.251 C 
ATOM     33  H   UNL     1      -3.109  -4.205  11.813  1.00  0.00     0.163 HD
ATOM     34  O   UNL     1      -2.674  -5.219  14.002  1.00  0.00    -0.269 OA
BRANCH  32  35
ATOM     35  C   UNL     1      -0.386  -4.990  13.525  1.00  0.00     0.039 A 
ATOM     36  C   UNL     1       0.104  -6.027  14.325  1.00  0.00     0.014 A 
ATOM     37  C   UNL     1       0.469  -3.998  13.046  1.00  0.00     0.014 A 
ATOM     38  C   UNL     1       1.474  -6.105  14.566  1.00  0.00     0.010 A 
ATOM     39  C   UNL     1       1.831  -4.132  13.197  1.00  0.00     0.010 A 
ATOM     40  C   UNL     1       2.338  -5.168  13.978  1.00  0.00    -0.014 A 
BRANCH  40  41
ATOM     41  C   UNL     1       3.787  -5.366  14.023  1.00  0.00     0.031 A 
ATOM     42  C   UNL     1       4.240  -6.674  13.479  1.00  0.00     0.074 A 
ATOM     43  C   UNL     1       4.668  -4.379  14.297  1.00  0.00     0.049 A 
ATOM     44  N   UNL     1       4.781  -7.646  14.132  1.00  0.00    -0.248 NA
ATOM     45  C   UNL     1       3.909  -7.015  12.085  1.00  0.00     0.031 C 
ATOM     46  C   UNL     1       4.374  -2.975  14.589  1.00  0.00     0.029 A 
ATOM     47  N   UNL     1       6.031  -4.395  14.245  1.00  0.00    -0.354 N 
ATOM     48  C   UNL     1       5.100  -8.617  13.188  1.00  0.00     0.074 A 
ATOM     49  C   UNL     1       4.344  -8.276  12.013  1.00  0.00     0.031 C 
ATOM     50  C   UNL     1       5.498  -2.240  14.447  1.00  0.00     0.029 A 
ATOM     51  C   UNL     1       6.618  -3.130  14.191  1.00  0.00     0.049 A 
ATOM     52  H   UNL     1       6.556  -5.228  14.246  1.00  0.00     0.167 HD
ATOM     53  C   UNL     1       6.151  -9.462  13.382  1.00  0.00     0.034 A 
ATOM     54  C   UNL     1       7.918  -2.828  13.919  1.00  0.00     0.034 A 
ATOM     55  C   UNL     1       6.595  -9.415  14.762  1.00  0.00     0.049 A 
ATOM     56  C   UNL     1       8.710  -4.040  14.250  1.00  0.00     0.074 A 
ATOM     57  C   UNL     1       5.975  -9.615  15.981  1.00  0.00     0.029 A 
ATOM     58  N   UNL     1       7.755  -8.725  15.048  1.00  0.00    -0.354 N 
ATOM     59  N   UNL     1       8.827  -4.500  15.466  1.00  0.00    -0.248 NA
ATOM     60  C   UNL     1       8.952  -5.018  13.198  1.00  0.00     0.031 C 
ATOM     61  C   UNL     1       6.505  -8.599  16.829  1.00  0.00     0.029 A 
ATOM     62  C   UNL     1       7.494  -7.911  16.122  1.00  0.00     0.049 A 
ATOM     63  H   UNL     1       8.612  -8.801  14.569  1.00  0.00     0.167 HD
ATOM     64  C   UNL     1       8.684  -5.873  15.341  1.00  0.00     0.074 A 
ATOM     65  C   UNL     1       8.882  -6.144  13.917  1.00  0.00     0.031 C 
ATOM     66  C   UNL     1       8.124  -6.621  16.339  1.00  0.00     0.034 A 
BRANCH  53  67
ATOM     67  C   UNL     1       7.033 -10.036  12.290  1.00  0.00     0.023 A 
ATOM     68  C   UNL     1       8.113 -10.839  12.708  1.00  0.00     0.031 A 
ATOM     69  C   UNL     1       7.074  -9.616  10.943  1.00  0.00     0.131 A 
ATOM     70  C   UNL     1       9.220 -11.059  11.873  1.00  0.00     0.055 A 
ATOM     71  C   UNL     1       8.145  -9.903  10.089  1.00  0.00     0.041 A 
ATOM     72  F   UNL     1       6.138  -8.836  10.393  1.00  0.00    -0.206 F 
ATOM     73  C   UNL     1       9.246 -10.592  10.564  1.00  0.00     0.022 A 
BRANCH  70  74
ATOM     74  S   UNL     1      10.707 -11.784  12.607  1.00  0.00     0.124 S 
ATOM     75  O   UNL     1      10.953 -10.871  13.718  1.00  0.00    -0.237 OA
ATOM     76  O   UNL     1      10.244 -13.122  12.961  1.00  0.00    -0.237 OA
ATOM     77  O   UNL     1      11.682 -11.728  11.521  1.00  0.00    -0.744 OA
ENDBRANCH  70  74
ENDBRANCH  53  67
BRANCH  54  78
ATOM     78  C   UNL     1       8.466  -1.645  13.188  1.00  0.00     0.023 A 
ATOM     79  C   UNL     1       9.842  -1.317  13.178  1.00  0.00     0.031 A 
ATOM     80  C   UNL     1       7.652  -0.938  12.272  1.00  0.00     0.131 A 
ATOM     81  C   UNL     1      10.342  -0.336  12.285  1.00  0.00     0.055 A 
ATOM     82  C   UNL     1       8.149   0.035  11.400  1.00  0.00     0.041 A 
ATOM     83  F   UNL     1       6.351  -1.230  12.121  1.00  0.00    -0.206 F 
ATOM     84  C   UNL     1       9.500   0.331  11.393  1.00  0.00     0.022 A 
BRANCH  81  85
ATOM     85  S   UNL     1      12.131   0.011  12.176  1.00  0.00     0.124 S 
ATOM     86  O   UNL     1      12.363   0.813  13.371  1.00  0.00    -0.237 OA
ATOM     87  O   UNL     1      12.714  -1.326  12.166  1.00  0.00    -0.237 OA
ATOM     88  O   UNL     1      12.259   0.738  10.912  1.00  0.00    -0.744 OA
ENDBRANCH  81  85
ENDBRANCH  54  78
BRANCH  66  89
ATOM     89  C   UNL     1       7.940  -5.996  17.709  1.00  0.00     0.023 A 
ATOM     90  C   UNL     1       7.232  -4.800  17.968  1.00  0.00     0.031 A 
ATOM     91  C   UNL     1       8.397  -6.733  18.817  1.00  0.00     0.131 A 
ATOM     92  C   UNL     1       7.019  -4.379  19.296  1.00  0.00     0.055 A 
ATOM     93  C   UNL     1       8.160  -6.328  20.130  1.00  0.00     0.041 A 
ATOM     94  F   UNL     1       9.053  -7.892  18.642  1.00  0.00    -0.206 F 
ATOM     95  C   UNL     1       7.475  -5.145  20.374  1.00  0.00     0.022 A 
BRANCH  92  96
ATOM     96  S   UNL     1       6.157  -2.812  19.649  1.00  0.00     0.124 S 
ATOM     97  O   UNL     1       6.809  -1.857  18.761  1.00  0.00    -0.237 OA
ATOM     98  O   UNL     1       4.769  -3.136  19.333  1.00  0.00    -0.237 OA
ATOM     99  O   UNL     1       6.419  -2.595  21.073  1.00  0.00    -0.744 OA
ENDBRANCH  92  96
ENDBRANCH  66  89
ENDBRANCH  40  41
ENDBRANCH  32  35
ENDBRANCH  30  31
ENDBRANCH  29  30
ENDBRANCH  28  29
ENDBRANCH  27  28
ENDBRANCH   1  27
TORSDOF 21
