REMARK SMILES O=C(NCCCCCCNC(=O)[C@H]1C[N@H+](Cc2cccc(Cl)c2)CC12CCCCC2)c1ccc(-c2c3nc(c(-c4cc(S(=O)(=O)[O-])ccc4F)c4ccc([nH]4)c(-c4cc(S(=O)(=O)[O-])ccc4F)c4nc(c(-c5cc(S(=O)(=O)[O-])ccc5F)c5ccc2[nH]5)C=C4)C=C3)cc1
REMARK SMILES IDX 6 1 5 2 4 3 3 4 1 5 2 6 31 8 32 9 93 10 33 11 92 12 34 13
REMARK SMILES IDX 35 14 36 15 86 16 37 17 91 18 85 19 87 20 38 21 90 22 84 23
REMARK SMILES IDX 83 24 39 26 71 27 51 28 70 29 52 30 55 31 69 32 88 33 53 34
REMARK SMILES IDX 54 35 68 37 89 38 56 39 40 40 41 41 49 42 42 43 48 44 50 45
REMARK SMILES IDX 47 46 43 47 44 48 45 49 46 50 72 51 73 52 81 53 74 54 80 55
REMARK SMILES IDX 82 56 79 57 75 58 76 59 77 60 78 61 57 62 58 63 66 64 59 65
REMARK SMILES IDX 65 66 67 67 64 68 60 69 61 70 62 71 63 72 7 73 8 74 9 75
REMARK SMILES IDX 10 76 11 77 12 79 13 80 14 81 25 82 15 83 24 84 26 85 30 86
REMARK SMILES IDX 27 88 29 89 28 90 16 91 17 92 18 93 23 94 19 95 21 96 20 97
REMARK SMILES IDX 22 98
REMARK H PARENT 3 7 87 25 55 36 10 78 15 87
REMARK Flexibility Score: inf
ROOT
ATOM      1  C   UNL     1       3.886  -2.809  -2.571  1.00  0.00     0.002 C 
ENDROOT
BRANCH   1   2
ATOM      2  C   UNL     1       4.413  -2.363  -1.206  1.00  0.00     0.021 C 
BRANCH   2   3
ATOM      3  C   UNL     1       4.281  -0.872  -0.924  1.00  0.00     0.116 C 
BRANCH   3   4
ATOM      4  N   UNL     1       2.896  -0.430  -0.903  1.00  0.00    -0.352 N 
ATOM      5  O   UNL     1       1.005   0.403   0.002  1.00  0.00    -0.269 OA
ATOM      6  C   UNL     1       2.221   0.250   0.082  1.00  0.00     0.251 C 
ATOM      7  H   UNL     1       2.369  -0.648  -1.705  1.00  0.00     0.163 HD
BRANCH   6   8
ATOM      8  C   UNL     1       2.964   0.778   1.246  1.00  0.00     0.039 A 
ATOM      9  C   UNL     1       4.170   1.460   1.067  1.00  0.00     0.014 A 
ATOM     10  C   UNL     1       2.454   0.578   2.531  1.00  0.00     0.014 A 
ATOM     11  C   UNL     1       4.934   1.810   2.174  1.00  0.00     0.010 A 
ATOM     12  C   UNL     1       3.183   1.012   3.642  1.00  0.00     0.010 A 
ATOM     13  C   UNL     1       4.446   1.602   3.474  1.00  0.00    -0.014 A 
BRANCH  13  14
ATOM     14  C   UNL     1       5.262   2.048   4.634  1.00  0.00     0.031 A 
ATOM     15  C   UNL     1       5.819   1.059   5.621  1.00  0.00     0.074 A 
ATOM     16  C   UNL     1       5.532   3.362   4.765  1.00  0.00     0.049 A 
ATOM     17  N   UNL     1       6.584   1.273   6.662  1.00  0.00    -0.248 NA
ATOM     18  C   UNL     1       5.461  -0.352   5.421  1.00  0.00     0.031 C 
ATOM     19  C   UNL     1       5.038   4.413   3.870  1.00  0.00     0.029 A 
ATOM     20  N   UNL     1       6.304   4.037   5.673  1.00  0.00    -0.354 N 
ATOM     21  C   UNL     1       6.783   0.030   7.255  1.00  0.00     0.074 A 
ATOM     22  C   UNL     1       6.028  -0.927   6.472  1.00  0.00     0.031 C 
ATOM     23  C   UNL     1       5.567   5.588   4.238  1.00  0.00     0.029 A 
ATOM     24  C   UNL     1       6.381   5.389   5.432  1.00  0.00     0.049 A 
ATOM     25  H   UNL     1       6.760   3.598   6.427  1.00  0.00     0.167 HD
ATOM     26  C   UNL     1       7.531  -0.281   8.344  1.00  0.00     0.034 A 
ATOM     27  C   UNL     1       7.024   6.364   6.101  1.00  0.00     0.034 A 
ATOM     28  C   UNL     1       8.284   0.690   9.106  1.00  0.00     0.049 A 
ATOM     29  C   UNL     1       7.822   5.997   7.322  1.00  0.00     0.074 A 
ATOM     30  C   UNL     1       9.107   0.479  10.199  1.00  0.00     0.029 A 
ATOM     31  N   UNL     1       8.297   2.059   8.863  1.00  0.00    -0.354 N 
ATOM     32  N   UNL     1       8.020   4.812   7.854  1.00  0.00    -0.248 NA
ATOM     33  C   UNL     1       8.486   7.097   8.028  1.00  0.00     0.031 C 
ATOM     34  C   UNL     1       9.562   1.722  10.657  1.00  0.00     0.029 A 
ATOM     35  C   UNL     1       9.085   2.706   9.805  1.00  0.00     0.049 A 
ATOM     36  H   UNL     1       7.816   2.505   8.129  1.00  0.00     0.167 HD
ATOM     37  C   UNL     1       8.850   5.026   8.949  1.00  0.00     0.074 A 
ATOM     38  C   UNL     1       9.132   6.447   8.985  1.00  0.00     0.031 C 
ATOM     39  C   UNL     1       9.339   4.128   9.842  1.00  0.00     0.034 A 
BRANCH  26  40
ATOM     40  C   UNL     1       7.528  -1.722   8.802  1.00  0.00     0.023 A 
ATOM     41  C   UNL     1       8.039  -2.759   8.002  1.00  0.00     0.031 A 
ATOM     42  C   UNL     1       6.978  -2.067  10.050  1.00  0.00     0.131 A 
ATOM     43  C   UNL     1       7.920  -4.093   8.421  1.00  0.00     0.055 A 
ATOM     44  C   UNL     1       6.935  -3.389  10.497  1.00  0.00     0.041 A 
ATOM     45  F   UNL     1       6.457  -1.125  10.851  1.00  0.00    -0.206 F 
ATOM     46  C   UNL     1       7.393  -4.414   9.674  1.00  0.00     0.022 A 
BRANCH  43  47
ATOM     47  S   UNL     1       8.325  -5.413   7.243  1.00  0.00     0.124 S 
ATOM     48  O   UNL     1       7.450  -5.087   6.119  1.00  0.00    -0.237 OA
ATOM     49  O   UNL     1       9.751  -5.210   7.019  1.00  0.00    -0.237 OA
ATOM     50  O   UNL     1       7.972  -6.636   7.961  1.00  0.00    -0.744 OA
ENDBRANCH  43  47
ENDBRANCH  26  40
BRANCH  27  51
ATOM     51  C   UNL     1       6.926   7.779   5.644  1.00  0.00     0.023 A 
ATOM     52  C   UNL     1       8.058   8.470   5.188  1.00  0.00     0.031 A 
ATOM     53  C   UNL     1       5.699   8.466   5.675  1.00  0.00     0.131 A 
ATOM     54  C   UNL     1       7.949   9.819   4.816  1.00  0.00     0.055 A 
ATOM     55  C   UNL     1       5.585   9.791   5.255  1.00  0.00     0.041 A 
ATOM     56  F   UNL     1       4.585   7.846   6.097  1.00  0.00    -0.206 F 
ATOM     57  C   UNL     1       6.718  10.479   4.833  1.00  0.00     0.022 A 
BRANCH  54  58
ATOM     58  S   UNL     1       9.458  10.722   4.375  1.00  0.00     0.124 S 
ATOM     59  O   UNL     1      10.258  10.575   5.586  1.00  0.00    -0.237 OA
ATOM     60  O   UNL     1       9.922   9.983   3.206  1.00  0.00    -0.237 OA
ATOM     61  O   UNL     1       8.977  12.075   4.104  1.00  0.00    -0.744 OA
ENDBRANCH  54  58
ENDBRANCH  27  51
BRANCH  39  62
ATOM     62  C   UNL     1      10.259   4.670  10.909  1.00  0.00     0.023 A 
ATOM     63  C   UNL     1       9.798   5.550  11.904  1.00  0.00     0.031 A 
ATOM     64  C   UNL     1      11.624   4.334  10.902  1.00  0.00     0.131 A 
ATOM     65  C   UNL     1      10.707   6.117  12.810  1.00  0.00     0.055 A 
ATOM     66  C   UNL     1      12.512   4.854  11.845  1.00  0.00     0.041 A 
ATOM     67  F   UNL     1      12.119   3.501   9.973  1.00  0.00    -0.206 F 
ATOM     68  C   UNL     1      12.058   5.763  12.796  1.00  0.00     0.022 A 
BRANCH  65  69
ATOM     69  S   UNL     1      10.118   7.411  13.938  1.00  0.00     0.124 S 
ATOM     70  O   UNL     1       9.588   8.405  13.010  1.00  0.00    -0.237 OA
ATOM     71  O   UNL     1       9.131   6.698  14.742  1.00  0.00    -0.237 OA
ATOM     72  O   UNL     1      11.326   7.815  14.656  1.00  0.00    -0.744 OA
ENDBRANCH  65  69
ENDBRANCH  39  62
ENDBRANCH  13  14
ENDBRANCH   6   8
ENDBRANCH   3   4
ENDBRANCH   2   3
ENDBRANCH   1   2
BRANCH   1  73
ATOM     73  C   UNL     1       4.484  -2.077  -3.775  1.00  0.00     0.002 C 
BRANCH  73  74
ATOM     74  C   UNL     1       6.013  -2.030  -3.821  1.00  0.00     0.021 C 
BRANCH  74  75
ATOM     75  C   UNL     1       6.689  -3.396  -3.759  1.00  0.00     0.116 C 
BRANCH  75  76
ATOM     76  N   UNL     1       6.447  -4.157  -4.970  1.00  0.00    -0.356 N 
ATOM     77  C   UNL     1       7.321  -4.582  -5.926  1.00  0.00     0.229 C 
ATOM     78  H   UNL     1       5.507  -4.405  -5.125  1.00  0.00     0.163 HD
ATOM     79  O   UNL     1       6.871  -5.225  -6.876  1.00  0.00    -0.275 OA
BRANCH  77  80
ATOM     80  C   UNL     1       8.797  -4.247  -5.788  1.00  0.00     0.145 C 
ATOM     81  C   UNL     1       9.657  -5.369  -6.363  1.00  0.00     0.276 C 
ATOM     82  C   UNL     1       9.311  -2.951  -6.479  1.00  0.00     0.037 C 
ATOM     83  N   UNL     1      10.958  -4.764  -6.623  1.00  0.00    -0.330 N 
ATOM     84  C   UNL     1      10.684  -3.396  -7.069  1.00  0.00     0.270 C 
ATOM     85  C   UNL     1       8.366  -2.425  -7.590  1.00  0.00     0.014 C 
ATOM     86  C   UNL     1       9.476  -1.809  -5.448  1.00  0.00     0.014 C 
ATOM     87  H   UNL     1      11.443  -5.274  -7.362  1.00  0.00     0.348 HD
ATOM     88  C   UNL     1       8.830  -1.099  -8.205  1.00  0.00     0.001 C 
ATOM     89  C   UNL     1      10.002  -0.510  -6.050  1.00  0.00     0.001 C 
ATOM     90  C   UNL     1       9.075  -0.021  -7.152  1.00  0.00     0.000 C 
BRANCH  83  91
ATOM     91  C   UNL     1      11.992  -4.946  -5.595  1.00  0.00     0.299 C 
BRANCH  91  92
ATOM     92  C   UNL     1      11.837  -4.227  -4.271  1.00  0.00     0.008 A 
ATOM     93  C   UNL     1      11.033  -4.751  -3.246  1.00  0.00     0.009 A 
ATOM     94  C   UNL     1      12.487  -3.001  -4.049  1.00  0.00     0.030 A 
ATOM     95  C   UNL     1      10.806  -4.027  -2.071  1.00  0.00     0.002 A 
ATOM     96  C   UNL     1      12.266  -2.286  -2.869  1.00  0.00     0.041 A 
ATOM     97  C   UNL     1      11.414  -2.786  -1.888  1.00  0.00     0.020 A 
ATOM     98  Cl  UNL     1      13.003  -0.746  -2.660  1.00  0.00    -0.084 Cl
ENDBRANCH  91  92
ENDBRANCH  83  91
ENDBRANCH  77  80
ENDBRANCH  75  76
ENDBRANCH  74  75
ENDBRANCH  73  74
ENDBRANCH   1  73
TORSDOF 18
