REMARK SMILES Cc1cc(NC(=O)c2ccc(Br)cc2N)ccc1C(=O)NCCCCCCNC(=O)c1ccc(-c2c3nc(c(-c4cc(S(=O)(=O)[O-])ccc4F)c4ccc([nH]4)c(-c4cc(S(=O)(=O)[O-])ccc4F)c4nc(c(-c5cc(S(=O)(=O)[O-])ccc5F)c5ccc2[nH]5)C=C4)C=C3)cc1
REMARK SMILES IDX 24 1 23 2 22 3 21 4 19 5 20 6 18 8 1 9 2 10 3 11 4 12 17 13
REMARK SMILES IDX 16 14 5 15 6 16 7 18 8 19 9 20 14 21 10 22 13 23 11 24 12 25
REMARK SMILES IDX 15 26 25 29 26 30 27 31 28 32 29 33 30 35 31 36 32 37 93 38
REMARK SMILES IDX 33 39 92 40 34 41 35 42 36 43 86 44 37 45 91 46 85 47 87 48
REMARK SMILES IDX 38 49 90 50 84 51 83 52 39 54 71 55 51 56 70 57 52 58 55 59
REMARK SMILES IDX 69 60 88 61 53 62 54 63 68 65 89 66 56 67 40 68 41 69 49 70
REMARK SMILES IDX 42 71 48 72 50 73 47 74 43 75 44 76 45 77 46 78 72 79 73 80
REMARK SMILES IDX 81 81 74 82 80 83 82 84 79 85 75 86 76 87 77 88 78 89 57 90
REMARK SMILES IDX 58 91 66 92 59 93 65 94 67 95 64 96 60 97 61 98 62 99 63 100
REMARK H PARENT 21 7 5 17 15 27 15 28 28 34 87 53 55 64
REMARK Flexibility Score: inf
ROOT
ATOM      1  C   UNL     1       5.345   2.900  -0.607  1.00  0.00     0.002 C 
ENDROOT
BRANCH   1   2
ATOM      2  C   UNL     1       4.304   1.774  -0.636  1.00  0.00     0.021 C 
BRANCH   2   3
ATOM      3  C   UNL     1       3.164   1.904   0.382  1.00  0.00     0.116 C 
BRANCH   3   4
ATOM      4  N   UNL     1       2.052   2.637  -0.196  1.00  0.00    -0.352 N 
ATOM      5  C   UNL     1       0.793   2.288  -0.604  1.00  0.00     0.251 C 
ATOM      6  O   UNL     1       0.069   3.194  -1.029  1.00  0.00    -0.269 OA
ATOM      7  H   UNL     1       2.245   3.595  -0.320  1.00  0.00     0.163 HD
BRANCH   5   8
ATOM      8  C   UNL     1       0.188   0.926  -0.469  1.00  0.00     0.042 A 
ATOM      9  C   UNL     1       2.097  -0.498  -1.449  1.00  0.00     0.045 C 
ATOM     10  C   UNL     1       0.764  -0.315  -0.788  1.00  0.00    -0.036 A 
ATOM     11  C   UNL     1       0.029  -1.498  -0.541  1.00  0.00     0.030 A 
ATOM     12  C   UNL     1      -1.296  -1.460  -0.107  1.00  0.00     0.041 A 
ATOM     13  C   UNL     1      -1.174   0.943  -0.094  1.00  0.00     0.016 A 
ATOM     14  C   UNL     1      -1.921  -0.230   0.043  1.00  0.00     0.027 A 
BRANCH  12  15
ATOM     15  N   UNL     1      -2.042  -2.616   0.176  1.00  0.00    -0.322 N 
ATOM     16  C   UNL     1      -1.615  -3.841   0.648  1.00  0.00     0.257 C 
ATOM     17  H   UNL     1      -3.010  -2.542   0.013  1.00  0.00     0.170 HD
ATOM     18  O   UNL     1      -2.353  -4.823   0.566  1.00  0.00    -0.269 OA
BRANCH  16  19
ATOM     19  C   UNL     1      -0.312  -3.977   1.352  1.00  0.00     0.063 A 
ATOM     20  C   UNL     1       0.489  -5.072   0.984  1.00  0.00     0.017 A 
ATOM     21  C   UNL     1       0.110  -3.091   2.369  1.00  0.00     0.045 A 
ATOM     22  C   UNL     1       1.721  -5.281   1.602  1.00  0.00     0.016 A 
ATOM     23  C   UNL     1       1.345  -3.331   2.988  1.00  0.00     0.042 A 
ATOM     24  C   UNL     1       2.145  -4.406   2.598  1.00  0.00     0.020 A 
ATOM     25  Br  UNL     1       3.804  -4.694   3.459  1.00  0.00    -0.051 Br
BRANCH  21  26
ATOM     26  N   UNL     1      -0.707  -2.097   2.913  1.00  0.00    -0.398 N 
ATOM     27  H   UNL     1      -1.581  -1.901   2.505  1.00  0.00     0.156 HD
ATOM     28  H   UNL     1      -0.408  -1.592   3.703  1.00  0.00     0.156 HD
ENDBRANCH  21  26
ENDBRANCH  16  19
ENDBRANCH  12  15
ENDBRANCH   5   8
ENDBRANCH   3   4
ENDBRANCH   2   3
ENDBRANCH   1   2
BRANCH   1  29
ATOM     29  C   UNL     1       6.209   3.001   0.658  1.00  0.00     0.002 C 
BRANCH  29  30
ATOM     30  C   UNL     1       6.860   1.700   1.127  1.00  0.00     0.021 C 
BRANCH  30  31
ATOM     31  C   UNL     1       7.878   1.117   0.150  1.00  0.00     0.116 C 
BRANCH  31  32
ATOM     32  N   UNL     1       9.265   1.377   0.518  1.00  0.00    -0.352 N 
ATOM     33  C   UNL     1      10.421   0.978  -0.122  1.00  0.00     0.251 C 
ATOM     34  H   UNL     1       9.395   1.910   1.336  1.00  0.00     0.163 HD
ATOM     35  O   UNL     1      11.528   1.229   0.355  1.00  0.00    -0.269 OA
BRANCH  33  36
ATOM     36  C   UNL     1      10.328   0.341  -1.456  1.00  0.00     0.039 A 
ATOM     37  C   UNL     1      11.075   0.904  -2.497  1.00  0.00     0.014 A 
ATOM     38  C   UNL     1       9.392  -0.655  -1.724  1.00  0.00     0.014 A 
ATOM     39  C   UNL     1      10.732   0.626  -3.819  1.00  0.00     0.010 A 
ATOM     40  C   UNL     1       8.998  -0.872  -3.033  1.00  0.00     0.010 A 
ATOM     41  C   UNL     1       9.627  -0.186  -4.077  1.00  0.00    -0.014 A 
BRANCH  41  42
ATOM     42  C   UNL     1       8.982  -0.256  -5.386  1.00  0.00     0.031 A 
ATOM     43  C   UNL     1       9.147  -1.433  -6.263  1.00  0.00     0.074 A 
ATOM     44  C   UNL     1       8.208   0.770  -5.805  1.00  0.00     0.049 A 
ATOM     45  N   UNL     1       9.011  -1.405  -7.547  1.00  0.00    -0.248 NA
ATOM     46  C   UNL     1       9.525  -2.744  -5.752  1.00  0.00     0.031 C 
ATOM     47  C   UNL     1       7.324   0.804  -6.966  1.00  0.00     0.029 A 
ATOM     48  N   UNL     1       8.299   2.099  -5.398  1.00  0.00    -0.354 N 
ATOM     49  C   UNL     1       9.036  -2.700  -8.004  1.00  0.00     0.074 A 
ATOM     50  C   UNL     1       9.400  -3.495  -6.852  1.00  0.00     0.031 C 
ATOM     51  C   UNL     1       7.175   2.079  -7.354  1.00  0.00     0.029 A 
ATOM     52  C   UNL     1       8.057   2.892  -6.536  1.00  0.00     0.049 A 
ATOM     53  H   UNL     1       8.496   2.421  -4.489  1.00  0.00     0.167 HD
ATOM     54  C   UNL     1       8.643  -2.980  -9.279  1.00  0.00     0.034 A 
ATOM     55  C   UNL     1       9.010   3.754  -6.995  1.00  0.00     0.034 A 
ATOM     56  C   UNL     1       8.302  -1.777 -10.034  1.00  0.00     0.049 A 
ATOM     57  C   UNL     1       9.492   3.455  -8.401  1.00  0.00     0.074 A 
ATOM     58  C   UNL     1       7.117  -1.139 -10.359  1.00  0.00     0.029 A 
ATOM     59  N   UNL     1       9.314  -0.896 -10.368  1.00  0.00    -0.354 N 
ATOM     60  N   UNL     1       9.102   2.436  -9.117  1.00  0.00    -0.248 NA
ATOM     61  C   UNL     1      10.532   4.238  -9.071  1.00  0.00     0.031 C 
ATOM     62  C   UNL     1       7.436   0.158 -10.858  1.00  0.00     0.029 A 
ATOM     63  C   UNL     1       8.812   0.295 -10.854  1.00  0.00     0.049 A 
ATOM     64  H   UNL     1      10.274  -1.093 -10.271  1.00  0.00     0.167 HD
ATOM     65  C   UNL     1       9.849   2.377 -10.264  1.00  0.00     0.074 A 
ATOM     66  C   UNL     1      10.729   3.529 -10.194  1.00  0.00     0.031 C 
ATOM     67  C   UNL     1       9.740   1.366 -11.174  1.00  0.00     0.034 A 
BRANCH  54  68
ATOM     68  C   UNL     1       8.349  -4.373  -9.772  1.00  0.00     0.023 A 
ATOM     69  C   UNL     1       7.328  -4.566 -10.725  1.00  0.00     0.031 A 
ATOM     70  C   UNL     1       9.006  -5.539  -9.338  1.00  0.00     0.131 A 
ATOM     71  C   UNL     1       6.933  -5.855 -11.121  1.00  0.00     0.055 A 
ATOM     72  C   UNL     1       8.570  -6.826  -9.679  1.00  0.00     0.041 A 
ATOM     73  F   UNL     1      10.126  -5.478  -8.602  1.00  0.00    -0.206 F 
ATOM     74  C   UNL     1       7.516  -6.990 -10.566  1.00  0.00     0.022 A 
BRANCH  71  75
ATOM     75  S   UNL     1       5.648  -6.030 -12.390  1.00  0.00     0.124 S 
ATOM     76  O   UNL     1       4.532  -5.292 -11.807  1.00  0.00    -0.237 OA
ATOM     77  O   UNL     1       6.285  -5.426 -13.555  1.00  0.00    -0.237 OA
ATOM     78  O   UNL     1       5.451  -7.477 -12.475  1.00  0.00    -0.744 OA
ENDBRANCH  71  75
ENDBRANCH  54  68
BRANCH  55  79
ATOM     79  C   UNL     1       9.836   4.340  -5.896  1.00  0.00     0.023 A 
ATOM     80  C   UNL     1       9.143   4.980  -4.846  1.00  0.00     0.031 A 
ATOM     81  C   UNL     1      11.164   3.957  -5.666  1.00  0.00     0.131 A 
ATOM     82  C   UNL     1       9.705   5.044  -3.564  1.00  0.00     0.055 A 
ATOM     83  C   UNL     1      11.756   4.112  -4.406  1.00  0.00     0.041 A 
ATOM     84  F   UNL     1      11.868   3.313  -6.608  1.00  0.00    -0.206 F 
ATOM     85  C   UNL     1      11.011   4.610  -3.336  1.00  0.00     0.022 A 
BRANCH  82  86
ATOM     86  S   UNL     1       8.608   5.395  -2.156  1.00  0.00     0.124 S 
ATOM     87  O   UNL     1       8.683   6.849  -2.064  1.00  0.00    -0.237 OA
ATOM     88  O   UNL     1       7.327   4.850  -2.600  1.00  0.00    -0.237 OA
ATOM     89  O   UNL     1       9.222   4.660  -1.052  1.00  0.00    -0.744 OA
ENDBRANCH  82  86
ENDBRANCH  55  79
BRANCH  67  90
ATOM     90  C   UNL     1      10.552   1.325 -12.437  1.00  0.00     0.023 A 
ATOM     91  C   UNL     1      10.752   2.475 -13.217  1.00  0.00     0.031 A 
ATOM     92  C   UNL     1      11.098   0.122 -12.933  1.00  0.00     0.131 A 
ATOM     93  C   UNL     1      11.528   2.421 -14.386  1.00  0.00     0.055 A 
ATOM     94  C   UNL     1      11.794   0.056 -14.142  1.00  0.00     0.041 A 
ATOM     95  F   UNL     1      11.015  -1.024 -12.242  1.00  0.00    -0.206 F 
ATOM     96  C   UNL     1      12.027   1.213 -14.871  1.00  0.00     0.022 A 
BRANCH  93  97
ATOM     97  S   UNL     1      11.955   3.977 -15.209  1.00  0.00     0.124 S 
ATOM     98  O   UNL     1      10.649   4.577 -15.456  1.00  0.00    -0.237 OA
ATOM     99  O   UNL     1      12.774   4.633 -14.192  1.00  0.00    -0.237 OA
ATOM    100  O   UNL     1      12.681   3.548 -16.403  1.00  0.00    -0.744 OA
ENDBRANCH  93  97
ENDBRANCH  67  90
ENDBRANCH  41  42
ENDBRANCH  33  36
ENDBRANCH  31  32
ENDBRANCH  30  31
ENDBRANCH  29  30
ENDBRANCH   1  29
TORSDOF 19
