REMARK SMILES C/C(=N\NC(N)=O)c1nnn(-c2ccc(C(=O)NCCCCCCNC(=O)c3ccc(-c4c5nc(c(-c6cc(S(=O)(=O)[O-])ccc6F)c6ccc([nH]6)c(-c6cc(S(=O)(=O)[O-])ccc6F)c6nc(c(-c7cc(S(=O)(=O)[O-])ccc7F)c7ccc4[nH]7)C=C6)C=C5)cc3)cc2)c1C
REMARK SMILES IDX 21 1 20 2 19 3 18 4 16 5 17 6 15 8 12 9 13 10 92 11 14 12
REMARK SMILES IDX 91 13 11 14 8 15 9 16 93 17 10 18 94 19 2 20 1 21 3 22 4 23
REMARK SMILES IDX 5 24 6 26 7 27 22 30 23 31 24 32 25 33 26 34 27 36 28 37
REMARK SMILES IDX 29 38 90 39 30 40 89 41 31 42 32 43 33 44 83 45 34 46 88 47
REMARK SMILES IDX 82 48 84 49 35 50 87 51 81 52 80 53 36 55 68 56 48 57 67 58
REMARK SMILES IDX 49 59 52 60 66 61 85 62 50 63 51 64 65 66 86 67 53 68 37 69
REMARK SMILES IDX 38 70 46 71 39 72 45 73 47 74 44 75 40 76 41 77 42 78 43 79
REMARK SMILES IDX 69 80 70 81 78 82 71 83 77 84 79 85 76 86 72 87 73 88 74 89
REMARK SMILES IDX 75 90 54 91 55 92 63 93 56 94 62 95 64 96 61 97 57 98 58 99
REMARK SMILES IDX 59 100 60 101
REMARK H PARENT 18 7 4 25 6 28 6 29 25 35 84 54 52 65
REMARK Flexibility Score: inf
ROOT
ATOM      1  C   UNL     1      10.447  -5.501  -4.352  1.00  0.00     0.002 C 
ENDROOT
BRANCH   1   2
ATOM      2  C   UNL     1       9.013  -5.240  -3.870  1.00  0.00     0.021 C 
BRANCH   2   3
ATOM      3  C   UNL     1       8.551  -3.799  -4.093  1.00  0.00     0.116 C 
BRANCH   3   4
ATOM      4  N   UNL     1       8.184  -3.590  -5.483  1.00  0.00    -0.352 N 
ATOM      5  C   UNL     1       6.978  -3.464  -6.125  1.00  0.00     0.251 C 
ATOM      6  O   UNL     1       6.996  -3.242  -7.336  1.00  0.00    -0.269 OA
ATOM      7  H   UNL     1       8.959  -3.525  -6.087  1.00  0.00     0.163 HD
BRANCH   5   8
ATOM      8  C   UNL     1       5.670  -3.478  -5.409  1.00  0.00     0.039 A 
ATOM      9  C   UNL     1       3.302  -3.062  -3.998  1.00  0.00     0.067 A 
ATOM     10  C   UNL     1       3.402  -2.575  -5.301  1.00  0.00     0.029 A 
ATOM     11  C   UNL     1       4.303  -3.868  -3.453  1.00  0.00     0.029 A 
ATOM     12  C   UNL     1       4.606  -2.760  -5.989  1.00  0.00     0.016 A 
ATOM     13  C   UNL     1       5.456  -4.125  -4.191  1.00  0.00     0.016 A 
BRANCH   9  14
ATOM     14  N   UNL     1       2.248  -2.646  -3.170  1.00  0.00    -0.217 N 
ATOM     15  C   UNL     1       1.055  -1.804  -1.560  1.00  0.00     0.132 A 
ATOM     16  N   UNL     1       0.218  -2.400  -2.471  1.00  0.00    -0.128 NA
ATOM     17  C   UNL     1       2.357  -1.892  -2.014  1.00  0.00     0.071 A 
ATOM     18  N   UNL     1       0.952  -2.816  -3.497  1.00  0.00    -0.061 NA
ATOM     19  C   UNL     1       3.616  -1.268  -1.542  1.00  0.00     0.069 C 
BRANCH  15  20
ATOM     20  C   UNL     1       0.565  -1.048  -0.420  1.00  0.00     0.087 C 
ATOM     21  C   UNL     1       0.703   0.448  -0.511  1.00  0.00     0.071 C 
ATOM     22  N   UNL     1       0.029  -1.753   0.532  1.00  0.00    -0.174 NA
BRANCH  22  23
ATOM     23  N   UNL     1      -0.449  -1.210   1.693  1.00  0.00    -0.229 N 
ATOM     24  C   UNL     1       0.114  -0.209   2.450  1.00  0.00     0.332 C 
ATOM     25  H   UNL     1      -1.298  -1.581   2.026  1.00  0.00     0.195 HD
ATOM     26  N   UNL     1      -0.631   0.095   3.550  1.00  0.00    -0.350 N 
ATOM     27  O   UNL     1       1.150   0.409   2.231  1.00  0.00    -0.247 OA
ATOM     28  H   UNL     1      -1.464  -0.397   3.732  1.00  0.00     0.161 HD
ATOM     29  H   UNL     1      -0.337   0.808   4.162  1.00  0.00     0.161 HD
ENDBRANCH  22  23
ENDBRANCH  15  20
ENDBRANCH   9  14
ENDBRANCH   5   8
ENDBRANCH   3   4
ENDBRANCH   2   3
ENDBRANCH   1   2
BRANCH   1  30
ATOM     30  C   UNL     1      11.531  -4.590  -3.745  1.00  0.00     0.002 C 
BRANCH  30  31
ATOM     31  C   UNL     1      11.549  -4.474  -2.212  1.00  0.00     0.021 C 
BRANCH  31  32
ATOM     32  C   UNL     1      11.957  -5.761  -1.518  1.00  0.00     0.116 C 
BRANCH  32  33
ATOM     33  N   UNL     1      13.373  -6.101  -1.734  1.00  0.00    -0.352 N 
ATOM     34  C   UNL     1      14.088  -7.202  -1.267  1.00  0.00     0.251 C 
ATOM     35  H   UNL     1      13.884  -5.465  -2.285  1.00  0.00     0.163 HD
ATOM     36  O   UNL     1      15.303  -7.171  -1.182  1.00  0.00    -0.269 OA
BRANCH  34  37
ATOM     37  C   UNL     1      13.323  -8.408  -0.895  1.00  0.00     0.039 A 
ATOM     38  C   UNL     1      13.646  -9.263   0.162  1.00  0.00     0.014 A 
ATOM     39  C   UNL     1      12.176  -8.619  -1.636  1.00  0.00     0.014 A 
ATOM     40  C   UNL     1      12.764 -10.309   0.448  1.00  0.00     0.010 A 
ATOM     41  C   UNL     1      11.169  -9.332  -1.080  1.00  0.00     0.010 A 
ATOM     42  C   UNL     1      11.525 -10.335  -0.206  1.00  0.00    -0.014 A 
BRANCH  42  43
ATOM     43  C   UNL     1      10.492 -11.337  -0.013  1.00  0.00     0.031 A 
ATOM     44  C   UNL     1       9.981 -11.395   1.371  1.00  0.00     0.074 A 
ATOM     45  C   UNL     1       9.851 -11.915  -1.059  1.00  0.00     0.049 A 
ATOM     46  N   UNL     1      10.221 -12.305   2.251  1.00  0.00    -0.248 NA
ATOM     47  C   UNL     1       9.291 -10.212   1.911  1.00  0.00     0.031 C 
ATOM     48  C   UNL     1      10.034 -11.694  -2.504  1.00  0.00     0.029 A 
ATOM     49  N   UNL     1       8.793 -12.764  -1.040  1.00  0.00    -0.354 N 
ATOM     50  C   UNL     1       9.474 -11.948   3.364  1.00  0.00     0.074 A 
ATOM     51  C   UNL     1       9.157 -10.556   3.193  1.00  0.00     0.031 C 
ATOM     52  C   UNL     1       8.983 -12.204  -3.188  1.00  0.00     0.029 A 
ATOM     53  C   UNL     1       8.138 -12.934  -2.260  1.00  0.00     0.049 A 
ATOM     54  H   UNL     1       8.507 -13.229  -0.221  1.00  0.00     0.167 HD
ATOM     55  C   UNL     1       8.940 -12.900   4.177  1.00  0.00     0.034 A 
ATOM     56  C   UNL     1       6.979 -13.618  -2.480  1.00  0.00     0.034 A 
ATOM     57  C   UNL     1       9.513 -14.201   3.892  1.00  0.00     0.049 A 
ATOM     58  C   UNL     1       6.843 -14.562  -1.337  1.00  0.00     0.074 A 
ATOM     59  C   UNL     1      10.800 -14.706   3.881  1.00  0.00     0.029 A 
ATOM     60  N   UNL     1       8.774 -15.074   3.121  1.00  0.00    -0.354 N 
ATOM     61  N   UNL     1       7.696 -15.528  -1.114  1.00  0.00    -0.248 NA
ATOM     62  C   UNL     1       6.115 -14.103  -0.161  1.00  0.00     0.031 C 
ATOM     63  C   UNL     1      10.866 -15.504   2.698  1.00  0.00     0.029 A 
ATOM     64  C   UNL     1       9.596 -15.531   2.115  1.00  0.00     0.049 A 
ATOM     65  H   UNL     1       7.833 -15.325   3.263  1.00  0.00     0.167 HD
ATOM     66  C   UNL     1       7.937 -15.494   0.253  1.00  0.00     0.074 A 
ATOM     67  C   UNL     1       6.870 -14.651   0.799  1.00  0.00     0.031 C 
ATOM     68  C   UNL     1       9.138 -15.883   0.780  1.00  0.00     0.034 A 
BRANCH  55  69
ATOM     69  C   UNL     1       7.653 -12.751   4.953  1.00  0.00     0.023 A 
ATOM     70  C   UNL     1       7.296 -13.810   5.808  1.00  0.00     0.031 A 
ATOM     71  C   UNL     1       6.643 -11.793   4.705  1.00  0.00     0.131 A 
ATOM     72  C   UNL     1       5.982 -13.938   6.287  1.00  0.00     0.055 A 
ATOM     73  C   UNL     1       5.357 -11.887   5.242  1.00  0.00     0.041 A 
ATOM     74  F   UNL     1       6.801 -10.770   3.857  1.00  0.00    -0.206 F 
ATOM     75  C   UNL     1       5.009 -12.981   6.012  1.00  0.00     0.022 A 
BRANCH  72  76
ATOM     76  S   UNL     1       5.522 -15.475   7.125  1.00  0.00     0.124 S 
ATOM     77  O   UNL     1       5.946 -16.479   6.155  1.00  0.00    -0.237 OA
ATOM     78  O   UNL     1       6.307 -15.393   8.352  1.00  0.00    -0.237 OA
ATOM     79  O   UNL     1       4.078 -15.346   7.298  1.00  0.00    -0.744 OA
ENDBRANCH  72  76
ENDBRANCH  55  69
BRANCH  56  80
ATOM     80  C   UNL     1       5.844 -13.196  -3.360  1.00  0.00     0.023 A 
ATOM     81  C   UNL     1       4.840 -14.075  -3.831  1.00  0.00     0.031 A 
ATOM     82  C   UNL     1       5.607 -11.815  -3.559  1.00  0.00     0.131 A 
ATOM     83  C   UNL     1       3.676 -13.563  -4.467  1.00  0.00     0.055 A 
ATOM     84  C   UNL     1       4.458 -11.318  -4.181  1.00  0.00     0.041 A 
ATOM     85  F   UNL     1       6.453 -10.891  -3.077  1.00  0.00    -0.206 F 
ATOM     86  C   UNL     1       3.483 -12.190  -4.631  1.00  0.00     0.022 A 
BRANCH  83  87
ATOM     87  S   UNL     1       2.345 -14.679  -5.037  1.00  0.00     0.124 S 
ATOM     88  O   UNL     1       2.998 -15.420  -6.109  1.00  0.00    -0.237 OA
ATOM     89  O   UNL     1       2.027 -15.431  -3.828  1.00  0.00    -0.237 OA
ATOM     90  O   UNL     1       1.294 -13.762  -5.479  1.00  0.00    -0.744 OA
ENDBRANCH  83  87
ENDBRANCH  56  80
BRANCH  68  91
ATOM     91  C   UNL     1      10.148 -16.558  -0.138  1.00  0.00     0.023 A 
ATOM     92  C   UNL     1      10.706 -15.979  -1.305  1.00  0.00     0.031 A 
ATOM     93  C   UNL     1      10.665 -17.797   0.276  1.00  0.00     0.131 A 
ATOM     94  C   UNL     1      11.730 -16.648  -2.011  1.00  0.00     0.055 A 
ATOM     95  C   UNL     1      11.691 -18.445  -0.412  1.00  0.00     0.041 A 
ATOM     96  F   UNL     1      10.202 -18.388   1.390  1.00  0.00    -0.206 F 
ATOM     97  C   UNL     1      12.225 -17.875  -1.561  1.00  0.00     0.022 A 
BRANCH  94  98
ATOM     98  S   UNL     1      12.431 -15.942  -3.542  1.00  0.00     0.124 S 
ATOM     99  O   UNL     1      11.253 -15.608  -4.333  1.00  0.00    -0.237 OA
ATOM    100  O   UNL     1      13.209 -14.811  -3.045  1.00  0.00    -0.237 OA
ATOM    101  O   UNL     1      13.236 -17.039  -4.085  1.00  0.00    -0.744 OA
ENDBRANCH  94  98
ENDBRANCH  68  91
ENDBRANCH  42  43
ENDBRANCH  34  37
ENDBRANCH  32  33
ENDBRANCH  31  32
ENDBRANCH  30  31
ENDBRANCH   1  30
TORSDOF 19
