REMARK SMILES Cc1ccc(NC(=O)C[C@H]2SC[C@H](C(=O)NCCCCCCNC(=O)c3ccc(-c4c5nc(c(-c6cc(S(=O)(=O)[O-])ccc6F)c6ccc([nH]6)c(-c6cc(S(=O)(=O)[O-])ccc6F)c6nc(c(-c7cc(S(=O)(=O)[O-])ccc7F)c7ccc4[nH]7)C=C6)C=C5)cc3)NC2=O)cc1
REMARK SMILES IDX 19 1 18 2 17 3 16 4 14 5 15 6 13 8 10 9 11 10 90 11 12 12
REMARK SMILES IDX 89 13 91 14 9 16 7 17 6 18 8 20 5 21 1 22 2 23 3 24 93 25
REMARK SMILES IDX 4 26 92 27 20 28 21 29 22 30 23 31 24 32 25 34 26 35 27 36
REMARK SMILES IDX 88 37 28 38 87 39 29 40 30 41 31 42 81 43 32 44 86 45 80 46
REMARK SMILES IDX 82 47 33 48 85 49 79 50 78 51 34 53 66 54 46 55 65 56 47 57
REMARK SMILES IDX 50 58 64 59 83 60 48 61 49 62 63 64 84 65 51 66 35 67 36 68
REMARK SMILES IDX 44 69 37 70 43 71 45 72 42 73 38 74 39 75 40 76 41 77 67 78
REMARK SMILES IDX 68 79 76 80 69 81 75 82 77 83 74 84 70 85 71 86 72 87 73 88
REMARK SMILES IDX 52 89 53 90 61 91 54 92 60 93 62 94 59 95 55 96 56 97 57 98
REMARK SMILES IDX 58 99
REMARK H PARENT 16 7 89 15 6 19 23 33 82 52 50 63
REMARK Flexibility Score: inf
ROOT
ATOM      1  C   UNL     1      -8.805  -3.535  -1.012  1.00  0.00     0.002 C 
ENDROOT
BRANCH   1   2
ATOM      2  C   UNL     1      -7.348  -3.054  -0.913  1.00  0.00     0.021 C 
BRANCH   2   3
ATOM      3  C   UNL     1      -6.302  -4.075  -1.366  1.00  0.00     0.116 C 
BRANCH   3   4
ATOM      4  N   UNL     1      -6.465  -4.417  -2.768  1.00  0.00    -0.354 N 
ATOM      5  C   UNL     1      -5.653  -4.227  -3.842  1.00  0.00     0.243 C 
ATOM      6  O   UNL     1      -6.020  -4.679  -4.931  1.00  0.00    -0.273 OA
ATOM      7  H   UNL     1      -7.316  -4.867  -2.978  1.00  0.00     0.163 HD
BRANCH   5   8
ATOM      8  C   UNL     1      -4.275  -3.562  -3.712  1.00  0.00     0.181 C 
ATOM      9  C   UNL     1      -2.015  -2.709  -1.886  1.00  0.00     0.145 C 
ATOM     10  S   UNL     1      -2.666  -1.414  -3.028  1.00  0.00    -0.145 SA
ATOM     11  C   UNL     1      -2.127  -4.089  -2.548  1.00  0.00     0.234 C 
ATOM     12  C   UNL     1      -4.339  -2.108  -3.252  1.00  0.00     0.105 C 
ATOM     13  N   UNL     1      -3.373  -4.457  -2.987  1.00  0.00    -0.343 N 
ATOM     14  O   UNL     1      -1.226  -4.921  -2.610  1.00  0.00    -0.274 OA
ATOM     15  H   UNL     1      -3.678  -5.375  -2.804  1.00  0.00     0.164 HD
BRANCH   9  16
ATOM     16  C   UNL     1      -0.652  -2.269  -1.337  1.00  0.00     0.124 C 
BRANCH  16  17
ATOM     17  C   UNL     1       0.385  -3.325  -1.018  1.00  0.00     0.226 C 
ATOM     18  N   UNL     1       0.153  -4.391  -0.209  1.00  0.00    -0.326 N 
ATOM     19  H   UNL     1       0.898  -5.036  -0.193  1.00  0.00     0.169 HD
ATOM     20  O   UNL     1       1.516  -3.232  -1.513  1.00  0.00    -0.275 OA
BRANCH  18  21
ATOM     21  C   UNL     1      -0.919  -4.767   0.607  1.00  0.00     0.041 A 
ATOM     22  C   UNL     1      -4.213  -6.230   2.978  1.00  0.00     0.044 C 
ATOM     23  C   UNL     1      -3.047  -5.729   2.179  1.00  0.00    -0.051 A 
ATOM     24  C   UNL     1      -2.843  -4.353   2.013  1.00  0.00     0.005 A 
ATOM     25  C   UNL     1      -2.163  -6.621   1.569  1.00  0.00     0.005 A 
ATOM     26  C   UNL     1      -1.780  -3.874   1.238  1.00  0.00     0.026 A 
ATOM     27  C   UNL     1      -1.098  -6.141   0.806  1.00  0.00     0.026 A 
ENDBRANCH  18  21
ENDBRANCH  16  17
ENDBRANCH   9  16
ENDBRANCH   5   8
ENDBRANCH   3   4
ENDBRANCH   2   3
ENDBRANCH   1   2
BRANCH   1  28
ATOM     28  C   UNL     1      -9.135  -4.859  -0.304  1.00  0.00     0.002 C 
BRANCH  28  29
ATOM     29  C   UNL     1      -8.761  -4.933   1.176  1.00  0.00     0.021 C 
BRANCH  29  30
ATOM     30  C   UNL     1      -9.493  -3.927   2.059  1.00  0.00     0.116 C 
BRANCH  30  31
ATOM     31  N   UNL     1     -10.590  -4.489   2.834  1.00  0.00    -0.352 N 
ATOM     32  C   UNL     1     -11.396  -3.862   3.775  1.00  0.00     0.251 C 
ATOM     33  H   UNL     1     -10.787  -5.440   2.669  1.00  0.00     0.163 HD
ATOM     34  O   UNL     1     -12.226  -4.472   4.419  1.00  0.00    -0.269 OA
BRANCH  32  35
ATOM     35  C   UNL     1     -11.324  -2.381   3.879  1.00  0.00     0.039 A 
ATOM     36  C   UNL     1     -12.512  -1.673   3.665  1.00  0.00     0.014 A 
ATOM     37  C   UNL     1     -10.105  -1.710   3.933  1.00  0.00     0.014 A 
ATOM     38  C   UNL     1     -12.451  -0.339   3.265  1.00  0.00     0.010 A 
ATOM     39  C   UNL     1     -10.036  -0.413   3.455  1.00  0.00     0.010 A 
ATOM     40  C   UNL     1     -11.200   0.246   3.051  1.00  0.00    -0.014 A 
BRANCH  40  41
ATOM     41  C   UNL     1     -11.036   1.465   2.264  1.00  0.00     0.031 A 
ATOM     42  C   UNL     1     -10.758   2.765   2.916  1.00  0.00     0.074 A 
ATOM     43  C   UNL     1     -11.154   1.433   0.914  1.00  0.00     0.049 A 
ATOM     44  N   UNL     1     -11.229   3.894   2.498  1.00  0.00    -0.248 NA
ATOM     45  C   UNL     1      -9.922   2.892   4.107  1.00  0.00     0.031 C 
ATOM     46  C   UNL     1     -10.880   2.537  -0.006  1.00  0.00     0.029 A 
ATOM     47  N   UNL     1     -11.730   0.471   0.087  1.00  0.00    -0.354 N 
ATOM     48  C   UNL     1     -10.527   4.888   3.138  1.00  0.00     0.074 A 
ATOM     49  C   UNL     1      -9.797   4.221   4.194  1.00  0.00     0.031 C 
ATOM     50  C   UNL     1     -11.579   2.336  -1.134  1.00  0.00     0.029 A 
ATOM     51  C   UNL     1     -12.422   1.175  -0.909  1.00  0.00     0.049 A 
ATOM     52  H   UNL     1     -11.665  -0.506   0.183  1.00  0.00     0.167 HD
ATOM     53  C   UNL     1     -10.477   6.148   2.622  1.00  0.00     0.034 A 
ATOM     54  C   UNL     1     -13.770   1.123  -1.126  1.00  0.00     0.034 A 
ATOM     55  C   UNL     1     -11.193   6.267   1.357  1.00  0.00     0.049 A 
ATOM     56  C   UNL     1     -14.431   2.490  -1.160  1.00  0.00     0.074 A 
ATOM     57  C   UNL     1     -10.761   6.292   0.040  1.00  0.00     0.029 A 
ATOM     58  N   UNL     1     -12.573   6.117   1.313  1.00  0.00    -0.354 N 
ATOM     59  N   UNL     1     -13.875   3.575  -0.697  1.00  0.00    -0.248 NA
ATOM     60  C   UNL     1     -15.780   2.736  -1.661  1.00  0.00     0.031 C 
ATOM     61  C   UNL     1     -11.889   6.134  -0.799  1.00  0.00     0.029 A 
ATOM     62  C   UNL     1     -13.010   6.026   0.004  1.00  0.00     0.049 A 
ATOM     63  H   UNL     1     -13.159   6.080   2.104  1.00  0.00     0.167 HD
ATOM     64  C   UNL     1     -14.752   4.629  -0.791  1.00  0.00     0.074 A 
ATOM     65  C   UNL     1     -15.923   4.053  -1.428  1.00  0.00     0.031 C 
ATOM     66  C   UNL     1     -14.426   5.868  -0.308  1.00  0.00     0.034 A 
BRANCH  53  67
ATOM     67  C   UNL     1      -9.484   7.170   3.113  1.00  0.00     0.023 A 
ATOM     68  C   UNL     1      -8.807   7.994   2.192  1.00  0.00     0.031 A 
ATOM     69  C   UNL     1      -9.143   7.352   4.466  1.00  0.00     0.131 A 
ATOM     70  C   UNL     1      -7.777   8.857   2.601  1.00  0.00     0.055 A 
ATOM     71  C   UNL     1      -8.087   8.178   4.873  1.00  0.00     0.041 A 
ATOM     72  F   UNL     1      -9.831   6.735   5.442  1.00  0.00    -0.206 F 
ATOM     73  C   UNL     1      -7.385   8.925   3.935  1.00  0.00     0.022 A 
BRANCH  70  74
ATOM     74  S   UNL     1      -6.951   9.884   1.354  1.00  0.00     0.124 S 
ATOM     75  O   UNL     1      -6.448   8.886   0.415  1.00  0.00    -0.237 OA
ATOM     76  O   UNL     1      -8.042  10.726   0.876  1.00  0.00    -0.237 OA
ATOM     77  O   UNL     1      -5.921  10.584   2.120  1.00  0.00    -0.744 OA
ENDBRANCH  70  74
ENDBRANCH  53  67
BRANCH  54  78
ATOM     78  C   UNL     1     -14.435  -0.117  -0.642  1.00  0.00     0.023 A 
ATOM     79  C   UNL     1     -13.990  -1.346  -1.170  1.00  0.00     0.031 A 
ATOM     80  C   UNL     1     -15.189  -0.140   0.539  1.00  0.00     0.131 A 
ATOM     81  C   UNL     1     -14.149  -2.526  -0.432  1.00  0.00     0.055 A 
ATOM     82  C   UNL     1     -15.401  -1.332   1.242  1.00  0.00     0.041 A 
ATOM     83  F   UNL     1     -15.621   0.999   1.098  1.00  0.00    -0.206 F 
ATOM     84  C   UNL     1     -14.840  -2.524   0.781  1.00  0.00     0.022 A 
BRANCH  81  85
ATOM     85  S   UNL     1     -13.211  -4.005  -0.923  1.00  0.00     0.124 S 
ATOM     86  O   UNL     1     -14.201  -4.757  -1.685  1.00  0.00    -0.237 OA
ATOM     87  O   UNL     1     -12.103  -3.451  -1.696  1.00  0.00    -0.237 OA
ATOM     88  O   UNL     1     -12.818  -4.588   0.358  1.00  0.00    -0.744 OA
ENDBRANCH  81  85
ENDBRANCH  54  78
BRANCH  66  89
ATOM     89  C   UNL     1     -15.347   7.068  -0.162  1.00  0.00     0.023 A 
ATOM     90  C   UNL     1     -16.740   7.010  -0.307  1.00  0.00     0.031 A 
ATOM     91  C   UNL     1     -14.833   8.342   0.202  1.00  0.00     0.131 A 
ATOM     92  C   UNL     1     -17.544   8.160  -0.171  1.00  0.00     0.055 A 
ATOM     93  C   UNL     1     -15.639   9.468   0.404  1.00  0.00     0.041 A 
ATOM     94  F   UNL     1     -13.522   8.552   0.391  1.00  0.00    -0.206 F 
ATOM     95  C   UNL     1     -17.005   9.386   0.203  1.00  0.00     0.022 A 
BRANCH  92  96
ATOM     96  S   UNL     1     -19.311   8.023  -0.551  1.00  0.00     0.124 S 
ATOM     97  O   UNL     1     -19.286   7.624  -1.956  1.00  0.00    -0.237 OA
ATOM     98  O   UNL     1     -19.754   7.000   0.390  1.00  0.00    -0.237 OA
ATOM     99  O   UNL     1     -19.825   9.367  -0.297  1.00  0.00    -0.744 OA
ENDBRANCH  92  96
ENDBRANCH  66  89
ENDBRANCH  40  41
ENDBRANCH  32  35
ENDBRANCH  30  31
ENDBRANCH  29  30
ENDBRANCH  28  29
ENDBRANCH   1  28
TORSDOF 19
