REMARK SMILES O=C(CCC(=O)Nc1ccc(C(=O)N2CCOCC2)cc1)NCCCCCCNC(=O)c1ccc(-c2c3nc(c(-c4cc(S(=O)(=O)[O-])ccc4F)c4ccc([nH]4)c(-c4cc(S(=O)(=O)[O-])ccc4F)c4nc(c(-c5cc(S(=O)(=O)[O-])ccc5F)c5ccc2[nH]5)C=C4)C=C3)cc1
REMARK SMILES IDX 25 1 24 2 23 3 22 4 1 5 2 6 3 8 4 9 5 10 6 11 7 12 8 14 9 15
REMARK SMILES IDX 21 16 10 17 20 18 11 19 12 20 13 21 14 22 15 23 19 24 16 25
REMARK SMILES IDX 18 26 17 27 26 28 27 29 28 30 29 31 30 32 31 34 32 35 33 36
REMARK SMILES IDX 94 37 34 38 93 39 35 40 36 41 37 42 87 43 38 44 92 45 86 46
REMARK SMILES IDX 88 47 39 48 91 49 85 50 84 51 40 53 72 54 52 55 71 56 53 57
REMARK SMILES IDX 56 58 70 59 89 60 54 61 55 62 69 64 90 65 57 66 41 67 42 68
REMARK SMILES IDX 50 69 43 70 49 71 51 72 48 73 44 74 45 75 46 76 47 77 73 78
REMARK SMILES IDX 74 79 82 80 75 81 81 82 83 83 80 84 76 85 77 86 78 87 79 88
REMARK SMILES IDX 58 89 59 90 67 91 60 92 66 93 68 94 65 95 61 96 62 97 63 98
REMARK SMILES IDX 64 99
REMARK H PARENT 22 7 7 13 29 33 88 52 56 63
REMARK Flexibility Score: inf
ROOT
ATOM      1  C   UNL     1       4.598  -0.994  -3.912  1.00  0.00     0.002 C 
ENDROOT
BRANCH   1   2
ATOM      2  C   UNL     1       3.203  -0.362  -3.866  1.00  0.00     0.021 C 
BRANCH   2   3
ATOM      3  C   UNL     1       2.518  -0.379  -2.504  1.00  0.00     0.116 C 
BRANCH   3   4
ATOM      4  N   UNL     1       3.340   0.166  -1.442  1.00  0.00    -0.356 N 
ATOM      5  O   UNL     1       1.630   1.143  -0.254  1.00  0.00    -0.275 OA
ATOM      6  C   UNL     1       2.810   0.824  -0.358  1.00  0.00     0.220 C 
ATOM      7  H   UNL     1       4.317   0.060  -1.499  1.00  0.00     0.163 HD
BRANCH   6   8
ATOM      8  C   UNL     1       3.817   1.115   0.735  1.00  0.00     0.110 C 
BRANCH   8   9
ATOM      9  C   UNL     1       4.147  -0.055   1.660  1.00  0.00     0.110 C 
BRANCH   9  10
ATOM     10  C   UNL     1       4.658  -1.299   0.968  1.00  0.00     0.224 C 
ATOM     11  O   UNL     1       5.864  -1.370   0.700  1.00  0.00    -0.275 OA
ATOM     12  N   UNL     1       3.878  -2.337   0.555  1.00  0.00    -0.326 N 
ATOM     13  H   UNL     1       4.400  -3.128   0.290  1.00  0.00     0.169 HD
BRANCH  12  14
ATOM     14  C   UNL     1       2.489  -2.527   0.424  1.00  0.00     0.041 A 
ATOM     15  C   UNL     1       2.069  -3.559  -0.438  1.00  0.00     0.027 A 
ATOM     16  C   UNL     1       1.520  -1.703   0.979  1.00  0.00     0.027 A 
ATOM     17  C   UNL     1       0.734  -3.646  -0.865  1.00  0.00     0.016 A 
ATOM     18  C   UNL     1       0.200  -1.773   0.546  1.00  0.00     0.016 A 
ATOM     19  C   UNL     1      -0.184  -2.699  -0.422  1.00  0.00     0.040 A 
BRANCH  19  20
ATOM     20  C   UNL     1      -1.602  -2.704  -0.855  1.00  0.00     0.254 C 
ATOM     21  O   UNL     1      -2.213  -3.764  -0.890  1.00  0.00    -0.269 OA
ATOM     22  N   UNL     1      -2.190  -1.459  -0.998  1.00  0.00    -0.334 N 
ATOM     23  C   UNL     1      -1.671  -0.398  -1.866  1.00  0.00     0.148 C 
ATOM     24  C   UNL     1      -3.501  -1.199  -0.427  1.00  0.00     0.148 C 
ATOM     25  C   UNL     1      -1.793   0.981  -1.206  1.00  0.00     0.181 C 
ATOM     26  C   UNL     1      -3.483   0.178   0.250  1.00  0.00     0.181 C 
ATOM     27  O   UNL     1      -3.118   1.206  -0.687  1.00  0.00    -0.378 OA
ENDBRANCH  19  20
ENDBRANCH  12  14
ENDBRANCH   9  10
ENDBRANCH   8   9
ENDBRANCH   6   8
ENDBRANCH   3   4
ENDBRANCH   2   3
ENDBRANCH   1   2
BRANCH   1  28
ATOM     28  C   UNL     1       4.689  -2.461  -3.484  1.00  0.00     0.002 C 
BRANCH  28  29
ATOM     29  C   UNL     1       3.884  -3.455  -4.323  1.00  0.00     0.021 C 
BRANCH  29  30
ATOM     30  C   UNL     1       4.078  -3.358  -5.834  1.00  0.00     0.116 C 
BRANCH  30  31
ATOM     31  N   UNL     1       5.465  -3.488  -6.249  1.00  0.00    -0.352 N 
ATOM     32  C   UNL     1       5.981  -4.128  -7.351  1.00  0.00     0.251 C 
ATOM     33  H   UNL     1       6.126  -3.059  -5.659  1.00  0.00     0.163 HD
ATOM     34  O   UNL     1       7.198  -4.212  -7.494  1.00  0.00    -0.269 OA
BRANCH  32  35
ATOM     35  C   UNL     1       5.068  -4.750  -8.336  1.00  0.00     0.039 A 
ATOM     36  C   UNL     1       5.324  -6.057  -8.761  1.00  0.00     0.014 A 
ATOM     37  C   UNL     1       3.954  -4.061  -8.823  1.00  0.00     0.014 A 
ATOM     38  C   UNL     1       4.420  -6.700  -9.612  1.00  0.00     0.010 A 
ATOM     39  C   UNL     1       3.023  -4.725  -9.618  1.00  0.00     0.010 A 
ATOM     40  C   UNL     1       3.241  -6.054 -10.015  1.00  0.00    -0.014 A 
BRANCH  40  41
ATOM     41  C   UNL     1       2.218  -6.742 -10.849  1.00  0.00     0.031 A 
ATOM     42  C   UNL     1       1.903  -6.223 -12.226  1.00  0.00     0.074 A 
ATOM     43  C   UNL     1       1.516  -7.773 -10.335  1.00  0.00     0.049 A 
ATOM     44  N   UNL     1       0.958  -6.589 -13.052  1.00  0.00    -0.248 NA
ATOM     45  C   UNL     1       2.746  -5.125 -12.727  1.00  0.00     0.031 C 
ATOM     46  C   UNL     1       1.711  -8.351  -9.003  1.00  0.00     0.029 A 
ATOM     47  N   UNL     1       0.481  -8.508 -10.863  1.00  0.00    -0.354 N 
ATOM     48  C   UNL     1       1.071  -5.749 -14.156  1.00  0.00     0.074 A 
ATOM     49  C   UNL     1       2.155  -4.832 -13.876  1.00  0.00     0.031 C 
ATOM     50  C   UNL     1       0.836  -9.354  -8.825  1.00  0.00     0.029 A 
ATOM     51  C   UNL     1      -0.020  -9.460 -10.002  1.00  0.00     0.049 A 
ATOM     52  H   UNL     1       0.131  -8.368 -11.772  1.00  0.00     0.167 HD
ATOM     53  C   UNL     1       0.344  -5.753 -15.300  1.00  0.00     0.034 A 
ATOM     54  C   UNL     1      -1.064 -10.304 -10.137  1.00  0.00     0.034 A 
ATOM     55  C   UNL     1      -0.708  -6.698 -15.580  1.00  0.00     0.049 A 
ATOM     56  C   UNL     1      -1.865 -10.273 -11.418  1.00  0.00     0.074 A 
ATOM     57  C   UNL     1      -1.448  -6.840 -16.741  1.00  0.00     0.029 A 
ATOM     58  N   UNL     1      -1.175  -7.658 -14.693  1.00  0.00    -0.354 N 
ATOM     59  N   UNL     1      -1.704  -9.510 -12.475  1.00  0.00    -0.248 NA
ATOM     60  C   UNL     1      -2.982 -11.221 -11.528  1.00  0.00     0.031 C 
ATOM     61  C   UNL     1      -2.407  -7.836 -16.532  1.00  0.00     0.029 A 
ATOM     62  C   UNL     1      -2.214  -8.371 -15.269  1.00  0.00     0.049 A 
ATOM     63  H   UNL     1      -0.820  -7.810 -13.787  1.00  0.00     0.167 HD
ATOM     64  C   UNL     1      -2.670  -9.922 -13.390  1.00  0.00     0.074 A 
ATOM     65  C   UNL     1      -3.403 -11.002 -12.764  1.00  0.00     0.031 C 
ATOM     66  C   UNL     1      -2.926  -9.455 -14.637  1.00  0.00     0.034 A 
BRANCH  53  67
ATOM     67  C   UNL     1       0.638  -4.688 -16.326  1.00  0.00     0.023 A 
ATOM     68  C   UNL     1       1.863  -4.633 -17.012  1.00  0.00     0.031 A 
ATOM     69  C   UNL     1      -0.336  -3.721 -16.636  1.00  0.00     0.131 A 
ATOM     70  C   UNL     1       2.102  -3.603 -17.935  1.00  0.00     0.055 A 
ATOM     71  C   UNL     1      -0.119  -2.742 -17.607  1.00  0.00     0.041 A 
ATOM     72  F   UNL     1      -1.517  -3.713 -15.998  1.00  0.00    -0.206 F 
ATOM     73  C   UNL     1       1.110  -2.673 -18.256  1.00  0.00     0.022 A 
BRANCH  70  74
ATOM     74  S   UNL     1       3.766  -3.433 -18.635  1.00  0.00     0.124 S 
ATOM     75  O   UNL     1       4.565  -3.186 -17.437  1.00  0.00    -0.237 OA
ATOM     76  O   UNL     1       3.970  -4.723 -19.284  1.00  0.00    -0.237 OA
ATOM     77  O   UNL     1       3.643  -2.292 -19.539  1.00  0.00    -0.744 OA
ENDBRANCH  70  74
ENDBRANCH  53  67
BRANCH  54  78
ATOM     78  C   UNL     1      -1.445 -11.238  -9.037  1.00  0.00     0.023 A 
ATOM     79  C   UNL     1      -1.425 -12.628  -9.233  1.00  0.00     0.031 A 
ATOM     80  C   UNL     1      -1.920 -10.757  -7.804  1.00  0.00     0.131 A 
ATOM     81  C   UNL     1      -1.937 -13.484  -8.246  1.00  0.00     0.055 A 
ATOM     82  C   UNL     1      -2.368 -11.617  -6.798  1.00  0.00     0.041 A 
ATOM     83  F   UNL     1      -1.961  -9.437  -7.559  1.00  0.00    -0.206 F 
ATOM     84  C   UNL     1      -2.397 -12.989  -7.024  1.00  0.00     0.022 A 
BRANCH  81  85
ATOM     85  S   UNL     1      -2.116 -15.247  -8.637  1.00  0.00     0.124 S 
ATOM     86  O   UNL     1      -2.915 -15.200  -9.857  1.00  0.00    -0.237 OA
ATOM     87  O   UNL     1      -0.727 -15.663  -8.796  1.00  0.00    -0.237 OA
ATOM     88  O   UNL     1      -2.798 -15.788  -7.464  1.00  0.00    -0.744 OA
ENDBRANCH  81  85
ENDBRANCH  54  78
BRANCH  66  89
ATOM     89  C   UNL     1      -3.993 -10.162 -15.436  1.00  0.00     0.023 A 
ATOM     90  C   UNL     1      -5.352 -10.097 -15.085  1.00  0.00     0.031 A 
ATOM     91  C   UNL     1      -3.637 -10.908 -16.574  1.00  0.00     0.131 A 
ATOM     92  C   UNL     1      -6.301 -10.806 -15.838  1.00  0.00     0.055 A 
ATOM     93  C   UNL     1      -4.591 -11.562 -17.352  1.00  0.00     0.041 A 
ATOM     94  F   UNL     1      -2.352 -11.003 -16.954  1.00  0.00    -0.206 F 
ATOM     95  C   UNL     1      -5.931 -11.523 -16.979  1.00  0.00     0.022 A 
BRANCH  92  96
ATOM     96  S   UNL     1      -8.022 -10.838 -15.265  1.00  0.00     0.124 S 
ATOM     97  O   UNL     1      -7.892 -11.446 -13.946  1.00  0.00    -0.237 OA
ATOM     98  O   UNL     1      -8.384  -9.424 -15.282  1.00  0.00    -0.237 OA
ATOM     99  O   UNL     1      -8.701 -11.661 -16.265  1.00  0.00    -0.744 OA
ENDBRANCH  92  96
ENDBRANCH  66  89
ENDBRANCH  40  41
ENDBRANCH  32  35
ENDBRANCH  30  31
ENDBRANCH  29  30
ENDBRANCH  28  29
ENDBRANCH   1  28
TORSDOF 20
