REMARK SMILES COC(=O)c1ccc([C@H]2CC(=O)Nc3c(C(=O)NCCCCCCNC(=O)c4ccc(-c5c6nc(c(-c7cc(S(=O)(=O)[O-])ccc7F)c7ccc([nH]7)c(-c7cc(S(=O)(=O)[O-])ccc7F)c7nc(c(-c8cc(S(=O)(=O)[O-])ccc8F)c8ccc5[nH]8)C=C7)C=C6)cc4)cn(-c4ccccc4)c32)cc1
REMARK SMILES IDX 21 1 20 2 19 3 18 4 16 5 17 6 15 8 9 9 10 10 99 11 11 12
REMARK SMILES IDX 14 13 92 14 12 15 13 16 91 17 8 19 5 20 6 21 101 22 7 23
REMARK SMILES IDX 100 24 3 25 4 26 2 27 1 28 93 29 94 30 98 31 95 32 97 33
REMARK SMILES IDX 96 34 22 35 23 36 24 37 25 38 26 39 27 41 28 42 29 43 90 44
REMARK SMILES IDX 30 45 89 46 31 47 32 48 33 49 83 50 34 51 88 52 82 53 84 54
REMARK SMILES IDX 35 55 87 56 81 57 80 58 36 60 68 61 48 62 67 63 49 64 52 65
REMARK SMILES IDX 66 66 85 67 50 68 51 69 65 71 86 72 53 73 37 74 38 75 46 76
REMARK SMILES IDX 39 77 45 78 47 79 44 80 40 81 41 82 42 83 43 84 69 85 70 86
REMARK SMILES IDX 78 87 71 88 77 89 79 90 76 91 72 92 73 93 74 94 75 95 54 96
REMARK SMILES IDX 55 97 63 98 56 99 62 100 64 101 61 102 57 103 58 104 59 105
REMARK SMILES IDX 60 106
REMARK H PARENT 18 7 13 18 25 40 84 59 52 70
REMARK Flexibility Score: inf
ROOT
ATOM      1  C   UNL     1      -8.249  -1.443   8.748  1.00  0.00     0.002 C 
ENDROOT
BRANCH   1   2
ATOM      2  C   UNL     1      -6.778  -1.687   8.404  1.00  0.00     0.021 C 
BRANCH   2   3
ATOM      3  C   UNL     1      -6.122  -0.484   7.714  1.00  0.00     0.116 C 
BRANCH   3   4
ATOM      4  N   UNL     1      -5.414   0.314   8.676  1.00  0.00    -0.352 N 
ATOM      5  C   UNL     1      -4.112   0.357   9.077  1.00  0.00     0.254 C 
ATOM      6  O   UNL     1      -3.864   1.229   9.917  1.00  0.00    -0.269 OA
ATOM      7  H   UNL     1      -5.988   0.964   9.141  1.00  0.00     0.163 HD
BRANCH   5   8
ATOM      8  C   UNL     1      -3.036  -0.498   8.556  1.00  0.00     0.081 A 
ATOM      9  C   UNL     1      -0.994  -3.301   7.122  1.00  0.00     0.078 C 
ATOM     10  C   UNL     1      -2.108  -4.309   6.812  1.00  0.00     0.115 C 
ATOM     11  C   UNL     1      -1.547  -2.016   7.696  1.00  0.00     0.055 A 
ATOM     12  C   UNL     1      -3.469  -3.717   6.582  1.00  0.00     0.225 C 
ATOM     13  C   UNL     1      -2.892  -1.723   7.831  1.00  0.00     0.076 A 
ATOM     14  N   UNL     1      -0.826  -0.960   8.222  1.00  0.00    -0.317 N 
ATOM     15  O   UNL     1      -4.315  -4.275   5.884  1.00  0.00    -0.275 OA
ATOM     16  N   UNL     1      -3.798  -2.595   7.283  1.00  0.00    -0.324 N 
ATOM     17  C   UNL     1      -1.723  -0.113   8.820  1.00  0.00     0.107 A 
ATOM     18  H   UNL     1      -4.755  -2.397   7.404  1.00  0.00     0.170 HD
BRANCH   9  19
ATOM     19  C   UNL     1       0.043  -4.033   7.980  1.00  0.00    -0.038 A 
ATOM     20  C   UNL     1       2.099  -5.292   9.441  1.00  0.00     0.060 A 
ATOM     21  C   UNL     1       1.876  -5.632   8.103  1.00  0.00     0.016 A 
ATOM     22  C   UNL     1       1.240  -4.389  10.071  1.00  0.00     0.016 A 
ATOM     23  C   UNL     1       0.865  -5.000   7.377  1.00  0.00     0.005 A 
ATOM     24  C   UNL     1       0.196  -3.801   9.356  1.00  0.00     0.005 A 
BRANCH  20  25
ATOM     25  C   UNL     1       3.281  -5.874  10.130  1.00  0.00     0.337 C 
ATOM     26  O   UNL     1       4.149  -6.505   9.562  1.00  0.00    -0.246 OA
BRANCH  25  27
ATOM     27  O   UNL     1       3.256  -5.555  11.451  1.00  0.00    -0.465 OA
ATOM     28  C   UNL     1       4.380  -6.035  12.186  1.00  0.00     0.282 C 
ENDBRANCH  25  27
ENDBRANCH  20  25
ENDBRANCH   9  19
BRANCH  14  29
ATOM     29  C   UNL     1       0.581  -0.811   8.291  1.00  0.00     0.045 A 
ATOM     30  C   UNL     1       1.379  -1.097   7.181  1.00  0.00     0.026 A 
ATOM     31  C   UNL     1       1.166  -0.502   9.527  1.00  0.00     0.026 A 
ATOM     32  C   UNL     1       2.764  -1.144   7.325  1.00  0.00     0.002 A 
ATOM     33  C   UNL     1       2.550  -0.586   9.670  1.00  0.00     0.002 A 
ATOM     34  C   UNL     1       3.346  -0.917   8.573  1.00  0.00     0.000 A 
ENDBRANCH  14  29
ENDBRANCH   5   8
ENDBRANCH   3   4
ENDBRANCH   2   3
ENDBRANCH   1   2
BRANCH   1  35
ATOM     35  C   UNL     1      -9.145  -1.170   7.529  1.00  0.00     0.002 C 
BRANCH  35  36
ATOM     36  C   UNL     1      -9.113  -2.240   6.425  1.00  0.00     0.021 C 
BRANCH  36  37
ATOM     37  C   UNL     1      -9.823  -3.519   6.835  1.00  0.00     0.116 C 
BRANCH  37  38
ATOM     38  N   UNL     1     -11.255  -3.284   7.015  1.00  0.00    -0.352 N 
ATOM     39  C   UNL     1     -12.241  -4.172   7.380  1.00  0.00     0.251 C 
ATOM     40  H   UNL     1     -11.556  -2.361   6.852  1.00  0.00     0.163 HD
ATOM     41  O   UNL     1     -13.417  -3.917   7.143  1.00  0.00    -0.269 OA
BRANCH  39  42
ATOM     42  C   UNL     1     -11.859  -5.421   8.058  1.00  0.00     0.039 A 
ATOM     43  C   UNL     1     -12.514  -6.622   7.776  1.00  0.00     0.014 A 
ATOM     44  C   UNL     1     -10.820  -5.375   8.986  1.00  0.00     0.014 A 
ATOM     45  C   UNL     1     -12.066  -7.789   8.390  1.00  0.00     0.010 A 
ATOM     46  C   UNL     1     -10.288  -6.540   9.476  1.00  0.00     0.010 A 
ATOM     47  C   UNL     1     -10.941  -7.740   9.228  1.00  0.00    -0.014 A 
BRANCH  47  48
ATOM     48  C   UNL     1     -10.334  -8.960   9.748  1.00  0.00     0.031 A 
ATOM     49  C   UNL     1      -9.913  -9.913   8.687  1.00  0.00     0.074 A 
ATOM     50  C   UNL     1      -9.959  -9.103  11.039  1.00  0.00     0.049 A 
ATOM     51  N   UNL     1     -10.444 -11.053   8.398  1.00  0.00    -0.248 NA
ATOM     52  C   UNL     1      -8.907  -9.468   7.707  1.00  0.00     0.031 C 
ATOM     53  C   UNL     1     -10.035  -8.112  12.119  1.00  0.00     0.029 A 
ATOM     54  N   UNL     1      -9.317 -10.140  11.641  1.00  0.00    -0.354 N 
ATOM     55  C   UNL     1      -9.661 -11.590   7.381  1.00  0.00     0.074 A 
ATOM     56  C   UNL     1      -8.912 -10.487   6.845  1.00  0.00     0.031 C 
ATOM     57  C   UNL     1      -9.259  -8.504  13.154  1.00  0.00     0.029 A 
ATOM     58  C   UNL     1      -8.766  -9.844  12.888  1.00  0.00     0.049 A 
ATOM     59  H   UNL     1      -9.247 -11.031  11.228  1.00  0.00     0.167 HD
ATOM     60  C   UNL     1      -9.496 -12.938   7.266  1.00  0.00     0.034 A 
ATOM     61  C   UNL     1      -7.945 -10.632  13.637  1.00  0.00     0.034 A 
ATOM     62  C   UNL     1     -10.493 -13.640   8.051  1.00  0.00     0.049 A 
ATOM     63  C   UNL     1      -8.155 -12.023  13.164  1.00  0.00     0.074 A 
ATOM     64  C   UNL     1     -11.876 -13.649   8.072  1.00  0.00     0.029 A 
ATOM     65  N   UNL     1     -10.106 -14.166   9.265  1.00  0.00    -0.354 N 
ATOM     66  N   UNL     1      -9.289 -12.656  13.295  1.00  0.00    -0.248 NA
ATOM     67  C   UNL     1      -7.293 -12.517  12.100  1.00  0.00     0.031 C 
ATOM     68  C   UNL     1     -12.218 -13.675   9.458  1.00  0.00     0.029 A 
ATOM     69  C   UNL     1     -11.040 -13.789  10.199  1.00  0.00     0.049 A 
ATOM     70  H   UNL     1      -9.305 -14.713   9.433  1.00  0.00     0.167 HD
ATOM     71  C   UNL     1      -9.483 -13.299  12.082  1.00  0.00     0.074 A 
ATOM     72  C   UNL     1      -8.176 -13.259  11.423  1.00  0.00     0.031 C 
ATOM     73  C   UNL     1     -10.739 -13.540  11.599  1.00  0.00     0.034 A 
BRANCH  60  74
ATOM     74  C   UNL     1      -8.226 -13.623   6.796  1.00  0.00     0.023 A 
ATOM     75  C   UNL     1      -8.222 -15.031   6.812  1.00  0.00     0.031 A 
ATOM     76  C   UNL     1      -6.962 -13.014   6.621  1.00  0.00     0.131 A 
ATOM     77  C   UNL     1      -7.017 -15.755   6.798  1.00  0.00     0.055 A 
ATOM     78  C   UNL     1      -5.771 -13.742   6.538  1.00  0.00     0.041 A 
ATOM     79  F   UNL     1      -6.783 -11.690   6.607  1.00  0.00    -0.206 F 
ATOM     80  C   UNL     1      -5.788 -15.118   6.665  1.00  0.00     0.022 A 
BRANCH  77  81
ATOM     81  S   UNL     1      -7.082 -17.528   7.154  1.00  0.00     0.124 S 
ATOM     82  O   UNL     1      -7.797 -17.542   8.426  1.00  0.00    -0.237 OA
ATOM     83  O   UNL     1      -7.811 -18.039   5.998  1.00  0.00    -0.237 OA
ATOM     84  O   UNL     1      -5.674 -17.910   7.224  1.00  0.00    -0.744 OA
ENDBRANCH  77  81
ENDBRANCH  60  74
BRANCH  61  85
ATOM     85  C   UNL     1      -6.781 -10.213  14.474  1.00  0.00     0.023 A 
ATOM     86  C   UNL     1      -6.212 -11.028  15.481  1.00  0.00     0.031 A 
ATOM     87  C   UNL     1      -6.041  -9.067  14.102  1.00  0.00     0.131 A 
ATOM     88  C   UNL     1      -4.963 -10.684  16.061  1.00  0.00     0.055 A 
ATOM     89  C   UNL     1      -4.810  -8.737  14.674  1.00  0.00     0.041 A 
ATOM     90  F   UNL     1      -6.451  -8.272  13.101  1.00  0.00    -0.206 F 
ATOM     91  C   UNL     1      -4.260  -9.550  15.650  1.00  0.00     0.022 A 
BRANCH  88  92
ATOM     92  S   UNL     1      -4.181 -11.760  17.313  1.00  0.00     0.124 S 
ATOM     93  O   UNL     1      -5.077 -11.614  18.454  1.00  0.00    -0.237 OA
ATOM     94  O   UNL     1      -4.174 -13.060  16.653  1.00  0.00    -0.237 OA
ATOM     95  O   UNL     1      -2.856 -11.164  17.496  1.00  0.00    -0.744 OA
ENDBRANCH  88  92
ENDBRANCH  61  85
BRANCH  73  96
ATOM     96  C   UNL     1     -11.921 -13.354  12.534  1.00  0.00     0.023 A 
ATOM     97  C   UNL     1     -12.256 -12.153  13.205  1.00  0.00     0.031 A 
ATOM     98  C   UNL     1     -12.816 -14.432  12.651  1.00  0.00     0.131 A 
ATOM     99  C   UNL     1     -13.443 -12.076  13.965  1.00  0.00     0.055 A 
ATOM    100  C   UNL     1     -13.999 -14.344  13.382  1.00  0.00     0.041 A 
ATOM    101  F   UNL     1     -12.569 -15.592  12.019  1.00  0.00    -0.206 F 
ATOM    102  C   UNL     1     -14.315 -13.167  14.047  1.00  0.00     0.022 A 
BRANCH  99 103
ATOM    103  S   UNL     1     -13.872 -10.561  14.886  1.00  0.00     0.124 S 
ATOM    104  O   UNL     1     -12.634 -10.215  15.574  1.00  0.00    -0.237 OA
ATOM    105  O   UNL     1     -14.289  -9.650  13.824  1.00  0.00    -0.237 OA
ATOM    106  O   UNL     1     -14.957 -10.996  15.770  1.00  0.00    -0.744 OA
ENDBRANCH  99 103
ENDBRANCH  73  96
ENDBRANCH  47  48
ENDBRANCH  39  42
ENDBRANCH  37  38
ENDBRANCH  36  37
ENDBRANCH  35  36
ENDBRANCH   1  35
TORSDOF 20
