REMARK SMILES CCc1cccc(NC(=O)N2CCO[C@@H](CC(=O)NCCCCCCNC(=O)c3ccc(-c4c5nc(c(-c6cc(S(=O)(=O)[O-])ccc6F)c6ccc([nH]6)c(-c6cc(S(=O)(=O)[O-])ccc6F)c6nc(c(-c7cc(S(=O)(=O)[O-])ccc7F)c7ccc4[nH]7)C=C6)C=C5)cc3)C2)c1
REMARK SMILES IDX 22 1 21 2 20 3 19 4 17 5 18 6 16 8 15 9 11 10 12 11 92 12
REMARK SMILES IDX 13 13 14 14 9 15 8 16 10 18 7 19 3 20 4 21 93 22 5 23 6 24
REMARK SMILES IDX 2 25 1 26 23 27 24 28 25 29 26 30 27 31 28 33 29 34 30 35
REMARK SMILES IDX 91 36 31 37 90 38 32 39 33 40 34 41 84 42 35 43 89 44 83 45
REMARK SMILES IDX 85 46 36 47 88 48 82 49 81 50 37 52 69 53 49 54 68 55 50 56
REMARK SMILES IDX 53 57 67 58 86 59 51 60 52 61 66 63 87 64 54 65 38 66 39 67
REMARK SMILES IDX 47 68 40 69 46 70 48 71 45 72 41 73 42 74 43 75 44 76 70 77
REMARK SMILES IDX 71 78 79 79 72 80 78 81 80 82 77 83 73 84 74 85 75 86 76 87
REMARK SMILES IDX 55 88 56 89 64 90 57 91 63 92 65 93 62 94 58 95 59 96 60 97
REMARK SMILES IDX 61 98
REMARK H PARENT 19 7 8 17 26 32 85 51 53 62
REMARK Flexibility Score: inf
ROOT
ATOM      1  C   UNL     1       1.469  -6.573   8.397  1.00  0.00     0.002 C 
ENDROOT
BRANCH   1   2
ATOM      2  C   UNL     1       1.500  -6.956   6.919  1.00  0.00     0.021 C 
BRANCH   2   3
ATOM      3  C   UNL     1       0.991  -8.372   6.622  1.00  0.00     0.116 C 
BRANCH   3   4
ATOM      4  N   UNL     1      -0.375  -8.330   6.118  1.00  0.00    -0.356 N 
ATOM      5  C   UNL     1      -0.865  -8.575   4.869  1.00  0.00     0.222 C 
ATOM      6  O   UNL     1      -2.051  -8.326   4.644  1.00  0.00    -0.275 OA
ATOM      7  H   UNL     1      -1.054  -8.086   6.787  1.00  0.00     0.163 HD
BRANCH   5   8
ATOM      8  C   UNL     1       0.033  -9.128   3.783  1.00  0.00     0.133 C 
BRANCH   8   9
ATOM      9  C   UNL     1       0.597  -8.045   2.864  1.00  0.00     0.147 C 
ATOM     10  N   UNL     1       2.052  -6.058   2.758  1.00  0.00    -0.320 N 
ATOM     11  C   UNL     1       2.815  -6.657   1.664  1.00  0.00     0.150 C 
ATOM     12  C   UNL     1       1.429  -7.020   3.638  1.00  0.00     0.154 C 
ATOM     13  C   UNL     1       1.991  -7.737   0.948  1.00  0.00     0.182 C 
ATOM     14  O   UNL     1       1.428  -8.691   1.870  1.00  0.00    -0.374 OA
BRANCH  10  15
ATOM     15  C   UNL     1       2.382  -4.838   3.285  1.00  0.00     0.322 C 
ATOM     16  N   UNL     1       2.252  -3.728   2.508  1.00  0.00    -0.308 N 
ATOM     17  H   UNL     1       2.773  -2.952   2.818  1.00  0.00     0.171 HD
ATOM     18  O   UNL     1       2.741  -4.712   4.457  1.00  0.00    -0.248 OA
BRANCH  16  19
ATOM     19  C   UNL     1       1.503  -3.493   1.338  1.00  0.00     0.043 A 
ATOM     20  C   UNL     1       0.892  -1.916  -0.424  1.00  0.00    -0.046 A 
ATOM     21  C   UNL     1       0.129  -2.920  -1.036  1.00  0.00     0.004 A 
ATOM     22  C   UNL     1       1.607  -2.229   0.744  1.00  0.00     0.029 A 
ATOM     23  C   UNL     1      -0.020  -4.160  -0.430  1.00  0.00     0.002 A 
ATOM     24  C   UNL     1       0.624  -4.418   0.777  1.00  0.00     0.026 A 
BRANCH  20  25
ATOM     25  C   UNL     1       0.908  -0.550  -1.069  1.00  0.00     0.032 C 
ATOM     26  C   UNL     1       1.289   0.613  -0.164  1.00  0.00     0.009 C 
ENDBRANCH  20  25
ENDBRANCH  16  19
ENDBRANCH  10  15
ENDBRANCH   8   9
ENDBRANCH   5   8
ENDBRANCH   3   4
ENDBRANCH   2   3
ENDBRANCH   1   2
BRANCH   1  27
ATOM     27  C   UNL     1       2.498  -7.298   9.265  1.00  0.00     0.002 C 
BRANCH  27  28
ATOM     28  C   UNL     1       3.956  -7.171   8.808  1.00  0.00     0.021 C 
BRANCH  28  29
ATOM     29  C   UNL     1       4.448  -5.741   8.591  1.00  0.00     0.116 C 
BRANCH  29  30
ATOM     30  N   UNL     1       4.357  -4.950   9.808  1.00  0.00    -0.352 N 
ATOM     31  C   UNL     1       5.354  -4.439  10.601  1.00  0.00     0.251 C 
ATOM     32  H   UNL     1       3.441  -4.750  10.109  1.00  0.00     0.163 HD
ATOM     33  O   UNL     1       5.085  -4.020  11.722  1.00  0.00    -0.269 OA
BRANCH  31  34
ATOM     34  C   UNL     1       6.750  -4.407  10.110  1.00  0.00     0.039 A 
ATOM     35  C   UNL     1       7.781  -4.788  10.973  1.00  0.00     0.014 A 
ATOM     36  C   UNL     1       7.046  -3.970   8.815  1.00  0.00     0.014 A 
ATOM     37  C   UNL     1       9.103  -4.785  10.519  1.00  0.00     0.010 A 
ATOM     38  C   UNL     1       8.355  -4.031   8.344  1.00  0.00     0.010 A 
ATOM     39  C   UNL     1       9.398  -4.435   9.191  1.00  0.00    -0.014 A 
BRANCH  39  40
ATOM     40  C   UNL     1      10.792  -4.476   8.675  1.00  0.00     0.031 A 
ATOM     41  C   UNL     1      11.474  -3.206   8.243  1.00  0.00     0.074 A 
ATOM     42  C   UNL     1      11.418  -5.662   8.540  1.00  0.00     0.049 A 
ATOM     43  N   UNL     1      12.651  -3.042   7.695  1.00  0.00    -0.248 NA
ATOM     44  C   UNL     1      10.718  -1.959   8.426  1.00  0.00     0.031 C 
ATOM     45  C   UNL     1      10.846  -6.963   8.892  1.00  0.00     0.029 A 
ATOM     46  N   UNL     1      12.668  -5.968   8.062  1.00  0.00    -0.354 N 
ATOM     47  C   UNL     1      12.772  -1.677   7.455  1.00  0.00     0.074 A 
ATOM     48  C   UNL     1      11.523  -1.070   7.864  1.00  0.00     0.031 C 
ATOM     49  C   UNL     1      11.749  -7.924   8.635  1.00  0.00     0.029 A 
ATOM     50  C   UNL     1      12.944  -7.316   8.060  1.00  0.00     0.049 A 
ATOM     51  H   UNL     1      13.306  -5.287   7.749  1.00  0.00     0.167 HD
ATOM     52  C   UNL     1      13.833  -0.993   6.959  1.00  0.00     0.034 A 
ATOM     53  C   UNL     1      14.032  -7.987   7.631  1.00  0.00     0.034 A 
ATOM     54  C   UNL     1      15.075  -1.615   6.566  1.00  0.00     0.049 A 
ATOM     55  C   UNL     1      15.191  -7.208   7.062  1.00  0.00     0.074 A 
ATOM     56  C   UNL     1      16.233  -1.014   6.103  1.00  0.00     0.029 A 
ATOM     57  N   UNL     1      15.320  -2.983   6.581  1.00  0.00    -0.354 N 
ATOM     58  N   UNL     1      15.308  -5.912   6.886  1.00  0.00    -0.248 NA
ATOM     59  C   UNL     1      16.367  -7.981   6.645  1.00  0.00     0.031 C 
ATOM     60  C   UNL     1      17.150  -2.018   5.775  1.00  0.00     0.029 A 
ATOM     61  C   UNL     1      16.597  -3.245   6.106  1.00  0.00     0.049 A 
ATOM     62  H   UNL     1      14.680  -3.667   6.884  1.00  0.00     0.167 HD
ATOM     63  C   UNL     1      16.584  -5.714   6.367  1.00  0.00     0.074 A 
ATOM     64  C   UNL     1      17.201  -7.022   6.272  1.00  0.00     0.031 C 
ATOM     65  C   UNL     1      17.194  -4.556   6.006  1.00  0.00     0.034 A 
BRANCH  52  66
ATOM     66  C   UNL     1      13.680   0.501   6.790  1.00  0.00     0.023 A 
ATOM     67  C   UNL     1      13.460   1.351   7.889  1.00  0.00     0.031 A 
ATOM     68  C   UNL     1      13.728   1.083   5.511  1.00  0.00     0.131 A 
ATOM     69  C   UNL     1      13.218   2.717   7.682  1.00  0.00     0.055 A 
ATOM     70  C   UNL     1      13.569   2.457   5.319  1.00  0.00     0.041 A 
ATOM     71  F   UNL     1      13.915   0.322   4.420  1.00  0.00    -0.206 F 
ATOM     72  C   UNL     1      13.297   3.281   6.407  1.00  0.00     0.022 A 
BRANCH  69  73
ATOM     73  S   UNL     1      12.655   3.719   9.085  1.00  0.00     0.124 S 
ATOM     74  O   UNL     1      11.431   3.022   9.472  1.00  0.00    -0.237 OA
ATOM     75  O   UNL     1      13.772   3.615  10.016  1.00  0.00    -0.237 OA
ATOM     76  O   UNL     1      12.450   5.043   8.500  1.00  0.00    -0.744 OA
ENDBRANCH  69  73
ENDBRANCH  52  66
BRANCH  53  77
ATOM     77  C   UNL     1      14.080  -9.476   7.709  1.00  0.00     0.023 A 
ATOM     78  C   UNL     1      15.011 -10.126   8.534  1.00  0.00     0.031 A 
ATOM     79  C   UNL     1      13.222 -10.270   6.928  1.00  0.00     0.131 A 
ATOM     80  C   UNL     1      15.095 -11.527   8.525  1.00  0.00     0.055 A 
ATOM     81  C   UNL     1      13.273 -11.665   6.963  1.00  0.00     0.041 A 
ATOM     82  F   UNL     1      12.310  -9.699   6.126  1.00  0.00    -0.206 F 
ATOM     83  C   UNL     1      14.223 -12.301   7.755  1.00  0.00     0.022 A 
BRANCH  80  84
ATOM     84  S   UNL     1      16.419 -12.324   9.474  1.00  0.00     0.124 S 
ATOM     85  O   UNL     1      17.610 -11.716   8.890  1.00  0.00    -0.237 OA
ATOM     86  O   UNL     1      16.097 -11.923  10.839  1.00  0.00    -0.237 OA
ATOM     87  O   UNL     1      16.237 -13.745   9.184  1.00  0.00    -0.744 OA
ENDBRANCH  80  84
ENDBRANCH  53  77
BRANCH  65  88
ATOM     88  C   UNL     1      18.619  -4.657   5.518  1.00  0.00     0.023 A 
ATOM     89  C   UNL     1      18.946  -5.293   4.308  1.00  0.00     0.031 A 
ATOM     90  C   UNL     1      19.667  -4.118   6.286  1.00  0.00     0.131 A 
ATOM     91  C   UNL     1      20.290  -5.423   3.927  1.00  0.00     0.055 A 
ATOM     92  C   UNL     1      20.998  -4.197   5.873  1.00  0.00     0.041 A 
ATOM     93  F   UNL     1      19.413  -3.502   7.452  1.00  0.00    -0.206 F 
ATOM     94  C   UNL     1      21.316  -4.865   4.694  1.00  0.00     0.022 A 
BRANCH  91  95
ATOM     95  S   UNL     1      20.689  -6.413   2.460  1.00  0.00     0.124 S 
ATOM     96  O   UNL     1      20.123  -7.712   2.808  1.00  0.00    -0.237 OA
ATOM     97  O   UNL     1      20.005  -5.684   1.397  1.00  0.00    -0.237 OA
ATOM     98  O   UNL     1      22.149  -6.367   2.402  1.00  0.00    -0.744 OA
ENDBRANCH  91  95
ENDBRANCH  65  88
ENDBRANCH  39  40
ENDBRANCH  31  34
ENDBRANCH  29  30
ENDBRANCH  28  29
ENDBRANCH  27  28
ENDBRANCH   1  27
TORSDOF 20
