REMARK SMILES CC/C=C/C/C=C/C/C=C/C/C=C/CCSCCCC(=O)NCCCCCCNC(=O)c1ccc(-c2c3nc(c(-c4cc(S(=O)(=O)[O-])ccc4F)c4ccc([nH]4)c(-c4cc(S(=O)(=O)[O-])ccc4F)c4nc(c(-c5cc(S(=O)(=O)[O-])ccc5F)c5ccc2[nH]5)C=C4)C=C3)cc1
REMARK SMILES IDX 18 1 17 2 16 3 15 4 14 5 13 6 12 7 11 8 10 9 9 10 8 11 7 12
REMARK SMILES IDX 6 13 5 14 4 15 3 16 2 17 1 18 19 19 20 20 21 21 22 22 23 24
REMARK SMILES IDX 24 25 25 26 26 27 27 28 28 29 29 30 30 31 31 33 32 34 33 35
REMARK SMILES IDX 94 36 34 37 93 38 35 39 36 40 37 41 87 42 38 43 92 44 86 45
REMARK SMILES IDX 88 46 39 47 91 48 85 49 84 50 40 52 72 53 52 54 71 55 53 56
REMARK SMILES IDX 56 57 70 58 89 59 54 60 55 61 69 63 90 64 57 65 41 66 42 67
REMARK SMILES IDX 50 68 43 69 49 70 51 71 48 72 44 73 45 74 46 75 47 76 73 77
REMARK SMILES IDX 74 78 82 79 75 80 81 81 83 82 80 83 76 84 77 85 78 86 79 87
REMARK SMILES IDX 58 88 59 89 67 90 60 91 66 92 68 93 65 94 61 95 62 96 63 97
REMARK SMILES IDX 64 98
REMARK H PARENT 22 23 29 32 88 51 56 62
REMARK Flexibility Score: inf
ROOT
ATOM      1  C   UNL     1      -4.800   8.727  10.505  1.00  0.00     0.021 C 
ENDROOT
BRANCH   1   2
ATOM      2  C   UNL     1      -6.197   8.352  10.991  1.00  0.00     0.070 C 
BRANCH   2   3
ATOM      3  S   UNL     1      -6.728   6.790  11.830  1.00  0.00    -0.162 SA
BRANCH   3   4
ATOM      4  C   UNL     1      -5.633   5.376  11.380  1.00  0.00     0.073 C 
BRANCH   4   5
ATOM      5  C   UNL     1      -6.105   4.416  10.251  1.00  0.00     0.038 C 
BRANCH   5   6
ATOM      6  C   UNL     1      -5.372   4.526   8.939  1.00  0.00    -0.030 C 
ATOM      7  C   UNL     1      -5.407   3.678   7.896  1.00  0.00    -0.027 C 
BRANCH   7   8
ATOM      8  C   UNL     1      -4.932   4.066   6.507  1.00  0.00     0.054 C 
BRANCH   8   9
ATOM      9  C   UNL     1      -3.493   4.487   6.414  1.00  0.00    -0.027 C 
ATOM     10  C   UNL     1      -2.724   4.240   5.340  1.00  0.00    -0.027 C 
BRANCH  10  11
ATOM     11  C   UNL     1      -1.267   4.598   5.245  1.00  0.00     0.054 C 
BRANCH  11  12
ATOM     12  C   UNL     1      -0.463   3.340   5.395  1.00  0.00    -0.027 C 
ATOM     13  C   UNL     1       0.327   2.822   4.443  1.00  0.00    -0.027 C 
BRANCH  13  14
ATOM     14  C   UNL     1       0.926   1.448   4.531  1.00  0.00     0.054 C 
BRANCH  14  15
ATOM     15  C   UNL     1       0.402   0.612   3.398  1.00  0.00    -0.027 C 
ATOM     16  C   UNL     1       1.170   0.070   2.441  1.00  0.00    -0.031 C 
BRANCH  16  17
ATOM     17  C   UNL     1       0.620  -0.665   1.254  1.00  0.00     0.023 C 
ATOM     18  C   UNL     1       1.049   0.011  -0.039  1.00  0.00     0.008 C 
ENDBRANCH  16  17
ENDBRANCH  14  15
ENDBRANCH  13  14
ENDBRANCH  11  12
ENDBRANCH  10  11
ENDBRANCH   8   9
ENDBRANCH   7   8
ENDBRANCH   5   6
ENDBRANCH   4   5
ENDBRANCH   3   4
ENDBRANCH   2   3
ENDBRANCH   1   2
BRANCH   1  19
ATOM     19  C   UNL     1      -4.075   7.835   9.522  1.00  0.00     0.101 C 
BRANCH  19  20
ATOM     20  C   UNL     1      -4.361   7.980   8.036  1.00  0.00     0.220 C 
ATOM     21  O   UNL     1      -3.423   8.216   7.265  1.00  0.00    -0.275 OA
ATOM     22  N   UNL     1      -5.576   7.800   7.463  1.00  0.00    -0.356 N 
ATOM     23  H   UNL     1      -5.646   8.185   6.560  1.00  0.00     0.163 HD
BRANCH  22  24
ATOM     24  C   UNL     1      -6.793   7.154   7.914  1.00  0.00     0.116 C 
BRANCH  24  25
ATOM     25  C   UNL     1      -8.059   7.828   7.396  1.00  0.00     0.021 C 
BRANCH  25  26
ATOM     26  C   UNL     1      -8.921   6.852   6.583  1.00  0.00     0.002 C 
BRANCH  26  27
ATOM     27  C   UNL     1      -9.523   5.688   7.384  1.00  0.00     0.002 C 
BRANCH  27  28
ATOM     28  C   UNL     1     -10.469   6.083   8.520  1.00  0.00     0.021 C 
BRANCH  28  29
ATOM     29  C   UNL     1     -11.558   7.082   8.144  1.00  0.00     0.116 C 
BRANCH  29  30
ATOM     30  N   UNL     1     -12.351   6.645   7.008  1.00  0.00    -0.352 N 
ATOM     31  C   UNL     1     -13.704   6.740   6.793  1.00  0.00     0.251 C 
ATOM     32  H   UNL     1     -11.841   6.217   6.282  1.00  0.00     0.163 HD
ATOM     33  O   UNL     1     -14.198   6.184   5.820  1.00  0.00    -0.269 OA
BRANCH  31  34
ATOM     34  C   UNL     1     -14.559   7.476   7.751  1.00  0.00     0.039 A 
ATOM     35  C   UNL     1     -15.790   6.919   8.102  1.00  0.00     0.014 A 
ATOM     36  C   UNL     1     -14.168   8.706   8.289  1.00  0.00     0.014 A 
ATOM     37  C   UNL     1     -16.604   7.569   9.031  1.00  0.00     0.010 A 
ATOM     38  C   UNL     1     -14.945   9.314   9.274  1.00  0.00     0.010 A 
ATOM     39  C   UNL     1     -16.174   8.755   9.652  1.00  0.00    -0.014 A 
BRANCH  39  40
ATOM     40  C   UNL     1     -17.013   9.403  10.694  1.00  0.00     0.031 A 
ATOM     41  C   UNL     1     -17.596  10.771  10.462  1.00  0.00     0.074 A 
ATOM     42  C   UNL     1     -17.239   8.756  11.854  1.00  0.00     0.049 A 
ATOM     43  N   UNL     1     -18.360  11.487  11.247  1.00  0.00    -0.248 NA
ATOM     44  C   UNL     1     -17.257  11.431   9.191  1.00  0.00     0.031 C 
ATOM     45  C   UNL     1     -16.682   7.448  12.211  1.00  0.00     0.029 A 
ATOM     46  N   UNL     1     -17.997   9.100  12.945  1.00  0.00    -0.354 N 
ATOM     47  C   UNL     1     -18.604  12.673  10.562  1.00  0.00     0.074 A 
ATOM     48  C   UNL     1     -17.839  12.612   9.335  1.00  0.00     0.031 C 
ATOM     49  C   UNL     1     -17.145   7.087  13.418  1.00  0.00     0.029 A 
ATOM     50  C   UNL     1     -17.994   8.151  13.943  1.00  0.00     0.049 A 
ATOM     51  H   UNL     1     -18.496   9.946  13.009  1.00  0.00     0.167 HD
ATOM     52  C   UNL     1     -19.417  13.702  10.909  1.00  0.00     0.034 A 
ATOM     53  C   UNL     1     -18.600   8.143  15.147  1.00  0.00     0.034 A 
ATOM     54  C   UNL     1     -20.167  13.750  12.141  1.00  0.00     0.049 A 
ATOM     55  C   UNL     1     -19.475   9.313  15.521  1.00  0.00     0.074 A 
ATOM     56  C   UNL     1     -21.035  14.733  12.586  1.00  0.00     0.029 A 
ATOM     57  N   UNL     1     -20.137  12.774  13.130  1.00  0.00    -0.354 N 
ATOM     58  N   UNL     1     -19.735  10.404  14.836  1.00  0.00    -0.248 NA
ATOM     59  C   UNL     1     -20.156   9.241  16.819  1.00  0.00     0.031 C 
ATOM     60  C   UNL     1     -21.475  14.385  13.867  1.00  0.00     0.029 A 
ATOM     61  C   UNL     1     -20.950  13.144  14.191  1.00  0.00     0.049 A 
ATOM     62  H   UNL     1     -19.614  11.941  13.084  1.00  0.00     0.167 HD
ATOM     63  C   UNL     1     -20.631  11.134  15.613  1.00  0.00     0.074 A 
ATOM     64  C   UNL     1     -20.890  10.342  16.798  1.00  0.00     0.031 C 
ATOM     65  C   UNL     1     -21.187  12.350  15.374  1.00  0.00     0.034 A 
BRANCH  52  66
ATOM     66  C   UNL     1     -19.525  14.858   9.943  1.00  0.00     0.023 A 
ATOM     67  C   UNL     1     -20.047  14.686   8.648  1.00  0.00     0.031 A 
ATOM     68  C   UNL     1     -19.096  16.146  10.310  1.00  0.00     0.131 A 
ATOM     69  C   UNL     1     -20.063  15.762   7.747  1.00  0.00     0.055 A 
ATOM     70  C   UNL     1     -19.191  17.232   9.437  1.00  0.00     0.041 A 
ATOM     71  F   UNL     1     -18.568  16.370  11.524  1.00  0.00    -0.206 F 
ATOM     72  C   UNL     1     -19.665  17.040   8.142  1.00  0.00     0.022 A 
BRANCH  69  73
ATOM     73  S   UNL     1     -20.487  15.435   6.015  1.00  0.00     0.124 S 
ATOM     74  O   UNL     1     -19.453  14.474   5.635  1.00  0.00    -0.237 OA
ATOM     75  O   UNL     1     -21.843  14.909   6.114  1.00  0.00    -0.237 OA
ATOM     76  O   UNL     1     -20.370  16.747   5.380  1.00  0.00    -0.744 OA
ENDBRANCH  69  73
ENDBRANCH  52  66
BRANCH  53  77
ATOM     77  C   UNL     1     -18.393   7.008  16.095  1.00  0.00     0.023 A 
ATOM     78  C   UNL     1     -19.465   6.212  16.527  1.00  0.00     0.031 A 
ATOM     79  C   UNL     1     -17.120   6.743  16.633  1.00  0.00     0.131 A 
ATOM     80  C   UNL     1     -19.259   5.235  17.515  1.00  0.00     0.055 A 
ATOM     81  C   UNL     1     -16.908   5.725  17.564  1.00  0.00     0.041 A 
ATOM     82  F   UNL     1     -16.057   7.470  16.254  1.00  0.00    -0.206 F 
ATOM     83  C   UNL     1     -17.986   4.976  18.025  1.00  0.00     0.022 A 
BRANCH  80  84
ATOM     84  S   UNL     1     -20.704   4.387  18.212  1.00  0.00     0.124 S 
ATOM     85  O   UNL     1     -21.517   5.510  18.665  1.00  0.00    -0.237 OA
ATOM     86  O   UNL     1     -21.209   3.652  17.058  1.00  0.00    -0.237 OA
ATOM     87  O   UNL     1     -20.133   3.561  19.274  1.00  0.00    -0.744 OA
ENDBRANCH  80  84
ENDBRANCH  53  77
BRANCH  65  88
ATOM     88  C   UNL     1     -22.159  12.869  16.407  1.00  0.00     0.023 A 
ATOM     89  C   UNL     1     -21.753  13.165  17.721  1.00  0.00     0.031 A 
ATOM     90  C   UNL     1     -23.518  13.034  16.085  1.00  0.00     0.131 A 
ATOM     91  C   UNL     1     -22.706  13.532  18.682  1.00  0.00     0.055 A 
ATOM     92  C   UNL     1     -24.449  13.473  17.027  1.00  0.00     0.041 A 
ATOM     93  F   UNL     1     -23.965  12.765  14.848  1.00  0.00    -0.206 F 
ATOM     94  C   UNL     1     -24.049  13.706  18.339  1.00  0.00     0.022 A 
BRANCH  91  95
ATOM     95  S   UNL     1     -22.187  13.654  20.416  1.00  0.00     0.124 S 
ATOM     96  O   UNL     1     -21.632  12.327  20.660  1.00  0.00    -0.237 OA
ATOM     97  O   UNL     1     -21.223  14.750  20.376  1.00  0.00    -0.237 OA
ATOM     98  O   UNL     1     -23.430  13.948  21.126  1.00  0.00    -0.744 OA
ENDBRANCH  91  95
ENDBRANCH  65  88
ENDBRANCH  39  40
ENDBRANCH  31  34
ENDBRANCH  29  30
ENDBRANCH  28  29
ENDBRANCH  27  28
ENDBRANCH  26  27
ENDBRANCH  25  26
ENDBRANCH  24  25
ENDBRANCH  22  24
ENDBRANCH  19  20
ENDBRANCH   1  19
TORSDOF 29
