REMARK SMILES CC[C@@](O)(C(=O)NCCCCCCNC(=O)c1ccc(-c2c3nc(c(-c4cc(S(=O)(=O)[O-])ccc4F)c4ccc([nH]4)c(-c4cc(S(=O)(=O)[O-])ccc4F)c4nc(c(-c5cc(S(=O)(=O)[O-])ccc5F)c5ccc2[nH]5)C=C4)C=C3)cc1)[C@@H]1CCOc2ccccc21
REMARK SMILES IDX 11 1 10 2 9 3 8 4 7 5 5 6 6 7 3 9 2 10 1 11 4 12 80 14 81 15
REMARK SMILES IDX 89 16 82 17 84 18 88 19 83 20 85 21 87 22 86 23 12 24 13 25
REMARK SMILES IDX 14 26 15 27 16 29 17 30 18 31 79 32 19 33 78 34 20 35 21 36
REMARK SMILES IDX 22 37 72 38 23 39 77 40 71 41 73 42 24 43 76 44 70 45 69 46
REMARK SMILES IDX 25 48 57 49 37 50 56 51 38 52 41 53 55 54 74 55 39 56 40 57
REMARK SMILES IDX 54 59 75 60 42 61 26 62 27 63 35 64 28 65 34 66 36 67 33 68
REMARK SMILES IDX 29 69 30 70 31 71 32 72 58 73 59 74 67 75 60 76 66 77 68 78
REMARK SMILES IDX 65 79 61 80 62 81 63 82 64 83 43 84 44 85 52 86 45 87 51 88
REMARK SMILES IDX 53 89 50 90 46 91 47 92 48 93 49 94
REMARK H PARENT 7 8 4 13 14 28 73 47 41 58
REMARK Flexibility Score: inf
ROOT
ATOM      1  C   UNL     1       1.741   4.844   8.295  1.00  0.00     0.002 C 
ENDROOT
BRANCH   1   2
ATOM      2  C   UNL     1       1.811   5.115   6.788  1.00  0.00     0.002 C 
BRANCH   2   3
ATOM      3  C   UNL     1       2.967   4.403   6.072  1.00  0.00     0.021 C 
BRANCH   3   4
ATOM      4  C   UNL     1       2.906   2.882   6.212  1.00  0.00     0.116 C 
BRANCH   4   5
ATOM      5  N   UNL     1       1.844   2.374   5.370  1.00  0.00    -0.354 N 
ATOM      6  C   UNL     1       1.897   1.730   4.171  1.00  0.00     0.252 C 
ATOM      7  O   UNL     1       0.822   1.634   3.569  1.00  0.00    -0.272 OA
ATOM      8  H   UNL     1       0.935   2.518   5.721  1.00  0.00     0.163 HD
BRANCH   6   9
ATOM      9  C   UNL     1       3.240   1.151   3.607  1.00  0.00     0.149 C 
BRANCH   9  10
ATOM     10  C   UNL     1       4.211   2.306   3.219  1.00  0.00     0.043 C 
ATOM     11  C   UNL     1       5.538   1.900   2.585  1.00  0.00     0.007 C 
ENDBRANCH   9  10
BRANCH   9  12
ATOM     12  O   UNL     1       3.819   0.407   4.707  1.00  0.00    -0.379 OA
ATOM     13  H   UNL     1       4.049   1.018   5.424  1.00  0.00     0.212 HD
ENDBRANCH   9  12
BRANCH   9  14
ATOM     14  C   UNL     1       2.878   0.121   2.456  1.00  0.00     0.068 C 
ATOM     15  C   UNL     1       3.718  -1.168   2.579  1.00  0.00     0.053 C 
ATOM     16  C   UNL     1       2.924   0.624   1.017  1.00  0.00     0.001 A 
ATOM     17  C   UNL     1       3.433  -2.059   1.390  1.00  0.00     0.230 C 
ATOM     18  C   UNL     1       3.492  -0.167   0.007  1.00  0.00     0.122 A 
ATOM     19  C   UNL     1       2.423   1.886   0.657  1.00  0.00     0.008 A 
ATOM     20  O   UNL     1       3.918  -1.457   0.191  1.00  0.00    -0.493 OA
ATOM     21  C   UNL     1       3.701   0.350  -1.272  1.00  0.00     0.047 A 
ATOM     22  C   UNL     1       2.645   2.409  -0.618  1.00  0.00     0.001 A 
ATOM     23  C   UNL     1       3.306   1.650  -1.577  1.00  0.00     0.004 A 
ENDBRANCH   9  14
ENDBRANCH   6   9
ENDBRANCH   4   5
ENDBRANCH   3   4
ENDBRANCH   2   3
ENDBRANCH   1   2
BRANCH   1  24
ATOM     24  C   UNL     1       3.042   5.127   9.050  1.00  0.00     0.021 C 
BRANCH  24  25
ATOM     25  C   UNL     1       3.521   6.570   8.931  1.00  0.00     0.116 C 
BRANCH  25  26
ATOM     26  N   UNL     1       2.572   7.495   9.533  1.00  0.00    -0.352 N 
ATOM     27  C   UNL     1       2.771   8.383  10.559  1.00  0.00     0.251 C 
ATOM     28  H   UNL     1       1.665   7.480   9.152  1.00  0.00     0.163 HD
ATOM     29  O   UNL     1       1.808   8.902  11.119  1.00  0.00    -0.269 OA
BRANCH  27  30
ATOM     30  C   UNL     1       4.149   8.691  10.992  1.00  0.00     0.039 A 
ATOM     31  C   UNL     1       4.452   8.684  12.355  1.00  0.00     0.014 A 
ATOM     32  C   UNL     1       5.143   8.962  10.047  1.00  0.00     0.014 A 
ATOM     33  C   UNL     1       5.771   8.880  12.766  1.00  0.00     0.010 A 
ATOM     34  C   UNL     1       6.467   9.085  10.455  1.00  0.00     0.010 A 
ATOM     35  C   UNL     1       6.796   9.038  11.818  1.00  0.00    -0.014 A 
BRANCH  35  36
ATOM     36  C   UNL     1       8.222   9.128  12.228  1.00  0.00     0.031 A 
ATOM     37  C   UNL     1       9.012  10.375  11.941  1.00  0.00     0.074 A 
ATOM     38  C   UNL     1       8.820   8.055  12.784  1.00  0.00     0.049 A 
ATOM     39  N   UNL     1      10.286  10.606  12.127  1.00  0.00    -0.248 NA
ATOM     40  C   UNL     1       8.278  11.501  11.342  1.00  0.00     0.031 C 
ATOM     41  C   UNL     1       8.161   6.779  13.078  1.00  0.00     0.029 A 
ATOM     42  N   UNL     1      10.118   7.853  13.186  1.00  0.00    -0.354 N 
ATOM     43  C   UNL     1      10.512  11.893  11.651  1.00  0.00     0.074 A 
ATOM     44  C   UNL     1       9.251  12.375  11.128  1.00  0.00     0.031 C 
ATOM     45  C   UNL     1       9.052   5.937  13.623  1.00  0.00     0.029 A 
ATOM     46  C   UNL     1      10.359   6.585  13.665  1.00  0.00     0.049 A 
ATOM     47  H   UNL     1      10.811   8.550  13.136  1.00  0.00     0.167 HD
ATOM     48  C   UNL     1      11.664  12.607  11.662  1.00  0.00     0.034 A 
ATOM     49  C   UNL     1      11.507   5.999  14.063  1.00  0.00     0.034 A 
ATOM     50  C   UNL     1      12.906  12.113  12.205  1.00  0.00     0.049 A 
ATOM     51  C   UNL     1      12.783   6.806  14.027  1.00  0.00     0.074 A 
ATOM     52  C   UNL     1      14.107  12.785  12.348  1.00  0.00     0.029 A 
ATOM     53  N   UNL     1      13.114  10.823  12.675  1.00  0.00    -0.354 N 
ATOM     54  N   UNL     1      12.961   8.050  13.648  1.00  0.00    -0.248 NA
ATOM     55  C   UNL     1      14.009   6.133  14.475  1.00  0.00     0.031 C 
ATOM     56  C   UNL     1      15.062  11.879  12.816  1.00  0.00     0.029 A 
ATOM     57  C   UNL     1      14.439  10.665  13.054  1.00  0.00     0.049 A 
ATOM     58  H   UNL     1      12.424  10.124  12.730  1.00  0.00     0.167 HD
ATOM     59  C   UNL     1      14.315   8.314  13.838  1.00  0.00     0.074 A 
ATOM     60  C   UNL     1      14.901   7.108  14.384  1.00  0.00     0.031 C 
ATOM     61  C   UNL     1      15.012   9.451  13.586  1.00  0.00     0.034 A 
BRANCH  48  62
ATOM     62  C   UNL     1      11.651  13.982  11.039  1.00  0.00     0.023 A 
ATOM     63  C   UNL     1      10.874  15.030  11.560  1.00  0.00     0.031 A 
ATOM     64  C   UNL     1      12.446  14.250   9.909  1.00  0.00     0.131 A 
ATOM     65  C   UNL     1      10.865  16.279  10.921  1.00  0.00     0.055 A 
ATOM     66  C   UNL     1      12.493  15.516   9.325  1.00  0.00     0.041 A 
ATOM     67  F   UNL     1      13.191  13.282   9.353  1.00  0.00    -0.206 F 
ATOM     68  C   UNL     1      11.690  16.538   9.823  1.00  0.00     0.022 A 
BRANCH  65  69
ATOM     69  S   UNL     1       9.668  17.527  11.469  1.00  0.00     0.124 S 
ATOM     70  O   UNL     1       8.402  16.825  11.275  1.00  0.00    -0.237 OA
ATOM     71  O   UNL     1      10.065  17.758  12.852  1.00  0.00    -0.237 OA
ATOM     72  O   UNL     1       9.898  18.646  10.557  1.00  0.00    -0.744 OA
ENDBRANCH  65  69
ENDBRANCH  48  62
BRANCH  49  73
ATOM     73  C   UNL     1      11.525   4.567  14.487  1.00  0.00     0.023 A 
ATOM     74  C   UNL     1      11.926   4.198  15.780  1.00  0.00     0.031 A 
ATOM     75  C   UNL     1      11.207   3.539  13.580  1.00  0.00     0.131 A 
ATOM     76  C   UNL     1      12.059   2.841  16.113  1.00  0.00     0.055 A 
ATOM     77  C   UNL     1      11.275   2.191  13.937  1.00  0.00     0.041 A 
ATOM     78  F   UNL     1      10.820   3.831  12.328  1.00  0.00    -0.206 F 
ATOM     79  C   UNL     1      11.720   1.835  15.205  1.00  0.00     0.022 A 
BRANCH  76  80
ATOM     80  S   UNL     1      12.802   2.408  17.710  1.00  0.00     0.124 S 
ATOM     81  O   UNL     1      14.078   3.111  17.642  1.00  0.00    -0.237 OA
ATOM     82  O   UNL     1      11.824   2.942  18.652  1.00  0.00    -0.237 OA
ATOM     83  O   UNL     1      12.887   0.950  17.661  1.00  0.00    -0.744 OA
ENDBRANCH  76  80
ENDBRANCH  49  73
BRANCH  61  84
ATOM     84  C   UNL     1      16.481   9.453  13.932  1.00  0.00     0.023 A 
ATOM     85  C   UNL     1      17.404   8.651  13.239  1.00  0.00     0.031 A 
ATOM     86  C   UNL     1      16.964  10.282  14.960  1.00  0.00     0.131 A 
ATOM     87  C   UNL     1      18.756   8.662  13.613  1.00  0.00     0.055 A 
ATOM     88  C   UNL     1      18.320  10.336  15.285  1.00  0.00     0.041 A 
ATOM     89  F   UNL     1      16.125  11.065  15.658  1.00  0.00    -0.206 F 
ATOM     90  C   UNL     1      19.223   9.515  14.616  1.00  0.00     0.022 A 
BRANCH  87  91
ATOM     91  S   UNL     1      19.889   7.490  12.819  1.00  0.00     0.124 S 
ATOM     92  O   UNL     1      19.300   6.205  13.183  1.00  0.00    -0.237 OA
ATOM     93  O   UNL     1      19.789   7.861  11.411  1.00  0.00    -0.237 OA
ATOM     94  O   UNL     1      21.178   7.781  13.444  1.00  0.00    -0.744 OA
ENDBRANCH  87  91
ENDBRANCH  61  84
ENDBRANCH  35  36
ENDBRANCH  27  30
ENDBRANCH  25  26
ENDBRANCH  24  25
ENDBRANCH   1  24
TORSDOF 19
