REMARK SMILES COc1cccc([C@@H]2CN(C(=O)c3cnn(C)c3)C[C@H]2C(=O)NCCCCCCNC(=O)c2ccc(-c3c4nc(c(-c5cc(S(=O)(=O)[O-])ccc5F)c5ccc([nH]5)c(-c5cc(S(=O)(=O)[O-])ccc5F)c5nc(c(-c6cc(S(=O)(=O)[O-])ccc6F)c6ccc3[nH]6)C=C5)C=C4)cc2)c1OC
REMARK SMILES IDX 27 1 26 2 25 3 24 4 23 5 21 6 22 7 20 9 8 10 9 11 10 12
REMARK SMILES IDX 19 13 7 14 3 15 4 16 96 17 5 18 6 19 2 20 1 21 97 22 98 23
REMARK SMILES IDX 11 24 12 25 13 26 14 27 18 28 15 29 16 30 17 31 28 32 29 33
REMARK SMILES IDX 30 34 31 35 32 37 33 38 34 39 95 40 35 41 94 42 36 43 37 44
REMARK SMILES IDX 38 45 88 46 39 47 93 48 87 49 89 50 40 51 92 52 86 53 85 54
REMARK SMILES IDX 41 56 73 57 53 58 72 59 54 60 57 61 71 62 90 63 55 64 56 65
REMARK SMILES IDX 70 67 91 68 58 69 42 70 43 71 51 72 44 73 50 74 52 75 49 76
REMARK SMILES IDX 45 77 46 78 47 79 48 80 74 81 75 82 83 83 76 84 82 85 84 86
REMARK SMILES IDX 81 87 77 88 78 89 79 90 80 91 59 92 60 93 68 94 61 95 67 96
REMARK SMILES IDX 69 97 66 98 62 99 63 100 64 101 65 102
REMARK H PARENT 23 8 30 36 89 55 57 66
REMARK Flexibility Score: inf
ROOT
ATOM      1  C   UNL     1       6.045  -8.964   3.927  1.00  0.00     0.002 C 
ENDROOT
BRANCH   1   2
ATOM      2  C   UNL     1       4.729  -8.196   4.087  1.00  0.00     0.002 C 
BRANCH   2   3
ATOM      3  C   UNL     1       4.865  -6.680   4.263  1.00  0.00     0.021 C 
BRANCH   3   4
ATOM      4  C   UNL     1       5.642  -5.975   3.153  1.00  0.00     0.116 C 
BRANCH   4   5
ATOM      5  N   UNL     1       4.909  -5.975   1.899  1.00  0.00    -0.356 N 
ATOM      6  C   UNL     1       4.455  -4.956   1.123  1.00  0.00     0.225 C 
ATOM      7  O   UNL     1       3.872  -5.263   0.078  1.00  0.00    -0.275 OA
ATOM      8  H   UNL     1       4.706  -6.872   1.549  1.00  0.00     0.163 HD
BRANCH   6   9
ATOM      9  C   UNL     1       4.634  -3.492   1.489  1.00  0.00     0.107 C 
ATOM     10  C   UNL     1       3.934  -3.087   2.800  1.00  0.00     0.057 C 
ATOM     11  C   UNL     1       4.912  -2.132   3.490  1.00  0.00     0.129 C 
ATOM     12  N   UNL     1       6.219  -2.472   2.954  1.00  0.00    -0.337 N 
ATOM     13  C   UNL     1       6.100  -3.100   1.650  1.00  0.00     0.134 C 
BRANCH  10  14
ATOM     14  C   UNL     1       2.530  -2.527   2.655  1.00  0.00     0.004 A 
ATOM     15  C   UNL     1       0.915  -0.898   1.837  1.00  0.00     0.161 A 
ATOM     16  C   UNL     1      -0.107  -1.565   2.521  1.00  0.00     0.050 A 
ATOM     17  C   UNL     1       2.239  -1.365   1.908  1.00  0.00     0.164 A 
ATOM     18  C   UNL     1       0.172  -2.720   3.244  1.00  0.00     0.004 A 
ATOM     19  C   UNL     1       1.478  -3.200   3.305  1.00  0.00     0.008 A 
BRANCH  15  20
ATOM     20  O   UNL     1       0.630   0.269   1.175  1.00  0.00    -0.493 OA
ATOM     21  C   UNL     1      -0.321   0.067   0.130  1.00  0.00     0.278 C 
ENDBRANCH  15  20
BRANCH  17  22
ATOM     22  O   UNL     1       3.321  -0.732   1.349  1.00  0.00    -0.493 OA
ATOM     23  C   UNL     1       3.129  -0.155   0.064  1.00  0.00     0.278 C 
ENDBRANCH  17  22
ENDBRANCH  10  14
BRANCH  12  24
ATOM     24  C   UNL     1       7.455  -2.016   3.390  1.00  0.00     0.257 C 
ATOM     25  O   UNL     1       8.465  -2.163   2.707  1.00  0.00    -0.269 OA
BRANCH  24  26
ATOM     26  C   UNL     1       7.514  -1.312   4.658  1.00  0.00     0.077 A 
ATOM     27  C   UNL     1       8.245  -0.136   4.936  1.00  0.00     0.149 A 
ATOM     28  C   UNL     1       6.957  -1.647   5.878  1.00  0.00     0.122 A 
ATOM     29  N   UNL     1       8.075   0.297   6.189  1.00  0.00    -0.181 NA
ATOM     30  N   UNL     1       7.292  -0.645   6.743  1.00  0.00    -0.275 N 
ATOM     31  C   UNL     1       6.872  -0.508   8.116  1.00  0.00     0.173 C 
ENDBRANCH  24  26
ENDBRANCH  12  24
ENDBRANCH   6   9
ENDBRANCH   4   5
ENDBRANCH   3   4
ENDBRANCH   2   3
ENDBRANCH   1   2
BRANCH   1  32
ATOM     32  C   UNL     1       7.109  -8.692   4.995  1.00  0.00     0.021 C 
BRANCH  32  33
ATOM     33  C   UNL     1       6.671  -8.937   6.436  1.00  0.00     0.116 C 
BRANCH  33  34
ATOM     34  N   UNL     1       6.311 -10.322   6.675  1.00  0.00    -0.352 N 
ATOM     35  C   UNL     1       6.665 -11.148   7.712  1.00  0.00     0.251 C 
ATOM     36  H   UNL     1       5.726 -10.728   5.994  1.00  0.00     0.163 HD
ATOM     37  O   UNL     1       6.393 -12.344   7.646  1.00  0.00    -0.269 OA
BRANCH  35  38
ATOM     38  C   UNL     1       7.388 -10.613   8.890  1.00  0.00     0.039 A 
ATOM     39  C   UNL     1       8.438 -11.365   9.427  1.00  0.00     0.014 A 
ATOM     40  C   UNL     1       7.013  -9.409   9.495  1.00  0.00     0.014 A 
ATOM     41  C   UNL     1       9.132 -10.895  10.545  1.00  0.00     0.010 A 
ATOM     42  C   UNL     1       7.742  -8.914  10.576  1.00  0.00     0.010 A 
ATOM     43  C   UNL     1       8.800  -9.659  11.121  1.00  0.00    -0.014 A 
BRANCH  43  44
ATOM     44  C   UNL     1       9.521  -9.159  12.320  1.00  0.00     0.031 A 
ATOM     45  C   UNL     1       8.805  -9.058  13.640  1.00  0.00     0.074 A 
ATOM     46  C   UNL     1      10.803  -8.759  12.213  1.00  0.00     0.049 A 
ATOM     47  N   UNL     1       9.241  -8.606  14.788  1.00  0.00    -0.248 NA
ATOM     48  C   UNL     1       7.402  -9.494  13.659  1.00  0.00     0.031 C 
ATOM     49  C   UNL     1      11.590  -8.766  10.979  1.00  0.00     0.029 A 
ATOM     50  N   UNL     1      11.666  -8.261  13.155  1.00  0.00    -0.354 N 
ATOM     51  C   UNL     1       8.162  -8.689  15.663  1.00  0.00     0.074 A 
ATOM     52  C   UNL     1       7.039  -9.180  14.893  1.00  0.00     0.031 C 
ATOM     53  C   UNL     1      12.826  -8.311  11.244  1.00  0.00     0.029 A 
ATOM     54  C   UNL     1      12.911  -7.955  12.657  1.00  0.00     0.049 A 
ATOM     55  H   UNL     1      11.418  -8.134  14.099  1.00  0.00     0.167 HD
ATOM     56  C   UNL     1       8.118  -8.402  16.989  1.00  0.00     0.034 A 
ATOM     57  C   UNL     1      13.997  -7.445  13.271  1.00  0.00     0.034 A 
ATOM     58  C   UNL     1       9.252  -7.932  17.747  1.00  0.00     0.049 A 
ATOM     59  C   UNL     1      13.934  -7.159  14.748  1.00  0.00     0.074 A 
ATOM     60  C   UNL     1       9.333  -7.655  19.102  1.00  0.00     0.029 A 
ATOM     61  N   UNL     1      10.508  -7.668  17.215  1.00  0.00    -0.354 N 
ATOM     62  N   UNL     1      12.919  -7.284  15.571  1.00  0.00    -0.248 NA
ATOM     63  C   UNL     1      15.170  -6.681  15.381  1.00  0.00     0.031 C 
ATOM     64  C   UNL     1      10.621  -7.180  19.378  1.00  0.00     0.029 A 
ATOM     65  C   UNL     1      11.363  -7.217  18.209  1.00  0.00     0.049 A 
ATOM     66  H   UNL     1      10.755  -7.785  16.270  1.00  0.00     0.167 HD
ATOM     67  C   UNL     1      13.404  -6.926  16.826  1.00  0.00     0.074 A 
ATOM     68  C   UNL     1      14.803  -6.593  16.651  1.00  0.00     0.031 C 
ATOM     69  C   UNL     1      12.753  -6.880  18.016  1.00  0.00     0.034 A 
BRANCH  56  70
ATOM     70  C   UNL     1       6.787  -8.566  17.684  1.00  0.00     0.023 A 
ATOM     71  C   UNL     1       6.162  -9.821  17.791  1.00  0.00     0.031 A 
ATOM     72  C   UNL     1       6.112  -7.448  18.205  1.00  0.00     0.131 A 
ATOM     73  C   UNL     1       4.866  -9.915  18.322  1.00  0.00     0.055 A 
ATOM     74  C   UNL     1       4.858  -7.561  18.809  1.00  0.00     0.041 A 
ATOM     75  F   UNL     1       6.649  -6.221  18.115  1.00  0.00    -0.206 F 
ATOM     76  C   UNL     1       4.220  -8.797  18.854  1.00  0.00     0.022 A 
BRANCH  73  77
ATOM     77  S   UNL     1       3.980 -11.489  18.165  1.00  0.00     0.124 S 
ATOM     78  O   UNL     1       3.949 -11.665  16.715  1.00  0.00    -0.237 OA
ATOM     79  O   UNL     1       4.836 -12.409  18.904  1.00  0.00    -0.237 OA
ATOM     80  O   UNL     1       2.682 -11.214  18.779  1.00  0.00    -0.744 OA
ENDBRANCH  73  77
ENDBRANCH  56  70
BRANCH  57  81
ATOM     81  C   UNL     1      15.240  -7.178  12.497  1.00  0.00     0.023 A 
ATOM     82  C   UNL     1      16.402  -7.935  12.713  1.00  0.00     0.031 A 
ATOM     83  C   UNL     1      15.292  -6.139  11.552  1.00  0.00     0.131 A 
ATOM     84  C   UNL     1      17.581  -7.616  12.024  1.00  0.00     0.055 A 
ATOM     85  C   UNL     1      16.456  -5.852  10.838  1.00  0.00     0.041 A 
ATOM     86  F   UNL     1      14.203  -5.395  11.303  1.00  0.00    -0.206 F 
ATOM     87  C   UNL     1      17.614  -6.585  11.081  1.00  0.00     0.022 A 
BRANCH  84  88
ATOM     88  S   UNL     1      19.095  -8.530  12.426  1.00  0.00     0.124 S 
ATOM     89  O   UNL     1      19.236  -8.261  13.852  1.00  0.00    -0.237 OA
ATOM     90  O   UNL     1      18.729  -9.896  12.064  1.00  0.00    -0.237 OA
ATOM     91  O   UNL     1      20.105  -7.911  11.570  1.00  0.00    -0.744 OA
ENDBRANCH  84  88
ENDBRANCH  57  81
BRANCH  69  92
ATOM     92  C   UNL     1      13.572  -6.498  19.223  1.00  0.00     0.023 A 
ATOM     93  C   UNL     1      14.072  -5.196  19.394  1.00  0.00     0.031 A 
ATOM     94  C   UNL     1      13.876  -7.461  20.201  1.00  0.00     0.131 A 
ATOM     95  C   UNL     1      14.897  -4.904  20.490  1.00  0.00     0.055 A 
ATOM     96  C   UNL     1      14.655  -7.152  21.317  1.00  0.00     0.041 A 
ATOM     97  F   UNL     1      13.423  -8.719  20.085  1.00  0.00    -0.206 F 
ATOM     98  C   UNL     1      15.182  -5.870  21.459  1.00  0.00     0.022 A 
BRANCH  95  99
ATOM     99  S   UNL     1      15.667  -3.265  20.589  1.00  0.00     0.124 S 
ATOM    100  O   UNL     1      16.403  -3.197  19.330  1.00  0.00    -0.237 OA
ATOM    101  O   UNL     1      14.509  -2.383  20.699  1.00  0.00    -0.237 OA
ATOM    102  O   UNL     1      16.498  -3.348  21.789  1.00  0.00    -0.744 OA
ENDBRANCH  95  99
ENDBRANCH  69  92
ENDBRANCH  43  44
ENDBRANCH  35  38
ENDBRANCH  33  34
ENDBRANCH  32  33
ENDBRANCH   1  32
TORSDOF 21
