REMARK SMILES Cc1cnn(C2(C(=O)NCCCCCCNC(=O)c3ccc(-c4c5nc(c(-c6cc(S(=O)(=O)[O-])ccc6F)c6ccc([nH]6)c(-c6cc(S(=O)(=O)[O-])ccc6F)c6nc(c(-c7cc(S(=O)(=O)[O-])ccc7F)c7ccc4[nH]7)C=C6)C=C5)cc3)CCN(C(=O)c3cc4ccccc4[nH]3)CC2)c1
REMARK SMILES IDX 13 1 12 2 11 3 10 4 9 5 7 6 8 7 6 9 82 10 97 11 83 12 96 13
REMARK SMILES IDX 84 14 85 15 86 16 5 17 1 18 2 19 3 20 98 21 4 22 87 23 88 24
REMARK SMILES IDX 95 25 89 26 94 27 90 29 93 30 91 31 92 32 14 33 15 34 16 35
REMARK SMILES IDX 17 36 18 38 19 39 20 40 81 41 21 42 80 43 22 44 23 45 24 46
REMARK SMILES IDX 74 47 25 48 79 49 73 50 75 51 26 52 78 53 72 54 71 55 27 57
REMARK SMILES IDX 59 58 39 59 58 60 40 61 43 62 57 63 76 64 41 65 42 66 56 68
REMARK SMILES IDX 77 69 44 70 28 71 29 72 37 73 30 74 36 75 38 76 35 77 31 78
REMARK SMILES IDX 32 79 33 80 34 81 60 82 61 83 69 84 62 85 68 86 70 87 67 88
REMARK SMILES IDX 63 89 64 90 65 91 66 92 45 93 46 94 54 95 47 96 53 97 55 98
REMARK SMILES IDX 52 99 48 100 49 101 50 102 51 103
REMARK H PARENT 9 8 95 28 16 37 75 56 43 67
REMARK Flexibility Score: inf
ROOT
ATOM      1  C   UNL     1      -2.403   3.700  -9.711  1.00  0.00     0.002 C 
ENDROOT
BRANCH   1   2
ATOM      2  C   UNL     1      -0.946   3.345  -9.381  1.00  0.00     0.002 C 
BRANCH   2   3
ATOM      3  C   UNL     1      -0.414   3.860  -8.039  1.00  0.00     0.021 C 
BRANCH   3   4
ATOM      4  C   UNL     1      -1.276   3.492  -6.831  1.00  0.00     0.116 C 
BRANCH   4   5
ATOM      5  N   UNL     1      -1.286   2.055  -6.607  1.00  0.00    -0.354 N 
ATOM      6  C   UNL     1      -0.854   1.261  -5.572  1.00  0.00     0.248 C 
ATOM      7  O   UNL     1      -0.899   0.058  -5.839  1.00  0.00    -0.272 OA
ATOM      8  H   UNL     1      -1.683   1.546  -7.350  1.00  0.00     0.163 HD
BRANCH   6   9
ATOM      9  C   UNL     1      -0.372   1.878  -4.213  1.00  0.00     0.144 C 
ATOM     10  C   UNL     1       0.905   2.708  -4.523  1.00  0.00     0.062 C 
ATOM     11  C   UNL     1      -1.570   2.683  -3.639  1.00  0.00     0.062 C 
ATOM     12  C   UNL     1       1.110   3.957  -3.674  1.00  0.00     0.123 C 
ATOM     13  C   UNL     1      -1.177   3.833  -2.726  1.00  0.00     0.123 C 
ATOM     14  N   UNL     1      -0.127   4.641  -3.332  1.00  0.00    -0.337 N 
ATOM     15  C   UNL     1      -0.228   6.012  -3.558  1.00  0.00     0.270 C 
ATOM     16  O   UNL     1       0.501   6.591  -4.364  1.00  0.00    -0.267 OA
BRANCH   9  17
ATOM     17  N   UNL     1      -0.020   0.857  -3.172  1.00  0.00    -0.257 N 
ATOM     18  C   UNL     1       1.097  -0.299   0.122  1.00  0.00     0.048 C 
ATOM     19  C   UNL     1       0.591  -0.078  -1.248  1.00  0.00    -0.013 A 
ATOM     20  C   UNL     1       0.033  -1.004  -2.143  1.00  0.00     0.138 A 
ATOM     21  C   UNL     1       0.552   1.109  -1.943  1.00  0.00     0.113 A 
ATOM     22  N   UNL     1      -0.401  -0.431  -3.264  1.00  0.00    -0.180 NA
ENDBRANCH   9  17
BRANCH  15  23
ATOM     23  C   UNL     1      -1.255   6.727  -2.844  1.00  0.00     0.105 A 
ATOM     24  C   UNL     1      -1.503   6.819  -1.484  1.00  0.00     0.042 A 
ATOM     25  N   UNL     1      -2.165   7.544  -3.469  1.00  0.00    -0.351 N 
ATOM     26  C   UNL     1      -2.644   7.646  -1.297  1.00  0.00     0.000 A 
ATOM     27  C   UNL     1      -3.074   8.038  -2.563  1.00  0.00     0.046 A 
ATOM     28  H   UNL     1      -2.166   7.748  -4.432  1.00  0.00     0.167 HD
ATOM     29  C   UNL     1      -3.355   8.096  -0.169  1.00  0.00     0.010 A 
ATOM     30  C   UNL     1      -4.217   8.819  -2.765  1.00  0.00     0.026 A 
ATOM     31  C   UNL     1      -4.489   8.897  -0.351  1.00  0.00     0.001 A 
ATOM     32  C   UNL     1      -4.920   9.238  -1.632  1.00  0.00     0.002 A 
ENDBRANCH  15  23
ENDBRANCH   6   9
ENDBRANCH   4   5
ENDBRANCH   3   4
ENDBRANCH   2   3
ENDBRANCH   1   2
BRANCH   1  33
ATOM     33  C   UNL     1      -2.794   5.181  -9.594  1.00  0.00     0.021 C 
BRANCH  33  34
ATOM     34  C   UNL     1      -2.034   6.100 -10.536  1.00  0.00     0.116 C 
BRANCH  34  35
ATOM     35  N   UNL     1      -2.358   5.864 -11.942  1.00  0.00    -0.352 N 
ATOM     36  C   UNL     1      -1.825   6.492 -13.061  1.00  0.00     0.251 C 
ATOM     37  H   UNL     1      -3.039   5.175 -12.118  1.00  0.00     0.163 HD
ATOM     38  O   UNL     1      -2.434   6.514 -14.111  1.00  0.00    -0.269 OA
BRANCH  36  39
ATOM     39  C   UNL     1      -0.497   7.128 -12.929  1.00  0.00     0.039 A 
ATOM     40  C   UNL     1      -0.186   8.345 -13.539  1.00  0.00     0.014 A 
ATOM     41  C   UNL     1       0.435   6.481 -12.126  1.00  0.00     0.014 A 
ATOM     42  C   UNL     1       1.048   8.936 -13.259  1.00  0.00     0.010 A 
ATOM     43  C   UNL     1       1.539   7.158 -11.689  1.00  0.00     0.010 A 
ATOM     44  C   UNL     1       1.900   8.342 -12.313  1.00  0.00    -0.014 A 
BRANCH  44  45
ATOM     45  C   UNL     1       3.126   8.992 -11.852  1.00  0.00     0.031 A 
ATOM     46  C   UNL     1       2.899  10.364 -11.339  1.00  0.00     0.074 A 
ATOM     47  C   UNL     1       4.292   8.326 -11.668  1.00  0.00     0.049 A 
ATOM     48  N   UNL     1       3.153  11.480 -11.937  1.00  0.00    -0.248 NA
ATOM     49  C   UNL     1       2.098  10.528 -10.111  1.00  0.00     0.031 C 
ATOM     50  C   UNL     1       4.528   6.883 -11.840  1.00  0.00     0.029 A 
ATOM     51  N   UNL     1       5.492   8.759 -11.182  1.00  0.00    -0.354 N 
ATOM     52  C   UNL     1       2.863  12.468 -10.999  1.00  0.00     0.074 A 
ATOM     53  C   UNL     1       1.963  11.856 -10.064  1.00  0.00     0.031 C 
ATOM     54  C   UNL     1       5.686   6.528 -11.241  1.00  0.00     0.029 A 
ATOM     55  C   UNL     1       6.375   7.736 -10.828  1.00  0.00     0.049 A 
ATOM     56  H   UNL     1       5.716   9.713 -11.088  1.00  0.00     0.167 HD
ATOM     57  C   UNL     1       3.692  13.543 -10.870  1.00  0.00     0.034 A 
ATOM     58  C   UNL     1       7.610   7.853 -10.272  1.00  0.00     0.034 A 
ATOM     59  C   UNL     1       4.613  13.590 -11.987  1.00  0.00     0.049 A 
ATOM     60  C   UNL     1       8.105   9.198 -10.634  1.00  0.00     0.074 A 
ATOM     61  C   UNL     1       4.561  13.907 -13.326  1.00  0.00     0.029 A 
ATOM     62  N   UNL     1       5.754  12.852 -11.787  1.00  0.00    -0.354 N 
ATOM     63  N   UNL     1       8.313   9.562 -11.871  1.00  0.00    -0.248 NA
ATOM     64  C   UNL     1       7.987  10.293  -9.678  1.00  0.00     0.031 C 
ATOM     65  C   UNL     1       5.618  13.174 -13.948  1.00  0.00     0.029 A 
ATOM     66  C   UNL     1       6.327  12.476 -12.973  1.00  0.00     0.049 A 
ATOM     67  H   UNL     1       6.116  12.623 -10.900  1.00  0.00     0.167 HD
ATOM     68  C   UNL     1       7.907  10.880 -11.915  1.00  0.00     0.074 A 
ATOM     69  C   UNL     1       7.897  11.323 -10.526  1.00  0.00     0.031 C 
ATOM     70  C   UNL     1       7.296  11.393 -13.023  1.00  0.00     0.034 A 
BRANCH  57  71
ATOM     71  C   UNL     1       4.064  14.229  -9.559  1.00  0.00     0.023 A 
ATOM     72  C   UNL     1       5.034  15.254  -9.631  1.00  0.00     0.031 A 
ATOM     73  C   UNL     1       3.775  13.764  -8.256  1.00  0.00     0.131 A 
ATOM     74  C   UNL     1       5.731  15.684  -8.488  1.00  0.00     0.055 A 
ATOM     75  C   UNL     1       4.444  14.223  -7.115  1.00  0.00     0.041 A 
ATOM     76  F   UNL     1       2.898  12.789  -8.004  1.00  0.00    -0.206 F 
ATOM     77  C   UNL     1       5.449  15.165  -7.229  1.00  0.00     0.022 A 
BRANCH  74  78
ATOM     78  S   UNL     1       7.124  16.824  -8.693  1.00  0.00     0.124 S 
ATOM     79  O   UNL     1       7.941  16.126  -9.678  1.00  0.00    -0.237 OA
ATOM     80  O   UNL     1       6.451  18.036  -9.152  1.00  0.00    -0.237 OA
ATOM     81  O   UNL     1       7.696  16.902  -7.351  1.00  0.00    -0.744 OA
ENDBRANCH  74  78
ENDBRANCH  57  71
BRANCH  58  82
ATOM     82  C   UNL     1       8.222   6.997  -9.217  1.00  0.00     0.023 A 
ATOM     83  C   UNL     1       9.615   6.907  -8.994  1.00  0.00     0.031 A 
ATOM     84  C   UNL     1       7.384   6.442  -8.224  1.00  0.00     0.131 A 
ATOM     85  C   UNL     1      10.110   6.300  -7.812  1.00  0.00     0.055 A 
ATOM     86  C   UNL     1       7.878   5.855  -7.057  1.00  0.00     0.041 A 
ATOM     87  F   UNL     1       6.048   6.532  -8.319  1.00  0.00    -0.206 F 
ATOM     88  C   UNL     1       9.245   5.792  -6.840  1.00  0.00     0.022 A 
BRANCH  85  89
ATOM     89  S   UNL     1      11.904   6.225  -7.479  1.00  0.00     0.124 S 
ATOM     90  O   UNL     1      12.384   5.362  -8.552  1.00  0.00    -0.237 OA
ATOM     91  O   UNL     1      12.295   7.628  -7.549  1.00  0.00    -0.237 OA
ATOM     92  O   UNL     1      11.980   5.636  -6.141  1.00  0.00    -0.744 OA
ENDBRANCH  85  89
ENDBRANCH  58  82
BRANCH  70  93
ATOM     93  C   UNL     1       7.576  10.734 -14.351  1.00  0.00     0.023 A 
ATOM     94  C   UNL     1       7.222   9.415 -14.713  1.00  0.00     0.031 A 
ATOM     95  C   UNL     1       8.211  11.531 -15.320  1.00  0.00     0.131 A 
ATOM     96  C   UNL     1       7.511   8.945 -16.011  1.00  0.00     0.055 A 
ATOM     97  C   UNL     1       8.476  11.070 -16.607  1.00  0.00     0.041 A 
ATOM     98  F   UNL     1       8.566  12.795 -15.034  1.00  0.00    -0.206 F 
ATOM     99  C   UNL     1       8.131   9.771 -16.956  1.00  0.00     0.022 A 
BRANCH  96 100
ATOM    100  S   UNL     1       7.114   7.232 -16.496  1.00  0.00     0.124 S 
ATOM    101  O   UNL     1       7.650   6.434 -15.400  1.00  0.00    -0.237 OA
ATOM    102  O   UNL     1       5.658   7.266 -16.609  1.00  0.00    -0.237 OA
ATOM    103  O   UNL     1       7.817   7.067 -17.770  1.00  0.00    -0.744 OA
ENDBRANCH  96 100
ENDBRANCH  70  93
ENDBRANCH  44  45
ENDBRANCH  36  39
ENDBRANCH  34  35
ENDBRANCH  33  34
ENDBRANCH   1  33
TORSDOF 18
