REMARK SMILES Cc1cc([C@@H](C)NC(=O)N[C@H]2C=C[C@@H](C(=O)NCCCCCCNC(=O)c3ccc(-c4c5nc(c(-c6cc(S(=O)(=O)[O-])ccc6F)c6ccc([nH]6)c(-c6cc(S(=O)(=O)[O-])ccc6F)c6nc(c(-c7cc(S(=O)(=O)[O-])ccc7F)c7ccc4[nH]7)C=C6)C=C5)cc3)C2)c(C)s1
REMARK SMILES IDX 20 1 19 2 18 3 17 4 15 5 16 6 14 8 11 9 12 10 90 11 13 12
REMARK SMILES IDX 10 13 7 14 8 15 9 17 5 19 6 20 4 21 1 22 2 23 3 24 93 25
REMARK SMILES IDX 91 26 92 27 21 28 22 29 23 30 24 31 25 32 26 34 27 35 28 36
REMARK SMILES IDX 89 37 29 38 88 39 30 40 31 41 32 42 82 43 33 44 87 45 81 46
REMARK SMILES IDX 83 47 34 48 86 49 80 50 79 51 35 53 67 54 47 55 66 56 48 57
REMARK SMILES IDX 51 58 65 59 84 60 49 61 50 62 64 64 85 65 52 66 36 67 37 68
REMARK SMILES IDX 45 69 38 70 44 71 46 72 43 73 39 74 40 75 41 76 42 77 68 78
REMARK SMILES IDX 69 79 77 80 70 81 76 82 78 83 75 84 71 85 72 86 73 87 74 88
REMARK SMILES IDX 53 89 54 90 62 91 55 92 61 93 63 94 60 95 56 96 57 97 58 98
REMARK SMILES IDX 59 99
REMARK H PARENT 17 7 7 16 10 18 24 33 83 52 51 63
REMARK Flexibility Score: inf
ROOT
ATOM      1  C   UNL     1      -2.320  -2.940   5.435  1.00  0.00     0.002 C 
ENDROOT
BRANCH   1   2
ATOM      2  C   UNL     1      -1.361  -3.400   4.333  1.00  0.00     0.021 C 
BRANCH   2   3
ATOM      3  C   UNL     1      -1.927  -4.479   3.417  1.00  0.00     0.116 C 
BRANCH   3   4
ATOM      4  N   UNL     1      -3.003  -3.983   2.586  1.00  0.00    -0.356 N 
ATOM      5  C   UNL     1      -3.240  -4.179   1.262  1.00  0.00     0.227 C 
ATOM      6  O   UNL     1      -4.248  -3.653   0.777  1.00  0.00    -0.274 OA
ATOM      7  H   UNL     1      -3.663  -3.417   3.049  1.00  0.00     0.163 HD
BRANCH   5   8
ATOM      8  C   UNL     1      -2.271  -4.950   0.360  1.00  0.00     0.103 C 
ATOM      9  C   UNL     1       0.203  -5.203   0.363  1.00  0.00     0.107 C 
ATOM     10  C   UNL     1      -0.518  -6.464   0.746  1.00  0.00    -0.006 C 
ATOM     11  C   UNL     1      -0.949  -4.210   0.183  1.00  0.00     0.047 C 
ATOM     12  C   UNL     1      -1.850  -6.321   0.770  1.00  0.00    -0.016 C 
BRANCH   9  13
ATOM     13  N   UNL     1       1.114  -4.850   1.432  1.00  0.00    -0.332 N 
ATOM     14  N   UNL     1       2.163  -2.795   0.865  1.00  0.00    -0.332 N 
ATOM     15  C   UNL     1       1.956  -3.840   1.668  1.00  0.00     0.315 C 
ATOM     16  H   UNL     1       2.795  -2.150   1.257  1.00  0.00     0.165 HD
ATOM     17  O   UNL     1       2.587  -3.872   2.728  1.00  0.00    -0.249 OA
ATOM     18  H   UNL     1       1.112  -5.513   2.159  1.00  0.00     0.165 HD
BRANCH  14  19
ATOM     19  C   UNL     1       1.692  -2.369  -0.441  1.00  0.00     0.112 C 
ATOM     20  C   UNL     1       2.819  -2.351  -1.467  1.00  0.00     0.036 C 
BRANCH  19  21
ATOM     21  C   UNL     1       0.958  -1.045  -0.277  1.00  0.00    -0.012 A 
ATOM     22  C   UNL     1      -2.408   0.719  -0.045  1.00  0.00     0.056 C 
ATOM     23  C   UNL     1      -0.977   0.309  -0.107  1.00  0.00     0.002 A 
ATOM     24  C   UNL     1      -0.470  -0.926  -0.436  1.00  0.00     0.021 A 
ATOM     25  S   UNL     1       0.272   1.405   0.234  1.00  0.00    -0.146 S 
ATOM     26  C   UNL     1       1.489   0.202   0.046  1.00  0.00     0.007 A 
ATOM     27  C   UNL     1       2.906   0.630   0.240  1.00  0.00     0.057 C 
ENDBRANCH  19  21
ENDBRANCH  14  19
ENDBRANCH   9  13
ENDBRANCH   5   8
ENDBRANCH   3   4
ENDBRANCH   2   3
ENDBRANCH   1   2
BRANCH   1  28
ATOM     28  C   UNL     1      -2.899  -4.066   6.298  1.00  0.00     0.002 C 
BRANCH  28  29
ATOM     29  C   UNL     1      -1.862  -5.000   6.927  1.00  0.00     0.021 C 
BRANCH  29  30
ATOM     30  C   UNL     1      -0.839  -4.303   7.816  1.00  0.00     0.116 C 
BRANCH  30  31
ATOM     31  N   UNL     1      -1.470  -3.650   8.951  1.00  0.00    -0.352 N 
ATOM     32  C   UNL     1      -1.233  -3.817  10.291  1.00  0.00     0.251 C 
ATOM     33  H   UNL     1      -2.168  -2.993   8.725  1.00  0.00     0.163 HD
ATOM     34  O   UNL     1      -2.027  -3.357  11.111  1.00  0.00    -0.269 OA
BRANCH  32  35
ATOM     35  C   UNL     1      -0.042  -4.567  10.742  1.00  0.00     0.039 A 
ATOM     36  C   UNL     1      -0.174  -5.481  11.790  1.00  0.00     0.014 A 
ATOM     37  C   UNL     1       1.204  -4.365  10.139  1.00  0.00     0.014 A 
ATOM     38  C   UNL     1       0.930  -6.233  12.193  1.00  0.00     0.010 A 
ATOM     39  C   UNL     1       2.283  -5.173  10.489  1.00  0.00     0.010 A 
ATOM     40  C   UNL     1       2.159  -6.112  11.524  1.00  0.00    -0.014 A 
BRANCH  40  41
ATOM     41  C   UNL     1       3.318  -6.967  11.893  1.00  0.00     0.031 A 
ATOM     42  C   UNL     1       4.579  -6.345  12.430  1.00  0.00     0.074 A 
ATOM     43  C   UNL     1       3.251  -8.298  11.692  1.00  0.00     0.049 A 
ATOM     44  N   UNL     1       5.707  -6.919  12.764  1.00  0.00    -0.248 NA
ATOM     45  C   UNL     1       4.581  -4.883  12.583  1.00  0.00     0.031 C 
ATOM     46  C   UNL     1       2.098  -9.008  11.132  1.00  0.00     0.029 A 
ATOM     47  N   UNL     1       4.168  -9.291  11.927  1.00  0.00    -0.354 N 
ATOM     48  C   UNL     1       6.556  -5.888  13.154  1.00  0.00     0.074 A 
ATOM     49  C   UNL     1       5.831  -4.652  12.955  1.00  0.00     0.031 C 
ATOM     50  C   UNL     1       2.368 -10.322  11.091  1.00  0.00     0.029 A 
ATOM     51  C   UNL     1       3.728 -10.546  11.571  1.00  0.00     0.049 A 
ATOM     52  H   UNL     1       5.057  -9.123  12.314  1.00  0.00     0.167 HD
ATOM     53  C   UNL     1       7.816  -5.970  13.650  1.00  0.00     0.034 A 
ATOM     54  C   UNL     1       4.353 -11.739  11.608  1.00  0.00     0.034 A 
ATOM     55  C   UNL     1       8.520  -7.216  13.844  1.00  0.00     0.049 A 
ATOM     56  C   UNL     1       5.761 -11.804  12.142  1.00  0.00     0.074 A 
ATOM     57  C   UNL     1       9.769  -7.421  14.403  1.00  0.00     0.029 A 
ATOM     58  N   UNL     1       8.045  -8.467  13.468  1.00  0.00    -0.354 N 
ATOM     59  N   UNL     1       6.526 -10.828  12.575  1.00  0.00    -0.248 NA
ATOM     60  C   UNL     1       6.386 -13.130  12.202  1.00  0.00     0.031 C 
ATOM     61  C   UNL     1      10.085  -8.779  14.286  1.00  0.00     0.029 A 
ATOM     62  C   UNL     1       8.996  -9.441  13.741  1.00  0.00     0.049 A 
ATOM     63  H   UNL     1       7.163  -8.638  13.066  1.00  0.00     0.167 HD
ATOM     64  C   UNL     1       7.713 -11.429  12.985  1.00  0.00     0.074 A 
ATOM     65  C   UNL     1       7.553 -12.852  12.765  1.00  0.00     0.031 C 
ATOM     66  C   UNL     1       8.833 -10.857  13.499  1.00  0.00     0.034 A 
BRANCH  53  67
ATOM     67  C   UNL     1       8.523  -4.674  13.980  1.00  0.00     0.023 A 
ATOM     68  C   UNL     1       8.027  -3.782  14.948  1.00  0.00     0.031 A 
ATOM     69  C   UNL     1       9.698  -4.312  13.297  1.00  0.00     0.131 A 
ATOM     70  C   UNL     1       8.654  -2.542  15.147  1.00  0.00     0.055 A 
ATOM     71  C   UNL     1      10.367  -3.116  13.564  1.00  0.00     0.041 A 
ATOM     72  F   UNL     1      10.210  -5.109  12.347  1.00  0.00    -0.206 F 
ATOM     73  C   UNL     1       9.836  -2.214  14.481  1.00  0.00     0.022 A 
BRANCH  70  74
ATOM     74  S   UNL     1       7.814  -1.301  16.169  1.00  0.00     0.124 S 
ATOM     75  O   UNL     1       6.530  -1.172  15.482  1.00  0.00    -0.237 OA
ATOM     76  O   UNL     1       7.777  -1.942  17.478  1.00  0.00    -0.237 OA
ATOM     77  O   UNL     1       8.684  -0.130  16.070  1.00  0.00    -0.744 OA
ENDBRANCH  70  74
ENDBRANCH  53  67
BRANCH  54  78
ATOM     78  C   UNL     1       3.665 -12.965  11.107  1.00  0.00     0.023 A 
ATOM     79  C   UNL     1       3.364 -14.035  11.964  1.00  0.00     0.031 A 
ATOM     80  C   UNL     1       3.326 -13.095   9.748  1.00  0.00     0.131 A 
ATOM     81  C   UNL     1       2.783 -15.204  11.447  1.00  0.00     0.055 A 
ATOM     82  C   UNL     1       2.696 -14.236   9.249  1.00  0.00     0.041 A 
ATOM     83  F   UNL     1       3.589 -12.101   8.884  1.00  0.00    -0.206 F 
ATOM     84  C   UNL     1       2.433 -15.305  10.098  1.00  0.00     0.022 A 
BRANCH  81  85
ATOM     85  S   UNL     1       2.570 -16.631  12.547  1.00  0.00     0.124 S 
ATOM     86  O   UNL     1       3.939 -16.872  12.989  1.00  0.00    -0.237 OA
ATOM     87  O   UNL     1       1.653 -16.105  13.552  1.00  0.00    -0.237 OA
ATOM     88  O   UNL     1       2.008 -17.655  11.669  1.00  0.00    -0.744 OA
ENDBRANCH  81  85
ENDBRANCH  54  78
BRANCH  66  89
ATOM     89  C   UNL     1       9.959 -11.785  13.894  1.00  0.00     0.023 A 
ATOM     90  C   UNL     1      10.654 -12.554  12.944  1.00  0.00     0.031 A 
ATOM     91  C   UNL     1      10.330 -11.912  15.245  1.00  0.00     0.131 A 
ATOM     92  C   UNL     1      11.639 -13.461  13.365  1.00  0.00     0.055 A 
ATOM     93  C   UNL     1      11.360 -12.762  15.649  1.00  0.00     0.041 A 
ATOM     94  F   UNL     1       9.697 -11.207  16.197  1.00  0.00    -0.206 F 
ATOM     95  C   UNL     1      12.011 -13.555  14.708  1.00  0.00     0.022 A 
BRANCH  92  96
ATOM     96  S   UNL     1      12.353 -14.599  12.146  1.00  0.00     0.124 S 
ATOM     97  O   UNL     1      11.168 -15.288  11.645  1.00  0.00    -0.237 OA
ATOM     98  O   UNL     1      13.003 -13.687  11.210  1.00  0.00    -0.237 OA
ATOM     99  O   UNL     1      13.262 -15.425  12.938  1.00  0.00    -0.744 OA
ENDBRANCH  92  96
ENDBRANCH  66  89
ENDBRANCH  40  41
ENDBRANCH  32  35
ENDBRANCH  30  31
ENDBRANCH  29  30
ENDBRANCH  28  29
ENDBRANCH   1  28
TORSDOF 19
