REMARK SMILES C=C(C)[C@@H]1CC=C(CN2C[C@]34C=C[C@H](O3)[C@H](C(=O)NCCCCCCNC(=O)c3ccc(-c5c6nc(c(-c7cc(S(=O)(=O)[O-])ccc7F)c7ccc([nH]7)c(-c7cc(S(=O)(=O)[O-])ccc7F)c7nc(c(-c8cc(S(=O)(=O)[O-])ccc8F)c8ccc5[nH]8)C=C7)C=C6)cc3)[C@@H]4C2=O)CC1
REMARK SMILES IDX 22 1 21 2 20 3 19 4 17 5 18 6 16 8 9 9 10 10 93 11 11 12
REMARK SMILES IDX 92 13 94 14 12 15 15 16 13 17 14 18 8 19 7 20 4 21 5 22
REMARK SMILES IDX 96 23 6 24 95 25 2 26 1 27 3 28 23 29 24 30 25 31 26 32
REMARK SMILES IDX 27 33 28 35 29 36 30 37 91 38 31 39 90 40 32 41 33 42 34 43
REMARK SMILES IDX 84 44 35 45 89 46 83 47 85 48 36 49 88 50 82 51 81 52 37 54
REMARK SMILES IDX 69 55 49 56 68 57 50 58 53 59 67 60 86 61 51 62 52 63 66 65
REMARK SMILES IDX 87 66 54 67 38 68 39 69 47 70 40 71 46 72 48 73 45 74 41 75
REMARK SMILES IDX 42 76 43 77 44 78 70 79 71 80 79 81 72 82 78 83 80 84 77 85
REMARK SMILES IDX 73 86 74 87 75 88 76 89 55 90 56 91 64 92 57 93 63 94 65 95
REMARK SMILES IDX 62 96 58 97 59 98 60 99 61 100
REMARK H PARENT 19 7 26 34 85 53 53 64
REMARK Flexibility Score: inf
ROOT
ATOM      1  C   UNL     1      -0.655  -0.228  -6.683  1.00  0.00     0.002 C 
ENDROOT
BRANCH   1   2
ATOM      2  C   UNL     1       0.788   0.301  -6.725  1.00  0.00     0.021 C 
BRANCH   2   3
ATOM      3  C   UNL     1       1.741  -0.551  -7.548  1.00  0.00     0.116 C 
BRANCH   3   4
ATOM      4  N   UNL     1       2.487   0.150  -8.567  1.00  0.00    -0.356 N 
ATOM      5  C   UNL     1       3.729   0.664  -8.626  1.00  0.00     0.227 C 
ATOM      6  O   UNL     1       4.190   0.737  -9.778  1.00  0.00    -0.275 OA
ATOM      7  H   UNL     1       1.976   0.281  -9.398  1.00  0.00     0.163 HD
BRANCH   5   8
ATOM      8  C   UNL     1       4.519   1.337  -7.523  1.00  0.00     0.127 C 
ATOM      9  N   UNL     1       3.794   0.217  -4.163  1.00  0.00    -0.335 N 
ATOM     10  C   UNL     1       4.428   1.490  -3.874  1.00  0.00     0.160 C 
ATOM     11  C   UNL     1       4.246  -0.293  -5.380  1.00  0.00     0.230 C 
ATOM     12  C   UNL     1       4.591   2.024  -5.264  1.00  0.00     0.117 C 
ATOM     13  C   UNL     1       4.951   0.812  -6.143  1.00  0.00     0.132 C 
ATOM     14  O   UNL     1       4.174  -1.461  -5.741  1.00  0.00    -0.274 OA
ATOM     15  C   UNL     1       5.373   3.258  -5.571  1.00  0.00     0.009 C 
ATOM     16  O   UNL     1       3.316   2.400  -5.871  1.00  0.00    -0.360 OA
ATOM     17  C   UNL     1       4.905   3.683  -6.755  1.00  0.00     0.004 C 
ATOM     18  C   UNL     1       3.853   2.689  -7.180  1.00  0.00     0.155 C 
BRANCH   9  19
ATOM     19  C   UNL     1       2.901  -0.475  -3.246  1.00  0.00     0.150 C 
BRANCH  19  20
ATOM     20  C   UNL     1       2.209   0.515  -2.334  1.00  0.00    -0.055 C 
ATOM     21  C   UNL     1       0.926   2.567  -0.687  1.00  0.00     0.018 C 
ATOM     22  C   UNL     1       2.023   1.657  -0.095  1.00  0.00     0.035 C 
ATOM     23  C   UNL     1       1.171   2.829  -2.179  1.00  0.00     0.013 C 
ATOM     24  C   UNL     1       2.521   0.587  -1.027  1.00  0.00    -0.025 C 
ATOM     25  C   UNL     1       1.247   1.511  -2.954  1.00  0.00     0.033 C 
BRANCH  21  26
ATOM     26  C   UNL     1       0.760   3.864   0.098  1.00  0.00    -0.077 C 
ATOM     27  C   UNL     1      -0.341   4.082   0.837  1.00  0.00     0.008 C 
ATOM     28  C   UNL     1       1.850   4.901   0.027  1.00  0.00     0.039 C 
ENDBRANCH  21  26
ENDBRANCH  19  20
ENDBRANCH   9  19
ENDBRANCH   5   8
ENDBRANCH   3   4
ENDBRANCH   2   3
ENDBRANCH   1   2
BRANCH   1  29
ATOM     29  C   UNL     1      -0.855  -1.739  -6.491  1.00  0.00     0.002 C 
BRANCH  29  30
ATOM     30  C   UNL     1      -0.229  -2.360  -5.240  1.00  0.00     0.021 C 
BRANCH  30  31
ATOM     31  C   UNL     1      -0.738  -1.795  -3.917  1.00  0.00     0.116 C 
BRANCH  31  32
ATOM     32  N   UNL     1      -2.178  -1.915  -3.789  1.00  0.00    -0.352 N 
ATOM     33  C   UNL     1      -2.933  -2.524  -2.823  1.00  0.00     0.251 C 
ATOM     34  H   UNL     1      -2.694  -1.490  -4.512  1.00  0.00     0.163 HD
ATOM     35  O   UNL     1      -4.130  -2.710  -3.031  1.00  0.00    -0.269 OA
BRANCH  33  36
ATOM     36  C   UNL     1      -2.327  -2.960  -1.546  1.00  0.00     0.039 A 
ATOM     37  C   UNL     1      -2.725  -4.187  -1.009  1.00  0.00     0.014 A 
ATOM     38  C   UNL     1      -1.437  -2.143  -0.839  1.00  0.00     0.014 A 
ATOM     39  C   UNL     1      -2.214  -4.608   0.220  1.00  0.00     0.010 A 
ATOM     40  C   UNL     1      -0.884  -2.591   0.363  1.00  0.00     0.010 A 
ATOM     41  C   UNL     1      -1.278  -3.821   0.911  1.00  0.00    -0.014 A 
BRANCH  41  42
ATOM     42  C   UNL     1      -0.727  -4.286   2.212  1.00  0.00     0.031 A 
ATOM     43  C   UNL     1      -1.058  -3.560   3.487  1.00  0.00     0.074 A 
ATOM     44  C   UNL     1       0.078  -5.366   2.241  1.00  0.00     0.049 A 
ATOM     45  N   UNL     1      -0.701  -3.837   4.716  1.00  0.00    -0.248 NA
ATOM     46  C   UNL     1      -1.883  -2.350   3.359  1.00  0.00     0.031 C 
ATOM     47  C   UNL     1       0.492  -6.138   1.069  1.00  0.00     0.029 A 
ATOM     48  N   UNL     1       0.681  -6.009   3.293  1.00  0.00    -0.354 N 
ATOM     49  C   UNL     1      -1.255  -2.837   5.509  1.00  0.00     0.074 A 
ATOM     50  C   UNL     1      -1.912  -1.912   4.608  1.00  0.00     0.031 C 
ATOM     51  C   UNL     1       1.243  -7.176   1.470  1.00  0.00     0.029 A 
ATOM     52  C   UNL     1       1.399  -7.121   2.920  1.00  0.00     0.049 A 
ATOM     53  H   UNL     1       0.606  -5.704   4.226  1.00  0.00     0.167 HD
ATOM     54  C   UNL     1      -1.238  -2.714   6.862  1.00  0.00     0.034 A 
ATOM     55  C   UNL     1       2.101  -8.000   3.663  1.00  0.00     0.034 A 
ATOM     56  C   UNL     1      -0.570  -3.644   7.744  1.00  0.00     0.049 A 
ATOM     57  C   UNL     1       2.146  -7.817   5.158  1.00  0.00     0.074 A 
ATOM     58  C   UNL     1      -0.524  -3.642   9.128  1.00  0.00     0.029 A 
ATOM     59  N   UNL     1       0.184  -4.736   7.329  1.00  0.00    -0.354 N 
ATOM     60  N   UNL     1       1.571  -6.898   5.900  1.00  0.00    -0.248 NA
ATOM     61  C   UNL     1       2.925  -8.803   5.916  1.00  0.00     0.031 C 
ATOM     62  C   UNL     1       0.319  -4.679   9.544  1.00  0.00     0.029 A 
ATOM     63  C   UNL     1       0.730  -5.388   8.427  1.00  0.00     0.049 A 
ATOM     64  H   UNL     1       0.312  -5.008   6.391  1.00  0.00     0.167 HD
ATOM     65  C   UNL     1       1.891  -7.219   7.216  1.00  0.00     0.074 A 
ATOM     66  C   UNL     1       2.692  -8.425   7.163  1.00  0.00     0.031 C 
ATOM     67  C   UNL     1       1.549  -6.578   8.365  1.00  0.00     0.034 A 
BRANCH  54  68
ATOM     68  C   UNL     1      -1.931  -1.506   7.455  1.00  0.00     0.023 A 
ATOM     69  C   UNL     1      -3.306  -1.274   7.267  1.00  0.00     0.031 A 
ATOM     70  C   UNL     1      -1.199  -0.544   8.176  1.00  0.00     0.131 A 
ATOM     71  C   UNL     1      -3.882  -0.070   7.704  1.00  0.00     0.055 A 
ATOM     72  C   UNL     1      -1.800   0.607   8.691  1.00  0.00     0.041 A 
ATOM     73  F   UNL     1       0.120  -0.694   8.373  1.00  0.00    -0.206 F 
ATOM     74  C   UNL     1      -3.144   0.860   8.438  1.00  0.00     0.022 A 
BRANCH  71  75
ATOM     75  S   UNL     1      -5.555   0.343   7.136  1.00  0.00     0.124 S 
ATOM     76  O   UNL     1      -5.401   0.270   5.685  1.00  0.00    -0.237 OA
ATOM     77  O   UNL     1      -6.363  -0.706   7.748  1.00  0.00    -0.237 OA
ATOM     78  O   UNL     1      -5.773   1.688   7.664  1.00  0.00    -0.744 OA
ENDBRANCH  71  75
ENDBRANCH  54  68
BRANCH  55  79
ATOM     79  C   UNL     1       2.808  -9.142   3.015  1.00  0.00     0.023 A 
ATOM     80  C   UNL     1       2.433 -10.467   3.287  1.00  0.00     0.031 A 
ATOM     81  C   UNL     1       3.894  -8.927   2.149  1.00  0.00     0.131 A 
ATOM     82  C   UNL     1       3.167 -11.529   2.736  1.00  0.00     0.055 A 
ATOM     83  C   UNL     1       4.587  -9.986   1.560  1.00  0.00     0.041 A 
ATOM     84  F   UNL     1       4.292  -7.679   1.854  1.00  0.00    -0.206 F 
ATOM     85  C   UNL     1       4.232 -11.297   1.863  1.00  0.00     0.022 A 
BRANCH  82  86
ATOM     86  S   UNL     1       2.759 -13.221   3.245  1.00  0.00     0.124 S 
ATOM     87  O   UNL     1       2.962 -13.155   4.688  1.00  0.00    -0.237 OA
ATOM     88  O   UNL     1       1.377 -13.348   2.796  1.00  0.00    -0.237 OA
ATOM     89  O   UNL     1       3.726 -14.038   2.515  1.00  0.00    -0.744 OA
ENDBRANCH  82  86
ENDBRANCH  55  79
BRANCH  67  90
ATOM     90  C   UNL     1       2.014  -7.207   9.659  1.00  0.00     0.023 A 
ATOM     91  C   UNL     1       3.379  -7.334   9.975  1.00  0.00     0.031 A 
ATOM     92  C   UNL     1       1.077  -7.732  10.569  1.00  0.00     0.131 A 
ATOM     93  C   UNL     1       3.770  -8.039  11.124  1.00  0.00     0.055 A 
ATOM     94  C   UNL     1       1.471  -8.367  11.748  1.00  0.00     0.041 A 
ATOM     95  F   UNL     1      -0.239  -7.645  10.322  1.00  0.00    -0.206 F 
ATOM     96  C   UNL     1       2.825  -8.540  12.022  1.00  0.00     0.022 A 
BRANCH  93  97
ATOM     97  S   UNL     1       5.531  -8.409  11.361  1.00  0.00     0.124 S 
ATOM     98  O   UNL     1       5.863  -9.106  10.123  1.00  0.00    -0.237 OA
ATOM     99  O   UNL     1       6.110  -7.078  11.517  1.00  0.00    -0.237 OA
ATOM    100  O   UNL     1       5.549  -9.238  12.564  1.00  0.00    -0.744 OA
ENDBRANCH  93  97
ENDBRANCH  67  90
ENDBRANCH  41  42
ENDBRANCH  33  36
ENDBRANCH  31  32
ENDBRANCH  30  31
ENDBRANCH  29  30
ENDBRANCH   1  29
TORSDOF 19
