REMARK SMILES C#CCN(CC(=O)NCCCCCCNC(=O)c1ccc(-c2c3nc(c(-c4cc(S(=O)(=O)[O-])ccc4F)c4ccc([nH]4)c(-c4cc(S(=O)(=O)[O-])ccc4F)c4nc(c(-c5cc(S(=O)(=O)[O-])ccc5F)c5ccc2[nH]5)C=C4)C=C3)cc1)C(=O)N(C)[C@H](C)c1cccs1
REMARK SMILES IDX 10 1 9 2 8 3 6 4 7 5 5 7 4 8 3 9 2 10 1 11 81 12 82 13 83 14
REMARK SMILES IDX 84 15 85 16 86 17 87 18 88 19 91 20 89 21 90 22 11 23 12 24
REMARK SMILES IDX 13 25 14 26 15 27 16 28 17 30 18 31 19 32 80 33 20 34 79 35
REMARK SMILES IDX 21 36 22 37 23 38 73 39 24 40 78 41 72 42 74 43 25 44 77 45
REMARK SMILES IDX 71 46 70 47 26 49 58 50 38 51 57 52 39 53 42 54 56 55 75 56
REMARK SMILES IDX 40 57 41 58 55 60 76 61 43 62 27 63 28 64 36 65 29 66 35 67
REMARK SMILES IDX 37 68 34 69 30 70 31 71 32 72 33 73 59 74 60 75 68 76 61 77
REMARK SMILES IDX 67 78 69 79 66 80 62 81 63 82 64 83 65 84 44 85 45 86 53 87
REMARK SMILES IDX 46 88 52 89 54 90 51 91 47 92 48 93 49 94 50 95
REMARK H PARENT 8 6 15 29 74 48 42 59
REMARK Flexibility Score: inf
ROOT
ATOM      1  C   UNL     1      -0.145   7.197   4.852  1.00  0.00     0.021 C 
ENDROOT
BRANCH   1   2
ATOM      2  C   UNL     1      -1.469   7.157   5.609  1.00  0.00     0.116 C 
BRANCH   2   3
ATOM      3  N   UNL     1      -2.581   7.615   4.807  1.00  0.00    -0.355 N 
ATOM      4  C   UNL     1      -3.614   6.897   4.284  1.00  0.00     0.239 C 
ATOM      5  O   UNL     1      -4.589   7.525   3.858  1.00  0.00    -0.273 OA
ATOM      6  H   UNL     1      -2.594   8.579   4.612  1.00  0.00     0.163 HD
BRANCH   4   7
ATOM      7  C   UNL     1      -3.643   5.364   4.359  1.00  0.00     0.222 C 
BRANCH   7   8
ATOM      8  N   UNL     1      -2.474   4.649   3.840  1.00  0.00    -0.304 N 
BRANCH   8   9
ATOM      9  C   UNL     1      -1.723   3.871   4.848  1.00  0.00     0.211 C 
BRANCH   9  10
ATOM     10  C   UNL     1      -1.733   2.383   4.538  1.00  0.00    -0.085 C 
ATOM     11  C   UNL     1      -1.742   1.107   4.272  1.00  0.00     0.006 C 
ENDBRANCH   9  10
ENDBRANCH   8   9
BRANCH   8  12
ATOM     12  C   UNL     1      -2.002   4.548   2.538  1.00  0.00     0.321 C 
ATOM     13  O   UNL     1      -0.975   3.884   2.352  1.00  0.00    -0.248 OA
BRANCH  12  14
ATOM     14  N   UNL     1      -2.604   5.159   1.450  1.00  0.00    -0.320 N 
ATOM     15  C   UNL     1      -3.873   5.870   1.390  1.00  0.00     0.149 C 
BRANCH  14  16
ATOM     16  C   UNL     1      -2.007   4.944   0.098  1.00  0.00     0.124 C 
ATOM     17  C   UNL     1      -2.449   3.596  -0.482  1.00  0.00     0.037 C 
BRANCH  16  18
ATOM     18  C   UNL     1      -0.520   5.256   0.015  1.00  0.00     0.027 A 
ATOM     19  C   UNL     1       0.096   6.479   0.233  1.00  0.00     0.017 A 
ATOM     20  S   UNL     1       0.644   4.068  -0.436  1.00  0.00    -0.147 S 
ATOM     21  C   UNL     1       1.512   6.421   0.075  1.00  0.00     0.012 A 
ATOM     22  C   UNL     1       1.941   5.159  -0.263  1.00  0.00     0.065 A 
ENDBRANCH  16  18
ENDBRANCH  14  16
ENDBRANCH  12  14
ENDBRANCH   8  12
ENDBRANCH   7   8
ENDBRANCH   4   7
ENDBRANCH   2   3
ENDBRANCH   1   2
BRANCH   1  23
ATOM     23  C   UNL     1       0.380   8.610   4.573  1.00  0.00     0.002 C 
BRANCH  23  24
ATOM     24  C   UNL     1       0.476   9.530   5.795  1.00  0.00     0.002 C 
BRANCH  24  25
ATOM     25  C   UNL     1       1.254   8.965   6.988  1.00  0.00     0.021 C 
BRANCH  25  26
ATOM     26  C   UNL     1       2.712   8.620   6.704  1.00  0.00     0.116 C 
BRANCH  26  27
ATOM     27  N   UNL     1       3.479   9.788   6.308  1.00  0.00    -0.352 N 
ATOM     28  C   UNL     1       4.639  10.297   6.830  1.00  0.00     0.251 C 
ATOM     29  H   UNL     1       3.108  10.292   5.548  1.00  0.00     0.163 HD
ATOM     30  O   UNL     1       5.006  11.422   6.484  1.00  0.00    -0.269 OA
BRANCH  28  31
ATOM     31  C   UNL     1       5.437   9.527   7.809  1.00  0.00     0.039 A 
ATOM     32  C   UNL     1       6.019  10.210   8.881  1.00  0.00     0.014 A 
ATOM     33  C   UNL     1       5.650   8.152   7.662  1.00  0.00     0.014 A 
ATOM     34  C   UNL     1       6.771   9.509   9.827  1.00  0.00     0.010 A 
ATOM     35  C   UNL     1       6.343   7.443   8.643  1.00  0.00     0.010 A 
ATOM     36  C   UNL     1       6.917   8.115   9.732  1.00  0.00    -0.014 A 
BRANCH  36  37
ATOM     37  C   UNL     1       7.654   7.365  10.781  1.00  0.00     0.031 A 
ATOM     38  C   UNL     1       8.945   6.661  10.464  1.00  0.00     0.074 A 
ATOM     39  C   UNL     1       7.130   7.285  12.019  1.00  0.00     0.049 A 
ATOM     40  N   UNL     1       9.740   5.992  11.261  1.00  0.00    -0.248 NA
ATOM     41  C   UNL     1       9.379   6.684   9.062  1.00  0.00     0.031 C 
ATOM     42  C   UNL     1       5.843   7.853  12.427  1.00  0.00     0.029 A 
ATOM     43  N   UNL     1       7.609   6.693  13.160  1.00  0.00    -0.354 N 
ATOM     44  C   UNL     1      10.766   5.507  10.456  1.00  0.00     0.074 A 
ATOM     45  C   UNL     1      10.448   5.904   9.099  1.00  0.00     0.031 C 
ATOM     46  C   UNL     1       5.646   7.604  13.730  1.00  0.00     0.029 A 
ATOM     47  C   UNL     1       6.779   6.841  14.245  1.00  0.00     0.049 A 
ATOM     48  H   UNL     1       8.465   6.209  13.198  1.00  0.00     0.167 HD
ATOM     49  C   UNL     1      11.879   4.819  10.817  1.00  0.00     0.034 A 
ATOM     50  C   UNL     1       6.915   6.416  15.516  1.00  0.00     0.034 A 
ATOM     51  C   UNL     1      12.175   4.431  12.178  1.00  0.00     0.049 A 
ATOM     52  C   UNL     1       8.171   5.689  15.909  1.00  0.00     0.074 A 
ATOM     53  C   UNL     1      13.304   3.801  12.673  1.00  0.00     0.029 A 
ATOM     54  N   UNL     1      11.325   4.622  13.263  1.00  0.00    -0.354 N 
ATOM     55  N   UNL     1       9.182   5.321  15.156  1.00  0.00    -0.248 NA
ATOM     56  C   UNL     1       8.315   5.347  17.328  1.00  0.00     0.031 C 
ATOM     57  C   UNL     1      13.108   3.552  14.038  1.00  0.00     0.029 A 
ATOM     58  C   UNL     1      11.889   4.092  14.416  1.00  0.00     0.049 A 
ATOM     59  H   UNL     1      10.449   5.069  13.219  1.00  0.00     0.167 HD
ATOM     60  C   UNL     1      10.091   4.711  16.016  1.00  0.00     0.074 A 
ATOM     61  C   UNL     1       9.518   4.791  17.346  1.00  0.00     0.031 C 
ATOM     62  C   UNL     1      11.290   4.139  15.732  1.00  0.00     0.034 A 
BRANCH  49  63
ATOM     63  C   UNL     1      12.833   4.420   9.711  1.00  0.00     0.023 A 
ATOM     64  C   UNL     1      13.459   5.380   8.894  1.00  0.00     0.031 A 
ATOM     65  C   UNL     1      13.075   3.064   9.429  1.00  0.00     0.131 A 
ATOM     66  C   UNL     1      14.207   4.973   7.778  1.00  0.00     0.055 A 
ATOM     67  C   UNL     1      13.897   2.666   8.371  1.00  0.00     0.041 A 
ATOM     68  F   UNL     1      12.496   2.099  10.160  1.00  0.00    -0.206 F 
ATOM     69  C   UNL     1      14.451   3.622   7.525  1.00  0.00     0.022 A 
BRANCH  66  70
ATOM     70  S   UNL     1      14.700   6.229   6.563  1.00  0.00     0.124 S 
ATOM     71  O   UNL     1      13.414   6.832   6.223  1.00  0.00    -0.237 OA
ATOM     72  O   UNL     1      15.616   7.065   7.330  1.00  0.00    -0.237 OA
ATOM     73  O   UNL     1      15.315   5.447   5.492  1.00  0.00    -0.744 OA
ENDBRANCH  66  70
ENDBRANCH  49  63
BRANCH  50  74
ATOM     74  C   UNL     1       5.833   6.681  16.503  1.00  0.00     0.023 A 
ATOM     75  C   UNL     1       6.011   7.599  17.550  1.00  0.00     0.031 A 
ATOM     76  C   UNL     1       4.594   6.024  16.399  1.00  0.00     0.131 A 
ATOM     77  C   UNL     1       4.973   7.816  18.469  1.00  0.00     0.055 A 
ATOM     78  C   UNL     1       3.552   6.272  17.293  1.00  0.00     0.041 A 
ATOM     79  F   UNL     1       4.372   5.151  15.404  1.00  0.00    -0.206 F 
ATOM     80  C   UNL     1       3.742   7.168  18.341  1.00  0.00     0.022 A 
BRANCH  77  81
ATOM     81  S   UNL     1       5.264   8.942  19.861  1.00  0.00     0.124 S 
ATOM     82  O   UNL     1       6.350   8.271  20.566  1.00  0.00    -0.237 OA
ATOM     83  O   UNL     1       5.612  10.184  19.179  1.00  0.00    -0.237 OA
ATOM     84  O   UNL     1       3.981   8.958  20.560  1.00  0.00    -0.744 OA
ENDBRANCH  77  81
ENDBRANCH  50  74
BRANCH  62  85
ATOM     85  C   UNL     1      12.057   3.563  16.899  1.00  0.00     0.023 A 
ATOM     86  C   UNL     1      11.566   2.470  17.636  1.00  0.00     0.031 A 
ATOM     87  C   UNL     1      13.268   4.146  17.313  1.00  0.00     0.131 A 
ATOM     88  C   UNL     1      12.240   2.042  18.789  1.00  0.00     0.055 A 
ATOM     89  C   UNL     1      13.970   3.672  18.423  1.00  0.00     0.041 A 
ATOM     90  F   UNL     1      13.784   5.194  16.651  1.00  0.00    -0.206 F 
ATOM     91  C   UNL     1      13.447   2.627  19.179  1.00  0.00     0.022 A 
BRANCH  88  92
ATOM     92  S   UNL     1      11.450   0.798  19.848  1.00  0.00     0.124 S 
ATOM     93  O   UNL     1      10.153   1.410  20.120  1.00  0.00    -0.237 OA
ATOM     94  O   UNL     1      11.432  -0.378  18.985  1.00  0.00    -0.237 OA
ATOM     95  O   UNL     1      12.347   0.709  20.999  1.00  0.00    -0.744 OA
ENDBRANCH  88  92
ENDBRANCH  62  85
ENDBRANCH  36  37
ENDBRANCH  28  31
ENDBRANCH  26  27
ENDBRANCH  25  26
ENDBRANCH  24  25
ENDBRANCH  23  24
ENDBRANCH   1  23
TORSDOF 23
