REMARK SMILES C[C@@H](C(=O)NCCCCCCNC(=O)c1ccc(-c2c3nc(c(-c4cc(S(=O)(=O)[O-])ccc4F)c4ccc([nH]4)c(-c4cc(S(=O)(=O)[O-])ccc4F)c4nc(c(-c5cc(S(=O)(=O)[O-])ccc5F)c5ccc2[nH]5)C=C4)C=C3)cc1)[C@H](C)[S@@](=O)c1ccc(F)c(F)c1
REMARK SMILES IDX 8 1 7 2 6 3 5 4 3 5 4 6 2 8 1 9 78 10 79 11 80 12 81 13
REMARK SMILES IDX 82 14 83 15 89 16 84 17 87 18 85 19 88 20 86 21 9 22 10 23
REMARK SMILES IDX 11 24 12 25 13 26 14 28 15 29 16 30 77 31 17 32 76 33 18 34
REMARK SMILES IDX 19 35 20 36 70 37 21 38 75 39 69 40 71 41 22 42 74 43 68 44
REMARK SMILES IDX 67 45 23 47 55 48 35 49 54 50 36 51 39 52 53 53 72 54 37 55
REMARK SMILES IDX 38 56 52 58 73 59 40 60 24 61 25 62 33 63 26 64 32 65 34 66
REMARK SMILES IDX 31 67 27 68 28 69 29 70 30 71 56 72 57 73 65 74 58 75 64 76
REMARK SMILES IDX 66 77 63 78 59 79 60 80 61 81 62 82 41 83 42 84 50 85 43 86
REMARK SMILES IDX 49 87 51 88 48 89 44 90 45 91 46 92 47 93
REMARK H PARENT 5 7 12 27 71 46 39 57
REMARK Flexibility Score: inf
ROOT
ATOM      1  C   UNL     1      -1.426   5.436   0.138  1.00  0.00     0.002 C 
ENDROOT
BRANCH   1   2
ATOM      2  C   UNL     1      -2.368   4.268  -0.184  1.00  0.00     0.021 C 
BRANCH   2   3
ATOM      3  C   UNL     1      -1.897   3.399  -1.351  1.00  0.00     0.116 C 
BRANCH   3   4
ATOM      4  N   UNL     1      -0.660   2.723  -0.997  1.00  0.00    -0.356 N 
ATOM      5  C   UNL     1      -0.460   1.426  -0.626  1.00  0.00     0.224 C 
ATOM      6  O   UNL     1       0.572   1.155  -0.016  1.00  0.00    -0.275 OA
ATOM      7  H   UNL     1       0.150   3.281  -1.028  1.00  0.00     0.163 HD
BRANCH   5   8
ATOM      8  C   UNL     1      -1.517   0.389  -0.979  1.00  0.00     0.091 C 
ATOM      9  C   UNL     1      -2.571   0.349   0.136  1.00  0.00     0.019 C 
BRANCH   8  10
ATOM     10  C   UNL     1      -0.965  -1.033  -1.269  1.00  0.00     0.093 C 
ATOM     11  C   UNL     1       0.534  -1.196  -1.518  1.00  0.00     0.023 C 
BRANCH  10  12
ATOM     12  S   UNL     1      -1.914  -1.845  -2.661  1.00  0.00     0.057 S 
ATOM     13  O   UNL     1      -3.327  -1.347  -2.601  1.00  0.00    -0.254 OA
BRANCH  12  14
ATOM     14  C   UNL     1      -1.183  -1.039  -4.108  1.00  0.00     0.042 A 
ATOM     15  C   UNL     1      -0.274  -1.763  -4.895  1.00  0.00     0.021 A 
ATOM     16  C   UNL     1      -1.558   0.248  -4.507  1.00  0.00     0.060 A 
ATOM     17  C   UNL     1       0.273  -1.195  -6.051  1.00  0.00     0.043 A 
ATOM     18  C   UNL     1      -0.988   0.817  -5.643  1.00  0.00     0.160 A 
ATOM     19  C   UNL     1      -0.082   0.100  -6.412  1.00  0.00     0.158 A 
ATOM     20  F   UNL     1      -1.331   2.064  -5.993  1.00  0.00    -0.204 F 
ATOM     21  F   UNL     1       0.450   0.643  -7.515  1.00  0.00    -0.204 F 
ENDBRANCH  12  14
ENDBRANCH  10  12
ENDBRANCH   8  10
ENDBRANCH   5   8
ENDBRANCH   3   4
ENDBRANCH   2   3
ENDBRANCH   1   2
BRANCH   1  22
ATOM     22  C   UNL     1      -1.214   6.424  -1.014  1.00  0.00     0.002 C 
BRANCH  22  23
ATOM     23  C   UNL     1      -2.497   7.046  -1.567  1.00  0.00     0.021 C 
BRANCH  23  24
ATOM     24  C   UNL     1      -3.324   7.806  -0.535  1.00  0.00     0.116 C 
BRANCH  24  25
ATOM     25  N   UNL     1      -2.607   8.954  -0.004  1.00  0.00    -0.352 N 
ATOM     26  C   UNL     1      -2.995  10.271   0.044  1.00  0.00     0.251 C 
ATOM     27  H   UNL     1      -1.718   8.761   0.373  1.00  0.00     0.163 HD
ATOM     28  O   UNL     1      -2.176  11.139   0.324  1.00  0.00    -0.269 OA
BRANCH  26  29
ATOM     29  C   UNL     1      -4.395  10.632  -0.268  1.00  0.00     0.039 A 
ATOM     30  C   UNL     1      -4.644  11.725  -1.100  1.00  0.00     0.014 A 
ATOM     31  C   UNL     1      -5.458   9.891   0.257  1.00  0.00     0.014 A 
ATOM     32  C   UNL     1      -5.959  12.038  -1.454  1.00  0.00     0.010 A 
ATOM     33  C   UNL     1      -6.760  10.156  -0.159  1.00  0.00     0.010 A 
ATOM     34  C   UNL     1      -7.025  11.235  -1.017  1.00  0.00    -0.014 A 
BRANCH  34  35
ATOM     35  C   UNL     1      -8.423  11.513  -1.442  1.00  0.00     0.031 A 
ATOM     36  C   UNL     1      -9.464  11.882  -0.420  1.00  0.00     0.074 A 
ATOM     37  C   UNL     1      -8.765  11.380  -2.739  1.00  0.00     0.049 A 
ATOM     38  N   UNL     1     -10.745  12.094  -0.582  1.00  0.00    -0.248 NA
ATOM     39  C   UNL     1      -9.008  11.999   0.973  1.00  0.00     0.031 C 
ATOM     40  C   UNL     1      -7.852  10.993  -3.817  1.00  0.00     0.029 A 
ATOM     41  N   UNL     1      -9.971  11.548  -3.373  1.00  0.00    -0.354 N 
ATOM     42  C   UNL     1     -11.249  12.361   0.687  1.00  0.00     0.074 A 
ATOM     43  C   UNL     1     -10.146  12.216   1.613  1.00  0.00     0.031 C 
ATOM     44  C   UNL     1      -8.523  10.982  -4.980  1.00  0.00     0.029 A 
ATOM     45  C   UNL     1      -9.923  11.307  -4.728  1.00  0.00     0.049 A 
ATOM     46  H   UNL     1     -10.793  11.816  -2.903  1.00  0.00     0.167 HD
ATOM     47  C   UNL     1     -12.509  12.716   1.042  1.00  0.00     0.034 A 
ATOM     48  C   UNL     1     -10.898  11.330  -5.658  1.00  0.00     0.034 A 
ATOM     49  C   UNL     1     -13.595  12.861   0.103  1.00  0.00     0.049 A 
ATOM     50  C   UNL     1     -12.301  11.687  -5.232  1.00  0.00     0.074 A 
ATOM     51  C   UNL     1     -14.896  13.264   0.347  1.00  0.00     0.029 A 
ATOM     52  N   UNL     1     -13.513  12.596  -1.258  1.00  0.00    -0.354 N 
ATOM     53  N   UNL     1     -12.751  11.986  -4.035  1.00  0.00    -0.248 NA
ATOM     54  C   UNL     1     -13.324  11.719  -6.284  1.00  0.00     0.031 C 
ATOM     55  C   UNL     1     -15.618  13.167  -0.847  1.00  0.00     0.029 A 
ATOM     56  C   UNL     1     -14.748  12.791  -1.858  1.00  0.00     0.049 A 
ATOM     57  H   UNL     1     -12.696  12.311  -1.729  1.00  0.00     0.167 HD
ATOM     58  C   UNL     1     -14.103  12.274  -4.199  1.00  0.00     0.074 A 
ATOM     59  C   UNL     1     -14.389  12.129  -5.611  1.00  0.00     0.031 C 
ATOM     60  C   UNL     1     -15.025  12.631  -3.267  1.00  0.00     0.034 A 
BRANCH  47  61
ATOM     61  C   UNL     1     -12.780  12.943   2.512  1.00  0.00     0.023 A 
ATOM     62  C   UNL     1     -12.123  13.952   3.239  1.00  0.00     0.031 A 
ATOM     63  C   UNL     1     -13.692  12.126   3.203  1.00  0.00     0.131 A 
ATOM     64  C   UNL     1     -12.327  14.067   4.622  1.00  0.00     0.055 A 
ATOM     65  C   UNL     1     -13.957  12.302   4.563  1.00  0.00     0.041 A 
ATOM     66  F   UNL     1     -14.335  11.131   2.571  1.00  0.00    -0.206 F 
ATOM     67  C   UNL     1     -13.260  13.267   5.285  1.00  0.00     0.022 A 
BRANCH  64  68
ATOM     68  S   UNL     1     -11.243  15.171   5.568  1.00  0.00     0.124 S 
ATOM     69  O   UNL     1      -9.924  14.623   5.261  1.00  0.00    -0.237 OA
ATOM     70  O   UNL     1     -11.542  16.477   4.992  1.00  0.00    -0.237 OA
ATOM     71  O   UNL     1     -11.681  14.982   6.949  1.00  0.00    -0.744 OA
ENDBRANCH  64  68
ENDBRANCH  47  61
BRANCH  48  72
ATOM     72  C   UNL     1     -10.597  10.993  -7.080  1.00  0.00     0.023 A 
ATOM     73  C   UNL     1     -10.767  11.941  -8.101  1.00  0.00     0.031 A 
ATOM     74  C   UNL     1     -10.180   9.700  -7.446  1.00  0.00     0.131 A 
ATOM     75  C   UNL     1     -10.572  11.570  -9.441  1.00  0.00     0.055 A 
ATOM     76  C   UNL     1      -9.929   9.353  -8.774  1.00  0.00     0.041 A 
ATOM     77  F   UNL     1     -10.001   8.754  -6.510  1.00  0.00    -0.206 F 
ATOM     78  C   UNL     1     -10.140  10.287  -9.783  1.00  0.00     0.022 A 
BRANCH  75  79
ATOM     79  S   UNL     1     -10.989  12.764 -10.742  1.00  0.00     0.124 S 
ATOM     80  O   UNL     1     -12.394  13.033 -10.457  1.00  0.00    -0.237 OA
ATOM     81  O   UNL     1     -10.058  13.852 -10.464  1.00  0.00    -0.237 OA
ATOM     82  O   UNL     1     -10.732  12.026 -11.976  1.00  0.00    -0.744 OA
ENDBRANCH  75  79
ENDBRANCH  48  72
BRANCH  60  83
ATOM     83  C   UNL     1     -16.420  12.936  -3.760  1.00  0.00     0.023 A 
ATOM     84  C   UNL     1     -17.239  11.947  -4.332  1.00  0.00     0.031 A 
ATOM     85  C   UNL     1     -16.932  14.242  -3.665  1.00  0.00     0.131 A 
ATOM     86  C   UNL     1     -18.501  12.291  -4.839  1.00  0.00     0.055 A 
ATOM     87  C   UNL     1     -18.215  14.564  -4.109  1.00  0.00     0.041 A 
ATOM     88  F   UNL     1     -16.194  15.230  -3.132  1.00  0.00    -0.206 F 
ATOM     89  C   UNL     1     -19.002  13.589  -4.713  1.00  0.00     0.022 A 
BRANCH  86  90
ATOM     90  S   UNL     1     -19.441  11.041  -5.760  1.00  0.00     0.124 S 
ATOM     91  O   UNL     1     -18.516  10.698  -6.835  1.00  0.00    -0.237 OA
ATOM     92  O   UNL     1     -19.658  10.009  -4.752  1.00  0.00    -0.237 OA
ATOM     93  O   UNL     1     -20.643  11.758  -6.181  1.00  0.00    -0.744 OA
ENDBRANCH  86  90
ENDBRANCH  60  83
ENDBRANCH  34  35
ENDBRANCH  26  29
ENDBRANCH  24  25
ENDBRANCH  23  24
ENDBRANCH  22  23
ENDBRANCH   1  22
TORSDOF 19
