REMARK SMILES C[C@@H]1C[N@@H+](CC(C)(C)C(=O)NCCCCCCNC(=O)c2ccc(-c3c4nc(c(-c5cc(S(=O)(=O)[O-])ccc5F)c5ccc([nH]5)c(-c5cc(S(=O)(=O)[O-])ccc5F)c5nc(c(-c6cc(S(=O)(=O)[O-])ccc6F)c6ccc3[nH]6)C=C5)C=C4)cc2)CC[C@@H]1[NH3+]
REMARK SMILES IDX 14 1 13 2 12 3 11 4 9 5 10 6 6 8 7 9 8 10 5 11 4 12 1 13
REMARK SMILES IDX 2 14 3 15 86 16 85 17 84 18 87 20 15 24 16 25 17 26 18 27
REMARK SMILES IDX 19 28 20 30 21 31 22 32 83 33 23 34 82 35 24 36 25 37 26 38
REMARK SMILES IDX 76 39 27 40 81 41 75 42 77 43 28 44 80 45 74 46 73 47 29 49
REMARK SMILES IDX 61 50 41 51 60 52 42 53 45 54 59 55 78 56 43 57 44 58 58 60
REMARK SMILES IDX 79 61 46 62 30 63 31 64 39 65 32 66 38 67 40 68 37 69 33 70
REMARK SMILES IDX 34 71 35 72 36 73 62 74 63 75 71 76 64 77 70 78 72 79 69 80
REMARK SMILES IDX 65 81 66 82 67 83 68 84 47 85 48 86 56 87 49 88 55 89 57 90
REMARK SMILES IDX 54 91 50 92 51 93 52 94 53 95
REMARK H PARENT 11 7 4 19 87 21 87 22 87 23 18 29 77 48 45 59
REMARK Flexibility Score: inf
ROOT
ATOM      1  C   UNL     1      -0.163  -7.186   5.322  1.00  0.00     0.002 C 
ENDROOT
BRANCH   1   2
ATOM      2  C   UNL     1      -0.762  -7.509   3.949  1.00  0.00     0.021 C 
BRANCH   2   3
ATOM      3  C   UNL     1      -1.432  -6.319   3.266  1.00  0.00     0.116 C 
BRANCH   3   4
ATOM      4  N   UNL     1      -0.435  -5.334   2.913  1.00  0.00    -0.355 N 
ATOM      5  C   UNL     1       0.052  -4.999   1.693  1.00  0.00     0.231 C 
ATOM      6  O   UNL     1       1.244  -4.672   1.671  1.00  0.00    -0.274 OA
ATOM      7  H   UNL     1      -0.055  -4.832   3.669  1.00  0.00     0.163 HD
BRANCH   5   8
ATOM      8  C   UNL     1      -0.798  -5.068   0.412  1.00  0.00     0.092 C 
ATOM      9  C   UNL     1      -2.314  -4.909   0.619  1.00  0.00     0.027 C 
ATOM     10  C   UNL     1      -0.540  -6.464  -0.195  1.00  0.00     0.027 C 
BRANCH   8  11
ATOM     11  C   UNL     1      -0.266  -3.980  -0.604  1.00  0.00     0.278 C 
BRANCH  11  12
ATOM     12  N   UNL     1      -0.387  -2.516  -0.371  1.00  0.00    -0.333 N 
ATOM     13  C   UNL     1       1.189   0.177  -0.163  1.00  0.00     0.020 C 
ATOM     14  C   UNL     1       0.387  -0.513   0.947  1.00  0.00     0.099 C 
ATOM     15  C   UNL     1       0.400  -2.044   0.775  1.00  0.00     0.271 C 
ATOM     16  C   UNL     1      -1.081  -0.059   1.046  1.00  0.00     0.194 C 
ATOM     17  C   UNL     1      -1.850  -0.488  -0.205  1.00  0.00     0.126 C 
ATOM     18  C   UNL     1      -1.758  -2.005  -0.379  1.00  0.00     0.268 C 
ATOM     19  H   UNL     1       0.041  -2.097  -1.196  1.00  0.00     0.348 HD
BRANCH  16  20
ATOM     20  N   UNL     1      -1.231   1.378   1.283  1.00  0.00    -0.355 N 
ATOM     21  H   UNL     1      -0.850   1.895   0.491  1.00  0.00     0.344 HD
ATOM     22  H   UNL     1      -0.729   1.637   2.132  1.00  0.00     0.344 HD
ATOM     23  H   UNL     1      -2.220   1.603   1.392  1.00  0.00     0.344 HD
ENDBRANCH  16  20
ENDBRANCH  11  12
ENDBRANCH   8  11
ENDBRANCH   5   8
ENDBRANCH   3   4
ENDBRANCH   2   3
ENDBRANCH   1   2
BRANCH   1  24
ATOM     24  C   UNL     1      -1.147  -6.577   6.325  1.00  0.00     0.002 C 
BRANCH  24  25
ATOM     25  C   UNL     1      -2.448  -7.363   6.504  1.00  0.00     0.021 C 
BRANCH  25  26
ATOM     26  C   UNL     1      -2.251  -8.828   6.871  1.00  0.00     0.116 C 
BRANCH  26  27
ATOM     27  N   UNL     1      -1.561  -8.979   8.139  1.00  0.00    -0.352 N 
ATOM     28  C   UNL     1      -1.944  -9.695   9.246  1.00  0.00     0.251 C 
ATOM     29  H   UNL     1      -0.703  -8.503   8.216  1.00  0.00     0.163 HD
ATOM     30  O   UNL     1      -1.360  -9.536  10.310  1.00  0.00    -0.269 OA
BRANCH  28  31
ATOM     31  C   UNL     1      -3.081 -10.636   9.141  1.00  0.00     0.039 A 
ATOM     32  C   UNL     1      -4.053 -10.634  10.141  1.00  0.00     0.014 A 
ATOM     33  C   UNL     1      -3.190 -11.505   8.050  1.00  0.00     0.014 A 
ATOM     34  C   UNL     1      -5.165 -11.470  10.021  1.00  0.00     0.010 A 
ATOM     35  C   UNL     1      -4.337 -12.277   7.893  1.00  0.00     0.010 A 
ATOM     36  C   UNL     1      -5.333 -12.274   8.881  1.00  0.00    -0.014 A 
BRANCH  36  37
ATOM     37  C   UNL     1      -6.539 -13.126   8.714  1.00  0.00     0.031 A 
ATOM     38  C   UNL     1      -6.399 -14.622   8.645  1.00  0.00     0.074 A 
ATOM     39  C   UNL     1      -7.750 -12.549   8.575  1.00  0.00     0.049 A 
ATOM     40  N   UNL     1      -7.319 -15.530   8.439  1.00  0.00    -0.248 NA
ATOM     41  C   UNL     1      -5.042 -15.166   8.798  1.00  0.00     0.031 C 
ATOM     42  C   UNL     1      -8.004 -11.106   8.590  1.00  0.00     0.029 A 
ATOM     43  N   UNL     1      -8.992 -13.101   8.388  1.00  0.00    -0.354 N 
ATOM     44  C   UNL     1      -6.651 -16.750   8.429  1.00  0.00     0.074 A 
ATOM     45  C   UNL     1      -5.242 -16.457   8.581  1.00  0.00     0.031 C 
ATOM     46  C   UNL     1      -9.321 -10.890   8.450  1.00  0.00     0.029 A 
ATOM     47  C   UNL     1     -10.001 -12.171   8.281  1.00  0.00     0.049 A 
ATOM     48  H   UNL     1      -9.148 -14.072   8.336  1.00  0.00     0.167 HD
ATOM     49  C   UNL     1      -7.168 -18.000   8.326  1.00  0.00     0.034 A 
ATOM     50  C   UNL     1     -11.320 -12.330   8.055  1.00  0.00     0.034 A 
ATOM     51  C   UNL     1      -8.578 -18.272   8.182  1.00  0.00     0.049 A 
ATOM     52  C   UNL     1     -11.867 -13.728   7.904  1.00  0.00     0.074 A 
ATOM     53  C   UNL     1      -9.216 -19.498   8.121  1.00  0.00     0.029 A 
ATOM     54  N   UNL     1      -9.569 -17.304   8.065  1.00  0.00    -0.354 N 
ATOM     55  N   UNL     1     -11.228 -14.874   7.947  1.00  0.00    -0.248 NA
ATOM     56  C   UNL     1     -13.313 -13.853   7.684  1.00  0.00     0.031 C 
ATOM     57  C   UNL     1     -10.576 -19.274   7.884  1.00  0.00     0.029 A 
ATOM     58  C   UNL     1     -10.805 -17.907   7.892  1.00  0.00     0.049 A 
ATOM     59  H   UNL     1      -9.415 -16.332   8.099  1.00  0.00     0.167 HD
ATOM     60  C   UNL     1     -12.203 -15.858   7.794  1.00  0.00     0.074 A 
ATOM     61  C   UNL     1     -13.471 -15.168   7.674  1.00  0.00     0.031 C 
ATOM     62  C   UNL     1     -12.063 -17.208   7.762  1.00  0.00     0.034 A 
BRANCH  49  63
ATOM     63  C   UNL     1      -6.199 -19.160   8.336  1.00  0.00     0.023 A 
ATOM     64  C   UNL     1      -5.373 -19.426   9.442  1.00  0.00     0.031 A 
ATOM     65  C   UNL     1      -6.084 -20.000   7.215  1.00  0.00     0.131 A 
ATOM     66  C   UNL     1      -4.418 -20.452   9.374  1.00  0.00     0.055 A 
ATOM     67  C   UNL     1      -5.194 -21.076   7.187  1.00  0.00     0.041 A 
ATOM     68  F   UNL     1      -6.828 -19.784   6.118  1.00  0.00    -0.206 F 
ATOM     69  C   UNL     1      -4.342 -21.297   8.266  1.00  0.00     0.022 A 
BRANCH  66  70
ATOM     70  S   UNL     1      -3.177 -20.568  10.692  1.00  0.00     0.124 S 
ATOM     71  O   UNL     1      -2.555 -19.247  10.626  1.00  0.00    -0.237 OA
ATOM     72  O   UNL     1      -3.992 -20.833  11.871  1.00  0.00    -0.237 OA
ATOM     73  O   UNL     1      -2.322 -21.672  10.261  1.00  0.00    -0.744 OA
ENDBRANCH  66  70
ENDBRANCH  49  63
BRANCH  50  74
ATOM     74  C   UNL     1     -12.217 -11.143   7.940  1.00  0.00     0.023 A 
ATOM     75  C   UNL     1     -13.264 -10.933   8.852  1.00  0.00     0.031 A 
ATOM     76  C   UNL     1     -12.070 -10.223   6.886  1.00  0.00     0.131 A 
ATOM     77  C   UNL     1     -14.154  -9.864   8.663  1.00  0.00     0.055 A 
ATOM     78  C   UNL     1     -12.919  -9.125   6.738  1.00  0.00     0.041 A 
ATOM     79  F   UNL     1     -11.085 -10.373   5.985  1.00  0.00    -0.206 F 
ATOM     80  C   UNL     1     -13.979  -8.949   7.622  1.00  0.00     0.022 A 
BRANCH  77  81
ATOM     81  S   UNL     1     -15.606  -9.742   9.743  1.00  0.00     0.124 S 
ATOM     82  O   UNL     1     -16.253 -11.028   9.514  1.00  0.00    -0.237 OA
ATOM     83  O   UNL     1     -14.994  -9.555  11.054  1.00  0.00    -0.237 OA
ATOM     84  O   UNL     1     -16.322  -8.580   9.219  1.00  0.00    -0.744 OA
ENDBRANCH  77  81
ENDBRANCH  50  74
BRANCH  62  85
ATOM     85  C   UNL     1     -13.325 -18.029   7.639  1.00  0.00     0.023 A 
ATOM     86  C   UNL     1     -14.131 -17.986   6.488  1.00  0.00     0.031 A 
ATOM     87  C   UNL     1     -13.730 -18.862   8.697  1.00  0.00     0.131 A 
ATOM     88  C   UNL     1     -15.330 -18.715   6.446  1.00  0.00     0.055 A 
ATOM     89  C   UNL     1     -14.887 -19.639   8.622  1.00  0.00     0.041 A 
ATOM     90  F   UNL     1     -13.003 -18.940   9.824  1.00  0.00    -0.206 F 
ATOM     91  C   UNL     1     -15.702 -19.556   7.497  1.00  0.00     0.022 A 
BRANCH  88  92
ATOM     92  S   UNL     1     -16.450 -18.468   5.042  1.00  0.00     0.124 S 
ATOM     93  O   UNL     1     -16.704 -17.032   5.105  1.00  0.00    -0.237 OA
ATOM     94  O   UNL     1     -15.643 -18.923   3.914  1.00  0.00    -0.237 OA
ATOM     95  O   UNL     1     -17.597 -19.315   5.364  1.00  0.00    -0.744 OA
ENDBRANCH  88  92
ENDBRANCH  62  85
ENDBRANCH  36  37
ENDBRANCH  28  31
ENDBRANCH  26  27
ENDBRANCH  25  26
ENDBRANCH  24  25
ENDBRANCH   1  24
TORSDOF 19
