REMARK SMILES O=C(CCN1C(=O)/C(=C/c2c3ccccc3cc3ccccc23)SC1=S)NCCCCCCNC(=O)c1ccc(-c2c3nc(c(-c4cc(S(=O)(=O)[O-])ccc4F)c4ccc([nH]4)c(-c4cc(S(=O)(=O)[O-])ccc4F)c4nc(c(-c5cc(S(=O)(=O)[O-])ccc5F)c5ccc2[nH]5)C=C4)C=C3)cc1
REMARK SMILES IDX 30 1 29 2 28 3 27 4 1 5 2 6 3 8 4 9 5 10 6 11 25 12 7 13
REMARK SMILES IDX 8 14 24 15 26 16 9 17 10 18 11 19 23 20 12 21 16 22 18 23
REMARK SMILES IDX 22 24 13 25 15 26 17 27 19 28 21 29 14 30 20 31 31 32 32 33
REMARK SMILES IDX 33 34 34 35 35 36 36 38 37 39 38 40 99 41 39 42 98 43 40 44
REMARK SMILES IDX 41 45 42 46 92 47 43 48 97 49 91 50 93 51 44 52 96 53 90 54
REMARK SMILES IDX 89 55 45 57 77 58 57 59 76 60 58 61 61 62 75 63 94 64 59 65
REMARK SMILES IDX 60 66 74 68 95 69 62 70 46 71 47 72 55 73 48 74 54 75 56 76
REMARK SMILES IDX 53 77 49 78 50 79 51 80 52 81 78 82 79 83 87 84 80 85 86 86
REMARK SMILES IDX 88 87 85 88 81 89 82 90 83 91 84 92 63 93 64 94 72 95 65 96
REMARK SMILES IDX 71 97 73 98 70 99 66 100 67 101 68 102 69 103
REMARK H PARENT 27 7 34 37 93 56 61 67
REMARK Flexibility Score: inf
ROOT
ATOM      1  C   UNL     1       4.058  -3.811  -0.433  1.00  0.00     0.002 C 
ENDROOT
BRANCH   1   2
ATOM      2  C   UNL     1       2.581  -3.494  -0.712  1.00  0.00     0.021 C 
BRANCH   2   3
ATOM      3  C   UNL     1       2.011  -2.308   0.069  1.00  0.00     0.116 C 
BRANCH   3   4
ATOM      4  N   UNL     1       2.763  -1.087  -0.159  1.00  0.00    -0.356 N 
ATOM      5  O   UNL     1       1.051   0.377   0.313  1.00  0.00    -0.275 OA
ATOM      6  C   UNL     1       2.223   0.163   0.028  1.00  0.00     0.221 C 
ATOM      7  H   UNL     1       3.698  -1.158  -0.460  1.00  0.00     0.163 HD
BRANCH   6   8
ATOM      8  C   UNL     1       3.231   1.283  -0.113  1.00  0.00     0.122 C 
BRANCH   8   9
ATOM      9  C   UNL     1       3.773   1.730   1.249  1.00  0.00     0.137 C 
BRANCH   9  10
ATOM     10  N   UNL     1       4.736   0.784   1.838  1.00  0.00    -0.292 N 
ATOM     11  C   UNL     1       6.077   0.884   1.498  1.00  0.00     0.266 C 
ATOM     12  C   UNL     1       4.416  -0.199   2.755  1.00  0.00     0.148 C 
ATOM     13  O   UNL     1       6.569   1.726   0.757  1.00  0.00    -0.268 OA
ATOM     14  C   UNL     1       6.856  -0.223   2.117  1.00  0.00     0.081 C 
ATOM     15  S   UNL     1       5.811  -1.234   3.025  1.00  0.00    -0.054 SA
ATOM     16  S   UNL     1       2.979  -0.442   3.561  1.00  0.00    -0.052 S 
ATOM     17  C   UNL     1       8.165  -0.402   1.886  1.00  0.00     0.030 C 
BRANCH  17  18
ATOM     18  C   UNL     1       8.887  -1.666   2.175  1.00  0.00    -0.009 A 
ATOM     19  C   UNL     1       8.967  -2.622   1.110  1.00  0.00    -0.010 A 
ATOM     20  C   UNL     1       9.425  -1.952   3.466  1.00  0.00    -0.010 A 
ATOM     21  C   UNL     1       8.473  -2.397  -0.203  1.00  0.00     0.009 A 
ATOM     22  C   UNL     1       9.559  -3.876   1.367  1.00  0.00    -0.017 A 
ATOM     23  C   UNL     1      10.029  -3.215   3.677  1.00  0.00    -0.017 A 
ATOM     24  C   UNL     1       9.389  -1.060   4.567  1.00  0.00     0.009 A 
ATOM     25  C   UNL     1       8.541  -3.372  -1.199  1.00  0.00     0.001 A 
ATOM     26  C   UNL     1       9.616  -4.853   0.358  1.00  0.00     0.009 A 
ATOM     27  C   UNL     1      10.082  -4.150   2.636  1.00  0.00     0.017 A 
ATOM     28  C   UNL     1      10.565  -3.546   4.933  1.00  0.00     0.009 A 
ATOM     29  C   UNL     1       9.920  -1.407   5.814  1.00  0.00     0.001 A 
ATOM     30  C   UNL     1       9.107  -4.605  -0.915  1.00  0.00     0.001 A 
ATOM     31  C   UNL     1      10.510  -2.650   5.997  1.00  0.00     0.001 A 
ENDBRANCH  17  18
ENDBRANCH   9  10
ENDBRANCH   8   9
ENDBRANCH   6   8
ENDBRANCH   3   4
ENDBRANCH   2   3
ENDBRANCH   1   2
BRANCH   1  32
ATOM     32  C   UNL     1       4.384  -4.189   1.013  1.00  0.00     0.002 C 
BRANCH  32  33
ATOM     33  C   UNL     1       3.716  -5.463   1.526  1.00  0.00     0.021 C 
BRANCH  33  34
ATOM     34  C   UNL     1       3.956  -6.707   0.679  1.00  0.00     0.116 C 
BRANCH  34  35
ATOM     35  N   UNL     1       5.362  -7.073   0.587  1.00  0.00    -0.352 N 
ATOM     36  C   UNL     1       5.941  -8.312   0.739  1.00  0.00     0.251 C 
ATOM     37  H   UNL     1       5.982  -6.335   0.390  1.00  0.00     0.163 HD
ATOM     38  O   UNL     1       7.164  -8.420   0.756  1.00  0.00    -0.269 OA
BRANCH  36  39
ATOM     39  C   UNL     1       5.080  -9.504   0.921  1.00  0.00     0.039 A 
ATOM     40  C   UNL     1       5.383 -10.410   1.940  1.00  0.00     0.014 A 
ATOM     41  C   UNL     1       3.959  -9.710   0.113  1.00  0.00     0.014 A 
ATOM     42  C   UNL     1       4.522 -11.482   2.194  1.00  0.00     0.010 A 
ATOM     43  C   UNL     1       3.060 -10.729   0.421  1.00  0.00     0.010 A 
ATOM     44  C   UNL     1       3.331 -11.628   1.464  1.00  0.00    -0.014 A 
BRANCH  44  45
ATOM     45  C   UNL     1       2.365 -12.722   1.764  1.00  0.00     0.031 A 
ATOM     46  C   UNL     1       2.056 -13.758   0.715  1.00  0.00     0.074 A 
ATOM     47  C   UNL     1       1.728 -12.754   2.953  1.00  0.00     0.049 A 
ATOM     48  N   UNL     1       1.181 -14.730   0.743  1.00  0.00    -0.248 NA
ATOM     49  C   UNL     1       2.812 -13.669  -0.545  1.00  0.00     0.031 C 
ATOM     50  C   UNL     1       1.916 -11.789   4.039  1.00  0.00     0.029 A 
ATOM     51  N   UNL     1       0.787 -13.624   3.446  1.00  0.00    -0.354 N 
ATOM     52  C   UNL     1       1.277 -15.364  -0.491  1.00  0.00     0.074 A 
ATOM     53  C   UNL     1       2.245 -14.622  -1.270  1.00  0.00     0.031 C 
ATOM     54  C   UNL     1       1.135 -12.134   5.076  1.00  0.00     0.029 A 
ATOM     55  C   UNL     1       0.350 -13.311   4.715  1.00  0.00     0.049 A 
ATOM     56  H   UNL     1       0.456 -14.401   2.940  1.00  0.00     0.167 HD
ATOM     57  C   UNL     1       0.640 -16.480  -0.926  1.00  0.00     0.034 A 
ATOM     58  C   UNL     1      -0.587 -13.894   5.490  1.00  0.00     0.034 A 
ATOM     59  C   UNL     1      -0.314 -17.218  -0.137  1.00  0.00     0.049 A 
ATOM     60  C   UNL     1      -1.312 -15.111   4.965  1.00  0.00     0.074 A 
ATOM     61  C   UNL     1      -0.993 -18.378  -0.471  1.00  0.00     0.029 A 
ATOM     62  N   UNL     1      -0.727 -16.872   1.143  1.00  0.00    -0.354 N 
ATOM     63  N   UNL     1      -1.179 -15.718   3.808  1.00  0.00    -0.248 NA
ATOM     64  C   UNL     1      -2.304 -15.729   5.855  1.00  0.00     0.031 C 
ATOM     65  C   UNL     1      -1.863 -18.694   0.577  1.00  0.00     0.029 A 
ATOM     66  C   UNL     1      -1.667 -17.782   1.601  1.00  0.00     0.049 A 
ATOM     67  H   UNL     1      -0.399 -16.095   1.650  1.00  0.00     0.167 HD
ATOM     68  C   UNL     1      -2.040 -16.812   3.852  1.00  0.00     0.074 A 
ATOM     69  C   UNL     1      -2.673 -16.790   5.154  1.00  0.00     0.031 C 
ATOM     70  C   UNL     1      -2.286 -17.752   2.904  1.00  0.00     0.034 A 
BRANCH  57  71
ATOM     71  C   UNL     1       0.949 -16.960  -2.324  1.00  0.00     0.023 A 
ATOM     72  C   UNL     1       2.235 -17.400  -2.683  1.00  0.00     0.031 A 
ATOM     73  C   UNL     1      -0.052 -16.981  -3.311  1.00  0.00     0.131 A 
ATOM     74  C   UNL     1       2.502 -17.782  -4.006  1.00  0.00     0.055 A 
ATOM     75  C   UNL     1       0.200 -17.439  -4.605  1.00  0.00     0.041 A 
ATOM     76  F   UNL     1      -1.294 -16.552  -3.034  1.00  0.00    -0.206 F 
ATOM     77  C   UNL     1       1.486 -17.832  -4.963  1.00  0.00     0.022 A 
BRANCH  74  78
ATOM     78  S   UNL     1       4.222 -18.096  -4.487  1.00  0.00     0.124 S 
ATOM     79  O   UNL     1       4.843 -16.802  -4.216  1.00  0.00    -0.237 OA
ATOM     80  O   UNL     1       4.605 -19.187  -3.599  1.00  0.00    -0.237 OA
ATOM     81  O   UNL     1       4.123 -18.448  -5.902  1.00  0.00    -0.744 OA
ENDBRANCH  74  78
ENDBRANCH  57  71
BRANCH  58  82
ATOM     82  C   UNL     1      -0.925 -13.337   6.835  1.00  0.00     0.023 A 
ATOM     83  C   UNL     1      -0.757 -14.103   8.000  1.00  0.00     0.031 A 
ATOM     84  C   UNL     1      -1.500 -12.060   6.968  1.00  0.00     0.131 A 
ATOM     85  C   UNL     1      -1.224 -13.619   9.232  1.00  0.00     0.055 A 
ATOM     86  C   UNL     1      -1.899 -11.554   8.207  1.00  0.00     0.041 A 
ATOM     87  F   UNL     1      -1.686 -11.282   5.890  1.00  0.00    -0.206 F 
ATOM     88  C   UNL     1      -1.781 -12.344   9.346  1.00  0.00     0.022 A 
BRANCH  85  89
ATOM     89  S   UNL     1      -1.217 -14.737  10.662  1.00  0.00     0.124 S 
ATOM     90  O   UNL     1      -1.977 -15.872  10.152  1.00  0.00    -0.237 OA
ATOM     91  O   UNL     1       0.211 -14.959  10.864  1.00  0.00    -0.237 OA
ATOM     92  O   UNL     1      -1.880 -13.958  11.705  1.00  0.00    -0.744 OA
ENDBRANCH  85  89
ENDBRANCH  58  82
BRANCH  70  93
ATOM     93  C   UNL     1      -3.233 -18.870   3.269  1.00  0.00     0.023 A 
ATOM     94  C   UNL     1      -4.597 -18.639   3.517  1.00  0.00     0.031 A 
ATOM     95  C   UNL     1      -2.756 -20.189   3.376  1.00  0.00     0.131 A 
ATOM     96  C   UNL     1      -5.424 -19.700   3.917  1.00  0.00     0.055 A 
ATOM     97  C   UNL     1      -3.597 -21.251   3.709  1.00  0.00     0.041 A 
ATOM     98  F   UNL     1      -1.462 -20.468   3.153  1.00  0.00    -0.206 F 
ATOM     99  C   UNL     1      -4.937 -21.007   3.996  1.00  0.00     0.022 A 
BRANCH  96 100
ATOM    100  S   UNL     1      -7.126 -19.334   4.427  1.00  0.00     0.124 S 
ATOM    101  O   UNL     1      -6.919 -18.388   5.519  1.00  0.00    -0.237 OA
ATOM    102  O   UNL     1      -7.705 -18.782   3.206  1.00  0.00    -0.237 OA
ATOM    103  O   UNL     1      -7.652 -20.638   4.827  1.00  0.00    -0.744 OA
ENDBRANCH  96 100
ENDBRANCH  70  93
ENDBRANCH  44  45
ENDBRANCH  36  39
ENDBRANCH  34  35
ENDBRANCH  33  34
ENDBRANCH  32  33
ENDBRANCH   1  32
TORSDOF 19
