REMARK SMILES Cc1ccc(F)cc1-c1ccc(F)cc1C(=O)NCCCCCCNC(=O)c1ccc(-c2c3nc(c(-c4cc(S(=O)(=O)[O-])ccc4F)c4ccc([nH]4)c(-c4cc(S(=O)(=O)[O-])ccc4F)c4nc(c(-c5cc(S(=O)(=O)[O-])ccc5F)c5ccc2[nH]5)C=C4)C=C3)cc1
REMARK SMILES IDX 22 1 21 2 20 3 19 4 18 5 16 6 17 7 15 9 9 10 10 11 11 12
REMARK SMILES IDX 14 13 12 14 13 15 8 16 1 17 2 18 3 19 4 20 7 21 5 22 6 23
REMARK SMILES IDX 23 24 24 25 25 26 26 27 27 29 28 30 29 31 90 32 30 33 89 34
REMARK SMILES IDX 31 35 32 36 33 37 83 38 34 39 88 40 82 41 84 42 35 43 87 44
REMARK SMILES IDX 81 45 80 46 36 48 68 49 48 50 67 51 49 52 52 53 66 54 85 55
REMARK SMILES IDX 50 56 51 57 65 59 86 60 53 61 37 62 38 63 46 64 39 65 45 66
REMARK SMILES IDX 47 67 44 68 40 69 41 70 42 71 43 72 69 73 70 74 78 75 71 76
REMARK SMILES IDX 77 77 79 78 76 79 72 80 73 81 74 82 75 83 54 84 55 85 63 86
REMARK SMILES IDX 56 87 62 88 64 89 61 90 57 91 58 92 59 93 60 94
REMARK H PARENT 18 8 25 28 84 47 52 58
REMARK Flexibility Score: inf
ROOT
ATOM      1  C   UNL     1      -2.072   1.252  -2.736  1.00  0.00     0.002 C 
ENDROOT
BRANCH   1   2
ATOM      2  C   UNL     1      -0.887   1.037  -3.683  1.00  0.00     0.002 C 
BRANCH   2   3
ATOM      3  C   UNL     1       0.466   0.626  -3.094  1.00  0.00     0.021 C 
BRANCH   3   4
ATOM      4  C   UNL     1       0.491  -0.485  -2.054  1.00  0.00     0.116 C 
BRANCH   4   5
ATOM      5  N   UNL     1       0.085  -1.794  -2.485  1.00  0.00    -0.352 N 
ATOM      6  C   UNL     1       0.366  -3.026  -1.946  1.00  0.00     0.252 C 
ATOM      7  O   UNL     1      -0.211  -3.993  -2.455  1.00  0.00    -0.269 OA
ATOM      8  H   UNL     1      -0.480  -1.810  -3.291  1.00  0.00     0.163 HD
BRANCH   6   9
ATOM      9  C   UNL     1       1.369  -3.313  -0.862  1.00  0.00     0.050 A 
ATOM     10  C   UNL     1       1.589  -2.635   0.363  1.00  0.00    -0.005 A 
ATOM     11  C   UNL     1       2.504  -3.201   1.294  1.00  0.00     0.012 A 
ATOM     12  C   UNL     1       3.202  -4.376   1.033  1.00  0.00     0.040 A 
ATOM     13  C   UNL     1       2.092  -4.508  -1.101  1.00  0.00     0.053 A 
ATOM     14  C   UNL     1       2.990  -5.018  -0.170  1.00  0.00     0.124 A 
ATOM     15  F   UNL     1       3.646  -6.156  -0.432  1.00  0.00    -0.207 F 
BRANCH  10  16
ATOM     16  C   UNL     1       0.928  -1.401   0.822  1.00  0.00    -0.012 A 
ATOM     17  C   UNL     1       3.072   0.018   0.533  1.00  0.00     0.045 C 
ATOM     18  C   UNL     1       1.636  -0.172   0.964  1.00  0.00    -0.043 A 
ATOM     19  C   UNL     1       0.965   0.967   1.449  1.00  0.00     0.007 A 
ATOM     20  C   UNL     1      -0.377   0.898   1.814  1.00  0.00     0.039 A 
ATOM     21  C   UNL     1      -0.424  -1.446   1.204  1.00  0.00     0.048 A 
ATOM     22  C   UNL     1      -1.057  -0.305   1.687  1.00  0.00     0.123 A 
ATOM     23  F   UNL     1      -2.353  -0.364   2.019  1.00  0.00    -0.207 F 
ENDBRANCH  10  16
ENDBRANCH   6   9
ENDBRANCH   4   5
ENDBRANCH   3   4
ENDBRANCH   2   3
ENDBRANCH   1   2
BRANCH   1  24
ATOM     24  C   UNL     1      -1.867   2.123  -1.495  1.00  0.00     0.021 C 
BRANCH  24  25
ATOM     25  C   UNL     1      -1.291   3.520  -1.693  1.00  0.00     0.116 C 
BRANCH  25  26
ATOM     26  N   UNL     1      -2.128   4.370  -2.513  1.00  0.00    -0.352 N 
ATOM     27  C   UNL     1      -2.610   5.637  -2.302  1.00  0.00     0.251 C 
ATOM     28  H   UNL     1      -2.399   3.969  -3.370  1.00  0.00     0.163 HD
ATOM     29  O   UNL     1      -3.420   6.087  -3.114  1.00  0.00    -0.269 OA
BRANCH  27  30
ATOM     30  C   UNL     1      -2.209   6.469  -1.134  1.00  0.00     0.039 A 
ATOM     31  C   UNL     1      -3.155   7.363  -0.615  1.00  0.00     0.014 A 
ATOM     32  C   UNL     1      -0.917   6.466  -0.598  1.00  0.00     0.014 A 
ATOM     33  C   UNL     1      -2.817   8.228   0.432  1.00  0.00     0.010 A 
ATOM     34  C   UNL     1      -0.601   7.281   0.497  1.00  0.00     0.010 A 
ATOM     35  C   UNL     1      -1.539   8.191   1.007  1.00  0.00    -0.014 A 
BRANCH  35  36
ATOM     36  C   UNL     1      -1.171   9.148   2.090  1.00  0.00     0.031 A 
ATOM     37  C   UNL     1      -0.135  10.215   1.841  1.00  0.00     0.074 A 
ATOM     38  C   UNL     1      -1.783   9.081   3.289  1.00  0.00     0.049 A 
ATOM     39  N   UNL     1       0.297  11.152   2.647  1.00  0.00    -0.248 NA
ATOM     40  C   UNL     1       0.513  10.218   0.521  1.00  0.00     0.031 C 
ATOM     41  C   UNL     1      -2.794   8.091   3.665  1.00  0.00     0.029 A 
ATOM     42  N   UNL     1      -1.662   9.871   4.407  1.00  0.00    -0.354 N 
ATOM     43  C   UNL     1       1.263  11.854   1.934  1.00  0.00     0.074 A 
ATOM     44  C   UNL     1       1.401  11.193   0.654  1.00  0.00     0.031 C 
ATOM     45  C   UNL     1      -3.237   8.363   4.903  1.00  0.00     0.029 A 
ATOM     46  C   UNL     1      -2.519   9.523   5.426  1.00  0.00     0.049 A 
ATOM     47  H   UNL     1      -1.022  10.616   4.473  1.00  0.00     0.167 HD
ATOM     48  C   UNL     1       1.950  12.966   2.295  1.00  0.00     0.034 A 
ATOM     49  C   UNL     1      -2.712  10.074   6.642  1.00  0.00     0.034 A 
ATOM     50  C   UNL     1       1.788  13.639   3.558  1.00  0.00     0.049 A 
ATOM     51  C   UNL     1      -1.902  11.278   7.044  1.00  0.00     0.074 A 
ATOM     52  C   UNL     1       2.397  14.803   3.995  1.00  0.00     0.029 A 
ATOM     53  N   UNL     1       0.962  13.211   4.586  1.00  0.00    -0.354 N 
ATOM     54  N   UNL     1      -1.003  11.933   6.349  1.00  0.00    -0.248 NA
ATOM     55  C   UNL     1      -2.126  11.813   8.395  1.00  0.00     0.031 C 
ATOM     56  C   UNL     1       1.984  15.046   5.309  1.00  0.00     0.029 A 
ATOM     57  C   UNL     1       1.072  14.067   5.669  1.00  0.00     0.049 A 
ATOM     58  H   UNL     1       0.382  12.416   4.551  1.00  0.00     0.167 HD
ATOM     59  C   UNL     1      -0.564  12.965   7.172  1.00  0.00     0.074 A 
ATOM     60  C   UNL     1      -1.296  12.849   8.416  1.00  0.00     0.031 C 
ATOM     61  C   UNL     1       0.356  13.926   6.913  1.00  0.00     0.034 A 
BRANCH  48  62
ATOM     62  C   UNL     1       2.946  13.521   1.309  1.00  0.00     0.023 A 
ATOM     63  C   UNL     1       2.534  14.074   0.085  1.00  0.00     0.031 A 
ATOM     64  C   UNL     1       4.322  13.503   1.598  1.00  0.00     0.131 A 
ATOM     65  C   UNL     1       3.491  14.531  -0.832  1.00  0.00     0.055 A 
ATOM     66  C   UNL     1       5.265  14.025   0.711  1.00  0.00     0.041 A 
ATOM     67  F   UNL     1       4.771  12.973   2.746  1.00  0.00    -0.206 F 
ATOM     68  C   UNL     1       4.853  14.533  -0.517  1.00  0.00     0.022 A 
BRANCH  65  69
ATOM     69  S   UNL     1       2.942  15.029  -2.486  1.00  0.00     0.124 S 
ATOM     70  O   UNL     1       2.408  13.772  -3.007  1.00  0.00    -0.237 OA
ATOM     71  O   UNL     1       1.956  16.067  -2.193  1.00  0.00    -0.237 OA
ATOM     72  O   UNL     1       4.165  15.495  -3.129  1.00  0.00    -0.744 OA
ENDBRANCH  65  69
ENDBRANCH  48  62
BRANCH  49  73
ATOM     73  C   UNL     1      -3.721   9.488   7.565  1.00  0.00     0.023 A 
ATOM     74  C   UNL     1      -4.925  10.157   7.837  1.00  0.00     0.031 A 
ATOM     75  C   UNL     1      -3.504   8.238   8.170  1.00  0.00     0.131 A 
ATOM     76  C   UNL     1      -5.866   9.574   8.700  1.00  0.00     0.055 A 
ATOM     77  C   UNL     1      -4.457   7.648   9.002  1.00  0.00     0.041 A 
ATOM     78  F   UNL     1      -2.371   7.558   7.932  1.00  0.00    -0.206 F 
ATOM     79  C   UNL     1      -5.645   8.318   9.273  1.00  0.00     0.022 A 
BRANCH  76  80
ATOM     80  S   UNL     1      -7.391  10.482   9.072  1.00  0.00     0.124 S 
ATOM     81  O   UNL     1      -6.880  11.627   9.818  1.00  0.00    -0.237 OA
ATOM     82  O   UNL     1      -7.913  10.765   7.739  1.00  0.00    -0.237 OA
ATOM     83  O   UNL     1      -8.174   9.527   9.853  1.00  0.00    -0.744 OA
ENDBRANCH  76  80
ENDBRANCH  49  73
BRANCH  61  84
ATOM     84  C   UNL     1       0.632  14.942   7.987  1.00  0.00     0.023 A 
ATOM     85  C   UNL     1       1.418  14.622   9.106  1.00  0.00     0.031 A 
ATOM     86  C   UNL     1       0.179  16.265   7.843  1.00  0.00     0.131 A 
ATOM     87  C   UNL     1       1.724  15.617  10.046  1.00  0.00     0.055 A 
ATOM     88  C   UNL     1       0.517  17.258   8.762  1.00  0.00     0.041 A 
ATOM     89  F   UNL     1      -0.568  16.618   6.784  1.00  0.00    -0.206 F 
ATOM     90  C   UNL     1       1.294  16.936   9.871  1.00  0.00     0.022 A 
BRANCH  87  91
ATOM     91  S   UNL     1       2.708  15.172  11.504  1.00  0.00     0.124 S 
ATOM     92  O   UNL     1       1.774  14.337  12.253  1.00  0.00    -0.237 OA
ATOM     93  O   UNL     1       3.852  14.481  10.919  1.00  0.00    -0.237 OA
ATOM     94  O   UNL     1       3.015  16.463  12.117  1.00  0.00    -0.744 OA
ENDBRANCH  87  91
ENDBRANCH  61  84
ENDBRANCH  35  36
ENDBRANCH  27  30
ENDBRANCH  25  26
ENDBRANCH  24  25
ENDBRANCH   1  24
TORSDOF 17
