REMARK SMILES Cc1c[nH]c(C[N@H+]2C[C@@H]3CN(S(C)(=O)=O)C[C@]3(C(=O)NCCCCCCNC(=O)c3ccc(-c4c5nc(c(-c6cc(S(=O)(=O)[O-])ccc6F)c6ccc([nH]6)c(-c6cc(S(=O)(=O)[O-])ccc6F)c6nc(c(-c7cc(S(=O)(=O)[O-])ccc7F)c7ccc4[nH]7)C=C6)C=C5)cc3)C2)n1
REMARK SMILES IDX 24 1 23 2 22 3 21 4 20 5 18 6 19 7 17 9 7 10 8 11 93 12 9 14
REMARK SMILES IDX 10 15 16 16 11 17 6 18 5 19 1 20 2 21 3 22 94 23 4 24 12 26
REMARK SMILES IDX 13 27 14 28 15 29 25 30 26 31 27 32 28 33 29 35 30 36 31 37
REMARK SMILES IDX 92 38 32 39 91 40 33 41 34 42 35 43 85 44 36 45 90 46 84 47
REMARK SMILES IDX 86 48 37 49 89 50 83 51 82 52 38 54 70 55 50 56 69 57 51 58
REMARK SMILES IDX 54 59 68 60 87 61 52 62 53 63 67 65 88 66 55 67 39 68 40 69
REMARK SMILES IDX 48 70 41 71 47 72 49 73 46 74 42 75 43 76 44 77 45 78 71 79
REMARK SMILES IDX 72 80 80 81 73 82 79 83 81 84 78 85 74 86 75 87 76 88 77 89
REMARK SMILES IDX 56 90 57 91 65 92 58 93 64 94 66 95 63 96 59 97 60 98 61 99
REMARK SMILES IDX 62 100
REMARK H PARENT 20 8 7 13 4 25 27 34 86 53 54 64
REMARK Flexibility Score: inf
ROOT
ATOM      1  C   UNL     1      -1.472   9.437   4.804  1.00  0.00     0.002 C 
ENDROOT
BRANCH   1   2
ATOM      2  C   UNL     1      -0.131   8.742   4.545  1.00  0.00     0.002 C 
BRANCH   2   3
ATOM      3  C   UNL     1      -0.172   7.228   4.729  1.00  0.00     0.021 C 
BRANCH   3   4
ATOM      4  C   UNL     1      -1.149   6.528   3.778  1.00  0.00     0.116 C 
BRANCH   4   5
ATOM      5  N   UNL     1      -0.435   6.062   2.604  1.00  0.00    -0.355 N 
ATOM      6  C   UNL     1      -0.001   4.774   2.372  1.00  0.00     0.233 C 
ATOM      7  O   UNL     1       1.026   4.624   1.710  1.00  0.00    -0.274 OA
ATOM      8  H   UNL     1      -0.242   6.729   1.907  1.00  0.00     0.163 HD
BRANCH   6   9
ATOM      9  C   UNL     1      -0.899   3.605   2.946  1.00  0.00     0.121 C 
ATOM     10  N   UNL     1      -2.362   2.358   1.294  1.00  0.00    -0.327 N 
ATOM     11  C   UNL     1      -2.206   1.525   2.461  1.00  0.00     0.268 C 
ATOM     12  C   UNL     1      -1.301   3.384   1.408  1.00  0.00     0.281 C 
ATOM     13  H   UNL     1      -3.293   2.775   1.273  1.00  0.00     0.348 HD
ATOM     14  C   UNL     1      -0.894   2.002   3.053  1.00  0.00     0.082 C 
ATOM     15  C   UNL     1      -0.827   1.531   4.504  1.00  0.00     0.113 C 
ATOM     16  C   UNL     1       0.142   3.598   4.131  1.00  0.00     0.125 C 
ATOM     17  N   UNL     1      -0.434   2.740   5.193  1.00  0.00    -0.200 NA
BRANCH  10  18
ATOM     18  C   UNL     1      -2.314   1.619   0.014  1.00  0.00     0.338 C 
BRANCH  18  19
ATOM     19  C   UNL     1      -1.160   0.663  -0.136  1.00  0.00     0.161 A 
ATOM     20  C   UNL     1       2.284  -0.216  -0.111  1.00  0.00     0.068 C 
ATOM     21  C   UNL     1       0.806  -0.218  -0.153  1.00  0.00     0.056 A 
ATOM     22  C   UNL     1      -0.078  -1.272  -0.096  1.00  0.00     0.107 A 
ATOM     23  N   UNL     1       0.120   0.968  -0.217  1.00  0.00    -0.233 NA
ATOM     24  N   UNL     1      -1.321  -0.702  -0.118  1.00  0.00    -0.344 N 
ATOM     25  H   UNL     1      -2.180  -1.184  -0.119  1.00  0.00     0.167 HD
ENDBRANCH  18  19
ENDBRANCH  10  18
BRANCH  17  26
ATOM     26  S   UNL     1      -1.460   3.365   6.375  1.00  0.00     0.211 S 
ATOM     27  C   UNL     1      -3.032   3.590   5.545  1.00  0.00     0.176 C 
ATOM     28  O   UNL     1      -1.656   2.329   7.362  1.00  0.00    -0.213 OA
ATOM     29  O   UNL     1      -0.965   4.676   6.744  1.00  0.00    -0.213 OA
ENDBRANCH  17  26
ENDBRANCH   6   9
ENDBRANCH   4   5
ENDBRANCH   3   4
ENDBRANCH   2   3
ENDBRANCH   1   2
BRANCH   1  30
ATOM     30  C   UNL     1      -2.133   9.079   6.140  1.00  0.00     0.021 C 
BRANCH  30  31
ATOM     31  C   UNL     1      -1.260   9.350   7.362  1.00  0.00     0.116 C 
BRANCH  31  32
ATOM     32  N   UNL     1      -0.835  10.739   7.399  1.00  0.00    -0.352 N 
ATOM     33  C   UNL     1      -1.152  11.720   8.301  1.00  0.00     0.251 C 
ATOM     34  H   UNL     1      -0.233  11.016   6.671  1.00  0.00     0.163 HD
ATOM     35  O   UNL     1      -0.994  12.898   7.995  1.00  0.00    -0.269 OA
BRANCH  33  36
ATOM     36  C   UNL     1      -1.676  11.353   9.633  1.00  0.00     0.039 A 
ATOM     37  C   UNL     1      -2.668  12.147  10.211  1.00  0.00     0.014 A 
ATOM     38  C   UNL     1      -1.155  10.259  10.331  1.00  0.00     0.014 A 
ATOM     39  C   UNL     1      -3.154  11.827  11.478  1.00  0.00     0.010 A 
ATOM     40  C   UNL     1      -1.702   9.891  11.557  1.00  0.00     0.010 A 
ATOM     41  C   UNL     1      -2.690  10.686  12.154  1.00  0.00    -0.014 A 
BRANCH  41  42
ATOM     42  C   UNL     1      -3.210  10.336  13.500  1.00  0.00     0.031 A 
ATOM     43  C   UNL     1      -2.286  10.337  14.689  1.00  0.00     0.074 A 
ATOM     44  C   UNL     1      -4.506   9.997  13.643  1.00  0.00     0.049 A 
ATOM     45  N   UNL     1      -2.547  10.049  15.939  1.00  0.00    -0.248 NA
ATOM     46  C   UNL     1      -0.879  10.681  14.435  1.00  0.00     0.031 C 
ATOM     47  C   UNL     1      -5.483   9.925  12.554  1.00  0.00     0.029 A 
ATOM     48  N   UNL     1      -5.227   9.654  14.758  1.00  0.00    -0.354 N 
ATOM     49  C   UNL     1      -1.338  10.171  16.616  1.00  0.00     0.074 A 
ATOM     50  C   UNL     1      -0.333  10.488  15.625  1.00  0.00     0.031 C 
ATOM     51  C   UNL     1      -6.682   9.600  13.060  1.00  0.00     0.029 A 
ATOM     52  C   UNL     1      -6.552   9.388  14.498  1.00  0.00     0.049 A 
ATOM     53  H   UNL     1      -4.834   9.602  15.659  1.00  0.00     0.167 HD
ATOM     54  C   UNL     1      -1.095  10.055  17.945  1.00  0.00     0.034 A 
ATOM     55  C   UNL     1      -7.546   9.009  15.325  1.00  0.00     0.034 A 
ATOM     56  C   UNL     1      -2.114   9.739  18.917  1.00  0.00     0.049 A 
ATOM     57  C   UNL     1      -7.244   8.851  16.794  1.00  0.00     0.074 A 
ATOM     58  C   UNL     1      -1.992   9.640  20.292  1.00  0.00     0.029 A 
ATOM     59  N   UNL     1      -3.442   9.458  18.617  1.00  0.00    -0.354 N 
ATOM     60  N   UNL     1      -6.106   9.023  17.428  1.00  0.00    -0.248 NA
ATOM     61  C   UNL     1      -8.363   8.462  17.660  1.00  0.00     0.031 C 
ATOM     62  C   UNL     1      -3.221   9.220  20.812  1.00  0.00     0.029 A 
ATOM     63  C   UNL     1      -4.139   9.150  19.776  1.00  0.00     0.049 A 
ATOM     64  H   UNL     1      -3.831   9.474  17.712  1.00  0.00     0.167 HD
ATOM     65  C   UNL     1      -6.384   8.797  18.774  1.00  0.00     0.074 A 
ATOM     66  C   UNL     1      -7.799   8.496  18.858  1.00  0.00     0.031 C 
ATOM     67  C   UNL     1      -5.549   8.839  19.844  1.00  0.00     0.034 A 
BRANCH  54  68
ATOM     68  C   UNL     1       0.331  10.241  18.413  1.00  0.00     0.023 A 
ATOM     69  C   UNL     1       1.019  11.454  18.228  1.00  0.00     0.031 A 
ATOM     70  C   UNL     1       1.022   9.184  19.032  1.00  0.00     0.131 A 
ATOM     71  C   UNL     1       2.373  11.554  18.583  1.00  0.00     0.055 A 
ATOM     72  C   UNL     1       2.343   9.319  19.464  1.00  0.00     0.041 A 
ATOM     73  F   UNL     1       0.429   7.994  19.216  1.00  0.00    -0.206 F 
ATOM     74  C   UNL     1       3.032  10.504  19.226  1.00  0.00     0.022 A 
BRANCH  71  75
ATOM     75  S   UNL     1       3.302  13.019  18.053  1.00  0.00     0.124 S 
ATOM     76  O   UNL     1       3.126  12.971  16.603  1.00  0.00    -0.237 OA
ATOM     77  O   UNL     1       2.610  14.100  18.745  1.00  0.00    -0.237 OA
ATOM     78  O   UNL     1       4.662  12.750  18.517  1.00  0.00    -0.744 OA
ENDBRANCH  71  75
ENDBRANCH  54  68
BRANCH  55  79
ATOM     79  C   UNL     1      -8.914   8.744  14.792  1.00  0.00     0.023 A 
ATOM     80  C   UNL     1     -10.016   9.510  15.204  1.00  0.00     0.031 A 
ATOM     81  C   UNL     1      -9.148   7.687  13.893  1.00  0.00     0.131 A 
ATOM     82  C   UNL     1     -11.306   9.176  14.763  1.00  0.00     0.055 A 
ATOM     83  C   UNL     1     -10.425   7.398  13.408  1.00  0.00     0.041 A 
ATOM     84  F   UNL     1      -8.132   6.922  13.463  1.00  0.00    -0.206 F 
ATOM     85  C   UNL     1     -11.515   8.136  13.856  1.00  0.00     0.022 A 
BRANCH  82  86
ATOM     86  S   UNL     1     -12.723  10.058  15.474  1.00  0.00     0.124 S 
ATOM     87  O   UNL     1     -12.552   9.794  16.898  1.00  0.00    -0.237 OA
ATOM     88  O   UNL     1     -12.475  11.429  15.040  1.00  0.00    -0.237 OA
ATOM     89  O   UNL     1     -13.874   9.408  14.852  1.00  0.00    -0.744 OA
ENDBRANCH  82  86
ENDBRANCH  55  79
BRANCH  67  90
ATOM     90  C   UNL     1      -6.163   8.602  21.204  1.00  0.00     0.023 A 
ATOM     91  C   UNL     1      -6.745   7.372  21.555  1.00  0.00     0.031 A 
ATOM     92  C   UNL     1      -6.183   9.636  22.159  1.00  0.00     0.131 A 
ATOM     93  C   UNL     1      -7.384   7.228  22.795  1.00  0.00     0.055 A 
ATOM     94  C   UNL     1      -6.753   9.463  23.420  1.00  0.00     0.041 A 
ATOM     95  F   UNL     1      -5.648  10.836  21.880  1.00  0.00    -0.206 F 
ATOM     96  C   UNL     1      -7.374   8.259  23.738  1.00  0.00     0.022 A 
BRANCH  93  97
ATOM     97  S   UNL     1      -8.338   5.718  23.112  1.00  0.00     0.124 S 
ATOM     98  O   UNL     1      -9.283   5.718  22.000  1.00  0.00    -0.237 OA
ATOM     99  O   UNL     1      -7.309   4.685  23.075  1.00  0.00    -0.237 OA
ATOM    100  O   UNL     1      -8.930   5.956  24.428  1.00  0.00    -0.744 OA
ENDBRANCH  93  97
ENDBRANCH  67  90
ENDBRANCH  41  42
ENDBRANCH  33  36
ENDBRANCH  31  32
ENDBRANCH  30  31
ENDBRANCH   1  30
TORSDOF 19
