REMARK SMILES [NH3+]C[C@H]1CC[C@@H](C(=O)N[C@H](C(=O)NCCCCCCNC(=O)c2ccc(-c3c4nc(c(-c5cc(S(=O)(=O)[O-])ccc5F)c5ccc([nH]5)c(-c5cc(S(=O)(=O)[O-])ccc5F)c5nc(c(-c6cc(S(=O)(=O)[O-])ccc6F)c6ccc3[nH]6)C=C5)C=C4)cc2)C2CCCCC2)O1
REMARK SMILES IDX 16 1 15 2 14 3 13 4 11 5 12 6 10 8 9 9 7 10 8 11 6 13 3 14
REMARK SMILES IDX 4 15 92 16 5 17 2 18 1 19 86 23 87 24 91 25 88 26 90 27
REMARK SMILES IDX 89 28 17 29 18 30 19 31 20 32 21 33 22 35 23 36 24 37 85 38
REMARK SMILES IDX 25 39 84 40 26 41 27 42 28 43 78 44 29 45 83 46 77 47 79 48
REMARK SMILES IDX 30 49 82 50 76 51 75 52 31 54 63 55 43 56 62 57 44 58 47 59
REMARK SMILES IDX 61 60 80 61 45 62 46 63 60 65 81 66 48 67 32 68 33 69 41 70
REMARK SMILES IDX 34 71 40 72 42 73 39 74 35 75 36 76 37 77 38 78 64 79 65 80
REMARK SMILES IDX 73 81 66 82 72 83 74 84 71 85 67 86 68 87 69 88 70 89 49 90
REMARK SMILES IDX 50 91 58 92 51 93 57 94 59 95 56 96 52 97 53 98 54 99 55 100
REMARK H PARENT 13 7 9 12 1 20 1 21 1 22 20 34 79 53 47 64
REMARK Flexibility Score: inf
ROOT
ATOM      1  C   UNL     1       5.661  -4.760   7.694  1.00  0.00     0.002 C 
ENDROOT
BRANCH   1   2
ATOM      2  C   UNL     1       6.348  -3.396   7.767  1.00  0.00     0.021 C 
BRANCH   2   3
ATOM      3  C   UNL     1       6.300  -2.562   6.490  1.00  0.00     0.116 C 
BRANCH   3   4
ATOM      4  N   UNL     1       4.961  -2.127   6.127  1.00  0.00    -0.354 N 
ATOM      5  C   UNL     1       4.465  -1.072   5.430  1.00  0.00     0.242 C 
ATOM      6  O   UNL     1       3.244  -1.116   5.210  1.00  0.00    -0.273 OA
ATOM      7  H   UNL     1       4.258  -2.731   6.460  1.00  0.00     0.163 HD
BRANCH   5   8
ATOM      8  C   UNL     1       5.240   0.218   5.017  1.00  0.00     0.174 C 
BRANCH   8   9
ATOM      9  N   UNL     1       4.799   1.282   5.931  1.00  0.00    -0.342 N 
ATOM     10  C   UNL     1       4.060   2.413   5.736  1.00  0.00     0.249 C 
ATOM     11  O   UNL     1       3.815   3.079   6.748  1.00  0.00    -0.272 OA
ATOM     12  H   UNL     1       5.093   1.154   6.862  1.00  0.00     0.164 HD
BRANCH  10  13
ATOM     13  C   UNL     1       3.528   2.839   4.340  1.00  0.00     0.207 C 
ATOM     14  C   UNL     1       3.714   4.998   3.386  1.00  0.00     0.174 C 
ATOM     15  C   UNL     1       4.125   3.984   2.341  1.00  0.00     0.041 C 
ATOM     16  O   UNL     1       3.022   4.204   4.373  1.00  0.00    -0.359 OA
ATOM     17  C   UNL     1       4.541   2.830   3.209  1.00  0.00     0.045 C 
BRANCH  14  18
ATOM     18  C   UNL     1       4.890   5.758   4.055  1.00  0.00     0.291 C 
BRANCH  18  19
ATOM     19  N   UNL     1       5.874   6.333   3.133  1.00  0.00    -0.355 N 
ATOM     20  H   UNL     1       6.602   6.808   3.667  1.00  0.00     0.344 HD
ATOM     21  H   UNL     1       5.412   7.002   2.517  1.00  0.00     0.344 HD
ATOM     22  H   UNL     1       6.292   5.589   2.575  1.00  0.00     0.344 HD
ENDBRANCH  18  19
ENDBRANCH  14  18
ENDBRANCH  10  13
ENDBRANCH   8   9
BRANCH   8  23
ATOM     23  C   UNL     1       6.777   0.192   4.899  1.00  0.00     0.021 C 
ATOM     24  C   UNL     1       7.244  -0.808   3.827  1.00  0.00     0.006 C 
ATOM     25  C   UNL     1       7.422   1.552   4.563  1.00  0.00     0.006 C 
ATOM     26  C   UNL     1       8.765  -0.948   3.849  1.00  0.00     0.000 C 
ATOM     27  C   UNL     1       8.947   1.465   4.588  1.00  0.00     0.000 C 
ATOM     28  C   UNL     1       9.454   0.396   3.625  1.00  0.00     0.000 C 
ENDBRANCH   8  23
ENDBRANCH   5   8
ENDBRANCH   3   4
ENDBRANCH   2   3
ENDBRANCH   1   2
BRANCH   1  29
ATOM     29  C   UNL     1       6.156  -5.704   6.595  1.00  0.00     0.002 C 
BRANCH  29  30
ATOM     30  C   UNL     1       7.660  -5.992   6.581  1.00  0.00     0.021 C 
BRANCH  30  31
ATOM     31  C   UNL     1       8.255  -6.483   7.899  1.00  0.00     0.116 C 
BRANCH  31  32
ATOM     32  N   UNL     1       7.619  -7.692   8.388  1.00  0.00    -0.352 N 
ATOM     33  C   UNL     1       8.180  -8.831   8.906  1.00  0.00     0.251 C 
ATOM     34  H   UNL     1       6.635  -7.695   8.341  1.00  0.00     0.163 HD
ATOM     35  O   UNL     1       7.457  -9.805   9.125  1.00  0.00    -0.269 OA
BRANCH  33  36
ATOM     36  C   UNL     1       9.634  -8.913   9.171  1.00  0.00     0.039 A 
ATOM     37  C   UNL     1      10.299 -10.104   8.869  1.00  0.00     0.014 A 
ATOM     38  C   UNL     1      10.343  -7.848   9.736  1.00  0.00     0.014 A 
ATOM     39  C   UNL     1      11.675 -10.210   9.088  1.00  0.00     0.010 A 
ATOM     40  C   UNL     1      11.729  -7.928   9.883  1.00  0.00     0.010 A 
ATOM     41  C   UNL     1      12.409  -9.112   9.569  1.00  0.00    -0.014 A 
BRANCH  41  42
ATOM     42  C   UNL     1      13.885  -9.211   9.740  1.00  0.00     0.031 A 
ATOM     43  C   UNL     1      14.508  -9.103  11.107  1.00  0.00     0.074 A 
ATOM     44  C   UNL     1      14.666  -9.384   8.655  1.00  0.00     0.049 A 
ATOM     45  N   UNL     1      15.768  -9.194  11.451  1.00  0.00    -0.248 NA
ATOM     46  C   UNL     1      13.600  -8.828  12.230  1.00  0.00     0.031 C 
ATOM     47  C   UNL     1      14.184  -9.448   7.272  1.00  0.00     0.029 A 
ATOM     48  N   UNL     1      16.023  -9.547   8.539  1.00  0.00    -0.354 N 
ATOM     49  C   UNL     1      15.804  -8.988  12.827  1.00  0.00     0.074 A 
ATOM     50  C   UNL     1      14.447  -8.694  13.238  1.00  0.00     0.031 C 
ATOM     51  C   UNL     1      15.223  -9.680   6.455  1.00  0.00     0.029 A 
ATOM     52  C   UNL     1      16.448  -9.742   7.244  1.00  0.00     0.049 A 
ATOM     53  H   UNL     1      16.636  -9.526   9.309  1.00  0.00     0.167 HD
ATOM     54  C   UNL     1      16.863  -9.063  13.672  1.00  0.00     0.034 A 
ATOM     55  C   UNL     1      17.684  -9.952   6.749  1.00  0.00     0.034 A 
ATOM     56  C   UNL     1      18.210  -9.362  13.244  1.00  0.00     0.049 A 
ATOM     57  C   UNL     1      18.846 -10.028   7.706  1.00  0.00     0.074 A 
ATOM     58  C   UNL     1      19.349  -9.510  14.018  1.00  0.00     0.029 A 
ATOM     59  N   UNL     1      18.605  -9.550  11.925  1.00  0.00    -0.354 N 
ATOM     60  N   UNL     1      18.852  -9.894   9.013  1.00  0.00    -0.248 NA
ATOM     61  C   UNL     1      20.163 -10.305   7.122  1.00  0.00     0.031 C 
ATOM     62  C   UNL     1      20.439  -9.714  13.165  1.00  0.00     0.029 A 
ATOM     63  C   UNL     1      19.972  -9.782  11.862  1.00  0.00     0.049 A 
ATOM     64  H   UNL     1      18.002  -9.523  11.147  1.00  0.00     0.167 HD
ATOM     65  C   UNL     1      20.171 -10.102   9.408  1.00  0.00     0.074 A 
ATOM     66  C   UNL     1      20.921 -10.397   8.204  1.00  0.00     0.031 C 
ATOM     67  C   UNL     1      20.714 -10.055  10.653  1.00  0.00     0.034 A 
BRANCH  54  68
ATOM     68  C   UNL     1      16.605  -8.794  15.138  1.00  0.00     0.023 A 
ATOM     69  C   UNL     1      15.739  -9.602  15.897  1.00  0.00     0.031 A 
ATOM     70  C   UNL     1      17.214  -7.703  15.783  1.00  0.00     0.131 A 
ATOM     71  C   UNL     1      15.444  -9.261  17.226  1.00  0.00     0.055 A 
ATOM     72  C   UNL     1      16.984  -7.420  17.131  1.00  0.00     0.041 A 
ATOM     73  F   UNL     1      18.035  -6.881  15.109  1.00  0.00    -0.206 F 
ATOM     74  C   UNL     1      16.082  -8.192  17.857  1.00  0.00     0.022 A 
BRANCH  71  75
ATOM     75  S   UNL     1      14.103 -10.145  18.069  1.00  0.00     0.124 S 
ATOM     76  O   UNL     1      12.971  -9.873  17.186  1.00  0.00    -0.237 OA
ATOM     77  O   UNL     1      14.588 -11.519  18.082  1.00  0.00    -0.237 OA
ATOM     78  O   UNL     1      14.032  -9.494  19.376  1.00  0.00    -0.744 OA
ENDBRANCH  71  75
ENDBRANCH  54  68
BRANCH  55  79
ATOM     79  C   UNL     1      17.893 -10.114   5.280  1.00  0.00     0.023 A 
ATOM     80  C   UNL     1      18.379 -11.318   4.744  1.00  0.00     0.031 A 
ATOM     81  C   UNL     1      17.652  -9.049   4.394  1.00  0.00     0.131 A 
ATOM     82  C   UNL     1      18.658 -11.411   3.372  1.00  0.00     0.055 A 
ATOM     83  C   UNL     1      17.876  -9.166   3.021  1.00  0.00     0.041 A 
ATOM     84  F   UNL     1      17.181  -7.878   4.852  1.00  0.00    -0.206 F 
ATOM     85  C   UNL     1      18.396 -10.348   2.505  1.00  0.00     0.022 A 
BRANCH  82  86
ATOM     86  S   UNL     1      19.456 -12.916   2.747  1.00  0.00     0.124 S 
ATOM     87  O   UNL     1      20.674 -12.960   3.548  1.00  0.00    -0.237 OA
ATOM     88  O   UNL     1      18.454 -13.934   3.044  1.00  0.00    -0.237 OA
ATOM     89  O   UNL     1      19.651 -12.632   1.327  1.00  0.00    -0.744 OA
ENDBRANCH  82  86
ENDBRANCH  55  79
BRANCH  67  90
ATOM     90  C   UNL     1      22.188 -10.371  10.764  1.00  0.00     0.023 A 
ATOM     91  C   UNL     1      23.166  -9.565  10.155  1.00  0.00     0.031 A 
ATOM     92  C   UNL     1      22.618 -11.521  11.451  1.00  0.00     0.131 A 
ATOM     93  C   UNL     1      24.512  -9.963  10.171  1.00  0.00     0.055 A 
ATOM     94  C   UNL     1      23.966 -11.871  11.529  1.00  0.00     0.041 A 
ATOM     95  F   UNL     1      21.731 -12.331  12.051  1.00  0.00    -0.206 F 
ATOM     96  C   UNL     1      24.920 -11.101  10.869  1.00  0.00     0.022 A 
BRANCH  93  97
ATOM     97  S   UNL     1      25.700  -9.048   9.150  1.00  0.00     0.124 S 
ATOM     98  O   UNL     1      25.087  -9.127   7.828  1.00  0.00    -0.237 OA
ATOM     99  O   UNL     1      25.697  -7.729   9.776  1.00  0.00    -0.237 OA
ATOM    100  O   UNL     1      26.940  -9.805   9.306  1.00  0.00    -0.744 OA
ENDBRANCH  93  97
ENDBRANCH  67  90
ENDBRANCH  41  42
ENDBRANCH  33  36
ENDBRANCH  31  32
ENDBRANCH  30  31
ENDBRANCH  29  30
ENDBRANCH   1  29
TORSDOF 21
