REMARK SMILES Cc1nn(C)cc1C[NH+]1CCN(C(=O)Cn2ccc(C(=O)NCCCCCCNC(=O)c3ccc(-c4c5nc(c(-c6cc(S(=O)(=O)[O-])ccc6F)c6ccc([nH]6)c(-c6cc(S(=O)(=O)[O-])ccc6F)c6nc(c(-c7cc(S(=O)(=O)[O-])ccc7F)c7ccc4[nH]7)C=C6)C=C5)cc3)n2)CC1
REMARK SMILES IDX 25 1 24 2 23 3 22 4 20 5 21 6 19 8 16 9 17 10 95 11 18 12
REMARK SMILES IDX 15 13 13 14 9 15 10 16 97 17 11 19 96 20 12 21 14 22 8 23
REMARK SMILES IDX 7 24 1 25 2 26 3 27 4 28 6 29 5 30 26 31 27 32 28 33 29 34
REMARK SMILES IDX 30 35 31 37 32 38 33 39 94 40 34 41 93 42 35 43 36 44 37 45
REMARK SMILES IDX 87 46 38 47 92 48 86 49 88 50 39 51 91 52 85 53 84 54 40 56
REMARK SMILES IDX 72 57 52 58 71 59 53 60 56 61 70 62 89 63 54 64 55 65 69 67
REMARK SMILES IDX 90 68 57 69 41 70 42 71 50 72 43 73 49 74 51 75 48 76 44 77
REMARK SMILES IDX 45 78 46 79 47 80 73 81 74 82 82 83 75 84 81 85 83 86 80 87
REMARK SMILES IDX 76 88 77 89 78 90 79 91 58 92 59 93 67 94 60 95 66 96 68 97
REMARK SMILES IDX 65 98 61 99 62 100 63 101 64 102
REMARK H PARENT 22 7 9 18 29 36 88 55 56 66
REMARK Flexibility Score: inf
ROOT
ATOM      1  C   UNL     1       9.001   4.439  -2.041  1.00  0.00     0.002 C 
ENDROOT
BRANCH   1   2
ATOM      2  C   UNL     1       7.548   3.946  -2.106  1.00  0.00     0.021 C 
BRANCH   2   3
ATOM      3  C   UNL     1       7.233   3.113  -3.349  1.00  0.00     0.116 C 
BRANCH   3   4
ATOM      4  N   UNL     1       7.772   1.777  -3.224  1.00  0.00    -0.351 N 
ATOM      5  C   UNL     1       7.192   0.532  -3.188  1.00  0.00     0.271 C 
ATOM      6  O   UNL     1       7.983  -0.416  -3.139  1.00  0.00    -0.267 OA
ATOM      7  H   UNL     1       8.753   1.755  -3.149  1.00  0.00     0.163 HD
BRANCH   5   8
ATOM      8  C   UNL     1       5.726   0.330  -3.235  1.00  0.00     0.150 A 
ATOM      9  N   UNL     1       3.903  -0.766  -3.544  1.00  0.00    -0.263 N 
ATOM     10  C   UNL     1       3.494   0.480  -3.186  1.00  0.00     0.110 A 
ATOM     11  N   UNL     1       5.242  -0.886  -3.570  1.00  0.00    -0.167 NA
ATOM     12  C   UNL     1       4.640   1.199  -2.942  1.00  0.00     0.056 A 
BRANCH   9  13
ATOM     13  C   UNL     1       3.111  -1.974  -3.744  1.00  0.00     0.244 C 
BRANCH  13  14
ATOM     14  C   UNL     1       1.630  -1.701  -3.920  1.00  0.00     0.244 C 
ATOM     15  N   UNL     1      -1.316  -3.125  -1.028  1.00  0.00    -0.328 N 
ATOM     16  C   UNL     1      -1.682  -2.401  -2.249  1.00  0.00     0.284 C 
ATOM     17  C   UNL     1      -0.042  -3.826  -1.187  1.00  0.00     0.284 C 
ATOM     18  H   UNL     1      -2.024  -3.850  -0.915  1.00  0.00     0.348 HD
ATOM     19  C   UNL     1      -0.576  -1.548  -2.893  1.00  0.00     0.181 C 
ATOM     20  C   UNL     1       1.117  -3.053  -1.847  1.00  0.00     0.181 C 
ATOM     21  N   UNL     1       0.733  -2.203  -2.977  1.00  0.00    -0.330 N 
ATOM     22  O   UNL     1       1.241  -1.013  -4.869  1.00  0.00    -0.273 OA
BRANCH  15  23
ATOM     23  C   UNL     1      -1.519  -2.418   0.244  1.00  0.00     0.302 C 
BRANCH  23  24
ATOM     24  C   UNL     1      -0.732  -1.162   0.374  1.00  0.00     0.047 A 
ATOM     25  C   UNL     1      -2.533   0.706  -0.069  1.00  0.00     0.069 C 
ATOM     26  C   UNL     1      -1.168   0.184   0.194  1.00  0.00     0.068 A 
ATOM     27  N   UNL     1      -0.142   1.042   0.232  1.00  0.00    -0.178 NA
ATOM     28  N   UNL     1       0.919   0.275   0.516  1.00  0.00    -0.275 N 
ATOM     29  C   UNL     1       0.594  -1.028   0.740  1.00  0.00     0.118 A 
ATOM     30  C   UNL     1       2.249   0.827   0.429  1.00  0.00     0.173 C 
ENDBRANCH  23  24
ENDBRANCH  15  23
ENDBRANCH  13  14
ENDBRANCH   9  13
ENDBRANCH   5   8
ENDBRANCH   3   4
ENDBRANCH   2   3
ENDBRANCH   1   2
BRANCH   1  31
ATOM     31  C   UNL     1       9.493   5.230  -3.264  1.00  0.00     0.002 C 
BRANCH  31  32
ATOM     32  C   UNL     1       8.589   6.377  -3.739  1.00  0.00     0.021 C 
BRANCH  32  33
ATOM     33  C   UNL     1       8.485   7.528  -2.749  1.00  0.00     0.116 C 
BRANCH  33  34
ATOM     34  N   UNL     1       9.756   8.232  -2.595  1.00  0.00    -0.352 N 
ATOM     35  C   UNL     1      10.068   9.251  -1.721  1.00  0.00     0.251 C 
ATOM     36  H   UNL     1      10.483   7.941  -3.192  1.00  0.00     0.163 HD
ATOM     37  O   UNL     1      11.014  10.002  -1.959  1.00  0.00    -0.269 OA
BRANCH  35  38
ATOM     38  C   UNL     1       9.253   9.428  -0.508  1.00  0.00     0.039 A 
ATOM     39  C   UNL     1       8.895  10.699  -0.052  1.00  0.00     0.014 A 
ATOM     40  C   UNL     1       8.825   8.285   0.165  1.00  0.00     0.014 A 
ATOM     41  C   UNL     1       8.033  10.805   1.038  1.00  0.00     0.010 A 
ATOM     42  C   UNL     1       7.869   8.387   1.145  1.00  0.00     0.010 A 
ATOM     43  C   UNL     1       7.504   9.642   1.621  1.00  0.00    -0.014 A 
BRANCH  43  44
ATOM     44  C   UNL     1       6.456   9.718   2.638  1.00  0.00     0.031 A 
ATOM     45  C   UNL     1       5.254  10.490   2.223  1.00  0.00     0.074 A 
ATOM     46  C   UNL     1       6.453   8.958   3.756  1.00  0.00     0.049 A 
ATOM     47  N   UNL     1       4.843  11.622   2.687  1.00  0.00    -0.248 NA
ATOM     48  C   UNL     1       4.502  10.031   1.043  1.00  0.00     0.031 C 
ATOM     49  C   UNL     1       7.421   7.926   4.147  1.00  0.00     0.029 A 
ATOM     50  N   UNL     1       5.507   8.858   4.732  1.00  0.00    -0.354 N 
ATOM     51  C   UNL     1       3.641  11.891   2.040  1.00  0.00     0.074 A 
ATOM     52  C   UNL     1       3.609  11.013   0.901  1.00  0.00     0.031 C 
ATOM     53  C   UNL     1       6.895   7.154   5.123  1.00  0.00     0.029 A 
ATOM     54  C   UNL     1       5.634   7.735   5.548  1.00  0.00     0.049 A 
ATOM     55  H   UNL     1       4.793   9.525   4.851  1.00  0.00     0.167 HD
ATOM     56  C   UNL     1       2.666  12.626   2.646  1.00  0.00     0.034 A 
ATOM     57  C   UNL     1       4.760   7.293   6.494  1.00  0.00     0.034 A 
ATOM     58  C   UNL     1       3.198  13.331   3.794  1.00  0.00     0.049 A 
ATOM     59  C   UNL     1       3.925   8.456   6.878  1.00  0.00     0.074 A 
ATOM     60  C   UNL     1       4.222  14.242   3.981  1.00  0.00     0.029 A 
ATOM     61  N   UNL     1       2.925  12.826   5.047  1.00  0.00    -0.354 N 
ATOM     62  N   UNL     1       4.405   9.508   7.482  1.00  0.00    -0.248 NA
ATOM     63  C   UNL     1       2.677   8.672   6.162  1.00  0.00     0.031 C 
ATOM     64  C   UNL     1       4.840  13.848   5.205  1.00  0.00     0.029 A 
ATOM     65  C   UNL     1       4.106  12.791   5.747  1.00  0.00     0.049 A 
ATOM     66  H   UNL     1       2.043  12.542   5.380  1.00  0.00     0.167 HD
ATOM     67  C   UNL     1       3.795  10.586   6.858  1.00  0.00     0.074 A 
ATOM     68  C   UNL     1       2.662  10.008   6.136  1.00  0.00     0.031 C 
ATOM     69  C   UNL     1       4.430  11.791   6.749  1.00  0.00     0.034 A 
BRANCH  56  70
ATOM     70  C   UNL     1       1.173  12.423   2.462  1.00  0.00     0.023 A 
ATOM     71  C   UNL     1       0.319  13.247   3.224  1.00  0.00     0.031 A 
ATOM     72  C   UNL     1       0.551  11.317   1.840  1.00  0.00     0.131 A 
ATOM     73  C   UNL     1      -1.022  12.894   3.448  1.00  0.00     0.055 A 
ATOM     74  C   UNL     1      -0.803  11.009   2.009  1.00  0.00     0.041 A 
ATOM     75  F   UNL     1       1.220  10.420   1.108  1.00  0.00    -0.206 F 
ATOM     76  C   UNL     1      -1.590  11.776   2.848  1.00  0.00     0.022 A 
BRANCH  73  77
ATOM     77  S   UNL     1      -1.951  13.816   4.700  1.00  0.00     0.124 S 
ATOM     78  O   UNL     1      -1.070  13.700   5.858  1.00  0.00    -0.237 OA
ATOM     79  O   UNL     1      -2.045  15.137   4.090  1.00  0.00    -0.237 OA
ATOM     80  O   UNL     1      -3.210  13.081   4.797  1.00  0.00    -0.744 OA
ENDBRANCH  73  77
ENDBRANCH  56  70
BRANCH  57  81
ATOM     81  C   UNL     1       4.427   5.885   6.850  1.00  0.00     0.023 A 
ATOM     82  C   UNL     1       3.814   5.521   8.069  1.00  0.00     0.031 A 
ATOM     83  C   UNL     1       4.491   4.885   5.852  1.00  0.00     0.131 A 
ATOM     84  C   UNL     1       3.294   4.215   8.246  1.00  0.00     0.055 A 
ATOM     85  C   UNL     1       3.976   3.599   6.032  1.00  0.00     0.041 A 
ATOM     86  F   UNL     1       4.979   5.153   4.631  1.00  0.00    -0.206 F 
ATOM     87  C   UNL     1       3.364   3.261   7.228  1.00  0.00     0.022 A 
BRANCH  84  88
ATOM     88  S   UNL     1       2.423   3.757   9.783  1.00  0.00     0.124 S 
ATOM     89  O   UNL     1       3.504   3.748  10.762  1.00  0.00    -0.237 OA
ATOM     90  O   UNL     1       1.434   4.821   9.914  1.00  0.00    -0.237 OA
ATOM     91  O   UNL     1       1.863   2.439   9.478  1.00  0.00    -0.744 OA
ENDBRANCH  84  88
ENDBRANCH  57  81
BRANCH  69  92
ATOM     92  C   UNL     1       5.676  12.030   7.583  1.00  0.00     0.023 A 
ATOM     93  C   UNL     1       6.840  11.226   7.561  1.00  0.00     0.031 A 
ATOM     94  C   UNL     1       5.712  13.200   8.362  1.00  0.00     0.131 A 
ATOM     95  C   UNL     1       7.972  11.600   8.315  1.00  0.00     0.055 A 
ATOM     96  C   UNL     1       6.841  13.580   9.085  1.00  0.00     0.041 A 
ATOM     97  F   UNL     1       4.649  14.021   8.407  1.00  0.00    -0.206 F 
ATOM     98  C   UNL     1       7.974  12.777   9.071  1.00  0.00     0.022 A 
BRANCH  95  99
ATOM     99  S   UNL     1       9.461  10.549   8.353  1.00  0.00     0.124 S 
ATOM    100  O   UNL     1       8.930   9.205   8.549  1.00  0.00    -0.237 OA
ATOM    101  O   UNL     1      10.068  10.813   7.051  1.00  0.00    -0.237 OA
ATOM    102  O   UNL     1      10.218  11.075   9.492  1.00  0.00    -0.744 OA
ENDBRANCH  95  99
ENDBRANCH  69  92
ENDBRANCH  43  44
ENDBRANCH  35  38
ENDBRANCH  33  34
ENDBRANCH  32  33
ENDBRANCH  31  32
ENDBRANCH   1  31
TORSDOF 20
