REMARK SMILES O=C(NCCCCCCNC(=O)C1([C@H]2CS(=O)(=O)C[C@H]2O)CCCC1)c1ccc(-c2c3nc(c(-c4cc(S(=O)(=O)[O-])ccc4F)c4ccc([nH]4)c(-c4cc(S(=O)(=O)[O-])ccc4F)c4nc(c(-c5cc(S(=O)(=O)[O-])ccc5F)c5ccc2[nH]5)C=C4)C=C3)cc1
REMARK SMILES IDX 6 1 5 2 4 3 3 4 1 5 2 6 26 8 27 9 88 10 28 11 87 12 29 13
REMARK SMILES IDX 30 14 31 15 81 16 32 17 86 18 80 19 82 20 33 21 85 22 79 23
REMARK SMILES IDX 78 24 34 26 66 27 46 28 65 29 47 30 50 31 64 32 83 33 48 34
REMARK SMILES IDX 49 35 63 37 84 38 51 39 35 40 36 41 44 42 37 43 43 44 45 45
REMARK SMILES IDX 42 46 38 47 39 48 40 49 41 50 67 51 68 52 76 53 69 54 75 55
REMARK SMILES IDX 77 56 74 57 70 58 71 59 72 60 73 61 52 62 53 63 61 64 54 65
REMARK SMILES IDX 60 66 62 67 59 68 55 69 56 70 57 71 58 72 7 73 8 74 9 75
REMARK SMILES IDX 10 76 11 77 12 79 13 80 22 81 25 82 23 83 24 84 14 85 15 86
REMARK SMILES IDX 20 87 16 88 19 89 17 90 18 91 21 92
REMARK H PARENT 3 7 82 25 50 36 10 78 21 93
REMARK Flexibility Score: inf
ROOT
ATOM      1  C   UNL     1       5.822  -9.446  -6.004  1.00  0.00     0.002 C 
ENDROOT
BRANCH   1   2
ATOM      2  C   UNL     1       6.782  -9.485  -7.193  1.00  0.00     0.021 C 
BRANCH   2   3
ATOM      3  C   UNL     1       7.024 -10.876  -7.764  1.00  0.00     0.116 C 
BRANCH   3   4
ATOM      4  N   UNL     1       5.826 -11.456  -8.354  1.00  0.00    -0.352 N 
ATOM      5  O   UNL     1       4.488 -12.216 -10.005  1.00  0.00    -0.269 OA
ATOM      6  C   UNL     1       5.617 -11.905  -9.637  1.00  0.00     0.251 C 
ATOM      7  H   UNL     1       5.055 -11.539  -7.747  1.00  0.00     0.163 HD
BRANCH   6   8
ATOM      8  C   UNL     1       6.757 -11.984 -10.576  1.00  0.00     0.039 A 
ATOM      9  C   UNL     1       7.980 -12.509 -10.155  1.00  0.00     0.014 A 
ATOM     10  C   UNL     1       6.615 -11.496 -11.877  1.00  0.00     0.014 A 
ATOM     11  C   UNL     1       9.101 -12.369 -10.962  1.00  0.00     0.010 A 
ATOM     12  C   UNL     1       7.724 -11.461 -12.729  1.00  0.00     0.010 A 
ATOM     13  C   UNL     1       8.990 -11.851 -12.262  1.00  0.00    -0.014 A 
BRANCH  13  14
ATOM     14  C   UNL     1      10.211 -11.748 -13.108  1.00  0.00     0.031 A 
ATOM     15  C   UNL     1      10.708 -10.415 -13.601  1.00  0.00     0.074 A 
ATOM     16  C   UNL     1      10.904 -12.871 -13.387  1.00  0.00     0.049 A 
ATOM     17  N   UNL     1      11.774 -10.143 -14.312  1.00  0.00    -0.248 NA
ATOM     18  C   UNL     1       9.900  -9.234 -13.263  1.00  0.00     0.031 C 
ATOM     19  C   UNL     1      10.523 -14.221 -12.962  1.00  0.00     0.029 A 
ATOM     20  N   UNL     1      12.081 -13.060 -14.064  1.00  0.00    -0.354 N 
ATOM     21  C   UNL     1      11.754  -8.768 -14.526  1.00  0.00     0.074 A 
ATOM     22  C   UNL     1      10.547  -8.269 -13.900  1.00  0.00     0.031 C 
ATOM     23  C   UNL     1      11.478 -15.085 -13.332  1.00  0.00     0.029 A 
ATOM     24  C   UNL     1      12.496 -14.372 -14.092  1.00  0.00     0.049 A 
ATOM     25  H   UNL     1      12.582 -12.327 -14.490  1.00  0.00     0.167 HD
ATOM     26  C   UNL     1      12.662  -7.995 -15.177  1.00  0.00     0.034 A 
ATOM     27  C   UNL     1      13.564 -14.944 -14.679  1.00  0.00     0.034 A 
ATOM     28  C   UNL     1      13.862  -8.512 -15.795  1.00  0.00     0.049 A 
ATOM     29  C   UNL     1      14.527 -14.070 -15.437  1.00  0.00     0.074 A 
ATOM     30  C   UNL     1      14.863  -7.813 -16.448  1.00  0.00     0.029 A 
ATOM     31  N   UNL     1      14.219  -9.854 -15.851  1.00  0.00    -0.354 N 
ATOM     32  N   UNL     1      14.505 -12.768 -15.608  1.00  0.00    -0.248 NA
ATOM     33  C   UNL     1      15.665 -14.744 -16.072  1.00  0.00     0.031 C 
ATOM     34  C   UNL     1      15.775  -8.736 -16.972  1.00  0.00     0.029 A 
ATOM     35  C   UNL     1      15.404 -10.005 -16.559  1.00  0.00     0.049 A 
ATOM     36  H   UNL     1      13.707 -10.591 -15.447  1.00  0.00     0.167 HD
ATOM     37  C   UNL     1      15.649 -12.465 -16.340  1.00  0.00     0.074 A 
ATOM     38  C   UNL     1      16.344 -13.717 -16.560  1.00  0.00     0.031 C 
ATOM     39  C   UNL     1      16.089 -11.258 -16.782  1.00  0.00     0.034 A 
BRANCH  26  40
ATOM     40  C   UNL     1      12.363  -6.517 -15.300  1.00  0.00     0.023 A 
ATOM     41  C   UNL     1      12.249  -5.681 -14.175  1.00  0.00     0.031 A 
ATOM     42  C   UNL     1      12.169  -5.936 -16.567  1.00  0.00     0.131 A 
ATOM     43  C   UNL     1      11.874  -4.338 -14.332  1.00  0.00     0.055 A 
ATOM     44  C   UNL     1      11.884  -4.578 -16.723  1.00  0.00     0.041 A 
ATOM     45  F   UNL     1      12.242  -6.683 -17.680  1.00  0.00    -0.206 F 
ATOM     46  C   UNL     1      11.718  -3.773 -15.600  1.00  0.00     0.022 A 
BRANCH  43  47
ATOM     47  S   UNL     1      11.437  -3.383 -12.853  1.00  0.00     0.124 S 
ATOM     48  O   UNL     1      10.377  -4.204 -12.271  1.00  0.00    -0.237 OA
ATOM     49  O   UNL     1      12.694  -3.350 -12.114  1.00  0.00    -0.237 OA
ATOM     50  O   UNL     1      10.994  -2.098 -13.391  1.00  0.00    -0.744 OA
ENDBRANCH  43  47
ENDBRANCH  26  40
BRANCH  27  51
ATOM     51  C   UNL     1      13.771 -16.419 -14.594  1.00  0.00     0.023 A 
ATOM     52  C   UNL     1      14.911 -16.955 -13.976  1.00  0.00     0.031 A 
ATOM     53  C   UNL     1      12.851 -17.314 -15.170  1.00  0.00     0.131 A 
ATOM     54  C   UNL     1      15.128 -18.341 -13.994  1.00  0.00     0.055 A 
ATOM     55  C   UNL     1      13.039 -18.695 -15.127  1.00  0.00     0.041 A 
ATOM     56  F   UNL     1      11.742 -16.855 -15.773  1.00  0.00    -0.206 F 
ATOM     57  C   UNL     1      14.192 -19.216 -14.550  1.00  0.00     0.022 A 
BRANCH  54  58
ATOM     58  S   UNL     1      16.706 -18.977 -13.367  1.00  0.00     0.124 S 
ATOM     59  O   UNL     1      17.665 -18.269 -14.207  1.00  0.00    -0.237 OA
ATOM     60  O   UNL     1      16.660 -18.573 -11.965  1.00  0.00    -0.237 OA
ATOM     61  O   UNL     1      16.610 -20.416 -13.603  1.00  0.00    -0.744 OA
ENDBRANCH  54  58
ENDBRANCH  27  51
BRANCH  39  62
ATOM     62  C   UNL     1      17.424 -11.233 -17.491  1.00  0.00     0.023 A 
ATOM     63  C   UNL     1      17.636 -11.901 -18.710  1.00  0.00     0.031 A 
ATOM     64  C   UNL     1      18.513 -10.556 -16.914  1.00  0.00     0.131 A 
ATOM     65  C   UNL     1      18.923 -11.943 -19.270  1.00  0.00     0.055 A 
ATOM     66  C   UNL     1      19.772 -10.535 -17.516  1.00  0.00     0.041 A 
ATOM     67  F   UNL     1      18.374  -9.906 -15.747  1.00  0.00    -0.206 F 
ATOM     68  C   UNL     1      19.987 -11.247 -18.692  1.00  0.00     0.022 A 
BRANCH  65  69
ATOM     69  S   UNL     1      19.218 -13.029 -20.693  1.00  0.00     0.124 S 
ATOM     70  O   UNL     1      18.777 -14.323 -20.182  1.00  0.00    -0.237 OA
ATOM     71  O   UNL     1      18.375 -12.430 -21.722  1.00  0.00    -0.237 OA
ATOM     72  O   UNL     1      20.657 -12.910 -20.923  1.00  0.00    -0.744 OA
ENDBRANCH  65  69
ENDBRANCH  39  62
ENDBRANCH  13  14
ENDBRANCH   6   8
ENDBRANCH   3   4
ENDBRANCH   2   3
ENDBRANCH   1   2
BRANCH   1  73
ATOM     73  C   UNL     1       6.238 -10.309  -4.808  1.00  0.00     0.002 C 
BRANCH  73  74
ATOM     74  C   UNL     1       7.647 -10.038  -4.266  1.00  0.00     0.021 C 
BRANCH  74  75
ATOM     75  C   UNL     1       7.867  -8.600  -3.799  1.00  0.00     0.116 C 
BRANCH  75  76
ATOM     76  N   UNL     1       7.087  -8.314  -2.607  1.00  0.00    -0.356 N 
ATOM     77  C   UNL     1       7.439  -8.086  -1.313  1.00  0.00     0.226 C 
ATOM     78  H   UNL     1       6.116  -8.278  -2.766  1.00  0.00     0.163 HD
ATOM     79  O   UNL     1       6.510  -7.968  -0.509  1.00  0.00    -0.274 OA
BRANCH  77  80
ATOM     80  C   UNL     1       8.916  -7.850  -0.889  1.00  0.00     0.055 C 
ATOM     81  C   UNL     1       9.003  -7.905   0.655  1.00  0.00     0.017 C 
ATOM     82  C   UNL     1       9.768  -9.080  -1.294  1.00  0.00     0.017 C 
ATOM     83  C   UNL     1      10.360  -8.496   0.997  1.00  0.00     0.001 C 
ATOM     84  C   UNL     1      10.646  -9.484  -0.112  1.00  0.00     0.001 C 
BRANCH  80  85
ATOM     85  C   UNL     1       9.354  -6.474  -1.529  1.00  0.00     0.049 C 
ATOM     86  C   UNL     1       8.422  -5.287  -1.176  1.00  0.00     0.144 C 
ATOM     87  C   UNL     1      10.782  -5.913  -1.356  1.00  0.00     0.134 C 
ATOM     88  S   UNL     1       9.298  -4.218  -0.045  1.00  0.00     0.153 S 
ATOM     89  C   UNL     1      10.848  -5.069  -0.095  1.00  0.00     0.169 C 
ATOM     90  O   UNL     1       9.464  -2.925  -0.671  1.00  0.00    -0.229 OA
ATOM     91  O   UNL     1       8.733  -4.354   1.284  1.00  0.00    -0.229 OA
BRANCH  87  92
ATOM     92  O   UNL     1      11.786  -6.906  -1.352  1.00  0.00    -0.392 OA
ATOM     93  H   UNL     1      11.656  -7.494  -0.592  1.00  0.00     0.211 HD
ENDBRANCH  87  92
ENDBRANCH  80  85
ENDBRANCH  77  80
ENDBRANCH  75  76
ENDBRANCH  74  75
ENDBRANCH  73  74
ENDBRANCH   1  73
TORSDOF 18
