REMARK SMILES O=C(COc1cc(-c2ccccc2)nc(Nc2ccccc2Br)n1)NCCCCCCNC(=O)c1ccc(-c2c3nc(c(-c4cc(S(=O)(=O)[O-])ccc4F)c4ccc([nH]4)c(-c4cc(S(=O)(=O)[O-])ccc4F)c4nc(c(-c5cc(S(=O)(=O)[O-])ccc5F)c5ccc2[nH]5)C=C4)C=C3)cc1
REMARK SMILES IDX 28 1 27 2 26 3 25 4 1 5 2 6 3 8 4 9 5 10 6 11 24 12 7 13
REMARK SMILES IDX 15 14 14 15 8 16 9 17 13 18 10 19 12 20 11 21 16 22 17 24
REMARK SMILES IDX 18 25 22 26 19 27 21 28 23 29 20 30 29 31 30 32 31 33 32 34
REMARK SMILES IDX 33 35 34 37 35 38 36 39 97 40 37 41 96 42 38 43 39 44 40 45
REMARK SMILES IDX 90 46 41 47 95 48 89 49 91 50 42 51 94 52 88 53 87 54 43 56
REMARK SMILES IDX 75 57 55 58 74 59 56 60 59 61 73 62 92 63 57 64 58 65 72 67
REMARK SMILES IDX 93 68 60 69 44 70 45 71 53 72 46 73 52 74 54 75 51 76 47 77
REMARK SMILES IDX 48 78 49 79 50 80 76 81 77 82 85 83 78 84 84 85 86 86 83 87
REMARK SMILES IDX 79 88 80 89 81 90 82 91 61 92 62 93 70 94 63 95 69 96 71 97
REMARK SMILES IDX 68 98 64 99 65 100 66 101 67 102
REMARK H PARENT 25 7 16 23 32 36 91 55 59 66
REMARK Flexibility Score: inf
ROOT
ATOM      1  C   UNL     1       4.218   3.521   0.875  1.00  0.00     0.002 C 
ENDROOT
BRANCH   1   2
ATOM      2  C   UNL     1       2.722   3.225   1.043  1.00  0.00     0.021 C 
BRANCH   2   3
ATOM      3  C   UNL     1       2.151   2.270   0.004  1.00  0.00     0.116 C 
BRANCH   3   4
ATOM      4  N   UNL     1       2.822   0.986   0.014  1.00  0.00    -0.353 N 
ATOM      5  O   UNL     1       1.077  -0.247   0.870  1.00  0.00    -0.271 OA
ATOM      6  C   UNL     1       2.194  -0.191   0.369  1.00  0.00     0.258 C 
ATOM      7  H   UNL     1       3.772   0.951  -0.245  1.00  0.00     0.163 HD
BRANCH   6   8
ATOM      8  C   UNL     1       3.012  -1.444   0.041  1.00  0.00     0.331 C 
BRANCH   8   9
ATOM      9  O   UNL     1       3.853  -1.302  -1.105  1.00  0.00    -0.467 OA
BRANCH   9  10
ATOM     10  C   UNL     1       3.180  -1.521  -2.282  1.00  0.00     0.219 A 
ATOM     11  C   UNL     1       2.216  -0.654  -2.722  1.00  0.00     0.097 A 
ATOM     12  N   UNL     1       3.632  -2.539  -3.018  1.00  0.00    -0.177 NA
ATOM     13  C   UNL     1       1.698  -0.894  -3.972  1.00  0.00     0.080 A 
ATOM     14  C   UNL     1       3.066  -2.721  -4.222  1.00  0.00     0.231 A 
ATOM     15  N   UNL     1       2.110  -1.926  -4.732  1.00  0.00    -0.212 NA
BRANCH  13  16
ATOM     16  C   UNL     1       0.663  -0.006  -4.516  1.00  0.00     0.000 A 
ATOM     17  C   UNL     1      -0.579  -0.509  -4.930  1.00  0.00     0.010 A 
ATOM     18  C   UNL     1       0.856   1.389  -4.543  1.00  0.00     0.010 A 
ATOM     19  C   UNL     1      -1.604   0.356  -5.326  1.00  0.00     0.001 A 
ATOM     20  C   UNL     1      -0.165   2.253  -4.942  1.00  0.00     0.001 A 
ATOM     21  C   UNL     1      -1.398   1.734  -5.325  1.00  0.00     0.000 A 
ENDBRANCH  13  16
BRANCH  14  22
ATOM     22  N   UNL     1       3.516  -3.737  -5.060  1.00  0.00    -0.323 N 
ATOM     23  H   UNL     1       3.145  -3.723  -5.972  1.00  0.00     0.170 HD
BRANCH  22  24
ATOM     24  C   UNL     1       4.417  -4.776  -4.800  1.00  0.00     0.055 A 
ATOM     25  C   UNL     1       5.544  -4.894  -5.632  1.00  0.00     0.027 A 
ATOM     26  C   UNL     1       4.298  -5.678  -3.725  1.00  0.00     0.041 A 
ATOM     27  C   UNL     1       6.525  -5.862  -5.397  1.00  0.00     0.002 A 
ATOM     28  C   UNL     1       5.280  -6.650  -3.493  1.00  0.00     0.018 A 
ATOM     29  Br  UNL     1       2.752  -5.752  -2.613  1.00  0.00    -0.049 Br
ATOM     30  C   UNL     1       6.395  -6.737  -4.324  1.00  0.00     0.001 A 
ENDBRANCH  22  24
ENDBRANCH  14  22
ENDBRANCH   9  10
ENDBRANCH   8   9
ENDBRANCH   6   8
ENDBRANCH   3   4
ENDBRANCH   2   3
ENDBRANCH   1   2
BRANCH   1  31
ATOM     31  C   UNL     1       4.621   4.145  -0.465  1.00  0.00     0.002 C 
BRANCH  31  32
ATOM     32  C   UNL     1       3.924   5.462  -0.810  1.00  0.00     0.021 C 
BRANCH  32  33
ATOM     33  C   UNL     1       4.077   6.566   0.233  1.00  0.00     0.116 C 
BRANCH  33  34
ATOM     34  N   UNL     1       5.463   6.965   0.419  1.00  0.00    -0.352 N 
ATOM     35  C   UNL     1       6.016   8.223   0.400  1.00  0.00     0.251 C 
ATOM     36  H   UNL     1       6.096   6.229   0.583  1.00  0.00     0.163 HD
ATOM     37  O   UNL     1       7.238   8.350   0.397  1.00  0.00    -0.269 OA
BRANCH  35  38
ATOM     38  C   UNL     1       5.140   9.415   0.350  1.00  0.00     0.039 A 
ATOM     39  C   UNL     1       5.460  10.453  -0.527  1.00  0.00     0.014 A 
ATOM     40  C   UNL     1       4.003   9.506   1.158  1.00  0.00     0.014 A 
ATOM     41  C   UNL     1       4.603  11.551  -0.643  1.00  0.00     0.010 A 
ATOM     42  C   UNL     1       3.111  10.561   0.983  1.00  0.00     0.010 A 
ATOM     43  C   UNL     1       3.400  11.596   0.081  1.00  0.00    -0.014 A 
BRANCH  43  44
ATOM     44  C   UNL     1       2.435  12.713  -0.098  1.00  0.00     0.031 A 
ATOM     45  C   UNL     1       2.099  13.618   1.056  1.00  0.00     0.074 A 
ATOM     46  C   UNL     1       1.814  12.875  -1.284  1.00  0.00     0.049 A 
ATOM     47  N   UNL     1       1.237  14.601   1.115  1.00  0.00    -0.248 NA
ATOM     48  C   UNL     1       2.804  13.360   2.319  1.00  0.00     0.031 C 
ATOM     49  C   UNL     1       2.023  12.036  -2.466  1.00  0.00     0.029 A 
ATOM     50  N   UNL     1       0.877  13.792  -1.690  1.00  0.00    -0.354 N 
ATOM     51  C   UNL     1       1.289  15.073   2.422  1.00  0.00     0.074 A 
ATOM     52  C   UNL     1       2.214  14.218   3.136  1.00  0.00     0.031 C 
ATOM     53  C   UNL     1       1.259  12.493  -3.470  1.00  0.00     0.029 A 
ATOM     54  C   UNL     1       0.466  13.622  -2.993  1.00  0.00     0.049 A 
ATOM     55  H   UNL     1       0.531  14.504  -1.105  1.00  0.00     0.167 HD
ATOM     56  C   UNL     1       0.645  16.136   2.970  1.00  0.00     0.034 A 
ATOM     57  C   UNL     1      -0.456  14.287  -3.717  1.00  0.00     0.034 A 
ATOM     58  C   UNL     1      -0.277  16.974   2.241  1.00  0.00     0.049 A 
ATOM     59  C   UNL     1      -1.192  15.438  -3.081  1.00  0.00     0.074 A 
ATOM     60  C   UNL     1      -0.945  18.105   2.679  1.00  0.00     0.029 A 
ATOM     61  N   UNL     1      -0.677  16.765   0.926  1.00  0.00    -0.354 N 
ATOM     62  N   UNL     1      -1.091  15.909  -1.859  1.00  0.00    -0.248 NA
ATOM     63  C   UNL     1      -2.157  16.153  -3.924  1.00  0.00     0.031 C 
ATOM     64  C   UNL     1      -1.808  18.527   1.662  1.00  0.00     0.029 A 
ATOM     65  C   UNL     1      -1.613  17.720   0.552  1.00  0.00     0.049 A 
ATOM     66  H   UNL     1      -0.345  16.044   0.344  1.00  0.00     0.167 HD
ATOM     67  C   UNL     1      -1.959  16.995  -1.797  1.00  0.00     0.074 A 
ATOM     68  C   UNL     1      -2.563  17.116  -3.109  1.00  0.00     0.031 C 
ATOM     69  C   UNL     1      -2.227  17.822  -0.753  1.00  0.00     0.034 A 
BRANCH  56  70
ATOM     70  C   UNL     1       0.898  16.418   4.434  1.00  0.00     0.023 A 
ATOM     71  C   UNL     1       2.187  16.702   4.921  1.00  0.00     0.031 A 
ATOM     72  C   UNL     1      -0.153  16.354   5.367  1.00  0.00     0.131 A 
ATOM     73  C   UNL     1       2.409  16.809   6.302  1.00  0.00     0.055 A 
ATOM     74  C   UNL     1       0.059  16.561   6.732  1.00  0.00     0.041 A 
ATOM     75  F   UNL     1      -1.403  16.067   4.972  1.00  0.00    -0.206 F 
ATOM     76  C   UNL     1       1.349  16.769   7.210  1.00  0.00     0.022 A 
BRANCH  73  77
ATOM     77  S   UNL     1       4.121  16.814   6.903  1.00  0.00     0.124 S 
ATOM     78  O   UNL     1       4.636  15.571   6.332  1.00  0.00    -0.237 OA
ATOM     79  O   UNL     1       4.652  18.047   6.334  1.00  0.00    -0.237 OA
ATOM     80  O   UNL     1       3.974  16.807   8.357  1.00  0.00    -0.744 OA
ENDBRANCH  73  77
ENDBRANCH  56  70
BRANCH  57  81
ATOM     81  C   UNL     1      -0.745  13.871  -5.120  1.00  0.00     0.023 A 
ATOM     82  C   UNL     1      -0.458  14.716  -6.204  1.00  0.00     0.031 A 
ATOM     83  C   UNL     1      -1.330  12.621  -5.395  1.00  0.00     0.131 A 
ATOM     84  C   UNL     1      -0.787  14.316  -7.508  1.00  0.00     0.055 A 
ATOM     85  C   UNL     1      -1.606  12.206  -6.699  1.00  0.00     0.041 A 
ATOM     86  F   UNL     1      -1.621  11.773  -4.396  1.00  0.00    -0.206 F 
ATOM     87  C   UNL     1      -1.343  13.060  -7.765  1.00  0.00     0.022 A 
BRANCH  84  88
ATOM     88  S   UNL     1      -0.540  15.491  -8.868  1.00  0.00     0.124 S 
ATOM     89  O   UNL     1      -1.390  16.602  -8.458  1.00  0.00    -0.237 OA
ATOM     90  O   UNL     1       0.899  15.726  -8.808  1.00  0.00    -0.237 OA
ATOM     91  O   UNL     1      -0.999  14.753 -10.043  1.00  0.00    -0.744 OA
ENDBRANCH  84  88
ENDBRANCH  57  81
BRANCH  69  92
ATOM     92  C   UNL     1      -3.188  18.960  -1.004  1.00  0.00     0.023 A 
ATOM     93  C   UNL     1      -4.544  18.737  -1.302  1.00  0.00     0.031 A 
ATOM     94  C   UNL     1      -2.736  20.291  -0.951  1.00  0.00     0.131 A 
ATOM     95  C   UNL     1      -5.385  19.823  -1.592  1.00  0.00     0.055 A 
ATOM     96  C   UNL     1      -3.592  21.370  -1.172  1.00  0.00     0.041 A 
ATOM     97  F   UNL     1      -1.450  20.566  -0.677  1.00  0.00    -0.206 F 
ATOM     98  C   UNL     1      -4.922  21.139  -1.509  1.00  0.00     0.022 A 
BRANCH  95  99
ATOM     99  S   UNL     1      -7.067  19.491  -2.183  1.00  0.00     0.124 S 
ATOM    100  O   UNL     1      -6.816  18.681  -3.371  1.00  0.00    -0.237 OA
ATOM    101  O   UNL     1      -7.665  18.792  -1.050  1.00  0.00    -0.237 OA
ATOM    102  O   UNL     1      -7.609  20.823  -2.445  1.00  0.00    -0.744 OA
ENDBRANCH  95  99
ENDBRANCH  69  92
ENDBRANCH  43  44
ENDBRANCH  35  38
ENDBRANCH  33  34
ENDBRANCH  32  33
ENDBRANCH  31  32
ENDBRANCH   1  31
TORSDOF 21
