REMARK SMILES CCOc1cc(OCC)cc(-c2ccc([C@@H](C)C(=O)NCCCCCCNC(=O)c3ccc(-c4c5nc(c(-c6cc(S(=O)(=O)[O-])ccc6F)c6ccc([nH]6)c(-c6cc(S(=O)(=O)[O-])ccc6F)c6nc(c(-c7cc(S(=O)(=O)[O-])ccc7F)c7ccc4[nH]7)C=C6)C=C5)cc3)cc2)c1
REMARK SMILES IDX 23 1 22 2 21 3 20 4 18 5 19 6 16 8 17 9 15 10 12 11 13 12
REMARK SMILES IDX 94 13 14 14 93 15 11 16 4 17 5 18 95 19 6 20 10 21 3 22 2 23
REMARK SMILES IDX 1 24 7 25 8 26 9 27 24 28 25 29 26 30 27 31 28 32 29 34
REMARK SMILES IDX 30 35 31 36 92 37 32 38 91 39 33 40 34 41 35 42 85 43 36 44
REMARK SMILES IDX 90 45 84 46 86 47 37 48 89 49 83 50 82 51 38 53 70 54 50 55
REMARK SMILES IDX 69 56 51 57 54 58 68 59 87 60 52 61 53 62 67 64 88 65 55 66
REMARK SMILES IDX 39 67 40 68 48 69 41 70 47 71 49 72 46 73 42 74 43 75 44 76
REMARK SMILES IDX 45 77 71 78 72 79 80 80 73 81 79 82 81 83 78 84 74 85 75 86
REMARK SMILES IDX 76 87 77 88 56 89 57 90 65 91 58 92 64 93 66 94 63 95 59 96
REMARK SMILES IDX 60 97 61 98 62 99
REMARK H PARENT 20 7 27 33 86 52 54 63
REMARK Flexibility Score: inf
ROOT
ATOM      1  C   UNL     1       8.277  -3.107   1.907  1.00  0.00     0.002 C 
ENDROOT
BRANCH   1   2
ATOM      2  C   UNL     1       8.247  -2.053   0.794  1.00  0.00     0.021 C 
BRANCH   2   3
ATOM      3  C   UNL     1       9.133  -2.397  -0.406  1.00  0.00     0.116 C 
BRANCH   3   4
ATOM      4  N   UNL     1       8.426  -3.191  -1.389  1.00  0.00    -0.356 N 
ATOM      5  C   UNL     1       7.884  -2.870  -2.595  1.00  0.00     0.227 C 
ATOM      6  O   UNL     1       7.270  -3.772  -3.180  1.00  0.00    -0.274 OA
ATOM      7  H   UNL     1       8.319  -4.138  -1.139  1.00  0.00     0.163 HD
BRANCH   5   8
ATOM      8  C   UNL     1       8.008  -1.484  -3.249  1.00  0.00     0.105 C 
ATOM      9  C   UNL     1       9.446  -1.052  -3.534  1.00  0.00     0.023 C 
BRANCH   8  10
ATOM     10  C   UNL     1       7.119  -0.436  -2.604  1.00  0.00    -0.036 A 
ATOM     11  C   UNL     1       5.331   1.367  -1.309  1.00  0.00    -0.018 A 
ATOM     12  C   UNL     1       6.660   1.213  -0.886  1.00  0.00     0.009 A 
ATOM     13  C   UNL     1       4.926   0.625  -2.426  1.00  0.00     0.009 A 
ATOM     14  C   UNL     1       7.547   0.363  -1.544  1.00  0.00     0.005 A 
ATOM     15  C   UNL     1       5.797  -0.277  -3.050  1.00  0.00     0.005 A 
BRANCH  11  16
ATOM     16  C   UNL     1       4.414   2.251  -0.562  1.00  0.00    -0.011 A 
ATOM     17  C   UNL     1       2.245   2.708   0.440  1.00  0.00     0.123 A 
ATOM     18  C   UNL     1       2.753   3.849   1.060  1.00  0.00     0.092 A 
ATOM     19  C   UNL     1       3.064   1.928  -0.377  1.00  0.00     0.055 A 
ATOM     20  C   UNL     1       4.085   4.217   0.865  1.00  0.00     0.123 A 
ATOM     21  C   UNL     1       4.890   3.428   0.043  1.00  0.00     0.055 A 
BRANCH  17  22
ATOM     22  O   UNL     1       0.908   2.440   0.557  1.00  0.00    -0.494 OA
BRANCH  22  23
ATOM     23  C   UNL     1       0.618   1.236   1.279  1.00  0.00     0.226 C 
ATOM     24  C   UNL     1       0.499   0.029   0.360  1.00  0.00     0.049 C 
ENDBRANCH  22  23
ENDBRANCH  17  22
BRANCH  20  25
ATOM     25  O   UNL     1       4.504   5.332   1.539  1.00  0.00    -0.494 OA
BRANCH  25  26
ATOM     26  C   UNL     1       5.785   5.882   1.211  1.00  0.00     0.226 C 
ATOM     27  C   UNL     1       6.912   5.224   1.995  1.00  0.00     0.049 C 
ENDBRANCH  25  26
ENDBRANCH  20  25
ENDBRANCH  11  16
ENDBRANCH   8  10
ENDBRANCH   5   8
ENDBRANCH   3   4
ENDBRANCH   2   3
ENDBRANCH   1   2
BRANCH   1  28
ATOM     28  C   UNL     1       9.647  -3.322   2.562  1.00  0.00     0.002 C 
BRANCH  28  29
ATOM     29  C   UNL     1      10.310  -2.063   3.131  1.00  0.00     0.021 C 
BRANCH  29  30
ATOM     30  C   UNL     1       9.514  -1.366   4.231  1.00  0.00     0.116 C 
BRANCH  30  31
ATOM     31  N   UNL     1       9.342  -2.224   5.391  1.00  0.00    -0.352 N 
ATOM     32  C   UNL     1       9.744  -2.033   6.690  1.00  0.00     0.251 C 
ATOM     33  H   UNL     1       8.866  -3.069   5.220  1.00  0.00     0.163 HD
ATOM     34  O   UNL     1       9.748  -2.984   7.465  1.00  0.00    -0.269 OA
BRANCH  32  35
ATOM     35  C   UNL     1      10.173  -0.694   7.150  1.00  0.00     0.039 A 
ATOM     36  C   UNL     1      11.258  -0.594   8.026  1.00  0.00     0.014 A 
ATOM     37  C   UNL     1       9.479   0.457   6.765  1.00  0.00     0.014 A 
ATOM     38  C   UNL     1      11.665   0.660   8.488  1.00  0.00     0.010 A 
ATOM     39  C   UNL     1       9.930   1.711   7.168  1.00  0.00     0.010 A 
ATOM     40  C   UNL     1      11.015   1.825   8.051  1.00  0.00    -0.014 A 
BRANCH  40  41
ATOM     41  C   UNL     1      11.424   3.165   8.547  1.00  0.00     0.031 A 
ATOM     42  C   UNL     1      10.469   3.978   9.382  1.00  0.00     0.074 A 
ATOM     43  C   UNL     1      12.629   3.667   8.212  1.00  0.00     0.049 A 
ATOM     44  N   UNL     1      10.606   5.190   9.857  1.00  0.00    -0.248 NA
ATOM     45  C   UNL     1       9.175   3.354   9.694  1.00  0.00     0.031 C 
ATOM     46  C   UNL     1      13.624   2.989   7.379  1.00  0.00     0.029 A 
ATOM     47  N   UNL     1      13.220   4.864   8.526  1.00  0.00    -0.354 N 
ATOM     48  C   UNL     1       9.411   5.478  10.511  1.00  0.00     0.074 A 
ATOM     49  C   UNL     1       8.540   4.340  10.309  1.00  0.00     0.031 C 
ATOM     50  C   UNL     1      14.711   3.769   7.269  1.00  0.00     0.029 A 
ATOM     51  C   UNL     1      14.477   5.018   7.988  1.00  0.00     0.049 A 
ATOM     52  H   UNL     1      12.786   5.549   9.085  1.00  0.00     0.167 HD
ATOM     53  C   UNL     1       9.081   6.578  11.233  1.00  0.00     0.034 A 
ATOM     54  C   UNL     1      15.339   6.051   8.062  1.00  0.00     0.034 A 
ATOM     55  C   UNL     1       9.969   7.698  11.435  1.00  0.00     0.049 A 
ATOM     56  C   UNL     1      14.950   7.266   8.867  1.00  0.00     0.074 A 
ATOM     57  C   UNL     1       9.757   8.846  12.179  1.00  0.00     0.029 A 
ATOM     58  N   UNL     1      11.242   7.811  10.889  1.00  0.00    -0.354 N 
ATOM     59  N   UNL     1      13.832   7.507   9.513  1.00  0.00    -0.248 NA
ATOM     60  C   UNL     1      15.947   8.338   8.967  1.00  0.00     0.031 C 
ATOM     61  C   UNL     1      10.872   9.678  12.031  1.00  0.00     0.029 A 
ATOM     62  C   UNL     1      11.816   9.018  11.261  1.00  0.00     0.049 A 
ATOM     63  H   UNL     1      11.674   7.134  10.320  1.00  0.00     0.167 HD
ATOM     64  C   UNL     1      14.009   8.744  10.128  1.00  0.00     0.074 A 
ATOM     65  C   UNL     1      15.346   9.186   9.788  1.00  0.00     0.031 C 
ATOM     66  C   UNL     1      13.149   9.449  10.907  1.00  0.00     0.034 A 
BRANCH  53  67
ATOM     67  C   UNL     1       7.692   6.624  11.830  1.00  0.00     0.023 A 
ATOM     68  C   UNL     1       7.261   5.675  12.774  1.00  0.00     0.031 A 
ATOM     69  C   UNL     1       6.771   7.605  11.421  1.00  0.00     0.131 A 
ATOM     70  C   UNL     1       5.928   5.673  13.211  1.00  0.00     0.055 A 
ATOM     71  C   UNL     1       5.470   7.652  11.927  1.00  0.00     0.041 A 
ATOM     72  F   UNL     1       7.114   8.527  10.507  1.00  0.00    -0.206 F 
ATOM     73  C   UNL     1       5.036   6.671  12.814  1.00  0.00     0.022 A 
BRANCH  70  74
ATOM     74  S   UNL     1       5.336   4.258  14.178  1.00  0.00     0.124 S 
ATOM     75  O   UNL     1       5.587   3.149  13.261  1.00  0.00    -0.237 OA
ATOM     76  O   UNL     1       6.182   4.310  15.365  1.00  0.00    -0.237 OA
ATOM     77  O   UNL     1       3.924   4.562  14.404  1.00  0.00    -0.744 OA
ENDBRANCH  70  74
ENDBRANCH  53  67
BRANCH  54  78
ATOM     78  C   UNL     1      16.655   5.991   7.362  1.00  0.00     0.023 A 
ATOM     79  C   UNL     1      17.859   5.997   8.084  1.00  0.00     0.031 A 
ATOM     80  C   UNL     1      16.729   5.971   5.958  1.00  0.00     0.131 A 
ATOM     81  C   UNL     1      19.085   6.037   7.402  1.00  0.00     0.055 A 
ATOM     82  C   UNL     1      17.951   5.957   5.284  1.00  0.00     0.041 A 
ATOM     83  F   UNL     1      15.608   5.957   5.219  1.00  0.00    -0.206 F 
ATOM     84  C   UNL     1      19.139   6.004   6.007  1.00  0.00     0.022 A 
BRANCH  81  85
ATOM     85  S   UNL     1      20.610   6.222   8.366  1.00  0.00     0.124 S 
ATOM     86  O   UNL     1      20.358   7.466   9.084  1.00  0.00    -0.237 OA
ATOM     87  O   UNL     1      20.608   5.005   9.171  1.00  0.00    -0.237 OA
ATOM     88  O   UNL     1      21.652   6.290   7.344  1.00  0.00    -0.744 OA
ENDBRANCH  81  85
ENDBRANCH  54  78
BRANCH  66  89
ATOM     89  C   UNL     1      13.659  10.748  11.485  1.00  0.00     0.023 A 
ATOM     90  C   UNL     1      13.991  11.844  10.670  1.00  0.00     0.031 A 
ATOM     91  C   UNL     1      13.846  10.877  12.873  1.00  0.00     0.131 A 
ATOM     92  C   UNL     1      14.561  12.992  11.240  1.00  0.00     0.055 A 
ATOM     93  C   UNL     1      14.349  12.048  13.442  1.00  0.00     0.041 A 
ATOM     94  F   UNL     1      13.547   9.863  13.700  1.00  0.00    -0.206 F 
ATOM     95  C   UNL     1      14.727  13.107  12.623  1.00  0.00     0.022 A 
BRANCH  92  96
ATOM     96  S   UNL     1      15.197  14.287  10.139  1.00  0.00     0.124 S 
ATOM     97  O   UNL     1      16.130  13.541   9.301  1.00  0.00    -0.237 OA
ATOM     98  O   UNL     1      13.984  14.757   9.479  1.00  0.00    -0.237 OA
ATOM     99  O   UNL     1      15.815  15.243  11.055  1.00  0.00    -0.744 OA
ENDBRANCH  92  96
ENDBRANCH  66  89
ENDBRANCH  40  41
ENDBRANCH  32  35
ENDBRANCH  30  31
ENDBRANCH  29  30
ENDBRANCH  28  29
ENDBRANCH   1  28
TORSDOF 22
