REMARK SMILES CC(C)CCN(C(=O)N[C@H](C(=O)NCCCCCCNC(=O)c1ccc(-c2c3nc(c(-c4cc(S(=O)(=O)[O-])ccc4F)c4ccc([nH]4)c(-c4cc(S(=O)(=O)[O-])ccc4F)c4nc(c(-c5cc(S(=O)(=O)[O-])ccc5F)c5ccc2[nH]5)C=C4)C=C3)cc1)[C@H](C)O)C1CCCC1
REMARK SMILES IDX 15 1 14 2 13 3 11 4 12 5 10 7 9 8 7 9 8 10 6 12 5 13 4 14
REMARK SMILES IDX 2 15 1 16 3 17 89 18 90 19 93 20 91 21 92 22 86 23 87 24
REMARK SMILES IDX 88 25 16 27 17 28 18 29 19 30 20 31 21 32 22 34 23 35 24 36
REMARK SMILES IDX 85 37 25 38 84 39 26 40 27 41 28 42 78 43 29 44 83 45 77 46
REMARK SMILES IDX 79 47 30 48 82 49 76 50 75 51 31 53 63 54 43 55 62 56 44 57
REMARK SMILES IDX 47 58 61 59 80 60 45 61 46 62 60 64 81 65 48 66 32 67 33 68
REMARK SMILES IDX 41 69 34 70 40 71 42 72 39 73 35 74 36 75 37 76 38 77 64 78
REMARK SMILES IDX 65 79 73 80 66 81 72 82 74 83 71 84 67 85 68 86 69 87 70 88
REMARK SMILES IDX 49 89 50 90 58 91 51 92 57 93 59 94 56 95 52 96 53 97 54 98
REMARK SMILES IDX 55 99
REMARK H PARENT 13 6 9 11 88 26 20 33 79 52 47 63
REMARK Flexibility Score: inf
ROOT
ATOM      1  C   UNL     1      -5.160   0.470   5.044  1.00  0.00     0.021 C 
ENDROOT
BRANCH   1   2
ATOM      2  C   UNL     1      -5.658   1.607   4.151  1.00  0.00     0.116 C 
BRANCH   2   3
ATOM      3  N   UNL     1      -4.690   2.679   4.086  1.00  0.00    -0.354 N 
ATOM      4  C   UNL     1      -3.857   3.162   3.142  1.00  0.00     0.245 C 
ATOM      5  O   UNL     1      -3.150   4.104   3.539  1.00  0.00    -0.273 OA
ATOM      6  H   UNL     1      -4.624   3.176   4.934  1.00  0.00     0.163 HD
BRANCH   4   7
ATOM      7  C   UNL     1      -3.715   2.696   1.668  1.00  0.00     0.201 C 
BRANCH   7   8
ATOM      8  N   UNL     1      -2.248   2.602   1.456  1.00  0.00    -0.324 N 
ATOM      9  C   UNL     1      -1.389   2.833   0.454  1.00  0.00     0.318 C 
ATOM     10  O   UNL     1      -0.376   2.126   0.478  1.00  0.00    -0.249 OA
ATOM     11  H   UNL     1      -1.785   2.288   2.265  1.00  0.00     0.166 HD
BRANCH   9  12
ATOM     12  N   UNL     1      -1.625   3.735  -0.555  1.00  0.00    -0.322 N 
BRANCH  12  13
ATOM     13  C   UNL     1      -2.424   4.970  -0.395  1.00  0.00     0.122 C 
BRANCH  13  14
ATOM     14  C   UNL     1      -1.654   6.270  -0.088  1.00  0.00     0.024 C 
BRANCH  14  15
ATOM     15  C   UNL     1      -1.143   7.080  -1.291  1.00  0.00    -0.016 C 
ATOM     16  C   UNL     1      -2.259   7.696  -2.136  1.00  0.00     0.007 C 
ATOM     17  C   UNL     1      -0.173   8.170  -0.834  1.00  0.00     0.007 C 
ENDBRANCH  14  15
ENDBRANCH  13  14
ENDBRANCH  12  13
BRANCH  12  18
ATOM     18  C   UNL     1      -0.765   3.555  -1.746  1.00  0.00     0.087 C 
ATOM     19  C   UNL     1      -1.282   4.079  -3.085  1.00  0.00     0.025 C 
ATOM     20  C   UNL     1       0.662   4.110  -1.583  1.00  0.00     0.025 C 
ATOM     21  C   UNL     1      -0.028   4.296  -3.923  1.00  0.00     0.002 C 
ATOM     22  C   UNL     1       1.083   4.654  -2.945  1.00  0.00     0.002 C 
ENDBRANCH  12  18
ENDBRANCH   9  12
ENDBRANCH   7   8
BRANCH   7  23
ATOM     23  C   UNL     1      -4.431   1.464   1.084  1.00  0.00     0.143 C 
ATOM     24  C   UNL     1      -3.917   0.099   1.532  1.00  0.00     0.041 C 
BRANCH  23  25
ATOM     25  O   UNL     1      -4.320   1.503  -0.353  1.00  0.00    -0.391 OA
ATOM     26  H   UNL     1      -3.387   1.429  -0.608  1.00  0.00     0.211 HD
ENDBRANCH  23  25
ENDBRANCH   7  23
ENDBRANCH   4   7
ENDBRANCH   2   3
ENDBRANCH   1   2
BRANCH   1  27
ATOM     27  C   UNL     1      -5.277   0.746   6.548  1.00  0.00     0.002 C 
BRANCH  27  28
ATOM     28  C   UNL     1      -6.689   1.075   7.045  1.00  0.00     0.002 C 
BRANCH  28  29
ATOM     29  C   UNL     1      -7.779   0.091   6.612  1.00  0.00     0.021 C 
BRANCH  29  30
ATOM     30  C   UNL     1      -7.538  -1.355   7.034  1.00  0.00     0.116 C 
BRANCH  30  31
ATOM     31  N   UNL     1      -7.491  -1.496   8.480  1.00  0.00    -0.352 N 
ATOM     32  C   UNL     1      -8.267  -2.272   9.301  1.00  0.00     0.251 C 
ATOM     33  H   UNL     1      -6.804  -0.957   8.934  1.00  0.00     0.163 HD
ATOM     34  O   UNL     1      -8.242  -2.082  10.518  1.00  0.00    -0.269 OA
BRANCH  32  35
ATOM     35  C   UNL     1      -9.142  -3.315   8.726  1.00  0.00     0.039 A 
ATOM     36  C   UNL     1     -10.443  -3.455   9.215  1.00  0.00     0.014 A 
ATOM     37  C   UNL     1      -8.678  -4.162   7.715  1.00  0.00     0.014 A 
ATOM     38  C   UNL     1     -11.295  -4.406   8.651  1.00  0.00     0.010 A 
ATOM     39  C   UNL     1      -9.552  -5.057   7.103  1.00  0.00     0.010 A 
ATOM     40  C   UNL     1     -10.868  -5.193   7.569  1.00  0.00    -0.014 A 
BRANCH  40  41
ATOM     41  C   UNL     1     -11.783  -6.169   6.919  1.00  0.00     0.031 A 
ATOM     42  C   UNL     1     -11.469  -7.640   6.957  1.00  0.00     0.074 A 
ATOM     43  C   UNL     1     -12.866  -5.724   6.250  1.00  0.00     0.049 A 
ATOM     44  N   UNL     1     -12.104  -8.637   6.396  1.00  0.00    -0.248 NA
ATOM     45  C   UNL     1     -10.263  -8.036   7.698  1.00  0.00     0.031 C 
ATOM     46  C   UNL     1     -13.254  -4.318   6.114  1.00  0.00     0.029 A 
ATOM     47  N   UNL     1     -13.835  -6.403   5.555  1.00  0.00    -0.354 N 
ATOM     48  C   UNL     1     -11.371  -9.777   6.708  1.00  0.00     0.074 A 
ATOM     49  C   UNL     1     -10.208  -9.336   7.449  1.00  0.00     0.031 C 
ATOM     50  C   UNL     1     -14.391  -4.243   5.405  1.00  0.00     0.029 A 
ATOM     51  C   UNL     1     -14.787  -5.585   4.992  1.00  0.00     0.049 A 
ATOM     52  H   UNL     1     -13.847  -7.383   5.467  1.00  0.00     0.167 HD
ATOM     53  C   UNL     1     -11.654 -11.073   6.424  1.00  0.00     0.034 A 
ATOM     54  C   UNL     1     -15.851  -5.881   4.219  1.00  0.00     0.034 A 
ATOM     55  C   UNL     1     -12.822 -11.494   5.688  1.00  0.00     0.049 A 
ATOM     56  C   UNL     1     -16.127  -7.326   3.884  1.00  0.00     0.074 A 
ATOM     57  C   UNL     1     -13.235 -12.781   5.388  1.00  0.00     0.029 A 
ATOM     58  N   UNL     1     -13.760 -10.637   5.125  1.00  0.00    -0.354 N 
ATOM     59  N   UNL     1     -15.451  -8.398   4.230  1.00  0.00    -0.248 NA
ATOM     60  C   UNL     1     -17.313  -7.600   3.063  1.00  0.00     0.031 C 
ATOM     61  C   UNL     1     -14.374 -12.700   4.580  1.00  0.00     0.029 A 
ATOM     62  C   UNL     1     -14.727 -11.366   4.448  1.00  0.00     0.049 A 
ATOM     63  H   UNL     1     -13.741  -9.655   5.196  1.00  0.00     0.167 HD
ATOM     64  C   UNL     1     -16.152  -9.476   3.696  1.00  0.00     0.074 A 
ATOM     65  C   UNL     1     -17.308  -8.924   3.019  1.00  0.00     0.031 C 
ATOM     66  C   UNL     1     -15.869 -10.803   3.764  1.00  0.00     0.034 A 
BRANCH  53  67
ATOM     67  C   UNL     1     -10.665 -12.119   6.887  1.00  0.00     0.023 A 
ATOM     68  C   UNL     1     -10.372 -12.310   8.250  1.00  0.00     0.031 A 
ATOM     69  C   UNL     1      -9.980 -12.917   5.953  1.00  0.00     0.131 A 
ATOM     70  C   UNL     1      -9.365 -13.208   8.633  1.00  0.00     0.055 A 
ATOM     71  C   UNL     1      -9.043 -13.875   6.348  1.00  0.00     0.041 A 
ATOM     72  F   UNL     1     -10.198 -12.769   4.637  1.00  0.00    -0.206 F 
ATOM     73  C   UNL     1      -8.718 -14.013   7.693  1.00  0.00     0.022 A 
BRANCH  70  74
ATOM     74  S   UNL     1      -8.802 -13.192  10.357  1.00  0.00     0.124 S 
ATOM     75  O   UNL     1      -8.384 -11.800  10.517  1.00  0.00    -0.237 OA
ATOM     76  O   UNL     1     -10.002 -13.586  11.085  1.00  0.00    -0.237 OA
ATOM     77  O   UNL     1      -7.713 -14.166  10.372  1.00  0.00    -0.744 OA
ENDBRANCH  70  74
ENDBRANCH  53  67
BRANCH  54  78
ATOM     78  C   UNL     1     -16.730  -4.795   3.697  1.00  0.00     0.023 A 
ATOM     79  C   UNL     1     -18.079  -4.709   4.076  1.00  0.00     0.031 A 
ATOM     80  C   UNL     1     -16.243  -3.847   2.779  1.00  0.00     0.131 A 
ATOM     81  C   UNL     1     -18.905  -3.728   3.506  1.00  0.00     0.055 A 
ATOM     82  C   UNL     1     -17.054  -2.838   2.258  1.00  0.00     0.041 A 
ATOM     83  F   UNL     1     -14.960  -3.881   2.385  1.00  0.00    -0.206 F 
ATOM     84  C   UNL     1     -18.399  -2.783   2.611  1.00  0.00     0.022 A 
BRANCH  81  85
ATOM     85  S   UNL     1     -20.679  -3.759   3.885  1.00  0.00     0.124 S 
ATOM     86  O   UNL     1     -21.055  -5.094   3.432  1.00  0.00    -0.237 OA
ATOM     87  O   UNL     1     -20.684  -3.545   5.328  1.00  0.00    -0.237 OA
ATOM     88  O   UNL     1     -21.215  -2.656   3.090  1.00  0.00    -0.744 OA
ENDBRANCH  81  85
ENDBRANCH  54  78
BRANCH  66  89
ATOM     89  C   UNL     1     -16.857 -11.750   3.125  1.00  0.00     0.023 A 
ATOM     90  C   UNL     1     -17.075 -11.772   1.736  1.00  0.00     0.031 A 
ATOM     91  C   UNL     1     -17.600 -12.639   3.924  1.00  0.00     0.131 A 
ATOM     92  C   UNL     1     -18.052 -12.621   1.195  1.00  0.00     0.055 A 
ATOM     93  C   UNL     1     -18.522 -13.529   3.372  1.00  0.00     0.041 A 
ATOM     94  F   UNL     1     -17.438 -12.659   5.256  1.00  0.00    -0.206 F 
ATOM     95  C   UNL     1     -18.763 -13.513   2.002  1.00  0.00     0.022 A 
BRANCH  92  96
ATOM     96  S   UNL     1     -18.455 -12.473  -0.567  1.00  0.00     0.124 S 
ATOM     97  O   UNL     1     -18.857 -11.073  -0.669  1.00  0.00    -0.237 OA
ATOM     98  O   UNL     1     -17.191 -12.822  -1.207  1.00  0.00    -0.237 OA
ATOM     99  O   UNL     1     -19.533 -13.442  -0.755  1.00  0.00    -0.744 OA
ENDBRANCH  92  96
ENDBRANCH  66  89
ENDBRANCH  40  41
ENDBRANCH  32  35
ENDBRANCH  30  31
ENDBRANCH  29  30
ENDBRANCH  28  29
ENDBRANCH  27  28
ENDBRANCH   1  27
TORSDOF 24
