REMARK SMILES CC1(C)C[C@](CC(=O)NCCCCCCNC(=O)c2ccc(-c3c4nc(c(-c5cc(S(=O)(=O)[O-])ccc5F)c5ccc([nH]5)c(-c5cc(S(=O)(=O)[O-])ccc5F)c5nc(c(-c6cc(S(=O)(=O)[O-])ccc6F)c6ccc3[nH]6)C=C5)C=C4)cc2)([NH+]2CCCC2)C(C)(C)O1
REMARK SMILES IDX 13 1 12 2 11 3 10 4 9 5 7 6 8 7 6 9 5 10 1 11 2 12 3 13 4 14
REMARK SMILES IDX 90 15 87 16 88 17 89 18 82 19 83 20 86 21 84 23 85 24 14 25
REMARK SMILES IDX 15 26 16 27 17 28 18 30 19 31 20 32 81 33 21 34 80 35 22 36
REMARK SMILES IDX 23 37 24 38 74 39 25 40 79 41 73 42 75 43 26 44 78 45 72 46
REMARK SMILES IDX 71 47 27 49 59 50 39 51 58 52 40 53 43 54 57 55 76 56 41 57
REMARK SMILES IDX 42 58 56 60 77 61 44 62 28 63 29 64 37 65 30 66 36 67 38 68
REMARK SMILES IDX 35 69 31 70 32 71 33 72 34 73 60 74 61 75 69 76 62 77 68 78
REMARK SMILES IDX 70 79 67 80 63 81 64 82 65 83 66 84 45 85 46 86 54 87 47 88
REMARK SMILES IDX 53 89 55 90 52 91 48 92 49 93 50 94 51 95
REMARK H PARENT 9 8 82 22 16 29 75 48 43 59
REMARK Flexibility Score: inf
ROOT
ATOM      1  C   UNL     1      -0.633  -6.254   6.189  1.00  0.00     0.002 C 
ENDROOT
BRANCH   1   2
ATOM      2  C   UNL     1      -1.557  -6.398   4.976  1.00  0.00     0.002 C 
BRANCH   2   3
ATOM      3  C   UNL     1      -1.206  -5.541   3.764  1.00  0.00     0.021 C 
BRANCH   3   4
ATOM      4  C   UNL     1       0.185  -5.759   3.177  1.00  0.00     0.116 C 
BRANCH   4   5
ATOM      5  N   UNL     1       0.153  -6.504   1.942  1.00  0.00    -0.356 N 
ATOM      6  C   UNL     1       0.568  -6.198   0.688  1.00  0.00     0.226 C 
ATOM      7  O   UNL     1       0.580  -7.144  -0.111  1.00  0.00    -0.275 OA
ATOM      8  H   UNL     1      -0.244  -7.401   2.025  1.00  0.00     0.163 HD
BRANCH   6   9
ATOM      9  C   UNL     1       1.067  -4.820   0.239  1.00  0.00     0.171 C 
BRANCH   9  10
ATOM     10  C   UNL     1       0.160  -3.545  -0.035  1.00  0.00     0.138 C 
ATOM     11  C   UNL     1       2.022  -0.359  -0.524  1.00  0.00     0.042 C 
ATOM     12  C   UNL     1       0.728  -1.177  -0.693  1.00  0.00     0.070 C 
ATOM     13  C   UNL     1      -0.128  -0.446  -1.741  1.00  0.00     0.042 C 
ATOM     14  C   UNL     1       1.011  -2.651  -1.015  1.00  0.00     0.107 C 
ATOM     15  O   UNL     1       0.014  -1.177   0.557  1.00  0.00    -0.363 OA
ATOM     16  C   UNL     1       0.062  -2.501   1.170  1.00  0.00     0.118 C 
ATOM     17  C   UNL     1       1.281  -2.407   2.122  1.00  0.00     0.049 C 
ATOM     18  C   UNL     1      -1.224  -2.619   1.998  1.00  0.00     0.049 C 
BRANCH  10  19
ATOM     19  N   UNL     1      -1.107  -3.882  -0.766  1.00  0.00    -0.327 N 
ATOM     20  C   UNL     1      -1.836  -5.112  -0.461  1.00  0.00     0.263 C 
ATOM     21  C   UNL     1      -2.091  -2.852  -1.106  1.00  0.00     0.263 C 
ATOM     22  H   UNL     1      -0.527  -4.035  -1.590  1.00  0.00     0.348 HD
ATOM     23  C   UNL     1      -3.234  -4.927  -1.023  1.00  0.00     0.067 C 
ATOM     24  C   UNL     1      -3.465  -3.450  -0.839  1.00  0.00     0.067 C 
ENDBRANCH  10  19
ENDBRANCH   9  10
ENDBRANCH   6   9
ENDBRANCH   4   5
ENDBRANCH   3   4
ENDBRANCH   2   3
ENDBRANCH   1   2
BRANCH   1  25
ATOM     25  C   UNL     1      -0.275  -4.829   6.623  1.00  0.00     0.021 C 
BRANCH  25  26
ATOM     26  C   UNL     1      -1.445  -3.877   6.871  1.00  0.00     0.116 C 
BRANCH  26  27
ATOM     27  N   UNL     1      -2.415  -4.417   7.802  1.00  0.00    -0.352 N 
ATOM     28  C   UNL     1      -2.815  -3.974   9.037  1.00  0.00     0.251 C 
ATOM     29  H   UNL     1      -2.862  -5.240   7.498  1.00  0.00     0.163 HD
ATOM     30  O   UNL     1      -3.522  -4.704   9.726  1.00  0.00    -0.269 OA
BRANCH  28  31
ATOM     31  C   UNL     1      -2.396  -2.650   9.552  1.00  0.00     0.039 A 
ATOM     32  C   UNL     1      -2.068  -2.542  10.908  1.00  0.00     0.014 A 
ATOM     33  C   UNL     1      -2.393  -1.508   8.746  1.00  0.00     0.014 A 
ATOM     34  C   UNL     1      -1.708  -1.304  11.445  1.00  0.00     0.010 A 
ATOM     35  C   UNL     1      -1.968  -0.284   9.268  1.00  0.00     0.010 A 
ATOM     36  C   UNL     1      -1.641  -0.165  10.627  1.00  0.00    -0.014 A 
BRANCH  36  37
ATOM     37  C   UNL     1      -1.282   1.161  11.198  1.00  0.00     0.031 A 
ATOM     38  C   UNL     1      -2.306   2.265  11.237  1.00  0.00     0.074 A 
ATOM     39  C   UNL     1      -0.034   1.380  11.655  1.00  0.00     0.049 A 
ATOM     40  N   UNL     1      -2.182   3.498  11.655  1.00  0.00    -0.248 NA
ATOM     41  C   UNL     1      -3.639   1.942  10.706  1.00  0.00     0.031 C 
ATOM     42  C   UNL     1       1.055   0.401  11.640  1.00  0.00     0.029 A 
ATOM     43  N   UNL     1       0.531   2.496  12.219  1.00  0.00    -0.354 N 
ATOM     44  C   UNL     1      -3.414   4.104  11.427  1.00  0.00     0.074 A 
ATOM     45  C   UNL     1      -4.248   3.116  10.775  1.00  0.00     0.031 C 
ATOM     46  C   UNL     1       2.149   0.953  12.190  1.00  0.00     0.029 A 
ATOM     47  C   UNL     1       1.852   2.332  12.565  1.00  0.00     0.049 A 
ATOM     48  H   UNL     1       0.037   3.336  12.362  1.00  0.00     0.167 HD
ATOM     49  C   UNL     1      -3.821   5.358  11.750  1.00  0.00     0.034 A 
ATOM     50  C   UNL     1       2.725   3.197  13.119  1.00  0.00     0.034 A 
ATOM     51  C   UNL     1      -2.981   6.327  12.412  1.00  0.00     0.049 A 
ATOM     52  C   UNL     1       2.251   4.584  13.473  1.00  0.00     0.074 A 
ATOM     53  C   UNL     1      -3.299   7.611  12.821  1.00  0.00     0.029 A 
ATOM     54  N   UNL     1      -1.652   6.120  12.763  1.00  0.00    -0.354 N 
ATOM     55  N   UNL     1       1.071   5.128  13.287  1.00  0.00    -0.248 NA
ATOM     56  C   UNL     1       3.224   5.465  14.131  1.00  0.00     0.031 C 
ATOM     57  C   UNL     1      -2.150   8.197  13.367  1.00  0.00     0.029 A 
ATOM     58  C   UNL     1      -1.133   7.257  13.364  1.00  0.00     0.049 A 
ATOM     59  H   UNL     1      -1.152   5.286  12.608  1.00  0.00     0.167 HD
ATOM     60  C   UNL     1       1.153   6.406  13.833  1.00  0.00     0.074 A 
ATOM     61  C   UNL     1       2.490   6.541  14.372  1.00  0.00     0.031 C 
ATOM     62  C   UNL     1       0.208   7.381  13.886  1.00  0.00     0.034 A 
BRANCH  49  63
ATOM     63  C   UNL     1      -5.228   5.750  11.361  1.00  0.00     0.023 A 
ATOM     64  C   UNL     1      -6.351   5.086  11.887  1.00  0.00     0.031 A 
ATOM     65  C   UNL     1      -5.451   6.771  10.421  1.00  0.00     0.131 A 
ATOM     66  C   UNL     1      -7.635   5.389  11.407  1.00  0.00     0.055 A 
ATOM     67  C   UNL     1      -6.738   7.127  10.010  1.00  0.00     0.041 A 
ATOM     68  F   UNL     1      -4.420   7.429   9.868  1.00  0.00    -0.206 F 
ATOM     69  C   UNL     1      -7.838   6.423  10.490  1.00  0.00     0.022 A 
BRANCH  66  70
ATOM     70  S   UNL     1      -9.014   4.310  11.881  1.00  0.00     0.124 S 
ATOM     71  O   UNL     1      -8.565   3.018  11.369  1.00  0.00    -0.237 OA
ATOM     72  O   UNL     1      -9.039   4.449  13.332  1.00  0.00    -0.237 OA
ATOM     73  O   UNL     1     -10.158   4.887  11.178  1.00  0.00    -0.744 OA
ENDBRANCH  66  70
ENDBRANCH  49  63
BRANCH  50  74
ATOM     74  C   UNL     1       4.134   2.787  13.379  1.00  0.00     0.023 A 
ATOM     75  C   UNL     1       4.630   2.691  14.688  1.00  0.00     0.031 A 
ATOM     76  C   UNL     1       5.019   2.528  12.317  1.00  0.00     0.131 A 
ATOM     77  C   UNL     1       5.985   2.394  14.904  1.00  0.00     0.055 A 
ATOM     78  C   UNL     1       6.354   2.185  12.537  1.00  0.00     0.041 A 
ATOM     79  F   UNL     1       4.593   2.598  11.046  1.00  0.00    -0.206 F 
ATOM     80  C   UNL     1       6.848   2.130  13.837  1.00  0.00     0.022 A 
BRANCH  77  81
ATOM     81  S   UNL     1       6.625   2.439  16.600  1.00  0.00     0.124 S 
ATOM     82  O   UNL     1       6.311   3.805  17.002  1.00  0.00    -0.237 OA
ATOM     83  O   UNL     1       5.847   1.385  17.244  1.00  0.00    -0.237 OA
ATOM     84  O   UNL     1       8.047   2.147  16.435  1.00  0.00    -0.744 OA
ENDBRANCH  77  81
ENDBRANCH  50  74
BRANCH  62  85
ATOM     85  C   UNL     1       0.589   8.658  14.595  1.00  0.00     0.023 A 
ATOM     86  C   UNL     1       1.585   9.514  14.093  1.00  0.00     0.031 A 
ATOM     87  C   UNL     1      -0.027   9.003  15.811  1.00  0.00     0.131 A 
ATOM     88  C   UNL     1       1.985  10.634  14.838  1.00  0.00     0.055 A 
ATOM     89  C   UNL     1       0.330  10.153  16.516  1.00  0.00     0.041 A 
ATOM     90  F   UNL     1      -0.984   8.221  16.338  1.00  0.00    -0.206 F 
ATOM     91  C   UNL     1       1.353  10.967  16.039  1.00  0.00     0.022 A 
BRANCH  88  92
ATOM     92  S   UNL     1       3.421  11.588  14.273  1.00  0.00     0.124 S 
ATOM     93  O   UNL     1       4.455  10.561  14.191  1.00  0.00    -0.237 OA
ATOM     94  O   UNL     1       2.955  12.126  12.999  1.00  0.00    -0.237 OA
ATOM     95  O   UNL     1       3.613  12.578  15.331  1.00  0.00    -0.744 OA
ENDBRANCH  88  92
ENDBRANCH  62  85
ENDBRANCH  36  37
ENDBRANCH  28  31
ENDBRANCH  26  27
ENDBRANCH  25  26
ENDBRANCH   1  25
TORSDOF 18
