REMARK SMILES COc1cccc([C@@H]2[NH2+][C@@](C)(C(=O)NCCCCCCNC(=O)c3ccc(-c4c5nc(c(-c6cc(S(=O)(=O)[O-])ccc6F)c6ccc([nH]6)c(-c6cc(S(=O)(=O)[O-])ccc6F)c6nc(c(-c7cc(S(=O)(=O)[O-])ccc7F)c7ccc4[nH]7)C=C6)C=C5)cc3)[C@@H]3C(=O)N(c4cccc(Cl)c4)C(=O)[C@@H]32)c1O
REMARK SMILES IDX 18 1 17 2 16 3 15 4 14 5 12 6 13 7 10 9 8 10 9 11 100 12
REMARK SMILES IDX 87 15 98 16 11 17 88 18 90 19 99 20 89 21 7 22 3 23 4 24
REMARK SMILES IDX 101 25 5 26 6 27 2 28 1 29 102 30 91 32 92 33 97 34 93 35
REMARK SMILES IDX 95 36 94 37 96 38 19 39 20 40 21 41 22 42 23 44 24 45 25 46
REMARK SMILES IDX 86 47 26 48 85 49 27 50 28 51 29 52 79 53 30 54 84 55 78 56
REMARK SMILES IDX 80 57 31 58 83 59 77 60 76 61 32 63 64 64 44 65 63 66 45 67
REMARK SMILES IDX 48 68 62 69 81 70 46 71 47 72 61 74 82 75 49 76 33 77 34 78
REMARK SMILES IDX 42 79 35 80 41 81 43 82 40 83 36 84 37 85 38 86 39 87 65 88
REMARK SMILES IDX 66 89 74 90 67 91 73 92 75 93 72 94 68 95 69 96 70 97 71 98
REMARK SMILES IDX 50 99 51 100 59 101 52 102 58 103 60 104 57 105 53 106
REMARK SMILES IDX 54 107 55 108 56 109
REMARK H PARENT 14 8 9 13 9 14 102 31 21 43 80 62 48 73
REMARK Flexibility Score: inf
ROOT
ATOM      1  C   UNL     1       5.863  -2.566   9.376  1.00  0.00     0.002 C 
ENDROOT
BRANCH   1   2
ATOM      2  C   UNL     1       5.904  -3.604   8.250  1.00  0.00     0.002 C 
BRANCH   2   3
ATOM      3  C   UNL     1       4.821  -3.442   7.179  1.00  0.00     0.021 C 
BRANCH   3   4
ATOM      4  C   UNL     1       4.781  -2.057   6.539  1.00  0.00     0.116 C 
BRANCH   4   5
ATOM      5  N   UNL     1       6.002  -1.784   5.801  1.00  0.00    -0.351 N 
ATOM      6  C   UNL     1       6.189  -1.449   4.493  1.00  0.00     0.281 C 
ATOM      7  O   UNL     1       7.359  -1.383   4.101  1.00  0.00    -0.268 OA
ATOM      8  H   UNL     1       6.828  -1.851   6.332  1.00  0.00     0.163 HD
BRANCH   6   9
ATOM      9  C   UNL     1       4.984  -1.113   3.557  1.00  0.00     0.185 C 
ATOM     10  C   UNL     1       4.226  -3.013   2.264  1.00  0.00     0.232 C 
ATOM     11  N   UNL     1       4.061  -2.282   3.535  1.00  0.00    -0.326 N 
ATOM     12  C   UNL     1       5.334  -2.312   1.479  1.00  0.00     0.162 C 
ATOM     13  H   UNL     1       4.280  -2.902   4.315  1.00  0.00     0.347 HD
ATOM     14  H   UNL     1       3.098  -1.958   3.619  1.00  0.00     0.347 HD
ATOM     15  C   UNL     1       5.507  -0.953   2.122  1.00  0.00     0.169 C 
ATOM     16  C   UNL     1       4.996  -1.993   0.052  1.00  0.00     0.244 C 
ATOM     17  C   UNL     1       4.310   0.149   4.125  1.00  0.00     0.091 C 
ATOM     18  C   UNL     1       4.790  -0.021   1.181  1.00  0.00     0.244 C 
ATOM     19  N   UNL     1       4.587  -0.679  -0.016  1.00  0.00    -0.250 N 
ATOM     20  O   UNL     1       5.102  -2.808  -0.855  1.00  0.00    -0.273 OA
ATOM     21  O   UNL     1       4.508   1.139   1.459  1.00  0.00    -0.273 OA
BRANCH  10  22
ATOM     22  C   UNL     1       2.912  -3.228   1.516  1.00  0.00     0.056 A 
ATOM     23  C   UNL     1       0.825  -2.417   0.508  1.00  0.00     0.161 A 
ATOM     24  C   UNL     1       0.628  -3.677  -0.060  1.00  0.00     0.050 A 
ATOM     25  C   UNL     1       1.948  -2.217   1.320  1.00  0.00     0.166 A 
ATOM     26  C   UNL     1       1.542  -4.708   0.154  1.00  0.00     0.005 A 
ATOM     27  C   UNL     1       2.679  -4.484   0.929  1.00  0.00     0.014 A 
BRANCH  23  28
ATOM     28  O   UNL     1      -0.169  -1.518   0.239  1.00  0.00    -0.493 OA
ATOM     29  C   UNL     1       0.170  -0.143   0.083  1.00  0.00     0.278 C 
ENDBRANCH  23  28
BRANCH  25  30
ATOM     30  O   UNL     1       2.141  -1.039   1.984  1.00  0.00    -0.504 OA
ATOM     31  H   UNL     1       1.527  -0.338   1.885  1.00  0.00     0.293 HD
ENDBRANCH  25  30
ENDBRANCH  10  22
BRANCH  19  32
ATOM     32  C   UNL     1       3.970  -0.084  -1.151  1.00  0.00     0.053 A 
ATOM     33  C   UNL     1       3.214  -0.858  -2.048  1.00  0.00     0.027 A 
ATOM     34  C   UNL     1       4.032   1.300  -1.365  1.00  0.00     0.047 A 
ATOM     35  C   UNL     1       2.489  -0.257  -3.083  1.00  0.00     0.004 A 
ATOM     36  C   UNL     1       3.333   1.892  -2.417  1.00  0.00     0.043 A 
ATOM     37  C   UNL     1       2.546   1.122  -3.266  1.00  0.00     0.020 A 
ATOM     38  Cl  UNL     1       3.438   3.593  -2.661  1.00  0.00    -0.084 Cl
ENDBRANCH  19  32
ENDBRANCH   6   9
ENDBRANCH   4   5
ENDBRANCH   3   4
ENDBRANCH   2   3
ENDBRANCH   1   2
BRANCH   1  39
ATOM     39  C   UNL     1       4.521  -2.451  10.103  1.00  0.00     0.021 C 
BRANCH  39  40
ATOM     40  C   UNL     1       4.009  -3.756  10.702  1.00  0.00     0.116 C 
BRANCH  40  41
ATOM     41  N   UNL     1       4.923  -4.296  11.695  1.00  0.00    -0.352 N 
ATOM     42  C   UNL     1       4.668  -4.691  12.985  1.00  0.00     0.251 C 
ATOM     43  H   UNL     1       5.857  -4.394  11.401  1.00  0.00     0.163 HD
ATOM     44  O   UNL     1       5.602  -4.934  13.743  1.00  0.00    -0.269 OA
BRANCH  42  45
ATOM     45  C   UNL     1       3.271  -4.794  13.460  1.00  0.00     0.039 A 
ATOM     46  C   UNL     1       2.945  -4.274  14.714  1.00  0.00     0.014 A 
ATOM     47  C   UNL     1       2.287  -5.397  12.671  1.00  0.00     0.014 A 
ATOM     48  C   UNL     1       1.619  -4.306  15.151  1.00  0.00     0.010 A 
ATOM     49  C   UNL     1       0.955  -5.359  13.075  1.00  0.00     0.010 A 
ATOM     50  C   UNL     1       0.606  -4.814  14.320  1.00  0.00    -0.014 A 
BRANCH  50  51
ATOM     51  C   UNL     1      -0.820  -4.776  14.737  1.00  0.00     0.031 A 
ATOM     52  C   UNL     1      -1.587  -6.055  14.936  1.00  0.00     0.074 A 
ATOM     53  C   UNL     1      -1.437  -3.586  14.885  1.00  0.00     0.049 A 
ATOM     54  N   UNL     1      -2.849  -6.223  15.235  1.00  0.00    -0.248 NA
ATOM     55  C   UNL     1      -0.843  -7.310  14.748  1.00  0.00     0.031 C 
ATOM     56  C   UNL     1      -0.806  -2.278  14.690  1.00  0.00     0.029 A 
ATOM     57  N   UNL     1      -2.729  -3.280  15.233  1.00  0.00    -0.354 N 
ATOM     58  C   UNL     1      -3.055  -7.598  15.258  1.00  0.00     0.074 A 
ATOM     59  C   UNL     1      -1.799  -8.216  14.890  1.00  0.00     0.031 C 
ATOM     60  C   UNL     1      -1.701  -1.314  14.956  1.00  0.00     0.029 A 
ATOM     61  C   UNL     1      -2.983  -1.928  15.287  1.00  0.00     0.049 A 
ATOM     62  H   UNL     1      -3.411  -3.963  15.426  1.00  0.00     0.167 HD
ATOM     63  C   UNL     1      -4.184  -8.280  15.573  1.00  0.00     0.034 A 
ATOM     64  C   UNL     1      -4.119  -1.258  15.560  1.00  0.00     0.034 A 
ATOM     65  C   UNL     1      -5.424  -7.647  15.953  1.00  0.00     0.049 A 
ATOM     66  C   UNL     1      -5.367  -2.039  15.884  1.00  0.00     0.074 A 
ATOM     67  C   UNL     1      -6.607  -8.247  16.349  1.00  0.00     0.029 A 
ATOM     68  N   UNL     1      -5.649  -6.277  15.977  1.00  0.00    -0.354 N 
ATOM     69  N   UNL     1      -5.537  -3.340  15.932  1.00  0.00    -0.248 NA
ATOM     70  C   UNL     1      -6.572  -1.261  16.196  1.00  0.00     0.031 C 
ATOM     71  C   UNL     1      -7.567  -7.247  16.532  1.00  0.00     0.029 A 
ATOM     72  C   UNL     1      -6.961  -6.015  16.344  1.00  0.00     0.049 A 
ATOM     73  H   UNL     1      -4.975  -5.591  15.766  1.00  0.00     0.167 HD
ATOM     74  C   UNL     1      -6.862  -3.535  16.311  1.00  0.00     0.074 A 
ATOM     75  C   UNL     1      -7.440  -2.219  16.489  1.00  0.00     0.031 C 
ATOM     76  C   UNL     1      -7.535  -4.699  16.502  1.00  0.00     0.034 A 
BRANCH  63  77
ATOM     77  C   UNL     1      -4.140  -9.787  15.490  1.00  0.00     0.023 A 
ATOM     78  C   UNL     1      -3.309 -10.555  16.325  1.00  0.00     0.031 A 
ATOM     79  C   UNL     1      -4.951 -10.468  14.564  1.00  0.00     0.131 A 
ATOM     80  C   UNL     1      -3.265 -11.950  16.178  1.00  0.00     0.055 A 
ATOM     81  C   UNL     1      -4.961 -11.861  14.476  1.00  0.00     0.041 A 
ATOM     82  F   UNL     1      -5.747  -9.788  13.724  1.00  0.00    -0.206 F 
ATOM     83  C   UNL     1      -4.106 -12.610  15.279  1.00  0.00     0.022 A 
BRANCH  80  84
ATOM     84  S   UNL     1      -2.006 -12.881  17.093  1.00  0.00     0.124 S 
ATOM     85  O   UNL     1      -0.773 -12.280  16.591  1.00  0.00    -0.237 OA
ATOM     86  O   UNL     1      -2.342 -12.587  18.481  1.00  0.00    -0.237 OA
ATOM     87  O   UNL     1      -2.232 -14.264  16.676  1.00  0.00    -0.744 OA
ENDBRANCH  80  84
ENDBRANCH  63  77
BRANCH  64  88
ATOM     88  C   UNL     1      -4.135   0.233  15.536  1.00  0.00     0.023 A 
ATOM     89  C   UNL     1      -4.357   0.974  16.707  1.00  0.00     0.031 A 
ATOM     90  C   UNL     1      -3.942   0.939  14.335  1.00  0.00     0.131 A 
ATOM     91  C   UNL     1      -4.415   2.375  16.648  1.00  0.00     0.055 A 
ATOM     92  C   UNL     1      -3.949   2.334  14.290  1.00  0.00     0.041 A 
ATOM     93  F   UNL     1      -3.721   0.278  13.187  1.00  0.00    -0.206 F 
ATOM     94  C   UNL     1      -4.196   3.060  15.450  1.00  0.00     0.022 A 
BRANCH  91  95
ATOM     95  S   UNL     1      -4.843   3.294  18.152  1.00  0.00     0.124 S 
ATOM     96  O   UNL     1      -6.169   2.768  18.453  1.00  0.00    -0.237 OA
ATOM     97  O   UNL     1      -3.773   2.899  19.063  1.00  0.00    -0.237 OA
ATOM     98  O   UNL     1      -4.806   4.689  17.720  1.00  0.00    -0.744 OA
ENDBRANCH  91  95
ENDBRANCH  64  88
BRANCH  76  99
ATOM     99  C   UNL     1      -8.968  -4.599  16.969  1.00  0.00     0.023 A 
ATOM    100  C   UNL     1      -9.976  -4.043  16.162  1.00  0.00     0.031 A 
ATOM    101  C   UNL     1      -9.329  -5.069  18.245  1.00  0.00     0.131 A 
ATOM    102  C   UNL     1     -11.282  -3.919  16.661  1.00  0.00     0.055 A 
ATOM    103  C   UNL     1     -10.643  -5.006  18.709  1.00  0.00     0.041 A 
ATOM    104  F   UNL     1      -8.407  -5.606  19.061  1.00  0.00    -0.206 F 
ATOM    105  C   UNL     1     -11.626  -4.415  17.921  1.00  0.00     0.022 A 
BRANCH 102 106
ATOM    106  S   UNL     1     -12.505  -3.008  15.680  1.00  0.00     0.124 S 
ATOM    107  O   UNL     1     -11.865  -1.704  15.533  1.00  0.00    -0.237 OA
ATOM    108  O   UNL     1     -12.597  -3.814  14.467  1.00  0.00    -0.237 OA
ATOM    109  O   UNL     1     -13.699  -3.020  16.523  1.00  0.00    -0.744 OA
ENDBRANCH 102 106
ENDBRANCH  76  99
ENDBRANCH  50  51
ENDBRANCH  42  45
ENDBRANCH  40  41
ENDBRANCH  39  40
ENDBRANCH   1  39
TORSDOF 20
