REMARK SMILES COc1cccc(-c2cc(OCC(=O)NCCCCCCNC(=O)c3ccc(-c4c5nc(c(-c6cc(S(=O)(=O)[O-])ccc6F)c6ccc([nH]6)c(-c6cc(S(=O)(=O)[O-])ccc6F)c6nc(c(-c7cc(S(=O)(=O)[O-])ccc7F)c7ccc4[nH]7)C=C6)C=C5)cc3)nc(Nc3ccccc3Br)n2)c1
REMARK SMILES IDX 18 1 17 2 16 3 15 4 13 5 14 6 12 8 11 9 10 10 8 11 9 12
REMARK SMILES IDX 98 13 89 14 88 15 7 16 3 17 4 18 99 19 5 20 6 21 2 22 1 23
REMARK SMILES IDX 90 24 91 26 92 27 96 28 93 29 95 30 97 31 94 32 19 33 20 34
REMARK SMILES IDX 21 35 22 36 23 37 24 39 25 40 26 41 87 42 27 43 86 44 28 45
REMARK SMILES IDX 29 46 30 47 80 48 31 49 85 50 79 51 81 52 32 53 84 54 78 55
REMARK SMILES IDX 77 56 33 58 65 59 45 60 64 61 46 62 49 63 63 64 82 65 47 66
REMARK SMILES IDX 48 67 62 69 83 70 50 71 34 72 35 73 43 74 36 75 42 76 44 77
REMARK SMILES IDX 41 78 37 79 38 80 39 81 40 82 66 83 67 84 75 85 68 86 74 87
REMARK SMILES IDX 76 88 73 89 69 90 70 91 71 92 72 93 51 94 52 95 60 96 53 97
REMARK SMILES IDX 59 98 61 99 58 100 54 101 55 102 56 103 57 104
REMARK H PARENT 15 7 90 25 22 38 81 57 49 68
REMARK Flexibility Score: inf
ROOT
ATOM      1  C   UNL     1       7.621   1.042   0.138  1.00  0.00     0.002 C 
ENDROOT
BRANCH   1   2
ATOM      2  C   UNL     1       8.094   0.255  -1.092  1.00  0.00     0.021 C 
BRANCH   2   3
ATOM      3  C   UNL     1       8.285  -1.242  -0.853  1.00  0.00     0.116 C 
BRANCH   3   4
ATOM      4  N   UNL     1       7.040  -1.886  -0.484  1.00  0.00    -0.353 N 
ATOM      5  C   UNL     1       6.323  -2.802  -1.190  1.00  0.00     0.258 C 
ATOM      6  O   UNL     1       5.262  -3.219  -0.721  1.00  0.00    -0.271 OA
ATOM      7  H   UNL     1       6.666  -1.629   0.390  1.00  0.00     0.163 HD
BRANCH   5   8
ATOM      8  C   UNL     1       6.853  -3.308  -2.539  1.00  0.00     0.331 C 
BRANCH   8   9
ATOM      9  O   UNL     1       7.091  -2.345  -3.552  1.00  0.00    -0.467 OA
BRANCH   9  10
ATOM     10  C   UNL     1       6.026  -1.638  -4.032  1.00  0.00     0.219 A 
ATOM     11  C   UNL     1       3.791  -1.001  -4.226  1.00  0.00     0.080 A 
ATOM     12  C   UNL     1       4.718  -1.862  -3.688  1.00  0.00     0.097 A 
ATOM     13  N   UNL     1       4.125  -0.030  -5.087  1.00  0.00    -0.212 NA
ATOM     14  C   UNL     1       5.425   0.124  -5.375  1.00  0.00     0.231 A 
ATOM     15  N   UNL     1       6.390  -0.664  -4.883  1.00  0.00    -0.177 NA
BRANCH  11  16
ATOM     16  C   UNL     1       2.379  -1.086  -3.853  1.00  0.00     0.004 A 
ATOM     17  C   UNL     1       0.660  -1.094  -2.125  1.00  0.00     0.119 A 
ATOM     18  C   UNL     1      -0.293  -1.429  -3.086  1.00  0.00     0.046 A 
ATOM     19  C   UNL     1       1.991  -0.937  -2.508  1.00  0.00     0.056 A 
ATOM     20  C   UNL     1       0.067  -1.549  -4.428  1.00  0.00     0.005 A 
ATOM     21  C   UNL     1       1.395  -1.366  -4.812  1.00  0.00     0.010 A 
BRANCH  17  22
ATOM     22  O   UNL     1       0.200  -1.005  -0.839  1.00  0.00    -0.497 OA
ATOM     23  C   UNL     1       0.897  -0.083  -0.005  1.00  0.00     0.278 C 
ENDBRANCH  17  22
ENDBRANCH  11  16
BRANCH  14  24
ATOM     24  N   UNL     1       5.817   1.118  -6.268  1.00  0.00    -0.323 N 
ATOM     25  H   UNL     1       6.776   1.144  -6.492  1.00  0.00     0.170 HD
BRANCH  24  26
ATOM     26  C   UNL     1       5.013   2.085  -6.886  1.00  0.00     0.055 A 
ATOM     27  C   UNL     1       4.944   2.087  -8.289  1.00  0.00     0.027 A 
ATOM     28  C   UNL     1       4.194   2.990  -6.183  1.00  0.00     0.041 A 
ATOM     29  C   UNL     1       4.064   2.934  -8.969  1.00  0.00     0.002 A 
ATOM     30  C   UNL     1       3.315   3.840  -6.866  1.00  0.00     0.018 A 
ATOM     31  Br  UNL     1       4.308   3.219  -4.294  1.00  0.00    -0.049 Br
ATOM     32  C   UNL     1       3.242   3.803  -8.257  1.00  0.00     0.001 A 
ENDBRANCH  24  26
ENDBRANCH  14  24
ENDBRANCH   9  10
ENDBRANCH   8   9
ENDBRANCH   5   8
ENDBRANCH   3   4
ENDBRANCH   2   3
ENDBRANCH   1   2
BRANCH   1  33
ATOM     33  C   UNL     1       8.478   0.873   1.397  1.00  0.00     0.002 C 
BRANCH  33  34
ATOM     34  C   UNL     1       9.966   1.180   1.218  1.00  0.00     0.021 C 
BRANCH  34  35
ATOM     35  C   UNL     1      10.273   2.595   0.740  1.00  0.00     0.116 C 
BRANCH  35  36
ATOM     36  N   UNL     1       9.871   3.600   1.711  1.00  0.00    -0.352 N 
ATOM     37  C   UNL     1      10.616   4.602   2.282  1.00  0.00     0.251 C 
ATOM     38  H   UNL     1       8.931   3.555   2.000  1.00  0.00     0.163 HD
ATOM     39  O   UNL     1      10.162   5.229   3.237  1.00  0.00    -0.269 OA
BRANCH  37  40
ATOM     40  C   UNL     1      11.970   4.903   1.766  1.00  0.00     0.039 A 
ATOM     41  C   UNL     1      13.009   5.118   2.674  1.00  0.00     0.014 A 
ATOM     42  C   UNL     1      12.216   4.971   0.391  1.00  0.00     0.014 A 
ATOM     43  C   UNL     1      14.307   5.333   2.203  1.00  0.00     0.010 A 
ATOM     44  C   UNL     1      13.522   5.108  -0.074  1.00  0.00     0.010 A 
ATOM     45  C   UNL     1      14.583   5.290   0.826  1.00  0.00    -0.014 A 
BRANCH  45  46
ATOM     46  C   UNL     1      15.972   5.439   0.311  1.00  0.00     0.031 A 
ATOM     47  C   UNL     1      16.327   6.603  -0.575  1.00  0.00     0.074 A 
ATOM     48  C   UNL     1      16.900   4.506   0.605  1.00  0.00     0.049 A 
ATOM     49  N   UNL     1      17.453   6.863  -1.189  1.00  0.00    -0.248 NA
ATOM     50  C   UNL     1      15.267   7.593  -0.822  1.00  0.00     0.031 C 
ATOM     51  C   UNL     1      16.673   3.320   1.435  1.00  0.00     0.029 A 
ATOM     52  N   UNL     1      18.219   4.401   0.237  1.00  0.00    -0.354 N 
ATOM     53  C   UNL     1      17.241   8.047  -1.887  1.00  0.00     0.074 A 
ATOM     54  C   UNL     1      15.854   8.410  -1.683  1.00  0.00     0.031 C 
ATOM     55  C   UNL     1      17.818   2.625   1.532  1.00  0.00     0.029 A 
ATOM     56  C   UNL     1      18.846   3.279   0.730  1.00  0.00     0.049 A 
ATOM     57  H   UNL     1      18.674   5.067  -0.327  1.00  0.00     0.167 HD
ATOM     58  C   UNL     1      18.127   8.782  -2.605  1.00  0.00     0.034 A 
ATOM     59  C   UNL     1      20.100   2.819   0.541  1.00  0.00     0.034 A 
ATOM     60  C   UNL     1      19.505   8.409  -2.804  1.00  0.00     0.049 A 
ATOM     61  C   UNL     1      21.045   3.619  -0.326  1.00  0.00     0.074 A 
ATOM     62  C   UNL     1      20.488   9.085  -3.507  1.00  0.00     0.029 A 
ATOM     63  N   UNL     1      20.099   7.258  -2.303  1.00  0.00    -0.354 N 
ATOM     64  N   UNL     1      20.833   4.753  -0.954  1.00  0.00    -0.248 NA
ATOM     65  C   UNL     1      22.402   3.083  -0.499  1.00  0.00     0.031 C 
ATOM     66  C   UNL     1      21.654   8.313  -3.486  1.00  0.00     0.029 A 
ATOM     67  C   UNL     1      21.426   7.195  -2.700  1.00  0.00     0.049 A 
ATOM     68  H   UNL     1      19.644   6.584  -1.747  1.00  0.00     0.167 HD
ATOM     69  C   UNL     1      22.044   5.084  -1.557  1.00  0.00     0.074 A 
ATOM     70  C   UNL     1      22.984   4.042  -1.202  1.00  0.00     0.031 C 
ATOM     71  C   UNL     1      22.355   6.153  -2.333  1.00  0.00     0.034 A 
BRANCH  58  72
ATOM     72  C   UNL     1      17.624  10.060  -3.230  1.00  0.00     0.023 A 
ATOM     73  C   UNL     1      17.163  11.128  -2.440  1.00  0.00     0.031 A 
ATOM     74  C   UNL     1      17.600  10.218  -4.627  1.00  0.00     0.131 A 
ATOM     75  C   UNL     1      16.638  12.277  -3.050  1.00  0.00     0.055 A 
ATOM     76  C   UNL     1      17.153  11.398  -5.227  1.00  0.00     0.041 A 
ATOM     77  F   UNL     1      18.007   9.226  -5.434  1.00  0.00    -0.206 F 
ATOM     78  C   UNL     1      16.656  12.431  -4.438  1.00  0.00     0.022 A 
BRANCH  75  79
ATOM     79  S   UNL     1      15.812  13.508  -2.007  1.00  0.00     0.124 S 
ATOM     80  O   UNL     1      14.737  12.717  -1.413  1.00  0.00    -0.237 OA
ATOM     81  O   UNL     1      16.877  13.921  -1.101  1.00  0.00    -0.237 OA
ATOM     82  O   UNL     1      15.374  14.526  -2.960  1.00  0.00    -0.744 OA
ENDBRANCH  75  79
ENDBRANCH  58  72
BRANCH  59  83
ATOM     83  C   UNL     1      20.547   1.531   1.151  1.00  0.00     0.023 A 
ATOM     84  C   UNL     1      21.638   1.491   2.034  1.00  0.00     0.031 A 
ATOM     85  C   UNL     1      19.954   0.308   0.788  1.00  0.00     0.131 A 
ATOM     86  C   UNL     1      22.154   0.256   2.458  1.00  0.00     0.055 A 
ATOM     87  C   UNL     1      20.423  -0.915   1.273  1.00  0.00     0.041 A 
ATOM     88  F   UNL     1      18.908   0.282  -0.054  1.00  0.00    -0.206 F 
ATOM     89  C   UNL     1      21.544  -0.946   2.096  1.00  0.00     0.022 A 
BRANCH  86  90
ATOM     90  S   UNL     1      23.725   0.241   3.365  1.00  0.00     0.124 S 
ATOM     91  O   UNL     1      24.599   0.969   2.452  1.00  0.00    -0.237 OA
ATOM     92  O   UNL     1      23.367   0.930   4.600  1.00  0.00    -0.237 OA
ATOM     93  O   UNL     1      24.019  -1.183   3.509  1.00  0.00    -0.744 OA
ENDBRANCH  86  90
ENDBRANCH  59  83
BRANCH  71  94
ATOM     94  C   UNL     1      23.788   6.279  -2.793  1.00  0.00     0.023 A 
ATOM     95  C   UNL     1      24.371   5.352  -3.673  1.00  0.00     0.031 A 
ATOM     96  C   UNL     1      24.585   7.343  -2.331  1.00  0.00     0.131 A 
ATOM     97  C   UNL     1      25.727   5.470  -4.016  1.00  0.00     0.055 A 
ATOM     98  C   UNL     1      25.914   7.494  -2.729  1.00  0.00     0.041 A 
ATOM     99  F   UNL     1      24.082   8.258  -1.486  1.00  0.00    -0.206 F 
ATOM    100  C   UNL     1      26.496   6.545  -3.565  1.00  0.00     0.022 A 
BRANCH  97 101
ATOM    101  S   UNL     1      26.500   4.142  -4.980  1.00  0.00     0.124 S 
ATOM    102  O   UNL     1      26.274   2.978  -4.130  1.00  0.00    -0.237 OA
ATOM    103  O   UNL     1      25.741   4.178  -6.226  1.00  0.00    -0.237 OA
ATOM    104  O   UNL     1      27.895   4.567  -5.093  1.00  0.00    -0.744 OA
ENDBRANCH  97 101
ENDBRANCH  71  94
ENDBRANCH  45  46
ENDBRANCH  37  40
ENDBRANCH  35  36
ENDBRANCH  34  35
ENDBRANCH  33  34
ENDBRANCH   1  33
TORSDOF 22
