REMARK SMILES C[C@H]1[C@H](C(=O)NCCCCCCNC(=O)c2ccc(-c3c4nc(c(-c5cc(S(=O)(=O)[O-])ccc5F)c5ccc([nH]5)c(-c5cc(S(=O)(=O)[O-])ccc5F)c5nc(c(-c6cc(S(=O)(=O)[O-])ccc6F)c6ccc3[nH]6)C=C5)C=C4)cc2)CCN1C(=O)N(C)CCS(C)(=O)=O
REMARK SMILES IDX 8 1 7 2 6 3 4 4 5 5 3 7 1 8 2 9 81 10 79 11 80 12 82 13
REMARK SMILES IDX 83 14 84 15 85 16 86 17 87 18 88 19 89 20 90 21 91 22 9 23
REMARK SMILES IDX 10 24 11 25 12 26 13 27 14 28 15 30 16 31 17 32 78 33 18 34
REMARK SMILES IDX 77 35 19 36 20 37 21 38 71 39 22 40 76 41 70 42 72 43 23 44
REMARK SMILES IDX 75 45 69 46 68 47 24 49 56 50 36 51 55 52 37 53 40 54 54 55
REMARK SMILES IDX 73 56 38 57 39 58 53 60 74 61 41 62 25 63 26 64 34 65 27 66
REMARK SMILES IDX 33 67 35 68 32 69 28 70 29 71 30 72 31 73 57 74 58 75 66 76
REMARK SMILES IDX 59 77 65 78 67 79 64 80 60 81 61 82 62 83 63 84 42 85 43 86
REMARK SMILES IDX 51 87 44 88 50 89 52 90 49 91 45 92 46 93 47 94 48 95
REMARK H PARENT 6 6 13 29 72 48 40 59
REMARK Flexibility Score: inf
ROOT
ATOM      1  C   UNL     1       0.013   0.178   3.987  1.00  0.00     0.021 C 
ENDROOT
BRANCH   1   2
ATOM      2  C   UNL     1      -0.932   0.592   2.861  1.00  0.00     0.116 C 
BRANCH   2   3
ATOM      3  N   UNL     1      -0.592   1.906   2.334  1.00  0.00    -0.356 N 
ATOM      4  C   UNL     1      -0.209   2.298   1.090  1.00  0.00     0.225 C 
ATOM      5  O   UNL     1       0.061   3.491   0.923  1.00  0.00    -0.275 OA
ATOM      6  H   UNL     1      -0.650   2.636   2.992  1.00  0.00     0.163 HD
BRANCH   4   7
ATOM      7  C   UNL     1      -0.090   1.323  -0.070  1.00  0.00     0.102 C 
ATOM      8  C   UNL     1       2.144   0.392  -0.778  1.00  0.00     0.032 C 
ATOM      9  C   UNL     1       0.970   0.238   0.193  1.00  0.00     0.096 C 
ATOM     10  N   UNL     1       0.302  -1.042  -0.021  1.00  0.00    -0.321 N 
ATOM     11  C   UNL     1      -1.390   0.601  -0.402  1.00  0.00     0.037 C 
ATOM     12  C   UNL     1      -0.981  -0.832  -0.680  1.00  0.00     0.122 C 
BRANCH  10  13
ATOM     13  C   UNL     1       0.680  -2.341   0.182  1.00  0.00     0.320 C 
ATOM     14  O   UNL     1       0.082  -3.225  -0.446  1.00  0.00    -0.248 OA
BRANCH  13  15
ATOM     15  N   UNL     1       1.646  -2.718   1.091  1.00  0.00    -0.327 N 
ATOM     16  C   UNL     1       2.631  -1.929   1.819  1.00  0.00     0.148 C 
BRANCH  15  17
ATOM     17  C   UNL     1       1.689  -4.156   1.418  1.00  0.00     0.137 C 
BRANCH  17  18
ATOM     18  C   UNL     1       0.816  -4.576   2.595  1.00  0.00     0.158 C 
BRANCH  18  19
ATOM     19  S   UNL     1      -0.934  -4.726   2.296  1.00  0.00     0.149 S 
ATOM     20  C   UNL     1      -1.112  -5.792   0.874  1.00  0.00     0.158 C 
ATOM     21  O   UNL     1      -1.467  -5.465   3.431  1.00  0.00    -0.229 OA
ATOM     22  O   UNL     1      -1.474  -3.414   2.007  1.00  0.00    -0.229 OA
ENDBRANCH  18  19
ENDBRANCH  17  18
ENDBRANCH  15  17
ENDBRANCH  13  15
ENDBRANCH  10  13
ENDBRANCH   4   7
ENDBRANCH   2   3
ENDBRANCH   1   2
BRANCH   1  23
ATOM     23  C   UNL     1      -0.127   1.012   5.264  1.00  0.00     0.002 C 
BRANCH  23  24
ATOM     24  C   UNL     1      -1.536   1.045   5.864  1.00  0.00     0.002 C 
BRANCH  24  25
ATOM     25  C   UNL     1      -2.155  -0.328   6.142  1.00  0.00     0.021 C 
BRANCH  25  26
ATOM     26  C   UNL     1      -1.342  -1.214   7.079  1.00  0.00     0.116 C 
BRANCH  26  27
ATOM     27  N   UNL     1      -1.189  -0.617   8.397  1.00  0.00    -0.352 N 
ATOM     28  C   UNL     1      -1.515  -1.131   9.627  1.00  0.00     0.251 C 
ATOM     29  H   UNL     1      -0.795   0.286   8.407  1.00  0.00     0.163 HD
ATOM     30  O   UNL     1      -1.517  -0.397  10.612  1.00  0.00    -0.269 OA
BRANCH  28  31
ATOM     31  C   UNL     1      -1.880  -2.558   9.755  1.00  0.00     0.039 A 
ATOM     32  C   UNL     1      -2.979  -2.908  10.543  1.00  0.00     0.014 A 
ATOM     33  C   UNL     1      -1.141  -3.549   9.101  1.00  0.00     0.014 A 
ATOM     34  C   UNL     1      -3.373  -4.246  10.625  1.00  0.00     0.010 A 
ATOM     35  C   UNL     1      -1.581  -4.870   9.122  1.00  0.00     0.010 A 
ATOM     36  C   UNL     1      -2.700  -5.233   9.886  1.00  0.00    -0.014 A 
BRANCH  36  37
ATOM     37  C   UNL     1      -3.154  -6.649   9.904  1.00  0.00     0.031 A 
ATOM     38  C   UNL     1      -2.257  -7.724  10.456  1.00  0.00     0.074 A 
ATOM     39  C   UNL     1      -4.351  -6.971   9.376  1.00  0.00     0.049 A 
ATOM     40  N   UNL     1      -2.447  -9.018  10.504  1.00  0.00    -0.248 NA
ATOM     41  C   UNL     1      -0.964  -7.287  11.002  1.00  0.00     0.031 C 
ATOM     42  C   UNL     1      -5.292  -6.021   8.777  1.00  0.00     0.029 A 
ATOM     43  N   UNL     1      -4.982  -8.184   9.250  1.00  0.00    -0.354 N 
ATOM     44  C   UNL     1      -1.297  -9.550  11.077  1.00  0.00     0.074 A 
ATOM     45  C   UNL     1      -0.390  -8.444  11.297  1.00  0.00     0.031 C 
ATOM     46  C   UNL     1      -6.389  -6.682   8.377  1.00  0.00     0.029 A 
ATOM     47  C   UNL     1      -6.212  -8.107   8.637  1.00  0.00     0.049 A 
ATOM     48  H   UNL     1      -4.591  -9.030   9.568  1.00  0.00     0.167 HD
ATOM     49  C   UNL     1      -1.033 -10.838  11.410  1.00  0.00     0.034 A 
ATOM     50  C   UNL     1      -7.090  -9.075   8.308  1.00  0.00     0.034 A 
ATOM     51  C   UNL     1      -1.952 -11.928  11.184  1.00  0.00     0.049 A 
ATOM     52  C   UNL     1      -6.753 -10.507   8.644  1.00  0.00     0.074 A 
ATOM     53  C   UNL     1      -1.808 -13.262  11.527  1.00  0.00     0.029 A 
ATOM     54  N   UNL     1      -3.181 -11.816  10.544  1.00  0.00    -0.354 N 
ATOM     55  N   UNL     1      -5.683 -10.988   9.235  1.00  0.00    -0.248 NA
ATOM     56  C   UNL     1      -7.746 -11.524   8.276  1.00  0.00     0.031 C 
ATOM     57  C   UNL     1      -2.908 -13.966  11.025  1.00  0.00     0.029 A 
ATOM     58  C   UNL     1      -3.785 -13.062  10.448  1.00  0.00     0.049 A 
ATOM     59  H   UNL     1      -3.567 -10.975  10.208  1.00  0.00     0.167 HD
ATOM     60  C   UNL     1      -5.891 -12.361   9.336  1.00  0.00     0.074 A 
ATOM     61  C   UNL     1      -7.195 -12.625   8.763  1.00  0.00     0.031 C 
ATOM     62  C   UNL     1      -5.080 -13.316   9.860  1.00  0.00     0.034 A 
BRANCH  49  63
ATOM     63  C   UNL     1       0.315 -11.135  12.027  1.00  0.00     0.023 A 
ATOM     64  C   UNL     1       0.710 -10.567  13.251  1.00  0.00     0.031 A 
ATOM     65  C   UNL     1       1.230 -11.978  11.371  1.00  0.00     0.131 A 
ATOM     66  C   UNL     1       2.008 -10.780  13.738  1.00  0.00     0.055 A 
ATOM     67  C   UNL     1       2.489 -12.258  11.906  1.00  0.00     0.041 A 
ATOM     68  F   UNL     1       0.923 -12.533  10.188  1.00  0.00    -0.206 F 
ATOM     69  C   UNL     1       2.892 -11.644  13.088  1.00  0.00     0.022 A 
BRANCH  66  70
ATOM     70  S   UNL     1       2.579  -9.787  15.145  1.00  0.00     0.124 S 
ATOM     71  O   UNL     1       2.405  -8.428  14.636  1.00  0.00    -0.237 OA
ATOM     72  O   UNL     1       1.669 -10.193  16.208  1.00  0.00    -0.237 OA
ATOM     73  O   UNL     1       3.969 -10.205  15.317  1.00  0.00    -0.744 OA
ENDBRANCH  66  70
ENDBRANCH  49  63
BRANCH  50  74
ATOM     74  C   UNL     1      -8.364  -8.736   7.610  1.00  0.00     0.023 A 
ATOM     75  C   UNL     1      -9.608  -8.983   8.214  1.00  0.00     0.031 A 
ATOM     76  C   UNL     1      -8.359  -8.202   6.309  1.00  0.00     0.131 A 
ATOM     77  C   UNL     1     -10.793  -8.742   7.500  1.00  0.00     0.055 A 
ATOM     78  C   UNL     1      -9.541  -7.907   5.627  1.00  0.00     0.041 A 
ATOM     79  F   UNL     1      -7.199  -7.947   5.684  1.00  0.00    -0.206 F 
ATOM     80  C   UNL     1     -10.768  -8.191   6.218  1.00  0.00     0.022 A 
BRANCH  77  81
ATOM     81  S   UNL     1     -12.369  -9.252   8.238  1.00  0.00     0.124 S 
ATOM     82  O   UNL     1     -12.153 -10.680   8.444  1.00  0.00    -0.237 OA
ATOM     83  O   UNL     1     -12.420  -8.431   9.443  1.00  0.00    -0.237 OA
ATOM     84  O   UNL     1     -13.352  -8.910   7.212  1.00  0.00    -0.744 OA
ENDBRANCH  77  81
ENDBRANCH  50  74
BRANCH  62  85
ATOM     85  C   UNL     1      -5.606 -14.732   9.874  1.00  0.00     0.023 A 
ATOM     86  C   UNL     1      -5.845 -15.447   8.687  1.00  0.00     0.031 A 
ATOM     87  C   UNL     1      -5.881 -15.372  11.096  1.00  0.00     0.131 A 
ATOM     88  C   UNL     1      -6.399 -16.735   8.746  1.00  0.00     0.055 A 
ATOM     89  C   UNL     1      -6.368 -16.678  11.150  1.00  0.00     0.041 A 
ATOM     90  F   UNL     1      -5.677 -14.737  12.261  1.00  0.00    -0.206 F 
ATOM     91  C   UNL     1      -6.643 -17.363   9.970  1.00  0.00     0.022 A 
BRANCH  88  92
ATOM     92  S   UNL     1      -6.891 -17.544   7.199  1.00  0.00     0.124 S 
ATOM     93  O   UNL     1      -7.848 -16.590   6.648  1.00  0.00    -0.237 OA
ATOM     94  O   UNL     1      -5.622 -17.657   6.487  1.00  0.00    -0.237 OA
ATOM     95  O   UNL     1      -7.466 -18.813   7.642  1.00  0.00    -0.744 OA
ENDBRANCH  88  92
ENDBRANCH  62  85
ENDBRANCH  36  37
ENDBRANCH  28  31
ENDBRANCH  26  27
ENDBRANCH  25  26
ENDBRANCH  24  25
ENDBRANCH  23  24
ENDBRANCH   1  23
TORSDOF 21
