REMARK SMILES COc1ccc(C(=O)c2ccccc2)cc1[C@@H](C)C(=O)NCCCCCCNC(=O)c1ccc(-c2c3nc(c(-c4cc(S(=O)(=O)[O-])ccc4F)c4ccc([nH]4)c(-c4cc(S(=O)(=O)[O-])ccc4F)c4nc(c(-c5cc(S(=O)(=O)[O-])ccc5F)c5ccc2[nH]5)C=C4)C=C3)cc1
REMARK SMILES IDX 24 1 23 2 22 3 21 4 19 5 20 6 17 8 18 9 16 10 3 11 4 12 5 13
REMARK SMILES IDX 15 14 6 15 2 16 1 17 7 18 8 19 9 20 10 21 14 22 11 23 13 24
REMARK SMILES IDX 12 25 25 26 26 27 27 28 28 29 29 30 30 32 31 33 32 34 93 35
REMARK SMILES IDX 33 36 92 37 34 38 35 39 36 40 86 41 37 42 91 43 85 44 87 45
REMARK SMILES IDX 38 46 90 47 84 48 83 49 39 51 71 52 51 53 70 54 52 55 55 56
REMARK SMILES IDX 69 57 88 58 53 59 54 60 68 62 89 63 56 64 40 65 41 66 49 67
REMARK SMILES IDX 42 68 48 69 50 70 47 71 43 72 44 73 45 74 46 75 72 76 73 77
REMARK SMILES IDX 81 78 74 79 80 80 82 81 79 82 75 83 76 84 77 85 78 86 57 87
REMARK SMILES IDX 58 88 66 89 59 90 65 91 67 92 64 93 60 94 61 95 62 96 63 97
REMARK H PARENT 21 7 28 31 87 50 55 61
REMARK Flexibility Score: inf
ROOT
ATOM      1  C   UNL     1       5.104   5.131  -2.847  1.00  0.00     0.002 C 
ENDROOT
BRANCH   1   2
ATOM      2  C   UNL     1       4.603   3.744  -3.264  1.00  0.00     0.021 C 
BRANCH   2   3
ATOM      3  C   UNL     1       5.253   2.561  -2.539  1.00  0.00     0.116 C 
BRANCH   3   4
ATOM      4  N   UNL     1       4.624   2.297  -1.258  1.00  0.00    -0.356 N 
ATOM      5  C   UNL     1       3.776   1.331  -0.816  1.00  0.00     0.227 C 
ATOM      6  O   UNL     1       3.390   1.460   0.355  1.00  0.00    -0.274 OA
ATOM      7  H   UNL     1       4.862   2.954  -0.565  1.00  0.00     0.163 HD
BRANCH   5   8
ATOM      8  C   UNL     1       3.273   0.142  -1.655  1.00  0.00     0.109 C 
ATOM      9  C   UNL     1       4.353  -0.702  -2.329  1.00  0.00     0.023 C 
BRANCH   8  10
ATOM     10  C   UNL     1       2.089   0.489  -2.548  1.00  0.00     0.007 A 
ATOM     11  C   UNL     1       0.771   0.162  -2.187  1.00  0.00     0.122 A 
ATOM     12  C   UNL     1      -0.309   0.498  -3.008  1.00  0.00     0.047 A 
ATOM     13  C   UNL     1      -0.094   1.189  -4.199  1.00  0.00     0.016 A 
ATOM     14  C   UNL     1       2.278   1.164  -3.768  1.00  0.00     0.020 A 
ATOM     15  C   UNL     1       1.205   1.519  -4.597  1.00  0.00     0.023 A 
BRANCH  11  16
ATOM     16  O   UNL     1       0.500  -0.604  -1.085  1.00  0.00    -0.496 OA
ATOM     17  C   UNL     1       0.279   0.200   0.073  1.00  0.00     0.278 C 
ENDBRANCH  11  16
BRANCH  15  18
ATOM     18  C   UNL     1       1.369   2.299  -5.858  1.00  0.00     0.193 C 
ATOM     19  O   UNL     1       0.369   2.772  -6.397  1.00  0.00    -0.289 OA
BRANCH  18  20
ATOM     20  C   UNL     1       2.687   2.606  -6.464  1.00  0.00     0.022 A 
ATOM     21  C   UNL     1       2.882   3.907  -6.938  1.00  0.00     0.012 A 
ATOM     22  C   UNL     1       3.696   1.650  -6.628  1.00  0.00     0.012 A 
ATOM     23  C   UNL     1       4.082   4.252  -7.551  1.00  0.00     0.001 A 
ATOM     24  C   UNL     1       4.912   2.012  -7.216  1.00  0.00     0.001 A 
ATOM     25  C   UNL     1       5.104   3.313  -7.679  1.00  0.00     0.000 A 
ENDBRANCH  18  20
ENDBRANCH  15  18
ENDBRANCH   8  10
ENDBRANCH   5   8
ENDBRANCH   3   4
ENDBRANCH   2   3
ENDBRANCH   1   2
BRANCH   1  26
ATOM     26  C   UNL     1       6.587   5.427  -3.116  1.00  0.00     0.002 C 
BRANCH  26  27
ATOM     27  C   UNL     1       7.095   5.149  -4.537  1.00  0.00     0.021 C 
BRANCH  27  28
ATOM     28  C   UNL     1       6.489   6.016  -5.644  1.00  0.00     0.116 C 
BRANCH  28  29
ATOM     29  N   UNL     1       7.024   7.366  -5.664  1.00  0.00    -0.352 N 
ATOM     30  C   UNL     1       7.530   8.094  -6.720  1.00  0.00     0.251 C 
ATOM     31  H   UNL     1       7.027   7.830  -4.795  1.00  0.00     0.163 HD
ATOM     32  O   UNL     1       8.071   9.174  -6.497  1.00  0.00    -0.269 OA
BRANCH  30  33
ATOM     33  C   UNL     1       7.457   7.581  -8.113  1.00  0.00     0.039 A 
ATOM     34  C   UNL     1       8.600   7.633  -8.914  1.00  0.00     0.014 A 
ATOM     35  C   UNL     1       6.265   7.101  -8.659  1.00  0.00     0.014 A 
ATOM     36  C   UNL     1       8.562   7.150 -10.230  1.00  0.00     0.010 A 
ATOM     37  C   UNL     1       6.244   6.557  -9.954  1.00  0.00     0.010 A 
ATOM     38  C   UNL     1       7.395   6.571 -10.760  1.00  0.00    -0.014 A 
BRANCH  38  39
ATOM     39  C   UNL     1       7.392   5.985 -12.139  1.00  0.00     0.031 A 
ATOM     40  C   UNL     1       6.510   6.547 -13.230  1.00  0.00     0.074 A 
ATOM     41  C   UNL     1       8.186   4.931 -12.428  1.00  0.00     0.049 A 
ATOM     42  N   UNL     1       6.394   6.167 -14.480  1.00  0.00    -0.248 NA
ATOM     43  C   UNL     1       5.636   7.669 -12.865  1.00  0.00     0.031 C 
ATOM     44  C   UNL     1       9.074   4.259 -11.478  1.00  0.00     0.029 A 
ATOM     45  N   UNL     1       8.385   4.244 -13.604  1.00  0.00    -0.354 N 
ATOM     46  C   UNL     1       5.438   7.002 -15.051  1.00  0.00     0.074 A 
ATOM     47  C   UNL     1       4.961   7.865 -13.989  1.00  0.00     0.031 C 
ATOM     48  C   UNL     1       9.747   3.287 -12.114  1.00  0.00     0.029 A 
ATOM     49  C   UNL     1       9.310   3.228 -13.507  1.00  0.00     0.049 A 
ATOM     50  H   UNL     1       7.909   4.458 -14.438  1.00  0.00     0.167 HD
ATOM     51  C   UNL     1       5.012   7.067 -16.339  1.00  0.00     0.034 A 
ATOM     52  C   UNL     1       9.755   2.341 -14.421  1.00  0.00     0.034 A 
ATOM     53  C   UNL     1       5.488   6.214 -17.404  1.00  0.00     0.049 A 
ATOM     54  C   UNL     1       9.225   2.395 -15.834  1.00  0.00     0.074 A 
ATOM     55  C   UNL     1       5.151   6.245 -18.748  1.00  0.00     0.029 A 
ATOM     56  N   UNL     1       6.391   5.171 -17.252  1.00  0.00    -0.354 N 
ATOM     57  N   UNL     1       8.356   3.227 -16.360  1.00  0.00    -0.248 NA
ATOM     58  C   UNL     1       9.742   1.393 -16.777  1.00  0.00     0.031 C 
ATOM     59  C   UNL     1       5.789   5.179 -19.391  1.00  0.00     0.029 A 
ATOM     60  C   UNL     1       6.590   4.530 -18.468  1.00  0.00     0.049 A 
ATOM     61  H   UNL     1       6.826   4.921 -16.405  1.00  0.00     0.167 HD
ATOM     62  C   UNL     1       8.252   2.866 -17.702  1.00  0.00     0.074 A 
ATOM     63  C   UNL     1       9.155   1.755 -17.908  1.00  0.00     0.031 C 
ATOM     64  C   UNL     1       7.479   3.411 -18.676  1.00  0.00     0.034 A 
BRANCH  51  65
ATOM     65  C   UNL     1       3.954   8.095 -16.671  1.00  0.00     0.023 A 
ATOM     66  C   UNL     1       4.202   9.474 -16.548  1.00  0.00     0.031 A 
ATOM     67  C   UNL     1       2.681   7.695 -17.117  1.00  0.00     0.131 A 
ATOM     68  C   UNL     1       3.175  10.396 -16.796  1.00  0.00     0.055 A 
ATOM     69  C   UNL     1       1.688   8.621 -17.441  1.00  0.00     0.041 A 
ATOM     70  F   UNL     1       2.379   6.393 -17.242  1.00  0.00    -0.206 F 
ATOM     71  C   UNL     1       1.927   9.981 -17.267  1.00  0.00     0.022 A 
BRANCH  68  72
ATOM     72  S   UNL     1       3.450  12.135 -16.361  1.00  0.00     0.124 S 
ATOM     73  O   UNL     1       3.758  12.037 -14.936  1.00  0.00    -0.237 OA
ATOM     74  O   UNL     1       4.560  12.506 -17.230  1.00  0.00    -0.237 OA
ATOM     75  O   UNL     1       2.173  12.773 -16.672  1.00  0.00    -0.744 OA
ENDBRANCH  68  72
ENDBRANCH  51  65
BRANCH  52  76
ATOM     76  C   UNL     1      10.751   1.296 -14.041  1.00  0.00     0.023 A 
ATOM     77  C   UNL     1      12.024   1.257 -14.632  1.00  0.00     0.031 A 
ATOM     78  C   UNL     1      10.417   0.278 -13.130  1.00  0.00     0.131 A 
ATOM     79  C   UNL     1      12.896   0.194 -14.348  1.00  0.00     0.055 A 
ATOM     80  C   UNL     1      11.309  -0.745 -12.806  1.00  0.00     0.041 A 
ATOM     81  F   UNL     1       9.213   0.266 -12.535  1.00  0.00    -0.206 F 
ATOM     82  C   UNL     1      12.552  -0.799 -13.428  1.00  0.00     0.022 A 
BRANCH  79  83
ATOM     83  S   UNL     1      14.451   0.072 -15.274  1.00  0.00     0.124 S 
ATOM     84  O   UNL     1      13.972   0.009 -16.650  1.00  0.00    -0.237 OA
ATOM     85  O   UNL     1      15.131   1.304 -14.887  1.00  0.00    -0.237 OA
ATOM     86  O   UNL     1      15.054  -1.157 -14.765  1.00  0.00    -0.744 OA
ENDBRANCH  79  83
ENDBRANCH  52  76
BRANCH  64  87
ATOM     87  C   UNL     1       7.612   2.837 -20.068  1.00  0.00     0.023 A 
ATOM     88  C   UNL     1       7.214   1.523 -20.372  1.00  0.00     0.031 A 
ATOM     89  C   UNL     1       8.161   3.614 -21.105  1.00  0.00     0.131 A 
ATOM     90  C   UNL     1       7.420   1.008 -21.663  1.00  0.00     0.055 A 
ATOM     91  C   UNL     1       8.309   3.116 -22.401  1.00  0.00     0.041 A 
ATOM     92  F   UNL     1       8.563   4.875 -20.875  1.00  0.00    -0.206 F 
ATOM     93  C   UNL     1       7.950   1.802 -22.683  1.00  0.00     0.022 A 
BRANCH  90  94
ATOM     94  S   UNL     1       7.071  -0.747 -21.970  1.00  0.00     0.124 S 
ATOM     95  O   UNL     1       7.949  -1.405 -21.008  1.00  0.00    -0.237 OA
ATOM     96  O   UNL     1       5.641  -0.834 -21.692  1.00  0.00    -0.237 OA
ATOM     97  O   UNL     1       7.441  -0.930 -23.372  1.00  0.00    -0.744 OA
ENDBRANCH  90  94
ENDBRANCH  64  87
ENDBRANCH  38  39
ENDBRANCH  30  33
ENDBRANCH  28  29
ENDBRANCH  27  28
ENDBRANCH  26  27
ENDBRANCH   1  26
TORSDOF 20
