REMARK SMILES C[C@@H]1CCC[C@H](C)[N@H+]1Cc1cc2c(cc1Cl)C=C(C(=O)NCCCCCCNC(=O)c1ccc(-c3c4nc(c(-c5cc(S(=O)(=O)[O-])ccc5F)c5ccc([nH]5)c(-c5cc(S(=O)(=O)[O-])ccc5F)c5nc(c(-c6cc(S(=O)(=O)[O-])ccc6F)c6ccc3[nH]6)C=C5)C=C4)cc1)[C@@H](C(F)(F)F)O2
REMARK SMILES IDX 25 1 24 2 23 3 22 4 21 5 19 6 20 7 18 9 10 10 11 11 15 12
REMARK SMILES IDX 12 13 14 14 16 15 13 16 99 17 17 18 94 19 9 20 8 21 7 22
REMARK SMILES IDX 6 23 5 24 4 25 2 26 3 28 1 29 95 30 96 31 97 32 98 33 26 34
REMARK SMILES IDX 27 35 28 36 29 37 30 39 31 40 32 41 93 42 33 43 92 44 34 45
REMARK SMILES IDX 35 46 36 47 86 48 37 49 91 50 85 51 87 52 38 53 90 54 84 55
REMARK SMILES IDX 83 56 39 58 71 59 51 60 70 61 52 62 55 63 69 64 88 65 53 66
REMARK SMILES IDX 54 67 68 69 89 70 56 71 40 72 41 73 49 74 42 75 48 76 50 77
REMARK SMILES IDX 47 78 43 79 44 80 45 81 46 82 72 83 73 84 81 85 74 86 80 87
REMARK SMILES IDX 82 88 79 89 75 90 76 91 77 92 78 93 57 94 58 95 66 96 59 97
REMARK SMILES IDX 65 98 67 99 64 100 60 101 61 102 62 103 63 104
REMARK H PARENT 21 8 8 27 28 38 87 57 55 68
REMARK Flexibility Score: inf
ROOT
ATOM      1  C   UNL     1       4.706   8.557   9.314  1.00  0.00     0.002 C 
ENDROOT
BRANCH   1   2
ATOM      2  C   UNL     1       5.093   8.308   7.850  1.00  0.00     0.002 C 
BRANCH   2   3
ATOM      3  C   UNL     1       4.508   7.035   7.237  1.00  0.00     0.021 C 
BRANCH   3   4
ATOM      4  C   UNL     1       2.986   6.968   7.315  1.00  0.00     0.116 C 
BRANCH   4   5
ATOM      5  N   UNL     1       2.369   7.643   6.186  1.00  0.00    -0.352 N 
ATOM      6  C   UNL     1       1.449   7.344   5.241  1.00  0.00     0.251 C 
ATOM      7  O   UNL     1       1.163   8.264   4.468  1.00  0.00    -0.270 OA
ATOM      8  H   UNL     1       2.711   8.560   6.081  1.00  0.00     0.163 HD
BRANCH   6   9
ATOM      9  C   UNL     1       0.793   6.016   5.076  1.00  0.00     0.067 C 
ATOM     10  C   UNL     1      -1.587   2.091   3.014  1.00  0.00     0.029 A 
ATOM     11  C   UNL     1      -0.544   2.229   3.942  1.00  0.00     0.058 A 
ATOM     12  C   UNL     1      -2.361   3.227   2.722  1.00  0.00     0.050 A 
ATOM     13  C   UNL     1      -0.152   3.490   4.371  1.00  0.00     0.128 A 
ATOM     14  C   UNL     1      -1.932   4.500   3.119  1.00  0.00     0.033 A 
ATOM     15  Cl  UNL     1      -3.839   3.142   1.831  1.00  0.00    -0.084 Cl
ATOM     16  C   UNL     1      -0.782   4.636   3.890  1.00  0.00     0.019 A 
ATOM     17  O   UNL     1       0.936   3.541   5.189  1.00  0.00    -0.475 OA
ATOM     18  C   UNL     1      -0.161   5.934   4.130  1.00  0.00     0.025 C 
ATOM     19  C   UNL     1       1.118   4.797   5.892  1.00  0.00     0.314 C 
BRANCH  10  20
ATOM     20  C   UNL     1      -1.716   0.769   2.285  1.00  0.00     0.301 C 
BRANCH  20  21
ATOM     21  N   UNL     1      -0.908   0.622   1.046  1.00  0.00    -0.327 N 
ATOM     22  C   UNL     1       1.193  -0.463   0.288  1.00  0.00     0.075 C 
ATOM     23  C   UNL     1       0.552   0.563   1.238  1.00  0.00     0.181 C 
ATOM     24  C   UNL     1       1.272   1.915   1.097  1.00  0.00     0.065 C 
ATOM     25  C   UNL     1       0.849   2.700  -0.137  1.00  0.00     0.012 C 
ATOM     26  C   UNL     1      -1.379   1.427  -0.090  1.00  0.00     0.181 C 
ATOM     27  H   UNL     1      -1.107  -0.332   0.746  1.00  0.00     0.348 HD
ATOM     28  C   UNL     1      -0.667   2.780  -0.259  1.00  0.00     0.065 C 
ATOM     29  C   UNL     1      -1.339   0.624  -1.397  1.00  0.00     0.075 C 
ENDBRANCH  20  21
ENDBRANCH  10  20
BRANCH  19  30
ATOM     30  C   UNL     1       0.336   4.793   7.221  1.00  0.00     0.429 C 
ATOM     31  F   UNL     1       0.863   3.899   8.089  1.00  0.00    -0.167 F 
ATOM     32  F   UNL     1       0.373   6.000   7.838  1.00  0.00    -0.167 F 
ATOM     33  F   UNL     1      -0.971   4.484   7.056  1.00  0.00    -0.167 F 
ENDBRANCH  19  30
ENDBRANCH   6   9
ENDBRANCH   4   5
ENDBRANCH   3   4
ENDBRANCH   2   3
ENDBRANCH   1   2
BRANCH   1  34
ATOM     34  C   UNL     1       4.915   7.369  10.255  1.00  0.00     0.021 C 
BRANCH  34  35
ATOM     35  C   UNL     1       6.344   6.841  10.296  1.00  0.00     0.116 C 
BRANCH  35  36
ATOM     36  N   UNL     1       7.289   7.857  10.731  1.00  0.00    -0.352 N 
ATOM     37  C   UNL     1       8.178   7.832  11.777  1.00  0.00     0.251 C 
ATOM     38  H   UNL     1       7.292   8.685  10.197  1.00  0.00     0.163 HD
ATOM     39  O   UNL     1       8.748   8.866  12.117  1.00  0.00    -0.269 OA
BRANCH  37  40
ATOM     40  C   UNL     1       8.418   6.568  12.504  1.00  0.00     0.039 A 
ATOM     41  C   UNL     1       8.559   5.365  11.808  1.00  0.00     0.014 A 
ATOM     42  C   UNL     1       8.484   6.584  13.899  1.00  0.00     0.014 A 
ATOM     43  C   UNL     1       8.589   4.165  12.508  1.00  0.00     0.010 A 
ATOM     44  C   UNL     1       8.614   5.381  14.599  1.00  0.00     0.010 A 
ATOM     45  C   UNL     1       8.617   4.157  13.912  1.00  0.00    -0.014 A 
BRANCH  45  46
ATOM     46  C   UNL     1       8.659   2.861  14.637  1.00  0.00     0.031 A 
ATOM     47  C   UNL     1       7.535   2.452  15.551  1.00  0.00     0.074 A 
ATOM     48  C   UNL     1       9.702   2.031  14.438  1.00  0.00     0.049 A 
ATOM     49  N   UNL     1       7.401   1.353  16.247  1.00  0.00    -0.248 NA
ATOM     50  C   UNL     1       6.419   3.399  15.711  1.00  0.00     0.031 C 
ATOM     51  C   UNL     1      10.846   2.325  13.572  1.00  0.00     0.029 A 
ATOM     52  N   UNL     1       9.968   0.776  14.924  1.00  0.00    -0.354 N 
ATOM     53  C   UNL     1       6.200   1.480  16.938  1.00  0.00     0.074 A 
ATOM     54  C   UNL     1       5.664   2.782  16.610  1.00  0.00     0.031 C 
ATOM     55  C   UNL     1      11.661   1.263  13.548  1.00  0.00     0.029 A 
ATOM     56  C   UNL     1      11.146   0.242  14.455  1.00  0.00     0.049 A 
ATOM     57  H   UNL     1       9.372   0.303  15.550  1.00  0.00     0.167 HD
ATOM     58  C   UNL     1       5.596   0.584  17.754  1.00  0.00     0.034 A 
ATOM     59  C   UNL     1      11.757  -0.929  14.733  1.00  0.00     0.034 A 
ATOM     60  C   UNL     1       6.138  -0.718  18.052  1.00  0.00     0.049 A 
ATOM     61  C   UNL     1      11.082  -1.893  15.672  1.00  0.00     0.074 A 
ATOM     62  C   UNL     1       5.582  -1.712  18.838  1.00  0.00     0.029 A 
ATOM     63  N   UNL     1       7.348  -1.212  17.583  1.00  0.00    -0.354 N 
ATOM     64  N   UNL     1       9.920  -1.779  16.273  1.00  0.00    -0.248 NA
ATOM     65  C   UNL     1      11.789  -3.145  15.972  1.00  0.00     0.031 C 
ATOM     66  C   UNL     1       6.487  -2.771  18.907  1.00  0.00     0.029 A 
ATOM     67  C   UNL     1       7.569  -2.482  18.091  1.00  0.00     0.049 A 
ATOM     68  H   UNL     1       7.958  -0.731  16.978  1.00  0.00     0.167 HD
ATOM     69  C   UNL     1       9.748  -2.952  17.003  1.00  0.00     0.074 A 
ATOM     70  C   UNL     1      10.912  -3.773  16.745  1.00  0.00     0.031 C 
ATOM     71  C   UNL     1       8.723  -3.308  17.817  1.00  0.00     0.034 A 
BRANCH  58  72
ATOM     72  C   UNL     1       4.273   0.948  18.386  1.00  0.00     0.023 A 
ATOM     73  C   UNL     1       4.154   0.996  19.788  1.00  0.00     0.031 A 
ATOM     74  C   UNL     1       3.106   1.102  17.616  1.00  0.00     0.131 A 
ATOM     75  C   UNL     1       2.892   1.146  20.377  1.00  0.00     0.055 A 
ATOM     76  C   UNL     1       1.857   1.302  18.207  1.00  0.00     0.041 A 
ATOM     77  F   UNL     1       3.163   1.062  16.275  1.00  0.00    -0.206 F 
ATOM     78  C   UNL     1       1.744   1.309  19.594  1.00  0.00     0.022 A 
BRANCH  75  79
ATOM     79  S   UNL     1       2.678   1.056  22.176  1.00  0.00     0.124 S 
ATOM     80  O   UNL     1       2.080   2.357  22.472  1.00  0.00    -0.237 OA
ATOM     81  O   UNL     1       1.783  -0.088  22.319  1.00  0.00    -0.237 OA
ATOM     82  O   UNL     1       4.032   0.867  22.682  1.00  0.00    -0.744 OA
ENDBRANCH  75  79
ENDBRANCH  58  72
BRANCH  59  83
ATOM     83  C   UNL     1      13.055  -1.244  14.066  1.00  0.00     0.023 A 
ATOM     84  C   UNL     1      14.176  -0.409  14.238  1.00  0.00     0.031 A 
ATOM     85  C   UNL     1      13.159  -2.306  13.154  1.00  0.00     0.131 A 
ATOM     86  C   UNL     1      15.315  -0.599  13.446  1.00  0.00     0.055 A 
ATOM     87  C   UNL     1      14.328  -2.542  12.427  1.00  0.00     0.041 A 
ATOM     88  F   UNL     1      12.114  -3.122  12.943  1.00  0.00    -0.206 F 
ATOM     89  C   UNL     1      15.406  -1.672  12.556  1.00  0.00     0.022 A 
BRANCH  86  90
ATOM     90  S   UNL     1      16.651   0.630  13.434  1.00  0.00     0.124 S 
ATOM     91  O   UNL     1      17.802  -0.167  13.845  1.00  0.00    -0.237 OA
ATOM     92  O   UNL     1      16.646   1.058  12.037  1.00  0.00    -0.237 OA
ATOM     93  O   UNL     1      16.203   1.636  14.391  1.00  0.00    -0.744 OA
ENDBRANCH  86  90
ENDBRANCH  59  83
BRANCH  71  94
ATOM     94  C   UNL     1       8.774  -4.652  18.505  1.00  0.00     0.023 A 
ATOM     95  C   UNL     1       7.763  -5.603  18.261  1.00  0.00     0.031 A 
ATOM     96  C   UNL     1       9.710  -4.924  19.517  1.00  0.00     0.131 A 
ATOM     97  C   UNL     1       7.680  -6.753  19.056  1.00  0.00     0.055 A 
ATOM     98  C   UNL     1       9.657  -6.100  20.268  1.00  0.00     0.041 A 
ATOM     99  F   UNL     1      10.685  -4.046  19.798  1.00  0.00    -0.206 F 
ATOM    100  C   UNL     1       8.627  -7.012  20.051  1.00  0.00     0.022 A 
BRANCH  97 101
ATOM    101  S   UNL     1       6.281  -7.899  18.900  1.00  0.00     0.124 S 
ATOM    102  O   UNL     1       6.953  -9.149  18.552  1.00  0.00    -0.237 OA
ATOM    103  O   UNL     1       5.699  -7.856  20.238  1.00  0.00    -0.237 OA
ATOM    104  O   UNL     1       5.465  -7.317  17.840  1.00  0.00    -0.744 OA
ENDBRANCH  97 101
ENDBRANCH  71  94
ENDBRANCH  45  46
ENDBRANCH  37  40
ENDBRANCH  35  36
ENDBRANCH  34  35
ENDBRANCH   1  34
TORSDOF 19
