REMARK SMILES Cc1ccc(-c2cc3cccnc3n2CCC(=O)NCCCCCCNC(=O)c2ccc(-c3c4nc(c(-c5cc(S(=O)(=O)[O-])ccc5F)c5ccc([nH]5)c(-c5cc(S(=O)(=O)[O-])ccc5F)c5nc(c(-c6cc(S(=O)(=O)[O-])ccc6F)c6ccc3[nH]6)C=C5)C=C4)cc2)cn1
REMARK SMILES IDX 22 1 21 2 20 3 19 4 17 5 18 6 16 8 15 9 14 10 6 11 7 12 8 13
REMARK SMILES IDX 13 14 9 15 12 16 10 17 11 18 5 19 1 20 2 21 3 22 93 23 4 24
REMARK SMILES IDX 92 25 23 26 24 27 25 28 26 29 27 30 28 32 29 33 30 34 91 35
REMARK SMILES IDX 31 36 90 37 32 38 33 39 34 40 84 41 35 42 89 43 83 44 85 45
REMARK SMILES IDX 36 46 88 47 82 48 81 49 37 51 69 52 49 53 68 54 50 55 53 56
REMARK SMILES IDX 67 57 86 58 51 59 52 60 66 62 87 63 54 64 38 65 39 66 47 67
REMARK SMILES IDX 40 68 46 69 48 70 45 71 41 72 42 73 43 74 44 75 70 76 71 77
REMARK SMILES IDX 79 78 72 79 78 80 80 81 77 82 73 83 74 84 75 85 76 86 55 87
REMARK SMILES IDX 56 88 64 89 57 90 63 91 65 92 62 93 58 94 59 95 60 96 61 97
REMARK H PARENT 19 7 26 31 85 50 53 61
REMARK Flexibility Score: inf
ROOT
ATOM      1  C   UNL     1      -1.948   0.017  -2.909  1.00  0.00     0.002 C 
ENDROOT
BRANCH   1   2
ATOM      2  C   UNL     1      -3.046  -0.188  -1.873  1.00  0.00     0.021 C 
BRANCH   2   3
ATOM      3  C   UNL     1      -3.567  -1.598  -1.620  1.00  0.00     0.116 C 
BRANCH   3   4
ATOM      4  N   UNL     1      -2.642  -2.395  -0.829  1.00  0.00    -0.356 N 
ATOM      5  C   UNL     1      -2.728  -2.855   0.450  1.00  0.00     0.221 C 
ATOM      6  O   UNL     1      -1.793  -3.544   0.874  1.00  0.00    -0.275 OA
ATOM      7  H   UNL     1      -1.812  -2.643  -1.297  1.00  0.00     0.163 HD
BRANCH   5   8
ATOM      8  C   UNL     1      -3.910  -2.551   1.348  1.00  0.00     0.122 C 
BRANCH   8   9
ATOM      9  C   UNL     1      -3.763  -1.321   2.258  1.00  0.00     0.134 C 
BRANCH   9  10
ATOM     10  N   UNL     1      -3.975  -0.046   1.593  1.00  0.00    -0.325 N 
ATOM     11  C   UNL     1      -3.062   0.954   1.247  1.00  0.00     0.052 A 
ATOM     12  C   UNL     1      -3.841   1.938   0.615  1.00  0.00     0.039 A 
ATOM     13  C   UNL     1      -5.167   1.465   0.446  1.00  0.00     0.020 A 
ATOM     14  C   UNL     1      -5.245   0.275   1.143  1.00  0.00     0.140 A 
ATOM     15  C   UNL     1      -6.308   1.879  -0.264  1.00  0.00     0.013 A 
ATOM     16  N   UNL     1      -6.336  -0.512   1.284  1.00  0.00    -0.238 NA
ATOM     17  C   UNL     1      -7.457   1.092  -0.164  1.00  0.00     0.021 A 
ATOM     18  C   UNL     1      -7.423  -0.042   0.632  1.00  0.00     0.113 A 
BRANCH  11  19
ATOM     19  C   UNL     1      -1.563   0.882   1.215  1.00  0.00     0.017 A 
ATOM     20  C   UNL     1       2.563   0.636   0.018  1.00  0.00     0.066 C 
ATOM     21  C   UNL     1       1.139   0.719   0.473  1.00  0.00     0.037 A 
ATOM     22  C   UNL     1       0.493  -0.409   0.939  1.00  0.00     0.024 A 
ATOM     23  N   UNL     1       0.526   1.920   0.433  1.00  0.00    -0.261 NA
ATOM     24  C   UNL     1      -0.844  -0.309   1.321  1.00  0.00     0.014 A 
ATOM     25  C   UNL     1      -0.791   1.973   0.805  1.00  0.00     0.121 A 
ENDBRANCH  11  19
ENDBRANCH   9  10
ENDBRANCH   8   9
ENDBRANCH   5   8
ENDBRANCH   3   4
ENDBRANCH   2   3
ENDBRANCH   1   2
BRANCH   1  26
ATOM     26  C   UNL     1      -2.341  -0.288  -4.351  1.00  0.00     0.002 C 
BRANCH  26  27
ATOM     27  C   UNL     1      -3.679   0.304  -4.810  1.00  0.00     0.021 C 
BRANCH  27  28
ATOM     28  C   UNL     1      -3.741   1.820  -4.713  1.00  0.00     0.116 C 
BRANCH  28  29
ATOM     29  N   UNL     1      -2.859   2.450  -5.683  1.00  0.00    -0.352 N 
ATOM     30  C   UNL     1      -3.027   3.652  -6.332  1.00  0.00     0.251 C 
ATOM     31  H   UNL     1      -2.038   1.954  -5.903  1.00  0.00     0.163 HD
ATOM     32  O   UNL     1      -2.413   3.889  -7.358  1.00  0.00    -0.269 OA
BRANCH  30  33
ATOM     33  C   UNL     1      -3.906   4.673  -5.728  1.00  0.00     0.039 A 
ATOM     34  C   UNL     1      -4.545   5.623  -6.535  1.00  0.00     0.014 A 
ATOM     35  C   UNL     1      -3.979   4.755  -4.334  1.00  0.00     0.014 A 
ATOM     36  C   UNL     1      -5.226   6.673  -5.928  1.00  0.00     0.010 A 
ATOM     37  C   UNL     1      -4.730   5.727  -3.736  1.00  0.00     0.010 A 
ATOM     38  C   UNL     1      -5.274   6.725  -4.532  1.00  0.00    -0.014 A 
BRANCH  38  39
ATOM     39  C   UNL     1      -5.908   7.822  -3.832  1.00  0.00     0.031 A 
ATOM     40  C   UNL     1      -7.387   7.719  -3.773  1.00  0.00     0.074 A 
ATOM     41  C   UNL     1      -5.177   8.649  -3.057  1.00  0.00     0.049 A 
ATOM     42  N   UNL     1      -8.261   8.406  -4.431  1.00  0.00    -0.248 NA
ATOM     43  C   UNL     1      -7.958   6.563  -3.056  1.00  0.00     0.031 C 
ATOM     44  C   UNL     1      -3.749   8.560  -2.721  1.00  0.00     0.029 A 
ATOM     45  N   UNL     1      -5.592   9.694  -2.301  1.00  0.00    -0.354 N 
ATOM     46  C   UNL     1      -9.499   7.920  -4.017  1.00  0.00     0.074 A 
ATOM     47  C   UNL     1      -9.241   6.640  -3.412  1.00  0.00     0.031 C 
ATOM     48  C   UNL     1      -3.483   9.365  -1.666  1.00  0.00     0.029 A 
ATOM     49  C   UNL     1      -4.674  10.134  -1.357  1.00  0.00     0.049 A 
ATOM     50  H   UNL     1      -6.478  10.109  -2.413  1.00  0.00     0.167 HD
ATOM     51  C   UNL     1     -10.599   8.724  -3.932  1.00  0.00     0.034 A 
ATOM     52  C   UNL     1      -4.933  11.011  -0.352  1.00  0.00     0.034 A 
ATOM     53  C   UNL     1     -10.347  10.000  -4.545  1.00  0.00     0.049 A 
ATOM     54  C   UNL     1      -6.210  11.695  -0.687  1.00  0.00     0.074 A 
ATOM     55  C   UNL     1     -10.053  10.423  -5.824  1.00  0.00     0.029 A 
ATOM     56  N   UNL     1      -9.970  11.021  -3.703  1.00  0.00    -0.354 N 
ATOM     57  N   UNL     1      -6.356  12.505  -1.700  1.00  0.00    -0.248 NA
ATOM     58  C   UNL     1      -7.437  11.095  -0.181  1.00  0.00     0.031 C 
ATOM     59  C   UNL     1      -9.104  11.469  -5.654  1.00  0.00     0.029 A 
ATOM     60  C   UNL     1      -8.925  11.686  -4.285  1.00  0.00     0.049 A 
ATOM     61  H   UNL     1     -10.381  11.235  -2.834  1.00  0.00     0.167 HD
ATOM     62  C   UNL     1      -7.601  12.188  -2.224  1.00  0.00     0.074 A 
ATOM     63  C   UNL     1      -8.252  11.369  -1.203  1.00  0.00     0.031 C 
ATOM     64  C   UNL     1      -7.869  12.356  -3.551  1.00  0.00     0.034 A 
BRANCH  51  65
ATOM     65  C   UNL     1     -11.743   8.512  -2.969  1.00  0.00     0.023 A 
ATOM     66  C   UNL     1     -11.677   7.629  -1.876  1.00  0.00     0.031 A 
ATOM     67  C   UNL     1     -12.865   9.364  -2.998  1.00  0.00     0.131 A 
ATOM     68  C   UNL     1     -12.678   7.581  -0.899  1.00  0.00     0.055 A 
ATOM     69  C   UNL     1     -13.832   9.369  -1.984  1.00  0.00     0.041 A 
ATOM     70  F   UNL     1     -13.027  10.258  -3.986  1.00  0.00    -0.206 F 
ATOM     71  C   UNL     1     -13.744   8.472  -0.927  1.00  0.00     0.022 A 
BRANCH  68  72
ATOM     72  S   UNL     1     -12.583   6.362   0.441  1.00  0.00     0.124 S 
ATOM     73  O   UNL     1     -12.579   7.214   1.624  1.00  0.00    -0.237 OA
ATOM     74  O   UNL     1     -13.801   5.586   0.221  1.00  0.00    -0.237 OA
ATOM     75  O   UNL     1     -11.339   5.647   0.165  1.00  0.00    -0.744 OA
ENDBRANCH  68  72
ENDBRANCH  51  65
BRANCH  52  76
ATOM     76  C   UNL     1      -4.448  10.927   1.048  1.00  0.00     0.023 A 
ATOM     77  C   UNL     1      -4.119   9.676   1.601  1.00  0.00     0.031 A 
ATOM     78  C   UNL     1      -4.622  12.000   1.940  1.00  0.00     0.131 A 
ATOM     79  C   UNL     1      -4.041   9.509   2.991  1.00  0.00     0.055 A 
ATOM     80  C   UNL     1      -4.526  11.836   3.328  1.00  0.00     0.041 A 
ATOM     81  F   UNL     1      -4.965  13.215   1.483  1.00  0.00    -0.206 F 
ATOM     82  C   UNL     1      -4.251  10.580   3.861  1.00  0.00     0.022 A 
BRANCH  79  83
ATOM     83  S   UNL     1      -3.746   7.861   3.691  1.00  0.00     0.124 S 
ATOM     84  O   UNL     1      -2.792   8.142   4.761  1.00  0.00    -0.237 OA
ATOM     85  O   UNL     1      -5.085   7.482   4.126  1.00  0.00    -0.237 OA
ATOM     86  O   UNL     1      -3.205   7.107   2.563  1.00  0.00    -0.744 OA
ENDBRANCH  79  83
ENDBRANCH  52  76
BRANCH  64  87
ATOM     87  C   UNL     1      -6.880  13.112  -4.405  1.00  0.00     0.023 A 
ATOM     88  C   UNL     1      -7.393  14.190  -5.139  1.00  0.00     0.031 A 
ATOM     89  C   UNL     1      -5.597  12.639  -4.742  1.00  0.00     0.131 A 
ATOM     90  C   UNL     1      -6.680  14.704  -6.224  1.00  0.00     0.055 A 
ATOM     91  C   UNL     1      -4.853  13.205  -5.784  1.00  0.00     0.041 A 
ATOM     92  F   UNL     1      -5.071  11.562  -4.148  1.00  0.00    -0.206 F 
ATOM     93  C   UNL     1      -5.406  14.228  -6.548  1.00  0.00     0.022 A 
BRANCH  90  94
ATOM     94  S   UNL     1      -7.473  15.888  -7.339  1.00  0.00     0.124 S 
ATOM     95  O   UNL     1      -6.539  17.010  -7.314  1.00  0.00    -0.237 OA
ATOM     96  O   UNL     1      -7.522  15.140  -8.593  1.00  0.00    -0.237 OA
ATOM     97  O   UNL     1      -8.770  16.145  -6.718  1.00  0.00    -0.744 OA
ENDBRANCH  90  94
ENDBRANCH  64  87
ENDBRANCH  38  39
ENDBRANCH  30  33
ENDBRANCH  28  29
ENDBRANCH  27  28
ENDBRANCH  26  27
ENDBRANCH   1  26
TORSDOF 19
