REMARK SMILES O=C(NCCCCCCNC(=O)[C@@H]1CSCN1C(=O)c1cccc(Cl)c1)c1ccc(-c2c3nc(c(-c4cc(S(=O)(=O)[O-])ccc4F)c4ccc([nH]4)c(-c4cc(S(=O)(=O)[O-])ccc4F)c4nc(c(-c5cc(S(=O)(=O)[O-])ccc5F)c5ccc2[nH]5)C=C4)C=C3)cc1
REMARK SMILES IDX 6 1 5 2 4 3 3 4 1 5 2 6 27 8 28 9 89 10 29 11 88 12 30 13
REMARK SMILES IDX 31 14 32 15 82 16 33 17 87 18 81 19 83 20 34 21 86 22 80 23
REMARK SMILES IDX 79 24 35 26 67 27 47 28 66 29 48 30 51 31 65 32 84 33 49 34
REMARK SMILES IDX 50 35 64 37 85 38 52 39 36 40 37 41 45 42 38 43 44 44 46 45
REMARK SMILES IDX 43 46 39 47 40 48 41 49 42 50 68 51 69 52 77 53 70 54 76 55
REMARK SMILES IDX 78 56 75 57 71 58 72 59 73 60 74 61 53 62 54 63 62 64 55 65
REMARK SMILES IDX 61 66 63 67 60 68 56 69 57 70 58 71 59 72 7 73 8 74 9 75
REMARK SMILES IDX 10 76 11 77 12 79 13 80 14 81 17 82 15 83 16 84 18 85 19 86
REMARK SMILES IDX 20 87 21 88 26 89 22 90 24 91 23 92 25 93
REMARK H PARENT 3 7 83 25 51 36 10 78
REMARK Flexibility Score: inf
ROOT
ATOM      1  C   UNL     1       9.305 -12.326  -1.300  1.00  0.00     0.002 C 
ENDROOT
BRANCH   1   2
ATOM      2  C   UNL     1       8.902 -13.316  -0.206  1.00  0.00     0.021 C 
BRANCH   2   3
ATOM      3  C   UNL     1       7.587 -14.051  -0.428  1.00  0.00     0.116 C 
BRANCH   3   4
ATOM      4  N   UNL     1       7.595 -14.880  -1.621  1.00  0.00    -0.352 N 
ATOM      5  O   UNL     1       7.458 -16.781  -2.821  1.00  0.00    -0.269 OA
ATOM      6  C   UNL     1       7.266 -16.209  -1.758  1.00  0.00     0.251 C 
ATOM      7  H   UNL     1       7.876 -14.427  -2.449  1.00  0.00     0.163 HD
BRANCH   6   8
ATOM      8  C   UNL     1       6.698 -16.947  -0.604  1.00  0.00     0.039 A 
ATOM      9  C   UNL     1       5.678 -16.390   0.172  1.00  0.00     0.014 A 
ATOM     10  C   UNL     1       7.190 -18.221  -0.304  1.00  0.00     0.014 A 
ATOM     11  C   UNL     1       5.240 -17.049   1.316  1.00  0.00     0.010 A 
ATOM     12  C   UNL     1       6.691 -18.917   0.801  1.00  0.00     0.010 A 
ATOM     13  C   UNL     1       5.727 -18.327   1.633  1.00  0.00    -0.014 A 
BRANCH  13  14
ATOM     14  C   UNL     1       5.162 -19.053   2.800  1.00  0.00     0.031 A 
ATOM     15  C   UNL     1       6.009 -19.385   3.997  1.00  0.00     0.074 A 
ATOM     16  C   UNL     1       3.858 -19.396   2.774  1.00  0.00     0.049 A 
ATOM     17  N   UNL     1       5.674 -20.014   5.095  1.00  0.00    -0.248 NA
ATOM     18  C   UNL     1       7.417 -18.966   3.950  1.00  0.00     0.031 C 
ATOM     19  C   UNL     1       2.944 -19.129   1.660  1.00  0.00     0.029 A 
ATOM     20  N   UNL     1       3.072 -20.024   3.703  1.00  0.00    -0.354 N 
ATOM     21  C   UNL     1       6.829 -20.078   5.868  1.00  0.00     0.074 A 
ATOM     22  C   UNL     1       7.882 -19.454   5.092  1.00  0.00     0.031 C 
ATOM     23  C   UNL     1       1.715 -19.552   1.988  1.00  0.00     0.029 A 
ATOM     24  C   UNL     1       1.766 -20.182   3.302  1.00  0.00     0.049 A 
ATOM     25  H   UNL     1       3.409 -20.334   4.575  1.00  0.00     0.167 HD
ATOM     26  C   UNL     1       6.990 -20.603   7.109  1.00  0.00     0.034 A 
ATOM     27  C   UNL     1       0.728 -20.787   3.909  1.00  0.00     0.034 A 
ATOM     28  C   UNL     1       5.925 -21.225   7.863  1.00  0.00     0.049 A 
ATOM     29  C   UNL     1       0.944 -21.402   5.265  1.00  0.00     0.074 A 
ATOM     30  C   UNL     1       5.969 -21.760   9.139  1.00  0.00     0.029 A 
ATOM     31  N   UNL     1       4.625 -21.408   7.406  1.00  0.00    -0.354 N 
ATOM     32  N   UNL     1       2.039 -21.438   5.989  1.00  0.00    -0.248 NA
ATOM     33  C   UNL     1      -0.214 -22.055   5.885  1.00  0.00     0.031 C 
ATOM     34  C   UNL     1       4.721 -22.325   9.425  1.00  0.00     0.029 A 
ATOM     35  C   UNL     1       3.870 -22.077   8.360  1.00  0.00     0.049 A 
ATOM     36  H   UNL     1       4.287 -21.106   6.531  1.00  0.00     0.167 HD
ATOM     37  C   UNL     1       1.695 -22.105   7.160  1.00  0.00     0.074 A 
ATOM     38  C   UNL     1       0.287 -22.431   7.052  1.00  0.00     0.031 C 
ATOM     39  C   UNL     1       2.473 -22.418   8.228  1.00  0.00     0.034 A 
BRANCH  26  40
ATOM     40  C   UNL     1       8.378 -20.568   7.707  1.00  0.00     0.023 A 
ATOM     41  C   UNL     1       9.027 -19.358   8.011  1.00  0.00     0.031 A 
ATOM     42  C   UNL     1       9.071 -21.766   7.961  1.00  0.00     0.131 A 
ATOM     43  C   UNL     1      10.348 -19.370   8.487  1.00  0.00     0.055 A 
ATOM     44  C   UNL     1      10.357 -21.773   8.505  1.00  0.00     0.041 A 
ATOM     45  F   UNL     1       8.513 -22.953   7.674  1.00  0.00    -0.206 F 
ATOM     46  C   UNL     1      11.009 -20.570   8.758  1.00  0.00     0.022 A 
BRANCH  43  47
ATOM     47  S   UNL     1      11.239 -17.795   8.616  1.00  0.00     0.124 S 
ATOM     48  O   UNL     1      11.158 -17.295   7.246  1.00  0.00    -0.237 OA
ATOM     49  O   UNL     1      10.455 -17.068   9.608  1.00  0.00    -0.237 OA
ATOM     50  O   UNL     1      12.578 -18.191   9.048  1.00  0.00    -0.744 OA
ENDBRANCH  43  47
ENDBRANCH  26  40
BRANCH  27  51
ATOM     51  C   UNL     1      -0.593 -20.872   3.225  1.00  0.00     0.023 A 
ATOM     52  C   UNL     1      -1.725 -20.230   3.750  1.00  0.00     0.031 A 
ATOM     53  C   UNL     1      -0.744 -21.616   2.040  1.00  0.00     0.131 A 
ATOM     54  C   UNL     1      -2.966 -20.372   3.110  1.00  0.00     0.055 A 
ATOM     55  C   UNL     1      -1.968 -21.709   1.379  1.00  0.00     0.041 A 
ATOM     56  F   UNL     1       0.310 -22.245   1.495  1.00  0.00    -0.206 F 
ATOM     57  C   UNL     1      -3.092 -21.095   1.920  1.00  0.00     0.022 A 
BRANCH  54  58
ATOM     58  S   UNL     1      -4.435 -19.658   3.897  1.00  0.00     0.124 S 
ATOM     59  O   UNL     1      -4.427 -20.318   5.197  1.00  0.00    -0.237 OA
ATOM     60  O   UNL     1      -4.115 -18.234   3.897  1.00  0.00    -0.237 OA
ATOM     61  O   UNL     1      -5.524 -20.049   3.004  1.00  0.00    -0.744 OA
ENDBRANCH  54  58
ENDBRANCH  27  51
BRANCH  39  62
ATOM     62  C   UNL     1       1.793 -23.127   9.373  1.00  0.00     0.023 A 
ATOM     63  C   UNL     1       1.300 -24.438   9.241  1.00  0.00     0.031 A 
ATOM     64  C   UNL     1       1.607 -22.470  10.602  1.00  0.00     0.131 A 
ATOM     65  C   UNL     1       0.593 -25.027  10.299  1.00  0.00     0.055 A 
ATOM     66  C   UNL     1       0.956 -23.085  11.672  1.00  0.00     0.041 A 
ATOM     67  F   UNL     1       2.054 -21.217  10.781  1.00  0.00    -0.206 F 
ATOM     68  C   UNL     1       0.431 -24.365  11.519  1.00  0.00     0.022 A 
BRANCH  65  69
ATOM     69  S   UNL     1      -0.200 -26.636  10.027  1.00  0.00     0.124 S 
ATOM     70  O   UNL     1      -1.096 -26.348   8.912  1.00  0.00    -0.237 OA
ATOM     71  O   UNL     1       0.937 -27.498   9.726  1.00  0.00    -0.237 OA
ATOM     72  O   UNL     1      -0.865 -26.910  11.300  1.00  0.00    -0.744 OA
ENDBRANCH  65  69
ENDBRANCH  39  62
ENDBRANCH  13  14
ENDBRANCH   6   8
ENDBRANCH   3   4
ENDBRANCH   2   3
ENDBRANCH   1   2
BRANCH   1  73
ATOM     73  C   UNL     1       8.256 -11.282  -1.689  1.00  0.00     0.002 C 
BRANCH  73  74
ATOM     74  C   UNL     1       7.628 -10.487  -0.542  1.00  0.00     0.021 C 
BRANCH  74  75
ATOM     75  C   UNL     1       8.598  -9.793   0.407  1.00  0.00     0.116 C 
BRANCH  75  76
ATOM     76  N   UNL     1       9.406  -8.782  -0.241  1.00  0.00    -0.354 N 
ATOM     77  C   UNL     1       9.729  -7.530   0.203  1.00  0.00     0.243 C 
ATOM     78  H   UNL     1       9.773  -9.030  -1.120  1.00  0.00     0.163 HD
ATOM     79  O   UNL     1      10.516  -6.876  -0.486  1.00  0.00    -0.273 OA
BRANCH  77  80
ATOM     80  C   UNL     1       9.140  -6.993   1.533  1.00  0.00     0.185 C 
ATOM     81  C   UNL     1       9.365  -5.485   1.668  1.00  0.00     0.106 C 
ATOM     82  N   UNL     1       9.788  -7.617   2.693  1.00  0.00    -0.317 N 
ATOM     83  S   UNL     1      10.913  -5.276   2.614  1.00  0.00    -0.138 SA
ATOM     84  C   UNL     1      11.083  -7.043   2.988  1.00  0.00     0.190 C 
BRANCH  82  85
ATOM     85  C   UNL     1       9.104  -8.486   3.519  1.00  0.00     0.255 C 
ATOM     86  O   UNL     1       7.900  -8.703   3.438  1.00  0.00    -0.269 OA
BRANCH  85  87
ATOM     87  C   UNL     1       9.870  -9.226   4.536  1.00  0.00     0.041 A 
ATOM     88  C   UNL     1       9.767  -8.860   5.880  1.00  0.00     0.014 A 
ATOM     89  C   UNL     1      10.646 -10.318   4.141  1.00  0.00     0.034 A 
ATOM     90  C   UNL     1      10.471  -9.585   6.841  1.00  0.00     0.002 A 
ATOM     91  C   UNL     1      11.336 -11.039   5.111  1.00  0.00     0.041 A 
ATOM     92  C   UNL     1      11.254 -10.678   6.457  1.00  0.00     0.020 A 
ATOM     93  Cl  UNL     1      12.300 -12.382   4.638  1.00  0.00    -0.084 Cl
ENDBRANCH  85  87
ENDBRANCH  82  85
ENDBRANCH  77  80
ENDBRANCH  75  76
ENDBRANCH  74  75
ENDBRANCH  73  74
ENDBRANCH   1  73
TORSDOF 18
