REMARK SMILES O=C(N/N=C\c1ccccc1C(=O)NCCCCCCNC(=O)c1ccc(-c2c3nc(c(-c4cc(S(=O)(=O)[O-])ccc4F)c4ccc([nH]4)c(-c4cc(S(=O)(=O)[O-])ccc4F)c4nc(c(-c5cc(S(=O)(=O)[O-])ccc5F)c5ccc2[nH]5)C=C4)C=C3)cc1)C(=O)N1CCCCC1
REMARK SMILES IDX 17 1 16 2 15 3 14 4 12 5 13 6 11 8 6 9 7 10 8 11 10 12 9 13
REMARK SMILES IDX 5 14 4 15 3 16 1 17 2 18 87 20 88 21 89 22 90 23 94 24 91 25
REMARK SMILES IDX 93 26 92 27 18 28 19 29 20 30 21 31 22 32 23 34 24 35 25 36
REMARK SMILES IDX 86 37 26 38 85 39 27 40 28 41 29 42 79 43 30 44 84 45 78 46
REMARK SMILES IDX 80 47 31 48 83 49 77 50 76 51 32 53 64 54 44 55 63 56 45 57
REMARK SMILES IDX 48 58 62 59 81 60 46 61 47 62 61 64 82 65 49 66 33 67 34 68
REMARK SMILES IDX 42 69 35 70 41 71 43 72 40 73 36 74 37 75 38 76 39 77 65 78
REMARK SMILES IDX 66 79 74 80 67 81 73 82 75 83 72 84 68 85 69 86 70 87 71 88
REMARK SMILES IDX 50 89 51 90 59 91 52 92 58 93 60 94 57 95 53 96 54 97 55 98
REMARK SMILES IDX 56 99
REMARK H PARENT 14 7 3 19 21 33 80 52 48 63
REMARK Flexibility Score: inf
ROOT
ATOM      1  C   UNL     1       4.731  -4.678  -1.773  1.00  0.00     0.002 C 
ENDROOT
BRANCH   1   2
ATOM      2  C   UNL     1       5.084  -3.722  -0.644  1.00  0.00     0.021 C 
BRANCH   2   3
ATOM      3  C   UNL     1       4.085  -2.600  -0.487  1.00  0.00     0.116 C 
BRANCH   3   4
ATOM      4  N   UNL     1       3.289  -2.683   0.690  1.00  0.00    -0.352 N 
ATOM      5  C   UNL     1       3.074  -1.710   1.613  1.00  0.00     0.251 C 
ATOM      6  O   UNL     1       2.429  -2.006   2.618  1.00  0.00    -0.269 OA
ATOM      7  H   UNL     1       2.843  -3.545   0.855  1.00  0.00     0.163 HD
BRANCH   5   8
ATOM      8  C   UNL     1       3.574  -0.317   1.476  1.00  0.00     0.048 A 
ATOM      9  C   UNL     1       3.854   0.640  -0.045  1.00  0.00     0.007 A 
ATOM     10  C   UNL     1       3.876   2.497  -0.009  1.00  0.00     0.010 A 
ATOM     11  C   UNL     1       3.763   3.350   1.572  1.00  0.00     0.001 A 
ATOM     12  C   UNL     1       3.409   0.578   3.039  1.00  0.00     0.014 A 
ATOM     13  C   UNL     1       3.557   2.412   3.095  1.00  0.00     0.001 A 
BRANCH   9  14
ATOM     14  C   UNL     1       3.813   0.171  -1.398  1.00  0.00     0.142 C 
ATOM     15  N   UNL     1       2.705   0.279  -2.020  1.00  0.00    -0.180 NA
BRANCH  15  16
ATOM     16  N   UNL     1       1.703   0.832  -1.292  1.00  0.00    -0.239 N 
ATOM     17  O   UNL     1       0.417   1.786   0.175  1.00  0.00    -0.262 OA
ATOM     18  C   UNL     1       1.591   1.411  -0.011  1.00  0.00     0.329 C 
ATOM     19  H   UNL     1       0.845   0.827  -1.776  1.00  0.00     0.194 HD
BRANCH  18  20
ATOM     20  C   UNL     1       2.697   1.559   1.350  1.00  0.00     0.313 C 
ATOM     21  O   UNL     1       1.756   1.720   2.214  1.00  0.00    -0.263 OA
ATOM     22  N   UNL     1       4.682   1.460   1.593  1.00  0.00    -0.334 N 
ATOM     23  C   UNL     1       5.677   1.208   2.965  1.00  0.00     0.120 C 
ATOM     24  C   UNL     1       6.000   1.517   0.482  1.00  0.00     0.120 C 
ATOM     25  C   UNL     1       6.722   2.310   3.198  1.00  0.00     0.022 C 
ATOM     26  C   UNL     1       6.963   2.673   0.769  1.00  0.00     0.022 C 
ATOM     27  C   UNL     1       7.709   2.448   2.062  1.00  0.00     0.004 C 
ENDBRANCH  18  20
ENDBRANCH  15  16
ENDBRANCH   9  14
ENDBRANCH   5   8
ENDBRANCH   3   4
ENDBRANCH   2   3
ENDBRANCH   1   2
BRANCH   1  28
ATOM     28  C   UNL     1       4.445  -4.014  -3.130  1.00  0.00     0.002 C 
BRANCH  28  29
ATOM     29  C   UNL     1       5.561  -3.117  -3.671  1.00  0.00     0.021 C 
BRANCH  29  30
ATOM     30  C   UNL     1       6.920  -3.800  -3.754  1.00  0.00     0.116 C 
BRANCH  30  31
ATOM     31  N   UNL     1       6.817  -5.123  -4.351  1.00  0.00    -0.352 N 
ATOM     32  C   UNL     1       7.441  -5.635  -5.455  1.00  0.00     0.251 C 
ATOM     33  H   UNL     1       6.205  -5.743  -3.892  1.00  0.00     0.163 HD
ATOM     34  O   UNL     1       7.026  -6.665  -5.974  1.00  0.00    -0.269 OA
BRANCH  32  35
ATOM     35  C   UNL     1       8.607  -4.924  -6.002  1.00  0.00     0.039 A 
ATOM     36  C   UNL     1       8.725  -4.769  -7.383  1.00  0.00     0.014 A 
ATOM     37  C   UNL     1       9.573  -4.405  -5.136  1.00  0.00     0.014 A 
ATOM     38  C   UNL     1       9.799  -4.046  -7.895  1.00  0.00     0.010 A 
ATOM     39  C   UNL     1      10.585  -3.605  -5.641  1.00  0.00     0.010 A 
ATOM     40  C   UNL     1      10.718  -3.434  -7.026  1.00  0.00    -0.014 A 
BRANCH  40  41
ATOM     41  C   UNL     1      11.853  -2.636  -7.542  1.00  0.00     0.031 A 
ATOM     42  C   UNL     1      13.260  -3.083  -7.262  1.00  0.00     0.074 A 
ATOM     43  C   UNL     1      11.614  -1.488  -8.203  1.00  0.00     0.049 A 
ATOM     44  N   UNL     1      14.389  -2.486  -7.540  1.00  0.00    -0.248 NA
ATOM     45  C   UNL     1      13.413  -4.356  -6.539  1.00  0.00     0.031 C 
ATOM     46  C   UNL     1      10.287  -0.948  -8.508  1.00  0.00     0.029 A 
ATOM     47  N   UNL     1      12.477  -0.568  -8.737  1.00  0.00    -0.354 N 
ATOM     48  C   UNL     1      15.385  -3.306  -7.021  1.00  0.00     0.074 A 
ATOM     49  C   UNL     1      14.720  -4.393  -6.336  1.00  0.00     0.031 C 
ATOM     50  C   UNL     1      10.426   0.186  -9.211  1.00  0.00     0.029 A 
ATOM     51  C   UNL     1      11.847   0.487  -9.354  1.00  0.00     0.049 A 
ATOM     52  H   UNL     1      13.457  -0.654  -8.684  1.00  0.00     0.167 HD
ATOM     53  C   UNL     1      16.730  -3.180  -7.135  1.00  0.00     0.034 A 
ATOM     54  C   UNL     1      12.360   1.577  -9.957  1.00  0.00     0.034 A 
ATOM     55  C   UNL     1      17.368  -2.086  -7.823  1.00  0.00     0.049 A 
ATOM     56  C   UNL     1      13.859   1.733 -10.011  1.00  0.00     0.074 A 
ATOM     57  C   UNL     1      18.718  -1.866  -8.027  1.00  0.00     0.029 A 
ATOM     58  N   UNL     1      16.698  -1.019  -8.412  1.00  0.00    -0.354 N 
ATOM     59  N   UNL     1      14.792   0.935  -9.543  1.00  0.00    -0.248 NA
ATOM     60  C   UNL     1      14.374   2.934 -10.680  1.00  0.00     0.031 C 
ATOM     61  C   UNL     1      18.868  -0.629  -8.663  1.00  0.00     0.029 A 
ATOM     62  C   UNL     1      17.609  -0.122  -8.946  1.00  0.00     0.049 A 
ATOM     63  H   UNL     1      15.720  -0.916  -8.445  1.00  0.00     0.167 HD
ATOM     64  C   UNL     1      16.005   1.518  -9.903  1.00  0.00     0.074 A 
ATOM     65  C   UNL     1      15.682   2.729 -10.629  1.00  0.00     0.031 C 
ATOM     66  C   UNL     1      17.270   1.086  -9.663  1.00  0.00     0.034 A 
BRANCH  53  67
ATOM     67  C   UNL     1      17.582  -4.239  -6.476  1.00  0.00     0.023 A 
ATOM     68  C   UNL     1      17.480  -5.596  -6.836  1.00  0.00     0.031 A 
ATOM     69  C   UNL     1      18.468  -3.903  -5.438  1.00  0.00     0.131 A 
ATOM     70  C   UNL     1      18.172  -6.570  -6.103  1.00  0.00     0.055 A 
ATOM     71  C   UNL     1      19.233  -4.869  -4.780  1.00  0.00     0.041 A 
ATOM     72  F   UNL     1      18.592  -2.631  -5.029  1.00  0.00    -0.206 F 
ATOM     73  C   UNL     1      19.071  -6.214  -5.096  1.00  0.00     0.022 A 
BRANCH  70  74
ATOM     74  S   UNL     1      17.733  -8.312  -6.357  1.00  0.00     0.124 S 
ATOM     75  O   UNL     1      16.302  -8.300  -6.059  1.00  0.00    -0.237 OA
ATOM     76  O   UNL     1      18.093  -8.527  -7.753  1.00  0.00    -0.237 OA
ATOM     77  O   UNL     1      18.558  -9.019  -5.381  1.00  0.00    -0.744 OA
ENDBRANCH  70  74
ENDBRANCH  53  67
BRANCH  54  78
ATOM     78  C   UNL     1      11.461   2.601 -10.560  1.00  0.00     0.023 A 
ATOM     79  C   UNL     1      11.491   2.859 -11.939  1.00  0.00     0.031 A 
ATOM     80  C   UNL     1      10.586   3.365  -9.765  1.00  0.00     0.131 A 
ATOM     81  C   UNL     1      10.705   3.890 -12.475  1.00  0.00     0.055 A 
ATOM     82  C   UNL     1       9.759   4.346 -10.314  1.00  0.00     0.041 A 
ATOM     83  F   UNL     1      10.515   3.157  -8.441  1.00  0.00    -0.206 F 
ATOM     84  C   UNL     1       9.827   4.624 -11.675  1.00  0.00     0.022 A 
BRANCH  81  85
ATOM     85  S   UNL     1      10.925   4.325 -14.222  1.00  0.00     0.124 S 
ATOM     86  O   UNL     1      12.343   4.661 -14.265  1.00  0.00    -0.237 OA
ATOM     87  O   UNL     1      10.535   3.090 -14.893  1.00  0.00    -0.237 OA
ATOM     88  O   UNL     1      10.010   5.450 -14.408  1.00  0.00    -0.744 OA
ENDBRANCH  81  85
ENDBRANCH  54  78
BRANCH  66  89
ATOM     89  C   UNL     1      18.399   1.902 -10.247  1.00  0.00     0.023 A 
ATOM     90  C   UNL     1      18.668   3.214  -9.823  1.00  0.00     0.031 A 
ATOM     91  C   UNL     1      19.223   1.348 -11.244  1.00  0.00     0.131 A 
ATOM     92  C   UNL     1      19.696   3.948 -10.434  1.00  0.00     0.055 A 
ATOM     93  C   UNL     1      20.289   2.057 -11.797  1.00  0.00     0.041 A 
ATOM     94  F   UNL     1      19.009   0.100 -11.692  1.00  0.00    -0.206 F 
ATOM     95  C   UNL     1      20.522   3.371 -11.402  1.00  0.00     0.022 A 
BRANCH  92  96
ATOM     96  S   UNL     1      19.875   5.705 -10.020  1.00  0.00     0.124 S 
ATOM     97  O   UNL     1      18.563   6.235 -10.376  1.00  0.00    -0.237 OA
ATOM     98  O   UNL     1      20.178   5.660  -8.593  1.00  0.00    -0.237 OA
ATOM     99  O   UNL     1      20.976   6.148 -10.873  1.00  0.00    -0.744 OA
ENDBRANCH  92  96
ENDBRANCH  66  89
ENDBRANCH  40  41
ENDBRANCH  32  35
ENDBRANCH  30  31
ENDBRANCH  29  30
ENDBRANCH  28  29
ENDBRANCH   1  28
TORSDOF 19
