REMARK SMILES CC(C)Oc1ccc([C@H](O)[C@H](F)C(=O)NCCCCCCNC(=O)c2ccc(-c3c4nc(c(-c5cc(S(=O)(=O)[O-])ccc5F)c5ccc([nH]5)c(-c5cc(S(=O)(=O)[O-])ccc5F)c5nc(c(-c6cc(S(=O)(=O)[O-])ccc6F)c6ccc3[nH]6)C=C5)C=C4)cc2)cc1
REMARK SMILES IDX 18 1 17 2 16 3 15 4 13 5 14 6 11 8 12 9 9 10 8 11 5 12 6 13
REMARK SMILES IDX 89 14 7 15 88 16 4 17 2 18 1 19 3 20 10 21 19 23 20 24 21 25
REMARK SMILES IDX 22 26 23 27 24 29 25 30 26 31 87 32 27 33 86 34 28 35 29 36
REMARK SMILES IDX 30 37 80 38 31 39 85 40 79 41 81 42 32 43 84 44 78 45 77 46
REMARK SMILES IDX 33 48 65 49 45 50 64 51 46 52 49 53 63 54 82 55 47 56 48 57
REMARK SMILES IDX 62 59 83 60 50 61 34 62 35 63 43 64 36 65 42 66 44 67 41 68
REMARK SMILES IDX 37 69 38 70 39 71 40 72 66 73 67 74 75 75 68 76 74 77 76 78
REMARK SMILES IDX 73 79 69 80 70 81 71 82 72 83 51 84 52 85 60 86 53 87 59 88
REMARK SMILES IDX 61 89 58 90 54 91 55 92 56 93 57 94
REMARK H PARENT 15 7 10 22 22 28 81 47 49 58
REMARK Flexibility Score: inf
ROOT
ATOM      1  C   UNL     1      -4.139   3.432  -8.300  1.00  0.00     0.002 C 
ENDROOT
BRANCH   1   2
ATOM      2  C   UNL     1      -3.826   2.760  -6.961  1.00  0.00     0.021 C 
BRANCH   2   3
ATOM      3  C   UNL     1      -3.255   3.680  -5.890  1.00  0.00     0.116 C 
BRANCH   3   4
ATOM      4  N   UNL     1      -4.164   4.735  -5.491  1.00  0.00    -0.353 N 
ATOM      5  C   UNL     1      -4.440   5.189  -4.231  1.00  0.00     0.257 C 
ATOM      6  O   UNL     1      -5.203   6.153  -4.123  1.00  0.00    -0.272 OA
ATOM      7  H   UNL     1      -4.646   5.184  -6.222  1.00  0.00     0.163 HD
BRANCH   5   8
ATOM      8  C   UNL     1      -3.803   4.536  -3.005  1.00  0.00     0.288 C 
ATOM      9  F   UNL     1      -3.997   3.184  -2.998  1.00  0.00    -0.234 F 
BRANCH   8  10
ATOM     10  C   UNL     1      -2.305   4.905  -2.873  1.00  0.00     0.188 C 
BRANCH  10  11
ATOM     11  C   UNL     1      -1.364   3.709  -2.825  1.00  0.00    -0.016 A 
ATOM     12  C   UNL     1       0.235   1.382  -2.902  1.00  0.00     0.119 A 
ATOM     13  C   UNL     1      -0.569   1.651  -1.795  1.00  0.00     0.047 A 
ATOM     14  C   UNL     1       0.237   2.269  -3.970  1.00  0.00     0.047 A 
ATOM     15  C   UNL     1      -1.367   2.800  -1.755  1.00  0.00     0.010 A 
ATOM     16  C   UNL     1      -0.522   3.441  -3.915  1.00  0.00     0.010 A 
BRANCH  12  17
ATOM     17  O   UNL     1       0.885   0.183  -2.898  1.00  0.00    -0.491 OA
BRANCH  17  18
ATOM     18  C   UNL     1       2.284   0.133  -3.227  1.00  0.00     0.167 C 
ATOM     19  C   UNL     1       2.562   0.121  -4.727  1.00  0.00     0.052 C 
ATOM     20  C   UNL     1       3.133   1.151  -2.468  1.00  0.00     0.052 C 
ENDBRANCH  17  18
ENDBRANCH  12  17
ENDBRANCH  10  11
BRANCH  10  21
ATOM     21  O   UNL     1      -2.119   5.726  -1.704  1.00  0.00    -0.385 OA
ATOM     22  H   UNL     1      -2.360   5.220  -0.913  1.00  0.00     0.211 HD
ENDBRANCH  10  21
ENDBRANCH   8  10
ENDBRANCH   5   8
ENDBRANCH   3   4
ENDBRANCH   2   3
ENDBRANCH   1   2
BRANCH   1  23
ATOM     23  C   UNL     1      -2.971   4.167  -8.965  1.00  0.00     0.002 C 
BRANCH  23  24
ATOM     24  C   UNL     1      -1.708   3.334  -9.196  1.00  0.00     0.021 C 
BRANCH  24  25
ATOM     25  C   UNL     1      -1.914   2.041  -9.979  1.00  0.00     0.116 C 
BRANCH  25  26
ATOM     26  N   UNL     1      -2.455   2.275 -11.307  1.00  0.00    -0.352 N 
ATOM     27  C   UNL     1      -2.003   1.829 -12.524  1.00  0.00     0.251 C 
ATOM     28  H   UNL     1      -3.264   2.835 -11.339  1.00  0.00     0.163 HD
ATOM     29  O   UNL     1      -2.494   2.282 -13.557  1.00  0.00    -0.269 OA
BRANCH  27  30
ATOM     30  C   UNL     1      -0.911   0.833 -12.593  1.00  0.00     0.039 A 
ATOM     31  C   UNL     1       0.118   1.021 -13.519  1.00  0.00     0.014 A 
ATOM     32  C   UNL     1      -0.898  -0.283 -11.751  1.00  0.00     0.014 A 
ATOM     33  C   UNL     1       1.190   0.127 -13.556  1.00  0.00     0.010 A 
ATOM     34  C   UNL     1       0.208  -1.130 -11.737  1.00  0.00     0.010 A 
ATOM     35  C   UNL     1       1.265  -0.935 -12.640  1.00  0.00    -0.014 A 
BRANCH  35  36
ATOM     36  C   UNL     1       2.441  -1.846 -12.612  1.00  0.00     0.031 A 
ATOM     37  C   UNL     1       2.271  -3.312 -12.908  1.00  0.00     0.074 A 
ATOM     38  C   UNL     1       3.651  -1.363 -12.264  1.00  0.00     0.049 A 
ATOM     39  N   UNL     1       3.158  -4.273 -12.867  1.00  0.00    -0.248 NA
ATOM     40  C   UNL     1       0.918  -3.761 -13.271  1.00  0.00     0.031 C 
ATOM     41  C   UNL     1       3.934   0.033 -11.918  1.00  0.00     0.029 A 
ATOM     42  N   UNL     1       4.867  -1.986 -12.133  1.00  0.00    -0.354 N 
ATOM     43  C   UNL     1       2.471  -5.440 -13.184  1.00  0.00     0.074 A 
ATOM     44  C   UNL     1       1.082  -5.073 -13.357  1.00  0.00     0.031 C 
ATOM     45  C   UNL     1       5.241   0.162 -11.640  1.00  0.00     0.029 A 
ATOM     46  C   UNL     1       5.882  -1.146 -11.733  1.00  0.00     0.049 A 
ATOM     47  H   UNL     1       5.001  -2.946 -12.309  1.00  0.00     0.167 HD
ATOM     48  C   UNL     1       2.958  -6.697 -13.335  1.00  0.00     0.034 A 
ATOM     49  C   UNL     1       7.176  -1.401 -11.453  1.00  0.00     0.034 A 
ATOM     50  C   UNL     1       4.349  -7.043 -13.169  1.00  0.00     0.049 A 
ATOM     51  C   UNL     1       7.687  -2.813 -11.601  1.00  0.00     0.074 A 
ATOM     52  C   UNL     1       4.958  -8.271 -13.361  1.00  0.00     0.029 A 
ATOM     53  N   UNL     1       5.346  -6.167 -12.760  1.00  0.00    -0.354 N 
ATOM     54  N   UNL     1       7.034  -3.895 -11.959  1.00  0.00    -0.248 NA
ATOM     55  C   UNL     1       9.111  -3.037 -11.318  1.00  0.00     0.031 C 
ATOM     56  C   UNL     1       6.301  -8.158 -12.987  1.00  0.00     0.029 A 
ATOM     57  C   UNL     1       6.556  -6.837 -12.654  1.00  0.00     0.049 A 
ATOM     58  H   UNL     1       5.214  -5.209 -12.573  1.00  0.00     0.167 HD
ATOM     59  C   UNL     1       7.978  -4.919 -11.978  1.00  0.00     0.074 A 
ATOM     60  C   UNL     1       9.245  -4.322 -11.611  1.00  0.00     0.031 C 
ATOM     61  C   UNL     1       7.813  -6.233 -12.277  1.00  0.00     0.034 A 
BRANCH  48  62
ATOM     62  C   UNL     1       1.973  -7.796 -13.665  1.00  0.00     0.023 A 
ATOM     63  C   UNL     1       1.227  -7.792 -14.857  1.00  0.00     0.031 A 
ATOM     64  C   UNL     1       1.772  -8.861 -12.769  1.00  0.00     0.131 A 
ATOM     65  C   UNL     1       0.268  -8.790 -15.087  1.00  0.00     0.055 A 
ATOM     66  C   UNL     1       0.878  -9.897 -13.044  1.00  0.00     0.041 A 
ATOM     67  F   UNL     1       2.438  -8.909 -11.604  1.00  0.00    -0.206 F 
ATOM     68  C   UNL     1       0.108  -9.858 -14.202  1.00  0.00     0.022 A 
BRANCH  65  69
ATOM     69  S   UNL     1      -0.868  -8.594 -16.488  1.00  0.00     0.124 S 
ATOM     70  O   UNL     1      -1.493  -7.309 -16.183  1.00  0.00    -0.237 OA
ATOM     71  O   UNL     1       0.037  -8.610 -17.632  1.00  0.00    -0.237 OA
ATOM     72  O   UNL     1      -1.753  -9.752 -16.376  1.00  0.00    -0.744 OA
ENDBRANCH  65  69
ENDBRANCH  48  62
BRANCH  49  73
ATOM     73  C   UNL     1       8.079  -0.309 -10.983  1.00  0.00     0.023 A 
ATOM     74  C   UNL     1       9.206   0.074 -11.729  1.00  0.00     0.031 A 
ATOM     75  C   UNL     1       7.857   0.334  -9.752  1.00  0.00     0.131 A 
ATOM     76  C   UNL     1      10.096   1.029 -11.212  1.00  0.00     0.055 A 
ATOM     77  C   UNL     1       8.711   1.329  -9.272  1.00  0.00     0.041 A 
ATOM     78  F   UNL     1       6.795   0.009  -8.997  1.00  0.00    -0.206 F 
ATOM     79  C   UNL     1       9.848   1.670  -9.997  1.00  0.00     0.022 A 
BRANCH  76  80
ATOM     80  S   UNL     1      11.644   1.345 -12.104  1.00  0.00     0.124 S 
ATOM     81  O   UNL     1      12.235   0.013 -12.151  1.00  0.00    -0.237 OA
ATOM     82  O   UNL     1      11.159   1.879 -13.371  1.00  0.00    -0.237 OA
ATOM     83  O   UNL     1      12.338   2.306 -11.249  1.00  0.00    -0.744 OA
ENDBRANCH  76  80
ENDBRANCH  49  73
BRANCH  61  84
ATOM     84  C   UNL     1       9.048  -7.104 -12.268  1.00  0.00     0.023 A 
ATOM     85  C   UNL     1       9.768  -7.362 -11.089  1.00  0.00     0.031 A 
ATOM     86  C   UNL     1       9.514  -7.678 -13.465  1.00  0.00     0.131 A 
ATOM     87  C   UNL     1      10.946  -8.123 -11.141  1.00  0.00     0.055 A 
ATOM     88  C   UNL     1      10.647  -8.491 -13.499  1.00  0.00     0.041 A 
ATOM     89  F   UNL     1       8.870  -7.461 -14.623  1.00  0.00    -0.206 F 
ATOM     90  C   UNL     1      11.378  -8.707 -12.335  1.00  0.00     0.022 A 
BRANCH  87  91
ATOM     91  S   UNL     1      11.964  -8.257  -9.646  1.00  0.00     0.124 S 
ATOM     92  O   UNL     1      12.249  -6.857  -9.348  1.00  0.00    -0.237 OA
ATOM     93  O   UNL     1      11.068  -8.936  -8.717  1.00  0.00    -0.237 OA
ATOM     94  O   UNL     1      13.115  -9.045 -10.084  1.00  0.00    -0.744 OA
ENDBRANCH  87  91
ENDBRANCH  61  84
ENDBRANCH  35  36
ENDBRANCH  27  30
ENDBRANCH  25  26
ENDBRANCH  24  25
ENDBRANCH  23  24
ENDBRANCH   1  23
TORSDOF 21
