REMARK SMILES Cc1cc2c(c(C)c1Cl)C=C(C(=O)NCCCCCCNC(=O)c1ccc(-c3c4nc(c(-c5cc(S(=O)(=O)[O-])ccc5F)c5ccc([nH]5)c(-c5cc(S(=O)(=O)[O-])ccc5F)c5nc(c(-c6cc(S(=O)(=O)[O-])ccc6F)c6ccc3[nH]6)C=C5)C=C4)cc1)[C@@H](C(F)(F)F)O2
REMARK SMILES IDX 18 1 17 2 16 3 15 4 14 5 12 6 13 7 11 9 1 10 2 11 3 12 8 13
REMARK SMILES IDX 4 14 6 15 9 16 5 17 92 18 7 19 10 20 87 21 88 22 89 23 90 24
REMARK SMILES IDX 91 25 19 26 20 27 21 28 22 29 23 31 24 32 25 33 86 34 26 35
REMARK SMILES IDX 85 36 27 37 28 38 29 39 79 40 30 41 84 42 78 43 80 44 31 45
REMARK SMILES IDX 83 46 77 47 76 48 32 50 64 51 44 52 63 53 45 54 48 55 62 56
REMARK SMILES IDX 81 57 46 58 47 59 61 61 82 62 49 63 33 64 34 65 42 66 35 67
REMARK SMILES IDX 41 68 43 69 40 70 36 71 37 72 38 73 39 74 65 75 66 76 74 77
REMARK SMILES IDX 67 78 73 79 75 80 72 81 68 82 69 83 70 84 71 85 50 86 51 87
REMARK SMILES IDX 59 88 52 89 58 90 60 91 57 92 53 93 54 94 55 95 56 96
REMARK H PARENT 14 8 21 30 80 49 48 60
REMARK Flexibility Score: inf
ROOT
ATOM      1  C   UNL     1      -3.080  -2.601  11.072  1.00  0.00     0.002 C 
ENDROOT
BRANCH   1   2
ATOM      2  C   UNL     1      -1.658  -2.052  10.896  1.00  0.00     0.002 C 
BRANCH   2   3
ATOM      3  C   UNL     1      -1.098  -2.154   9.476  1.00  0.00     0.021 C 
BRANCH   3   4
ATOM      4  C   UNL     1      -1.986  -1.498   8.425  1.00  0.00     0.116 C 
BRANCH   4   5
ATOM      5  N   UNL     1      -1.748  -0.068   8.336  1.00  0.00    -0.352 N 
ATOM      6  C   UNL     1      -1.367   0.815   7.385  1.00  0.00     0.251 C 
ATOM      7  O   UNL     1      -1.312   1.994   7.750  1.00  0.00    -0.270 OA
ATOM      8  H   UNL     1      -1.905   0.378   9.200  1.00  0.00     0.163 HD
BRANCH   6   9
ATOM      9  C   UNL     1      -1.021   0.463   5.974  1.00  0.00     0.067 C 
ATOM     10  C   UNL     1       1.134   0.111  -0.159  1.00  0.00     0.046 C 
ATOM     11  C   UNL     1       0.685   0.540   1.210  1.00  0.00    -0.028 A 
ATOM     12  C   UNL     1       0.241  -0.444   2.094  1.00  0.00     0.052 A 
ATOM     13  C   UNL     1       0.735   1.878   1.653  1.00  0.00     0.047 A 
ATOM     14  C   UNL     1      -0.158  -0.109   3.382  1.00  0.00     0.128 A 
ATOM     15  C   UNL     1       0.328   2.233   2.965  1.00  0.00    -0.021 A 
ATOM     16  Cl  UNL     1       1.334   3.086   0.556  1.00  0.00    -0.084 Cl
ATOM     17  C   UNL     1      -0.112   1.210   3.840  1.00  0.00     0.022 A 
ATOM     18  O   UNL     1      -0.540  -1.167   4.149  1.00  0.00    -0.475 OA
ATOM     19  C   UNL     1       0.363   3.662   3.452  1.00  0.00     0.047 C 
ATOM     20  C   UNL     1      -0.477   1.451   5.240  1.00  0.00     0.026 C 
ATOM     21  C   UNL     1      -1.276  -0.881   5.361  1.00  0.00     0.314 C 
BRANCH  21  22
ATOM     22  C   UNL     1      -2.771  -1.151   5.118  1.00  0.00     0.429 C 
ATOM     23  F   UNL     1      -2.991  -2.475   4.928  1.00  0.00    -0.167 F 
ATOM     24  F   UNL     1      -3.546  -0.781   6.164  1.00  0.00    -0.167 F 
ATOM     25  F   UNL     1      -3.242  -0.499   4.031  1.00  0.00    -0.167 F 
ENDBRANCH  21  22
ENDBRANCH   6   9
ENDBRANCH   4   5
ENDBRANCH   3   4
ENDBRANCH   2   3
ENDBRANCH   1   2
BRANCH   1  26
ATOM     26  C   UNL     1      -3.308  -4.009  10.511  1.00  0.00     0.021 C 
BRANCH  26  27
ATOM     27  C   UNL     1      -2.382  -5.072  11.090  1.00  0.00     0.116 C 
BRANCH  27  28
ATOM     28  N   UNL     1      -2.531  -5.181  12.531  1.00  0.00    -0.352 N 
ATOM     29  C   UNL     1      -2.896  -6.268  13.281  1.00  0.00     0.251 C 
ATOM     30  H   UNL     1      -2.344  -4.359  13.040  1.00  0.00     0.163 HD
ATOM     31  O   UNL     1      -3.216  -6.120  14.458  1.00  0.00    -0.269 OA
BRANCH  29  32
ATOM     32  C   UNL     1      -2.913  -7.608  12.661  1.00  0.00     0.039 A 
ATOM     33  C   UNL     1      -3.998  -8.453  12.900  1.00  0.00     0.014 A 
ATOM     34  C   UNL     1      -1.853  -8.029  11.851  1.00  0.00     0.014 A 
ATOM     35  C   UNL     1      -4.040  -9.706  12.289  1.00  0.00     0.010 A 
ATOM     36  C   UNL     1      -1.931  -9.248  11.186  1.00  0.00     0.010 A 
ATOM     37  C   UNL     1      -3.019 -10.103  11.409  1.00  0.00    -0.014 A 
BRANCH  37  38
ATOM     38  C   UNL     1      -3.059 -11.428  10.743  1.00  0.00     0.031 A 
ATOM     39  C   UNL     1      -2.018 -12.462  11.076  1.00  0.00     0.074 A 
ATOM     40  C   UNL     1      -4.014 -11.689   9.829  1.00  0.00     0.049 A 
ATOM     41  N   UNL     1      -1.852 -13.656  10.571  1.00  0.00    -0.248 NA
ATOM     42  C   UNL     1      -1.022 -12.098  12.098  1.00  0.00     0.031 C 
ATOM     43  C   UNL     1      -5.065 -10.757   9.417  1.00  0.00     0.029 A 
ATOM     44  N   UNL     1      -4.261 -12.816   9.086  1.00  0.00    -0.354 N 
ATOM     45  C   UNL     1      -0.738 -14.186  11.213  1.00  0.00     0.074 A 
ATOM     46  C   UNL     1      -0.230 -13.160  12.096  1.00  0.00     0.031 C 
ATOM     47  C   UNL     1      -5.867 -11.364   8.527  1.00  0.00     0.029 A 
ATOM     48  C   UNL     1      -5.363 -12.709   8.269  1.00  0.00     0.049 A 
ATOM     49  H   UNL     1      -3.703 -13.625   9.134  1.00  0.00     0.167 HD
ATOM     50  C   UNL     1      -0.207 -15.426  11.096  1.00  0.00     0.034 A 
ATOM     51  C   UNL     1      -5.901 -13.593   7.405  1.00  0.00     0.034 A 
ATOM     52  C   UNL     1      -0.735 -16.445  10.227  1.00  0.00     0.049 A 
ATOM     53  C   UNL     1      -5.258 -14.947   7.254  1.00  0.00     0.074 A 
ATOM     54  C   UNL     1      -0.290 -17.744  10.060  1.00  0.00     0.029 A 
ATOM     55  N   UNL     1      -1.824 -16.284   9.382  1.00  0.00    -0.354 N 
ATOM     56  N   UNL     1      -4.208 -15.433   7.875  1.00  0.00    -0.248 NA
ATOM     57  C   UNL     1      -5.868 -15.870   6.288  1.00  0.00     0.031 C 
ATOM     58  C   UNL     1      -1.068 -18.348   9.069  1.00  0.00     0.029 A 
ATOM     59  C   UNL     1      -2.045 -17.450   8.669  1.00  0.00     0.049 A 
ATOM     60  H   UNL     1      -2.360 -15.462   9.302  1.00  0.00     0.167 HD
ATOM     61  C   UNL     1      -4.046 -16.727   7.388  1.00  0.00     0.074 A 
ATOM     62  C   UNL     1      -5.110 -16.948   6.431  1.00  0.00     0.031 C 
ATOM     63  C   UNL     1      -3.103 -17.649   7.708  1.00  0.00     0.034 A 
BRANCH  50  64
ATOM     64  C   UNL     1       1.009 -15.749  11.924  1.00  0.00     0.023 A 
ATOM     65  C   UNL     1       0.936 -15.847  13.324  1.00  0.00     0.031 A 
ATOM     66  C   UNL     1       2.247 -15.993  11.306  1.00  0.00     0.131 A 
ATOM     67  C   UNL     1       2.089 -16.144  14.064  1.00  0.00     0.055 A 
ATOM     68  C   UNL     1       3.377 -16.351  12.043  1.00  0.00     0.041 A 
ATOM     69  F   UNL     1       2.376 -15.893   9.973  1.00  0.00    -0.206 F 
ATOM     70  C   UNL     1       3.304 -16.422  13.431  1.00  0.00     0.022 A 
BRANCH  67  71
ATOM     71  S   UNL     1       1.999 -16.090  15.873  1.00  0.00     0.124 S 
ATOM     72  O   UNL     1       1.709 -14.678  16.111  1.00  0.00    -0.237 OA
ATOM     73  O   UNL     1       0.916 -17.022  16.165  1.00  0.00    -0.237 OA
ATOM     74  O   UNL     1       3.328 -16.527  16.296  1.00  0.00    -0.744 OA
ENDBRANCH  67  71
ENDBRANCH  50  64
BRANCH  51  75
ATOM     75  C   UNL     1      -7.111 -13.227   6.617  1.00  0.00     0.023 A 
ATOM     76  C   UNL     1      -8.338 -13.869   6.841  1.00  0.00     0.031 A 
ATOM     77  C   UNL     1      -7.056 -12.232   5.624  1.00  0.00     0.131 A 
ATOM     78  C   UNL     1      -9.457 -13.527   6.066  1.00  0.00     0.055 A 
ATOM     79  C   UNL     1      -8.181 -11.866   4.885  1.00  0.00     0.041 A 
ATOM     80  F   UNL     1      -5.907 -11.584   5.376  1.00  0.00    -0.206 F 
ATOM     81  C   UNL     1      -9.390 -12.521   5.099  1.00  0.00     0.022 A 
BRANCH  78  82
ATOM     82  S   UNL     1     -11.001 -14.446   6.312  1.00  0.00     0.124 S 
ATOM     83  O   UNL     1     -10.607 -15.796   5.927  1.00  0.00    -0.237 OA
ATOM     84  O   UNL     1     -11.260 -14.232   7.732  1.00  0.00    -0.237 OA
ATOM     85  O   UNL     1     -11.938 -13.786   5.405  1.00  0.00    -0.744 OA
ENDBRANCH  78  82
ENDBRANCH  51  75
BRANCH  63  86
ATOM     86  C   UNL     1      -3.188 -18.992   7.033  1.00  0.00     0.023 A 
ATOM     87  C   UNL     1      -2.890 -19.145   5.670  1.00  0.00     0.031 A 
ATOM     88  C   UNL     1      -3.517 -20.139   7.777  1.00  0.00     0.131 A 
ATOM     89  C   UNL     1      -2.953 -20.417   5.082  1.00  0.00     0.055 A 
ATOM     90  C   UNL     1      -3.529 -21.408   7.199  1.00  0.00     0.041 A 
ATOM     91  F   UNL     1      -3.805 -20.045   9.085  1.00  0.00    -0.206 F 
ATOM     92  C   UNL     1      -3.251 -21.552   5.842  1.00  0.00     0.022 A 
BRANCH  89  93
ATOM     93  S   UNL     1      -2.676 -20.565   3.297  1.00  0.00     0.124 S 
ATOM     94  O   UNL     1      -3.789 -19.794   2.753  1.00  0.00    -0.237 OA
ATOM     95  O   UNL     1      -1.352 -19.973   3.133  1.00  0.00    -0.237 OA
ATOM     96  O   UNL     1      -2.742 -22.006   3.058  1.00  0.00    -0.744 OA
ENDBRANCH  89  93
ENDBRANCH  63  86
ENDBRANCH  37  38
ENDBRANCH  29  32
ENDBRANCH  27  28
ENDBRANCH  26  27
ENDBRANCH   1  26
TORSDOF 17
