REMARK SMILES O=C(C[C@H]1C[C@H]2CC[C@@H](C1)N2C(=O)c1c[nH]c(=O)[nH]1)NCCCCCCNC(=O)c1ccc(-c2c3nc(c(-c4cc(S(=O)(=O)[O-])ccc4F)c4ccc([nH]4)c(-c4cc(S(=O)(=O)[O-])ccc4F)c4nc(c(-c5cc(S(=O)(=O)[O-])ccc5F)c5ccc2[nH]5)C=C4)C=C3)cc1
REMARK SMILES IDX 23 1 22 2 21 3 20 4 1 5 2 6 3 8 4 9 5 10 10 11 6 12 9 13
REMARK SMILES IDX 7 14 11 15 8 16 12 17 13 18 14 19 15 20 19 21 16 22 17 23
REMARK SMILES IDX 18 26 24 27 25 28 26 29 27 30 28 31 29 33 30 34 31 35 92 36
REMARK SMILES IDX 32 37 91 38 33 39 34 40 35 41 85 42 36 43 90 44 84 45 86 46
REMARK SMILES IDX 37 47 89 48 83 49 82 50 38 52 70 53 50 54 69 55 51 56 54 57
REMARK SMILES IDX 68 58 87 59 52 60 53 61 67 63 88 64 55 65 39 66 40 67 48 68
REMARK SMILES IDX 41 69 47 70 49 71 46 72 42 73 43 74 44 75 45 76 71 77 72 78
REMARK SMILES IDX 80 79 73 80 79 81 81 82 78 83 74 84 75 85 76 86 77 87 56 88
REMARK SMILES IDX 57 89 65 90 58 91 64 92 66 93 63 94 59 95 60 96 61 97 62 98
REMARK H PARENT 20 7 19 24 16 25 27 32 86 51 54 62
REMARK Flexibility Score: inf
ROOT
ATOM      1  C   UNL     1       3.776   3.793  -0.946  1.00  0.00     0.002 C 
ENDROOT
BRANCH   1   2
ATOM      2  C   UNL     1       2.257   3.599  -0.779  1.00  0.00     0.021 C 
BRANCH   2   3
ATOM      3  C   UNL     1       1.669   2.285  -1.316  1.00  0.00     0.116 C 
BRANCH   3   4
ATOM      4  N   UNL     1       2.366   1.148  -0.753  1.00  0.00    -0.356 N 
ATOM      5  O   UNL     1       0.611  -0.258  -0.332  1.00  0.00    -0.275 OA
ATOM      6  C   UNL     1       1.814  -0.023  -0.299  1.00  0.00     0.220 C 
ATOM      7  H   UNL     1       3.346   1.224  -0.689  1.00  0.00     0.163 HD
BRANCH   6   8
ATOM      8  C   UNL     1       2.806  -0.979   0.386  1.00  0.00     0.103 C 
BRANCH   8   9
ATOM      9  C   UNL     1       3.955  -1.613  -0.442  1.00  0.00     0.002 C 
ATOM     10  C   UNL     1       4.642  -0.712  -1.476  1.00  0.00     0.029 C 
ATOM     11  C   UNL     1       5.057  -2.279   0.455  1.00  0.00     0.029 C 
ATOM     12  C   UNL     1       5.754   0.159  -0.872  1.00  0.00     0.086 C 
ATOM     13  C   UNL     1       6.308  -1.399   0.755  1.00  0.00     0.086 C 
ATOM     14  C   UNL     1       5.499   0.848   0.489  1.00  0.00     0.027 C 
ATOM     15  N   UNL     1       6.783  -0.777  -0.481  1.00  0.00    -0.331 N 
ATOM     16  C   UNL     1       5.931  -0.161   1.563  1.00  0.00     0.027 C 
BRANCH  15  17
ATOM     17  C   UNL     1       8.051  -0.630  -0.988  1.00  0.00     0.272 C 
ATOM     18  O   UNL     1       8.325   0.160  -1.891  1.00  0.00    -0.267 OA
BRANCH  17  19
ATOM     19  C   UNL     1       9.145  -1.376  -0.347  1.00  0.00     0.125 A 
ATOM     20  C   UNL     1       9.245  -2.686  -0.085  1.00  0.00     0.119 A 
ATOM     21  N   UNL     1      10.318  -0.759   0.018  1.00  0.00    -0.302 N 
ATOM     22  N   UNL     1      10.472  -2.916   0.485  1.00  0.00    -0.312 N 
ATOM     23  C   UNL     1      11.183  -1.707   0.564  1.00  0.00     0.323 A 
ATOM     24  H   UNL     1      10.515   0.200  -0.088  1.00  0.00     0.172 HD
ATOM     25  H   UNL     1      10.802  -3.792   0.790  1.00  0.00     0.171 HD
ATOM     26  O   UNL     1      12.299  -1.535   1.010  1.00  0.00    -0.248 OA
ENDBRANCH  17  19
ENDBRANCH  15  17
ENDBRANCH   8   9
ENDBRANCH   6   8
ENDBRANCH   3   4
ENDBRANCH   2   3
ENDBRANCH   1   2
BRANCH   1  27
ATOM     27  C   UNL     1       4.326   3.713  -2.370  1.00  0.00     0.002 C 
BRANCH  27  28
ATOM     28  C   UNL     1       3.806   4.793  -3.315  1.00  0.00     0.021 C 
BRANCH  28  29
ATOM     29  C   UNL     1       4.040   6.227  -2.847  1.00  0.00     0.116 C 
BRANCH  29  30
ATOM     30  N   UNL     1       5.450   6.586  -2.781  1.00  0.00    -0.352 N 
ATOM     31  C   UNL     1       6.073   7.715  -3.263  1.00  0.00     0.251 C 
ATOM     32  H   UNL     1       6.035   5.934  -2.331  1.00  0.00     0.163 HD
ATOM     33  O   UNL     1       7.296   7.804  -3.235  1.00  0.00    -0.269 OA
BRANCH  31  34
ATOM     34  C   UNL     1       5.256   8.797  -3.857  1.00  0.00     0.039 A 
ATOM     35  C   UNL     1       5.607   9.299  -5.112  1.00  0.00     0.014 A 
ATOM     36  C   UNL     1       4.115   9.271  -3.203  1.00  0.00     0.014 A 
ATOM     37  C   UNL     1       4.761  10.207  -5.753  1.00  0.00     0.010 A 
ATOM     38  C   UNL     1       3.235  10.115  -3.875  1.00  0.00     0.010 A 
ATOM     39  C   UNL     1       3.541  10.580  -5.164  1.00  0.00    -0.014 A 
BRANCH  39  40
ATOM     40  C   UNL     1       2.557  11.421  -5.897  1.00  0.00     0.031 A 
ATOM     41  C   UNL     1       2.161  12.769  -5.364  1.00  0.00     0.074 A 
ATOM     42  C   UNL     1       1.960  10.932  -7.003  1.00  0.00     0.049 A 
ATOM     43  N   UNL     1       1.263  13.608  -5.815  1.00  0.00    -0.248 NA
ATOM     44  C   UNL     1       2.847  13.218  -4.144  1.00  0.00     0.031 C 
ATOM     45  C   UNL     1       2.220   9.615  -7.588  1.00  0.00     0.029 A 
ATOM     46  N   UNL     1       1.002  11.475  -7.823  1.00  0.00    -0.354 N 
ATOM     47  C   UNL     1       1.274  14.684  -4.934  1.00  0.00     0.074 A 
ATOM     48  C   UNL     1       2.213  14.351  -3.883  1.00  0.00     0.031 C 
ATOM     49  C   UNL     1       1.454   9.460  -8.679  1.00  0.00     0.029 A 
ATOM     50  C   UNL     1       0.611  10.640  -8.844  1.00  0.00     0.049 A 
ATOM     51  H   UNL     1       0.630  12.377  -7.693  1.00  0.00     0.167 HD
ATOM     52  C   UNL     1       0.585  15.851  -5.010  1.00  0.00     0.034 A 
ATOM     53  C   UNL     1      -0.335  10.792  -9.792  1.00  0.00     0.034 A 
ATOM     54  C   UNL     1      -0.357  16.159  -6.060  1.00  0.00     0.049 A 
ATOM     55  C   UNL     1      -1.126  12.073  -9.833  1.00  0.00     0.074 A 
ATOM     56  C   UNL     1      -1.071  17.327  -6.264  1.00  0.00     0.029 A 
ATOM     57  N   UNL     1      -0.734  15.285  -7.074  1.00  0.00    -0.354 N 
ATOM     58  N   UNL     1      -1.059  13.110  -9.030  1.00  0.00    -0.248 NA
ATOM     59  C   UNL     1      -2.112  12.208 -10.912  1.00  0.00     0.031 C 
ATOM     60  C   UNL     1      -1.935  17.132  -7.348  1.00  0.00     0.029 A 
ATOM     61  C   UNL     1      -1.701  15.873  -7.878  1.00  0.00     0.049 A 
ATOM     62  H   UNL     1      -0.368  14.381  -7.203  1.00  0.00     0.167 HD
ATOM     63  C   UNL     1      -1.985  14.028  -9.517  1.00  0.00     0.074 A 
ATOM     64  C   UNL     1      -2.579  13.430 -10.695  1.00  0.00     0.031 C 
ATOM     65  C   UNL     1      -2.312  15.255  -9.034  1.00  0.00     0.034 A 
BRANCH  52  66
ATOM     66  C   UNL     1       0.816  16.859  -3.906  1.00  0.00     0.023 A 
ATOM     67  C   UNL     1       2.091  17.398  -3.657  1.00  0.00     0.031 A 
ATOM     68  C   UNL     1      -0.235  17.248  -3.057  1.00  0.00     0.131 A 
ATOM     69  C   UNL     1       2.305  18.209  -2.533  1.00  0.00     0.055 A 
ATOM     70  C   UNL     1      -0.035  18.134  -1.995  1.00  0.00     0.041 A 
ATOM     71  F   UNL     1      -1.472  16.756  -3.228  1.00  0.00    -0.206 F 
ATOM     72  C   UNL     1       1.245  18.603  -1.714  1.00  0.00     0.022 A 
BRANCH  69  73
ATOM     73  S   UNL     1       4.014  18.584  -2.052  1.00  0.00     0.124 S 
ATOM     74  O   UNL     1       4.581  17.244  -1.913  1.00  0.00    -0.237 OA
ATOM     75  O   UNL     1       4.494  19.367  -3.184  1.00  0.00    -0.237 OA
ATOM     76  O   UNL     1       3.864  19.320  -0.799  1.00  0.00    -0.744 OA
ENDBRANCH  69  73
ENDBRANCH  52  66
BRANCH  53  77
ATOM     77  C   UNL     1      -0.606   9.688 -10.757  1.00  0.00     0.023 A 
ATOM     78  C   UNL     1      -0.343   9.834 -12.128  1.00  0.00     0.031 A 
ATOM     79  C   UNL     1      -1.145   8.465 -10.315  1.00  0.00     0.131 A 
ATOM     80  C   UNL     1      -0.646   8.786 -13.013  1.00  0.00     0.055 A 
ATOM     81  C   UNL     1      -1.397   7.409 -11.191  1.00  0.00     0.041 A 
ATOM     82  F   UNL     1      -1.411   8.272  -9.013  1.00  0.00    -0.206 F 
ATOM     83  C   UNL     1      -1.156   7.570 -12.552  1.00  0.00     0.022 A 
BRANCH  80  84
ATOM     84  S   UNL     1      -0.422   9.057 -14.793  1.00  0.00     0.124 S 
ATOM     85  O   UNL     1      -1.312  10.187 -15.036  1.00  0.00    -0.237 OA
ATOM     86  O   UNL     1       1.008   9.335 -14.880  1.00  0.00    -0.237 OA
ATOM     87  O   UNL     1      -0.845   7.790 -15.385  1.00  0.00    -0.744 OA
ENDBRANCH  80  84
ENDBRANCH  53  77
BRANCH  65  88
ATOM     88  C   UNL     1      -3.351  16.038  -9.801  1.00  0.00     0.023 A 
ATOM     89  C   UNL     1      -4.689  15.613  -9.876  1.00  0.00     0.031 A 
ATOM     90  C   UNL     1      -2.996  17.223 -10.471  1.00  0.00     0.131 A 
ATOM     91  C   UNL     1      -5.612  16.338 -10.647  1.00  0.00     0.055 A 
ATOM     92  C   UNL     1      -3.932  17.974 -11.184  1.00  0.00     0.041 A 
ATOM     93  F   UNL     1      -1.732  17.674 -10.439  1.00  0.00    -0.206 F 
ATOM     94  C   UNL     1      -5.246  17.525 -11.286  1.00  0.00     0.022 A 
BRANCH  91  95
ATOM     95  S   UNL     1      -7.277  15.658 -10.882  1.00  0.00     0.124 S 
ATOM     96  O   UNL     1      -6.993  14.372 -11.511  1.00  0.00    -0.237 OA
ATOM     97  O   UNL     1      -7.787  15.602  -9.516  1.00  0.00    -0.237 OA
ATOM     98  O   UNL     1      -7.930  16.640 -11.746  1.00  0.00    -0.744 OA
ENDBRANCH  91  95
ENDBRANCH  65  88
ENDBRANCH  39  40
ENDBRANCH  31  34
ENDBRANCH  29  30
ENDBRANCH  28  29
ENDBRANCH  27  28
ENDBRANCH   1  27
TORSDOF 19
