REMARK SMILES COc1cc(/C=C2/N=C(c3ccccc3)OC2=O)ccc1OCC(=O)NCCCCCCNC(=O)c1ccc(-c2c3nc(c(-c4cc(S(=O)(=O)[O-])ccc4F)c4ccc([nH]4)c(-c4cc(S(=O)(=O)[O-])ccc4F)c4nc(c(-c5cc(S(=O)(=O)[O-])ccc5F)c5ccc2[nH]5)C=C4)C=C3)cc1
REMARK SMILES IDX 29 1 28 2 27 3 26 4 24 5 25 6 23 8 22 9 21 10 3 11 4 12 5 13
REMARK SMILES IDX 20 14 19 15 2 16 1 17 6 18 7 19 8 20 17 21 9 22 16 23 18 24
REMARK SMILES IDX 10 25 11 26 15 27 12 28 14 29 13 30 30 31 31 32 32 33 33 34
REMARK SMILES IDX 34 35 35 37 36 38 37 39 98 40 38 41 97 42 39 43 40 44 41 45
REMARK SMILES IDX 91 46 42 47 96 48 90 49 92 50 43 51 95 52 89 53 88 54 44 56
REMARK SMILES IDX 76 57 56 58 75 59 57 60 60 61 74 62 93 63 58 64 59 65 73 67
REMARK SMILES IDX 94 68 61 69 45 70 46 71 54 72 47 73 53 74 55 75 52 76 48 77
REMARK SMILES IDX 49 78 50 79 51 80 77 81 78 82 86 83 79 84 85 85 87 86 84 87
REMARK SMILES IDX 80 88 81 89 82 90 83 91 62 92 63 93 71 94 64 95 70 96 72 97
REMARK SMILES IDX 69 98 65 99 66 100 67 101 68 102
REMARK H PARENT 26 7 33 36 92 55 60 66
REMARK Flexibility Score: inf
ROOT
ATOM      1  C   UNL     1       1.983   3.684   3.141  1.00  0.00     0.002 C 
ENDROOT
BRANCH   1   2
ATOM      2  C   UNL     1       2.914   3.353   1.967  1.00  0.00     0.021 C 
BRANCH   2   3
ATOM      3  C   UNL     1       3.447   1.922   1.933  1.00  0.00     0.116 C 
BRANCH   3   4
ATOM      4  N   UNL     1       2.392   0.931   1.946  1.00  0.00    -0.353 N 
ATOM      5  C   UNL     1       2.161  -0.079   1.063  1.00  0.00     0.257 C 
ATOM      6  O   UNL     1       1.388  -0.976   1.414  1.00  0.00    -0.271 OA
ATOM      7  H   UNL     1       1.756   0.997   2.694  1.00  0.00     0.163 HD
BRANCH   5   8
ATOM      8  C   UNL     1       2.897  -0.132  -0.282  1.00  0.00     0.329 C 
BRANCH   8   9
ATOM      9  O   UNL     1       3.160   1.081  -0.954  1.00  0.00    -0.480 OA
BRANCH   9  10
ATOM     10  C   UNL     1       2.189   1.779  -1.607  1.00  0.00     0.161 A 
ATOM     11  C   UNL     1       0.912   1.373  -2.005  1.00  0.00     0.161 A 
ATOM     12  C   UNL     1       0.098   2.241  -2.758  1.00  0.00     0.058 A 
ATOM     13  C   UNL     1       0.558   3.514  -3.123  1.00  0.00    -0.019 A 
ATOM     14  C   UNL     1       2.621   3.068  -1.950  1.00  0.00     0.051 A 
ATOM     15  C   UNL     1       1.819   3.931  -2.696  1.00  0.00     0.012 A 
BRANCH  11  16
ATOM     16  O   UNL     1       0.500   0.076  -1.855  1.00  0.00    -0.493 OA
ATOM     17  C   UNL     1      -0.480  -0.077  -0.830  1.00  0.00     0.278 C 
ENDBRANCH  11  16
BRANCH  13  18
ATOM     18  C   UNL     1      -0.209   4.388  -4.015  1.00  0.00     0.044 C 
ATOM     19  C   UNL     1       0.004   4.506  -5.334  1.00  0.00     0.153 C 
ATOM     20  N   UNL     1      -0.689   5.373  -6.147  1.00  0.00    -0.205 NA
ATOM     21  C   UNL     1       0.989   3.725  -6.147  1.00  0.00     0.363 C 
ATOM     22  C   UNL     1      -0.212   5.101  -7.318  1.00  0.00     0.231 C 
ATOM     23  O   UNL     1       0.750   4.158  -7.416  1.00  0.00    -0.402 OA
ATOM     24  O   UNL     1       1.809   2.890  -5.818  1.00  0.00    -0.244 OA
BRANCH  22  25
ATOM     25  C   UNL     1      -0.558   5.722  -8.595  1.00  0.00     0.037 A 
ATOM     26  C   UNL     1      -0.590   7.115  -8.695  1.00  0.00     0.014 A 
ATOM     27  C   UNL     1      -0.859   4.923  -9.704  1.00  0.00     0.014 A 
ATOM     28  C   UNL     1      -0.914   7.710  -9.915  1.00  0.00     0.001 A 
ATOM     29  C   UNL     1      -1.202   5.525 -10.915  1.00  0.00     0.001 A 
ATOM     30  C   UNL     1      -1.225   6.916 -11.021  1.00  0.00     0.000 A 
ENDBRANCH  22  25
ENDBRANCH  13  18
ENDBRANCH   9  10
ENDBRANCH   8   9
ENDBRANCH   5   8
ENDBRANCH   3   4
ENDBRANCH   2   3
ENDBRANCH   1   2
BRANCH   1  31
ATOM     31  C   UNL     1       2.480   3.275   4.530  1.00  0.00     0.002 C 
BRANCH  31  32
ATOM     32  C   UNL     1       3.882   3.757   4.900  1.00  0.00     0.021 C 
BRANCH  32  33
ATOM     33  C   UNL     1       4.084   5.263   4.818  1.00  0.00     0.116 C 
BRANCH  33  34
ATOM     34  N   UNL     1       3.269   5.978   5.784  1.00  0.00    -0.352 N 
ATOM     35  C   UNL     1       3.663   6.883   6.741  1.00  0.00     0.251 C 
ATOM     36  H   UNL     1       2.304   5.789   5.750  1.00  0.00     0.163 HD
ATOM     37  O   UNL     1       2.872   7.235   7.610  1.00  0.00    -0.269 OA
BRANCH  35  38
ATOM     38  C   UNL     1       5.050   7.400   6.731  1.00  0.00     0.039 A 
ATOM     39  C   UNL     1       5.755   7.470   7.933  1.00  0.00     0.014 A 
ATOM     40  C   UNL     1       5.657   7.801   5.537  1.00  0.00     0.014 A 
ATOM     41  C   UNL     1       7.090   7.881   7.928  1.00  0.00     0.010 A 
ATOM     42  C   UNL     1       7.010   8.128   5.522  1.00  0.00     0.010 A 
ATOM     43  C   UNL     1       7.742   8.177   6.718  1.00  0.00    -0.014 A 
BRANCH  43  44
ATOM     44  C   UNL     1       9.181   8.550   6.689  1.00  0.00     0.031 A 
ATOM     45  C   UNL     1       9.597   9.910   6.194  1.00  0.00     0.074 A 
ATOM     46  C   UNL     1      10.115   7.655   7.070  1.00  0.00     0.049 A 
ATOM     47  N   UNL     1      10.799  10.398   6.026  1.00  0.00    -0.248 NA
ATOM     48  C   UNL     1       8.516  10.833   5.813  1.00  0.00     0.031 C 
ATOM     49  C   UNL     1       9.839   6.296   7.543  1.00  0.00     0.029 A 
ATOM     50  N   UNL     1      11.484   7.747   7.117  1.00  0.00    -0.354 N 
ATOM     51  C   UNL     1      10.620  11.685   5.528  1.00  0.00     0.074 A 
ATOM     52  C   UNL     1       9.196  11.868   5.345  1.00  0.00     0.031 C 
ATOM     53  C   UNL     1      10.997   5.697   7.861  1.00  0.00     0.029 A 
ATOM     54  C   UNL     1      12.103   6.600   7.562  1.00  0.00     0.049 A 
ATOM     55  H   UNL     1      11.977   8.558   6.856  1.00  0.00     0.167 HD
ATOM     56  C   UNL     1      11.552  12.637   5.279  1.00  0.00     0.034 A 
ATOM     57  C   UNL     1      13.412   6.305   7.696  1.00  0.00     0.034 A 
ATOM     58  C   UNL     1      12.969  12.441   5.463  1.00  0.00     0.049 A 
ATOM     59  C   UNL     1      14.434   7.359   7.340  1.00  0.00     0.074 A 
ATOM     60  C   UNL     1      13.999  13.342   5.254  1.00  0.00     0.029 A 
ATOM     61  N   UNL     1      13.559  11.260   5.895  1.00  0.00    -0.354 N 
ATOM     62  N   UNL     1      14.243   8.584   6.904  1.00  0.00    -0.248 NA
ATOM     63  C   UNL     1      15.848   6.996   7.505  1.00  0.00     0.031 C 
ATOM     64  C   UNL     1      15.211  12.687   5.489  1.00  0.00     0.029 A 
ATOM     65  C   UNL     1      14.938  11.403   5.931  1.00  0.00     0.049 A 
ATOM     66  H   UNL     1      13.070  10.441   6.139  1.00  0.00     0.167 HD
ATOM     67  C   UNL     1      15.512   9.146   6.786  1.00  0.00     0.074 A 
ATOM     68  C   UNL     1      16.455   8.135   7.214  1.00  0.00     0.031 C 
ATOM     69  C   UNL     1      15.868  10.386   6.364  1.00  0.00     0.034 A 
BRANCH  56  70
ATOM     70  C   UNL     1      11.063  13.973   4.771  1.00  0.00     0.023 A 
ATOM     71  C   UNL     1      10.216  14.785   5.545  1.00  0.00     0.031 A 
ATOM     72  C   UNL     1      11.434  14.438   3.497  1.00  0.00     0.131 A 
ATOM     73  C   UNL     1       9.710  15.980   5.014  1.00  0.00     0.055 A 
ATOM     74  C   UNL     1      10.997  15.671   3.008  1.00  0.00     0.041 A 
ATOM     75  F   UNL     1      12.221  13.698   2.701  1.00  0.00    -0.206 F 
ATOM     76  C   UNL     1      10.118  16.444   3.762  1.00  0.00     0.022 A 
BRANCH  73  77
ATOM     77  S   UNL     1       8.402  16.845   5.923  1.00  0.00     0.124 S 
ATOM     78  O   UNL     1       7.360  15.822   5.984  1.00  0.00    -0.237 OA
ATOM     79  O   UNL     1       9.054  17.168   7.186  1.00  0.00    -0.237 OA
ATOM     80  O   UNL     1       8.091  17.990   5.070  1.00  0.00    -0.744 OA
ENDBRANCH  73  77
ENDBRANCH  56  70
BRANCH  57  81
ATOM     81  C   UNL     1      13.851   4.957   8.166  1.00  0.00     0.023 A 
ATOM     82  C   UNL     1      14.626   4.814   9.329  1.00  0.00     0.031 A 
ATOM     83  C   UNL     1      13.579   3.800   7.414  1.00  0.00     0.131 A 
ATOM     84  C   UNL     1      15.166   3.563   9.662  1.00  0.00     0.055 A 
ATOM     85  C   UNL     1      14.056   2.543   7.792  1.00  0.00     0.041 A 
ATOM     86  F   UNL     1      12.845   3.874   6.293  1.00  0.00    -0.206 F 
ATOM     87  C   UNL     1      14.873   2.423   8.911  1.00  0.00     0.022 A 
BRANCH  84  88
ATOM     88  S   UNL     1      16.377   3.475  11.011  1.00  0.00     0.124 S 
ATOM     89  O   UNL     1      17.375   4.444  10.573  1.00  0.00    -0.237 OA
ATOM     90  O   UNL     1      15.572   3.859  12.165  1.00  0.00    -0.237 OA
ATOM     91  O   UNL     1      16.808   2.079  10.988  1.00  0.00    -0.744 OA
ENDBRANCH  84  88
ENDBRANCH  57  81
BRANCH  69  92
ATOM     92  C   UNL     1      17.337  10.735   6.407  1.00  0.00     0.023 A 
ATOM     93  C   UNL     1      18.282  10.079   5.599  1.00  0.00     0.031 A 
ATOM     94  C   UNL     1      17.799  11.736   7.281  1.00  0.00     0.131 A 
ATOM     95  C   UNL     1      19.645  10.385   5.727  1.00  0.00     0.055 A 
ATOM     96  C   UNL     1      19.147  12.087   7.353  1.00  0.00     0.041 A 
ATOM     97  F   UNL     1      16.943  12.395   8.079  1.00  0.00    -0.206 F 
ATOM     98  C   UNL     1      20.081  11.399   6.584  1.00  0.00     0.022 A 
BRANCH  95  99
ATOM     99  S   UNL     1      20.854   9.369   4.835  1.00  0.00     0.124 S 
ATOM    100  O   UNL     1      20.562   8.033   5.346  1.00  0.00    -0.237 OA
ATOM    101  O   UNL     1      20.496   9.610   3.441  1.00  0.00    -0.237 OA
ATOM    102  O   UNL     1      22.141   9.924   5.249  1.00  0.00    -0.744 OA
ENDBRANCH  95  99
ENDBRANCH  69  92
ENDBRANCH  43  44
ENDBRANCH  35  38
ENDBRANCH  33  34
ENDBRANCH  32  33
ENDBRANCH  31  32
ENDBRANCH   1  31
TORSDOF 21
