REMARK SMILES CC[NH2+][C@]1(C(=O)NCCCCCCNC(=O)c2ccc(-c3c4nc(c(-c5cc(S(=O)(=O)[O-])ccc5F)c5ccc([nH]5)c(-c5cc(S(=O)(=O)[O-])ccc5F)c5nc(c(-c6cc(S(=O)(=O)[O-])ccc6F)c6ccc3[nH]6)C=C5)C=C4)cc2)CC[C@@H](Sc2ccccc2C)C1
REMARK SMILES IDX 11 1 10 2 9 3 8 4 7 5 5 6 6 7 4 9 80 10 91 11 81 12 82 13
REMARK SMILES IDX 3 14 2 17 1 18 83 19 84 20 85 21 89 22 86 23 88 24 90 25
REMARK SMILES IDX 87 26 12 27 13 28 14 29 15 30 16 32 17 33 18 34 79 35 19 36
REMARK SMILES IDX 78 37 20 38 21 39 22 40 72 41 23 42 77 43 71 44 73 45 24 46
REMARK SMILES IDX 76 47 70 48 69 49 25 51 57 52 37 53 56 54 38 55 41 56 55 57
REMARK SMILES IDX 74 58 39 59 40 60 54 62 75 63 42 64 26 65 27 66 35 67 28 68
REMARK SMILES IDX 34 69 36 70 33 71 29 72 30 73 31 74 32 75 58 76 59 77 67 78
REMARK SMILES IDX 60 79 66 80 68 81 65 82 61 83 62 84 63 85 64 86 43 87 44 88
REMARK SMILES IDX 52 89 45 90 51 91 53 92 50 93 46 94 47 95 48 96 49 97
REMARK H PARENT 7 8 3 15 3 16 14 31 73 50 41 61
REMARK Flexibility Score: inf
ROOT
ATOM      1  C   UNL     1      -0.586   1.691  -2.039  1.00  0.00     0.002 C 
ENDROOT
BRANCH   1   2
ATOM      2  C   UNL     1      -1.199   0.995  -0.820  1.00  0.00     0.002 C 
BRANCH   2   3
ATOM      3  C   UNL     1      -1.483  -0.498  -1.013  1.00  0.00     0.021 C 
BRANCH   3   4
ATOM      4  C   UNL     1      -0.242  -1.312  -1.374  1.00  0.00     0.116 C 
BRANCH   4   5
ATOM      5  N   UNL     1       0.606  -1.482  -0.215  1.00  0.00    -0.351 N 
ATOM      6  C   UNL     1       0.806  -2.579   0.574  1.00  0.00     0.281 C 
ATOM      7  O   UNL     1       1.453  -2.400   1.609  1.00  0.00    -0.268 OA
ATOM      8  H   UNL     1       1.119  -0.683   0.045  1.00  0.00     0.163 HD
BRANCH   6   9
ATOM      9  C   UNL     1       0.246  -3.976   0.140  1.00  0.00     0.176 C 
ATOM     10  C   UNL     1       1.020  -4.455  -1.106  1.00  0.00     0.080 C 
ATOM     11  C   UNL     1       0.657  -5.043   1.175  1.00  0.00     0.094 C 
ATOM     12  C   UNL     1       1.011  -5.978  -1.069  1.00  0.00     0.022 C 
ATOM     13  C   UNL     1       0.854  -6.348   0.405  1.00  0.00     0.058 C 
BRANCH   9  14
ATOM     14  N   UNL     1      -1.233  -3.933   0.148  1.00  0.00    -0.334 N 
ATOM     15  H   UNL     1      -1.540  -4.420   0.990  1.00  0.00     0.347 HD
ATOM     16  H   UNL     1      -1.446  -2.938   0.089  1.00  0.00     0.347 HD
BRANCH  14  17
ATOM     17  C   UNL     1      -1.966  -4.510  -0.966  1.00  0.00     0.257 C 
ATOM     18  C   UNL     1      -3.421  -4.057  -0.902  1.00  0.00     0.071 C 
ENDBRANCH  14  17
ENDBRANCH   9  14
BRANCH  13  19
ATOM     19  S   UNL     1       2.157  -7.425   1.145  1.00  0.00    -0.122 SA
BRANCH  19  20
ATOM     20  C   UNL     1       3.699  -6.666   0.628  1.00  0.00     0.010 A 
ATOM     21  C   UNL     1       4.327  -7.240  -0.492  1.00  0.00     0.015 A 
ATOM     22  C   UNL     1       4.366  -5.641   1.326  1.00  0.00    -0.038 A 
ATOM     23  C   UNL     1       5.558  -6.771  -0.956  1.00  0.00     0.001 A 
ATOM     24  C   UNL     1       5.586  -5.150   0.819  1.00  0.00     0.004 A 
ATOM     25  C   UNL     1       3.881  -5.018   2.607  1.00  0.00     0.045 C 
ATOM     26  C   UNL     1       6.180  -5.712  -0.309  1.00  0.00     0.000 A 
ENDBRANCH  19  20
ENDBRANCH  13  19
ENDBRANCH   6   9
ENDBRANCH   4   5
ENDBRANCH   3   4
ENDBRANCH   2   3
ENDBRANCH   1   2
BRANCH   1  27
ATOM     27  C   UNL     1      -1.354   1.485  -3.348  1.00  0.00     0.021 C 
BRANCH  27  28
ATOM     28  C   UNL     1      -2.809   1.939  -3.300  1.00  0.00     0.116 C 
BRANCH  28  29
ATOM     29  N   UNL     1      -2.915   3.365  -3.040  1.00  0.00    -0.352 N 
ATOM     30  C   UNL     1      -3.514   4.342  -3.797  1.00  0.00     0.251 C 
ATOM     31  H   UNL     1      -2.498   3.675  -2.204  1.00  0.00     0.163 HD
ATOM     32  O   UNL     1      -3.290   5.522  -3.556  1.00  0.00    -0.269 OA
BRANCH  30  33
ATOM     33  C   UNL     1      -4.409   3.956  -4.909  1.00  0.00     0.039 A 
ATOM     34  C   UNL     1      -4.293   4.621  -6.131  1.00  0.00     0.014 A 
ATOM     35  C   UNL     1      -5.356   2.941  -4.745  1.00  0.00     0.014 A 
ATOM     36  C   UNL     1      -5.089   4.225  -7.208  1.00  0.00     0.010 A 
ATOM     37  C   UNL     1      -6.091   2.497  -5.839  1.00  0.00     0.010 A 
ATOM     38  C   UNL     1      -5.967   3.136  -7.082  1.00  0.00    -0.014 A 
BRANCH  38  39
ATOM     39  C   UNL     1      -6.752   2.647  -8.245  1.00  0.00     0.031 A 
ATOM     40  C   UNL     1      -8.254   2.695  -8.223  1.00  0.00     0.074 A 
ATOM     41  C   UNL     1      -6.108   2.103  -9.296  1.00  0.00     0.049 A 
ATOM     42  N   UNL     1      -9.110   2.267  -9.115  1.00  0.00    -0.248 NA
ATOM     43  C   UNL     1      -8.874   3.269  -7.021  1.00  0.00     0.031 C 
ATOM     44  C   UNL     1      -4.655   1.957  -9.409  1.00  0.00     0.029 A 
ATOM     45  N   UNL     1      -6.587   1.565 -10.463  1.00  0.00    -0.354 N 
ATOM     46  C   UNL     1     -10.370   2.513  -8.581  1.00  0.00     0.074 A 
ATOM     47  C   UNL     1     -10.159   3.058  -7.255  1.00  0.00     0.031 C 
ATOM     48  C   UNL     1      -4.361   1.392 -10.590  1.00  0.00     0.029 A 
ATOM     49  C   UNL     1      -5.602   1.088 -11.296  1.00  0.00     0.049 A 
ATOM     50  H   UNL     1      -7.546   1.524 -10.684  1.00  0.00     0.167 HD
ATOM     51  C   UNL     1     -11.587   2.326  -9.152  1.00  0.00     0.034 A 
ATOM     52  C   UNL     1      -5.686   0.461 -12.486  1.00  0.00     0.034 A 
ATOM     53  C   UNL     1     -11.771   1.774 -10.474  1.00  0.00     0.049 A 
ATOM     54  C   UNL     1      -7.045   0.226 -13.089  1.00  0.00     0.074 A 
ATOM     55  C   UNL     1     -12.949   1.596 -11.178  1.00  0.00     0.029 A 
ATOM     56  N   UNL     1     -10.751   1.291 -11.286  1.00  0.00    -0.354 N 
ATOM     57  N   UNL     1      -8.227   0.526 -12.602  1.00  0.00    -0.248 NA
ATOM     58  C   UNL     1      -7.080  -0.421 -14.405  1.00  0.00     0.031 C 
ATOM     59  C   UNL     1     -12.652   0.928 -12.371  1.00  0.00     0.029 A 
ATOM     60  C   UNL     1     -11.277   0.772 -12.460  1.00  0.00     0.049 A 
ATOM     61  H   UNL     1      -9.793   1.314 -11.060  1.00  0.00     0.167 HD
ATOM     62  C   UNL     1      -9.148   0.121 -13.564  1.00  0.00     0.074 A 
ATOM     63  C   UNL     1      -8.380  -0.426 -14.665  1.00  0.00     0.031 C 
ATOM     64  C   UNL     1     -10.504   0.199 -13.541  1.00  0.00     0.034 A 
BRANCH  51  65
ATOM     65  C   UNL     1     -12.802   2.687  -8.325  1.00  0.00     0.023 A 
ATOM     66  C   UNL     1     -13.005   3.993  -7.841  1.00  0.00     0.031 A 
ATOM     67  C   UNL     1     -13.740   1.704  -7.965  1.00  0.00     0.131 A 
ATOM     68  C   UNL     1     -14.050   4.254  -6.943  1.00  0.00     0.055 A 
ATOM     69  C   UNL     1     -14.838   1.995  -7.151  1.00  0.00     0.041 A 
ATOM     70  F   UNL     1     -13.595   0.435  -8.376  1.00  0.00    -0.206 F 
ATOM     71  C   UNL     1     -14.985   3.271  -6.615  1.00  0.00     0.022 A 
BRANCH  68  72
ATOM     72  S   UNL     1     -14.051   5.839  -6.059  1.00  0.00     0.124 S 
ATOM     73  O   UNL     1     -12.728   5.830  -5.437  1.00  0.00    -0.237 OA
ATOM     74  O   UNL     1     -14.244   6.801  -7.137  1.00  0.00    -0.237 OA
ATOM     75  O   UNL     1     -15.168   5.711  -5.126  1.00  0.00    -0.744 OA
ENDBRANCH  68  72
ENDBRANCH  51  65
BRANCH  52  76
ATOM     76  C   UNL     1      -4.445  -0.003 -13.168  1.00  0.00     0.023 A 
ATOM     77  C   UNL     1      -4.026   0.561 -14.383  1.00  0.00     0.031 A 
ATOM     78  C   UNL     1      -3.655  -1.023 -12.606  1.00  0.00     0.131 A 
ATOM     79  C   UNL     1      -2.864   0.085 -15.010  1.00  0.00     0.055 A 
ATOM     80  C   UNL     1      -2.474  -1.458 -13.208  1.00  0.00     0.041 A 
ATOM     81  F   UNL     1      -4.008  -1.591 -11.442  1.00  0.00    -0.206 F 
ATOM     82  C   UNL     1      -2.076  -0.909 -14.423  1.00  0.00     0.022 A 
BRANCH  79  83
ATOM     83  S   UNL     1      -2.420   0.746 -16.640  1.00  0.00     0.124 S 
ATOM     84  O   UNL     1      -3.585   0.379 -17.437  1.00  0.00    -0.237 OA
ATOM     85  O   UNL     1      -2.256   2.167 -16.357  1.00  0.00    -0.237 OA
ATOM     86  O   UNL     1      -1.187   0.034 -16.971  1.00  0.00    -0.744 OA
ENDBRANCH  79  83
ENDBRANCH  52  76
BRANCH  64  87
ATOM     87  C   UNL     1     -11.241  -0.302 -14.762  1.00  0.00     0.023 A 
ATOM     88  C   UNL     1     -11.220  -1.657 -15.136  1.00  0.00     0.031 A 
ATOM     89  C   UNL     1     -11.966   0.594 -15.569  1.00  0.00     0.131 A 
ATOM     90  C   UNL     1     -11.859  -2.067 -16.316  1.00  0.00     0.055 A 
ATOM     91  C   UNL     1     -12.658   0.167 -16.704  1.00  0.00     0.041 A 
ATOM     92  F   UNL     1     -12.017   1.901 -15.266  1.00  0.00    -0.206 F 
ATOM     93  C   UNL     1     -12.595  -1.168 -17.091  1.00  0.00     0.022 A 
BRANCH  90  94
ATOM     94  S   UNL     1     -11.627  -3.775 -16.884  1.00  0.00     0.124 S 
ATOM     95  O   UNL     1     -10.175  -3.855 -17.014  1.00  0.00    -0.237 OA
ATOM     96  O   UNL     1     -12.213  -4.549 -15.794  1.00  0.00    -0.237 OA
ATOM     97  O   UNL     1     -12.366  -3.820 -18.144  1.00  0.00    -0.744 OA
ENDBRANCH  90  94
ENDBRANCH  64  87
ENDBRANCH  38  39
ENDBRANCH  30  33
ENDBRANCH  28  29
ENDBRANCH  27  28
ENDBRANCH   1  27
TORSDOF 20
