REMARK SMILES O=C(C[C@]1(C(=O)NC2CCCCC2)CC(c2ccc([N+](=O)[O-])cc2)=NO1)NCCCCCCNC(=O)c1ccc(-c2c3nc(c(-c4cc(S(=O)(=O)[O-])ccc4F)c4ccc([nH]4)c(-c4cc(S(=O)(=O)[O-])ccc4F)c4nc(c(-c5cc(S(=O)(=O)[O-])ccc5F)c5ccc2[nH]5)C=C4)C=C3)cc1
REMARK SMILES IDX 30 1 29 2 28 3 27 4 1 5 2 6 3 8 4 9 14 10 26 11 15 12 25 13
REMARK SMILES IDX 5 14 6 15 7 16 8 18 9 19 13 20 10 21 12 22 11 23 16 24 17 25
REMARK SMILES IDX 24 26 18 27 23 28 19 29 20 30 21 31 22 32 31 33 32 34 33 35
REMARK SMILES IDX 34 36 35 37 36 39 37 40 38 41 99 42 39 43 98 44 40 45 41 46
REMARK SMILES IDX 42 47 92 48 43 49 97 50 91 51 93 52 44 53 96 54 90 55 89 56
REMARK SMILES IDX 45 58 77 59 57 60 76 61 58 62 61 63 75 64 94 65 59 66 60 67
REMARK SMILES IDX 74 69 95 70 62 71 46 72 47 73 55 74 48 75 54 76 56 77 53 78
REMARK SMILES IDX 49 79 50 80 51 81 52 82 78 83 79 84 87 85 80 86 86 87 88 88
REMARK SMILES IDX 85 89 81 90 82 91 83 92 84 93 63 94 64 95 72 96 65 97 71 98
REMARK SMILES IDX 73 99 70 100 66 101 67 102 68 103 69 104
REMARK H PARENT 27 7 7 17 34 38 93 57 61 68
REMARK Flexibility Score: inf
ROOT
ATOM      1  C   UNL     1       3.217   3.877  -1.165  1.00  0.00     0.002 C 
ENDROOT
BRANCH   1   2
ATOM      2  C   UNL     1       3.772   3.632  -2.577  1.00  0.00     0.021 C 
BRANCH   2   3
ATOM      3  C   UNL     1       4.945   2.652  -2.641  1.00  0.00     0.116 C 
BRANCH   3   4
ATOM      4  N   UNL     1       4.559   1.389  -2.061  1.00  0.00    -0.356 N 
ATOM      5  O   UNL     1       5.615   0.027  -3.578  1.00  0.00    -0.275 OA
ATOM      6  C   UNL     1       4.819   0.189  -2.675  1.00  0.00     0.224 C 
ATOM      7  H   UNL     1       4.091   1.387  -1.194  1.00  0.00     0.163 HD
BRANCH   6   8
ATOM      8  C   UNL     1       3.891  -0.893  -2.200  1.00  0.00     0.162 C 
BRANCH   8   9
ATOM      9  C   UNL     1       4.128  -1.511  -0.823  1.00  0.00     0.229 C 
ATOM     10  C   UNL     1       5.467  -1.194  -0.155  1.00  0.00     0.123 C 
ATOM     11  O   UNL     1       4.196  -2.934  -0.990  1.00  0.00    -0.378 OA
ATOM     12  C   UNL     1       6.259  -2.335  -0.682  1.00  0.00     0.092 C 
ATOM     13  N   UNL     1       5.549  -3.308  -1.152  1.00  0.00    -0.089 NA
BRANCH   9  14
ATOM     14  C   UNL     1       2.969  -1.147   0.137  1.00  0.00     0.268 C 
ATOM     15  O   UNL     1       3.149  -0.266   0.992  1.00  0.00    -0.270 OA
ATOM     16  N   UNL     1       1.699  -1.638   0.076  1.00  0.00    -0.350 N 
ATOM     17  H   UNL     1       1.134  -1.267   0.792  1.00  0.00     0.163 HD
BRANCH  16  18
ATOM     18  C   UNL     1       0.944  -2.576  -0.777  1.00  0.00     0.082 C 
ATOM     19  C   UNL     1       0.838  -2.116  -2.232  1.00  0.00     0.025 C 
ATOM     20  C   UNL     1       1.329  -4.048  -0.581  1.00  0.00     0.025 C 
ATOM     21  C   UNL     1       0.160  -3.112  -3.157  1.00  0.00     0.002 C 
ATOM     22  C   UNL     1       0.702  -4.989  -1.611  1.00  0.00     0.002 C 
ATOM     23  C   UNL     1       0.848  -4.464  -3.034  1.00  0.00     0.000 C 
ENDBRANCH  16  18
ENDBRANCH   9  14
BRANCH  12  24
ATOM     24  C   UNL     1       7.732  -2.344  -0.644  1.00  0.00    -0.000 A 
ATOM     25  C   UNL     1       8.425  -3.075  -1.616  1.00  0.00     0.017 A 
ATOM     26  C   UNL     1       8.433  -1.654   0.353  1.00  0.00     0.017 A 
ATOM     27  C   UNL     1       9.822  -3.111  -1.603  1.00  0.00     0.086 A 
ATOM     28  C   UNL     1       9.831  -1.697   0.379  1.00  0.00     0.086 A 
ATOM     29  C   UNL     1      10.521  -2.425  -0.602  1.00  0.00     0.269 A 
BRANCH  29  30
ATOM     30  N   UNL     1      11.988  -2.481  -0.571  1.00  0.00     0.062 N 
ATOM     31  O   UNL     1      12.560  -3.108  -1.473  1.00  0.00    -0.258 OA
ATOM     32  O   UNL     1      12.566  -1.914   0.367  1.00  0.00    -0.258 OA
ENDBRANCH  29  30
ENDBRANCH  12  24
ENDBRANCH   8   9
ENDBRANCH   6   8
ENDBRANCH   3   4
ENDBRANCH   2   3
ENDBRANCH   1   2
BRANCH   1  33
ATOM     33  C   UNL     1       4.265   4.245  -0.111  1.00  0.00     0.002 C 
BRANCH  33  34
ATOM     34  C   UNL     1       5.150   5.437  -0.477  1.00  0.00     0.021 C 
BRANCH  34  35
ATOM     35  C   UNL     1       4.388   6.715  -0.797  1.00  0.00     0.116 C 
BRANCH  35  36
ATOM     36  N   UNL     1       3.663   7.223   0.354  1.00  0.00    -0.352 N 
ATOM     37  C   UNL     1       3.687   8.484   0.898  1.00  0.00     0.251 C 
ATOM     38  H   UNL     1       3.074   6.576   0.806  1.00  0.00     0.163 HD
ATOM     39  O   UNL     1       3.159   8.691   1.986  1.00  0.00    -0.269 OA
BRANCH  37  40
ATOM     40  C   UNL     1       4.383   9.575   0.180  1.00  0.00     0.039 A 
ATOM     41  C   UNL     1       5.249  10.406   0.893  1.00  0.00     0.014 A 
ATOM     42  C   UNL     1       4.203   9.758  -1.194  1.00  0.00     0.014 A 
ATOM     43  C   UNL     1       5.986  11.379   0.213  1.00  0.00     0.010 A 
ATOM     44  C   UNL     1       4.995  10.675  -1.880  1.00  0.00     0.010 A 
ATOM     45  C   UNL     1       5.896  11.494  -1.184  1.00  0.00    -0.014 A 
BRANCH  45  46
ATOM     46  C   UNL     1       6.749  12.455  -1.931  1.00  0.00     0.031 A 
ATOM     47  C   UNL     1       6.124  13.583  -2.704  1.00  0.00     0.074 A 
ATOM     48  C   UNL     1       8.083  12.270  -1.967  1.00  0.00     0.049 A 
ATOM     49  N   UNL     1       6.694  14.481  -3.466  1.00  0.00    -0.248 NA
ATOM     50  C   UNL     1       4.661  13.694  -2.632  1.00  0.00     0.031 C 
ATOM     51  C   UNL     1       8.801  11.180  -1.302  1.00  0.00     0.029 A 
ATOM     52  N   UNL     1       9.072  12.981  -2.598  1.00  0.00    -0.354 N 
ATOM     53  C   UNL     1       5.659  15.262  -3.970  1.00  0.00     0.074 A 
ATOM     54  C   UNL     1       4.425  14.680  -3.484  1.00  0.00     0.031 C 
ATOM     55  C   UNL     1      10.115  11.307  -1.544  1.00  0.00     0.029 A 
ATOM     56  C   UNL     1      10.330  12.456  -2.419  1.00  0.00     0.049 A 
ATOM     57  H   UNL     1       8.898  13.792  -3.129  1.00  0.00     0.167 HD
ATOM     58  C   UNL     1       5.732  16.376  -4.741  1.00  0.00     0.034 A 
ATOM     59  C   UNL     1      11.522  12.841  -2.917  1.00  0.00     0.034 A 
ATOM     60  C   UNL     1       6.973  16.936  -5.223  1.00  0.00     0.049 A 
ATOM     61  C   UNL     1      11.582  14.057  -3.803  1.00  0.00     0.074 A 
ATOM     62  C   UNL     1       7.172  18.088  -5.964  1.00  0.00     0.029 A 
ATOM     63  N   UNL     1       8.230  16.373  -5.026  1.00  0.00    -0.354 N 
ATOM     64  N   UNL     1      10.601  14.825  -4.219  1.00  0.00    -0.248 NA
ATOM     65  C   UNL     1      12.910  14.463  -4.278  1.00  0.00     0.031 C 
ATOM     66  C   UNL     1       8.532  18.180  -6.280  1.00  0.00     0.029 A 
ATOM     67  C   UNL     1       9.200  17.132  -5.667  1.00  0.00     0.049 A 
ATOM     68  H   UNL     1       8.406  15.555  -4.508  1.00  0.00     0.167 HD
ATOM     69  C   UNL     1      11.198  15.817  -4.992  1.00  0.00     0.074 A 
ATOM     70  C   UNL     1      12.624  15.560  -4.965  1.00  0.00     0.031 C 
ATOM     71  C   UNL     1      10.619  16.849  -5.659  1.00  0.00     0.034 A 
BRANCH  58  72
ATOM     72  C   UNL     1       4.426  17.033  -5.129  1.00  0.00     0.023 A 
ATOM     73  C   UNL     1       3.532  17.524  -4.159  1.00  0.00     0.031 A 
ATOM     74  C   UNL     1       4.038  17.120  -6.477  1.00  0.00     0.131 A 
ATOM     75  C   UNL     1       2.262  17.980  -4.540  1.00  0.00     0.055 A 
ATOM     76  C   UNL     1       2.809  17.666  -6.858  1.00  0.00     0.041 A 
ATOM     77  F   UNL     1       4.835  16.653  -7.451  1.00  0.00    -0.206 F 
ATOM     78  C   UNL     1       1.903  18.080  -5.885  1.00  0.00     0.022 A 
BRANCH  75  79
ATOM     79  S   UNL     1       1.022  18.261  -3.245  1.00  0.00     0.124 S 
ATOM     80  O   UNL     1       0.992  16.961  -2.578  1.00  0.00    -0.237 OA
ATOM     81  O   UNL     1       1.607  19.358  -2.482  1.00  0.00    -0.237 OA
ATOM     82  O   UNL     1      -0.187  18.595  -3.995  1.00  0.00    -0.744 OA
ENDBRANCH  75  79
ENDBRANCH  58  72
BRANCH  59  83
ATOM     83  C   UNL     1      12.748  12.053  -2.604  1.00  0.00     0.023 A 
ATOM     84  C   UNL     1      13.782  12.593  -1.824  1.00  0.00     0.031 A 
ATOM     85  C   UNL     1      12.902  10.742  -3.091  1.00  0.00     0.131 A 
ATOM     86  C   UNL     1      14.938  11.836  -1.577  1.00  0.00     0.055 A 
ATOM     87  C   UNL     1      14.032   9.976  -2.802  1.00  0.00     0.041 A 
ATOM     88  F   UNL     1      11.938  10.177  -3.836  1.00  0.00    -0.206 F 
ATOM     89  C   UNL     1      15.063  10.526  -2.047  1.00  0.00     0.022 A 
BRANCH  86  90
ATOM     90  S   UNL     1      16.307  12.608  -0.672  1.00  0.00     0.124 S 
ATOM     91  O   UNL     1      16.638  13.734  -1.538  1.00  0.00    -0.237 OA
ATOM     92  O   UNL     1      15.679  12.941   0.603  1.00  0.00    -0.237 OA
ATOM     93  O   UNL     1      17.314  11.550  -0.610  1.00  0.00    -0.744 OA
ENDBRANCH  86  90
ENDBRANCH  59  83
BRANCH  71  94
ATOM     94  C   UNL     1      11.541  17.789  -6.399  1.00  0.00     0.023 A 
ATOM     95  C   UNL     1      12.289  17.367  -7.513  1.00  0.00     0.031 A 
ATOM     96  C   UNL     1      11.684  19.122  -5.974  1.00  0.00     0.131 A 
ATOM     97  C   UNL     1      13.186  18.253  -8.129  1.00  0.00     0.055 A 
ATOM     98  C   UNL     1      12.531  20.017  -6.631  1.00  0.00     0.041 A 
ATOM     99  F   UNL     1      11.000  19.579  -4.913  1.00  0.00    -0.206 F 
ATOM    100  C   UNL     1      13.298  19.580  -7.707  1.00  0.00     0.022 A 
BRANCH  97 101
ATOM    101  S   UNL     1      14.278  17.621  -9.433  1.00  0.00     0.124 S 
ATOM    102  O   UNL     1      14.999  16.561  -8.735  1.00  0.00    -0.237 OA
ATOM    103  O   UNL     1      13.329  17.183 -10.451  1.00  0.00    -0.237 OA
ATOM    104  O   UNL     1      15.085  18.784  -9.798  1.00  0.00    -0.744 OA
ENDBRANCH  97 101
ENDBRANCH  71  94
ENDBRANCH  45  46
ENDBRANCH  37  40
ENDBRANCH  35  36
ENDBRANCH  34  35
ENDBRANCH  33  34
ENDBRANCH   1  33
TORSDOF 21
