REMARK SMILES O=C(Cc1ccccc1C(=O)NCCCCCCNC(=O)c1ccc(-c2c3nc(c(-c4cc(S(=O)(=O)[O-])ccc4F)c4ccc([nH]4)c(-c4cc(S(=O)(=O)[O-])ccc4F)c4nc(c(-c5cc(S(=O)(=O)[O-])ccc5F)c5ccc2[nH]5)C=C4)C=C3)cc1)Nc1ccc(S(=O)(=O)N2CCCC2)cc1
REMARK SMILES IDX 14 1 13 2 12 3 10 4 11 5 9 7 4 8 5 9 6 10 8 11 7 12 3 13
REMARK SMILES IDX 2 14 1 15 85 16 86 18 87 19 99 20 88 21 98 22 89 23 90 24
REMARK SMILES IDX 91 25 92 26 93 27 94 28 97 29 95 30 96 31 15 32 16 33 17 34
REMARK SMILES IDX 18 35 19 36 20 37 21 39 22 40 23 41 84 42 24 43 83 44 25 45
REMARK SMILES IDX 26 46 27 47 77 48 28 49 82 50 76 51 78 52 29 53 81 54 75 55
REMARK SMILES IDX 74 56 30 58 62 59 42 60 61 61 43 62 46 63 60 64 79 65 44 66
REMARK SMILES IDX 45 67 59 69 80 70 47 71 31 72 32 73 40 74 33 75 39 76 41 77
REMARK SMILES IDX 38 78 34 79 35 80 36 81 37 82 63 83 64 84 72 85 65 86 71 87
REMARK SMILES IDX 73 88 70 89 66 90 67 91 68 92 69 93 48 94 49 95 57 96 50 97
REMARK SMILES IDX 56 98 58 99 55 100 51 101 52 102 53 103 54 104
REMARK H PARENT 12 6 85 17 19 38 78 57 46 68
REMARK Flexibility Score: inf
ROOT
ATOM      1  C   UNL     1       1.545  -1.734   0.407  1.00  0.00     0.021 C 
ENDROOT
BRANCH   1   2
ATOM      2  C   UNL     1       1.390  -1.088  -0.978  1.00  0.00     0.116 C 
BRANCH   2   3
ATOM      3  N   UNL     1       1.441   0.370  -0.990  1.00  0.00    -0.352 N 
ATOM      4  C   UNL     1       2.309   1.274  -1.551  1.00  0.00     0.251 C 
ATOM      5  O   UNL     1       1.955   2.448  -1.653  1.00  0.00    -0.269 OA
ATOM      6  H   UNL     1       0.703   0.792  -0.494  1.00  0.00     0.163 HD
BRANCH   4   7
ATOM      7  C   UNL     1       3.626   0.880  -2.107  1.00  0.00     0.043 A 
ATOM      8  C   UNL     1       4.614   0.150  -1.435  1.00  0.00    -0.026 A 
ATOM      9  C   UNL     1       5.674  -0.385  -2.203  1.00  0.00     0.005 A 
ATOM     10  C   UNL     1       5.900   0.026  -3.514  1.00  0.00     0.000 A 
ATOM     11  C   UNL     1       3.914   1.371  -3.396  1.00  0.00     0.014 A 
ATOM     12  C   UNL     1       5.066   0.977  -4.080  1.00  0.00     0.001 A 
BRANCH   8  13
ATOM     13  C   UNL     1       4.758  -0.037   0.057  1.00  0.00     0.136 C 
BRANCH  13  14
ATOM     14  C   UNL     1       3.954   0.808   1.022  1.00  0.00     0.228 C 
ATOM     15  O   UNL     1       3.312   0.252   1.916  1.00  0.00    -0.274 OA
ATOM     16  N   UNL     1       4.107   2.185   0.968  1.00  0.00    -0.326 N 
ATOM     17  H   UNL     1       4.825   2.571   0.417  1.00  0.00     0.169 HD
BRANCH  16  18
ATOM     18  C   UNL     1       3.247   3.047   1.694  1.00  0.00     0.041 A 
ATOM     19  C   UNL     1       3.719   4.221   2.276  1.00  0.00     0.027 A 
ATOM     20  C   UNL     1       1.899   2.722   1.853  1.00  0.00     0.027 A 
ATOM     21  C   UNL     1       2.873   4.972   3.115  1.00  0.00     0.024 A 
ATOM     22  C   UNL     1       1.045   3.473   2.655  1.00  0.00     0.024 A 
ATOM     23  C   UNL     1       1.538   4.582   3.323  1.00  0.00     0.082 A 
BRANCH  23  24
ATOM     24  S   UNL     1       0.515   5.519   4.445  1.00  0.00     0.243 S 
ATOM     25  O   UNL     1       1.379   5.925   5.539  1.00  0.00    -0.207 OA
ATOM     26  O   UNL     1      -0.180   6.499   3.641  1.00  0.00    -0.207 OA
BRANCH  24  27
ATOM     27  N   UNL     1      -0.630   4.472   5.093  1.00  0.00    -0.198 NA
ATOM     28  C   UNL     1      -0.262   3.414   6.041  1.00  0.00     0.102 C 
ATOM     29  C   UNL     1      -1.836   4.085   4.345  1.00  0.00     0.102 C 
ATOM     30  C   UNL     1      -0.830   2.148   5.425  1.00  0.00     0.018 C 
ATOM     31  C   UNL     1      -2.069   2.610   4.675  1.00  0.00     0.018 C 
ENDBRANCH  24  27
ENDBRANCH  23  24
ENDBRANCH  16  18
ENDBRANCH  13  14
ENDBRANCH   8  13
ENDBRANCH   4   7
ENDBRANCH   2   3
ENDBRANCH   1   2
BRANCH   1  32
ATOM     32  C   UNL     1       0.772  -1.077   1.559  1.00  0.00     0.002 C 
BRANCH  32  33
ATOM     33  C   UNL     1      -0.689  -1.479   1.717  1.00  0.00     0.002 C 
BRANCH  33  34
ATOM     34  C   UNL     1      -0.899  -2.946   2.077  1.00  0.00     0.021 C 
BRANCH  34  35
ATOM     35  C   UNL     1      -0.221  -3.382   3.371  1.00  0.00     0.116 C 
BRANCH  35  36
ATOM     36  N   UNL     1      -0.865  -2.806   4.544  1.00  0.00    -0.352 N 
ATOM     37  C   UNL     1      -1.330  -3.485   5.647  1.00  0.00     0.251 C 
ATOM     38  H   UNL     1      -0.981  -1.828   4.548  1.00  0.00     0.163 HD
ATOM     39  O   UNL     1      -2.052  -2.942   6.474  1.00  0.00    -0.269 OA
BRANCH  37  40
ATOM     40  C   UNL     1      -0.932  -4.899   5.783  1.00  0.00     0.039 A 
ATOM     41  C   UNL     1      -1.908  -5.895   5.804  1.00  0.00     0.014 A 
ATOM     42  C   UNL     1       0.429  -5.222   5.745  1.00  0.00     0.014 A 
ATOM     43  C   UNL     1      -1.513  -7.232   5.740  1.00  0.00     0.010 A 
ATOM     44  C   UNL     1       0.811  -6.549   5.602  1.00  0.00     0.010 A 
ATOM     45  C   UNL     1      -0.154  -7.568   5.610  1.00  0.00    -0.014 A 
BRANCH  45  46
ATOM     46  C   UNL     1       0.281  -8.986   5.517  1.00  0.00     0.031 A 
ATOM     47  C   UNL     1       1.147  -9.566   6.601  1.00  0.00     0.074 A 
ATOM     48  C   UNL     1      -0.063  -9.729   4.447  1.00  0.00     0.049 A 
ATOM     49  N   UNL     1       1.671 -10.761   6.693  1.00  0.00    -0.248 NA
ATOM     50  C   UNL     1       1.497  -8.671   7.715  1.00  0.00     0.031 C 
ATOM     51  C   UNL     1      -0.865  -9.260   3.314  1.00  0.00     0.029 A 
ATOM     52  N   UNL     1       0.216 -11.036   4.133  1.00  0.00    -0.354 N 
ATOM     53  C   UNL     1       2.416 -10.757   7.867  1.00  0.00     0.074 A 
ATOM     54  C   UNL     1       2.339  -9.419   8.409  1.00  0.00     0.031 C 
ATOM     55  C   UNL     1      -1.042 -10.274   2.451  1.00  0.00     0.029 A 
ATOM     56  C   UNL     1      -0.328 -11.450   2.939  1.00  0.00     0.049 A 
ATOM     57  H   UNL     1       0.756 -11.623   4.710  1.00  0.00     0.167 HD
ATOM     58  C   UNL     1       3.076 -11.784   8.456  1.00  0.00     0.034 A 
ATOM     59  C   UNL     1      -0.252 -12.638   2.307  1.00  0.00     0.034 A 
ATOM     60  C   UNL     1       3.134 -13.114   7.901  1.00  0.00     0.049 A 
ATOM     61  C   UNL     1       0.522 -13.758   2.961  1.00  0.00     0.074 A 
ATOM     62  C   UNL     1       3.733 -14.242   8.431  1.00  0.00     0.029 A 
ATOM     63  N   UNL     1       2.582 -13.492   6.683  1.00  0.00    -0.354 N 
ATOM     64  N   UNL     1       1.177 -13.754   4.100  1.00  0.00    -0.248 NA
ATOM     65  C   UNL     1       0.556 -15.043   2.252  1.00  0.00     0.031 C 
ATOM     66  C   UNL     1       3.615 -15.278   7.499  1.00  0.00     0.029 A 
ATOM     67  C   UNL     1       2.858 -14.826   6.429  1.00  0.00     0.049 A 
ATOM     68  H   UNL     1       2.068 -12.899   6.088  1.00  0.00     0.167 HD
ATOM     69  C   UNL     1       1.668 -15.047   4.260  1.00  0.00     0.074 A 
ATOM     70  C   UNL     1       1.224 -15.803   3.107  1.00  0.00     0.031 C 
ATOM     71  C   UNL     1       2.413 -15.565   5.270  1.00  0.00     0.034 A 
BRANCH  58  72
ATOM     72  C   UNL     1       3.807 -11.493   9.746  1.00  0.00     0.023 A 
ATOM     73  C   UNL     1       3.130 -11.046  10.895  1.00  0.00     0.031 A 
ATOM     74  C   UNL     1       5.204 -11.630   9.820  1.00  0.00     0.131 A 
ATOM     75  C   UNL     1       3.856 -10.674  12.036  1.00  0.00     0.055 A 
ATOM     76  C   UNL     1       5.912 -11.345  10.990  1.00  0.00     0.041 A 
ATOM     77  F   UNL     1       5.911 -12.027   8.750  1.00  0.00    -0.206 F 
ATOM     78  C   UNL     1       5.239 -10.848  12.102  1.00  0.00     0.022 A 
BRANCH  75  79
ATOM     79  S   UNL     1       2.984  -9.807  13.370  1.00  0.00     0.124 S 
ATOM     80  O   UNL     1       2.449  -8.644  12.665  1.00  0.00    -0.237 OA
ATOM     81  O   UNL     1       2.005 -10.798  13.803  1.00  0.00    -0.237 OA
ATOM     82  O   UNL     1       4.041  -9.510  14.334  1.00  0.00    -0.744 OA
ENDBRANCH  75  79
ENDBRANCH  58  72
BRANCH  59  83
ATOM     83  C   UNL     1      -0.914 -12.838   0.984  1.00  0.00     0.023 A 
ATOM     84  C   UNL     1      -1.946 -13.777   0.822  1.00  0.00     0.031 A 
ATOM     85  C   UNL     1      -0.494 -12.123  -0.152  1.00  0.00     0.131 A 
ATOM     86  C   UNL     1      -2.486 -14.012  -0.453  1.00  0.00     0.055 A 
ATOM     87  C   UNL     1      -1.076 -12.317  -1.406  1.00  0.00     0.041 A 
ATOM     88  F   UNL     1       0.488 -11.212  -0.057  1.00  0.00    -0.206 F 
ATOM     89  C   UNL     1      -2.070 -13.277  -1.564  1.00  0.00     0.022 A 
BRANCH  86  90
ATOM     90  S   UNL     1      -3.677 -15.366  -0.656  1.00  0.00     0.124 S 
ATOM     91  O   UNL     1      -2.909 -16.510  -0.179  1.00  0.00    -0.237 OA
ATOM     92  O   UNL     1      -4.778 -14.931   0.196  1.00  0.00    -0.237 OA
ATOM     93  O   UNL     1      -3.960 -15.357  -2.090  1.00  0.00    -0.744 OA
ENDBRANCH  86  90
ENDBRANCH  59  83
BRANCH  71  94
ATOM     94  C   UNL     1       2.747 -17.036   5.199  1.00  0.00     0.023 A 
ATOM     95  C   UNL     1       3.577 -17.564   4.196  1.00  0.00     0.031 A 
ATOM     96  C   UNL     1       2.223 -17.923   6.158  1.00  0.00     0.131 A 
ATOM     97  C   UNL     1       3.814 -18.946   4.141  1.00  0.00     0.055 A 
ATOM     98  C   UNL     1       2.519 -19.286   6.139  1.00  0.00     0.041 A 
ATOM     99  F   UNL     1       1.420 -17.476   7.137  1.00  0.00    -0.206 F 
ATOM    100  C   UNL     1       3.308 -19.807   5.119  1.00  0.00     0.022 A 
BRANCH  97 101
ATOM    101  S   UNL     1       4.711 -19.620   2.716  1.00  0.00     0.124 S 
ATOM    102  O   UNL     1       3.880 -19.180   1.600  1.00  0.00    -0.237 OA
ATOM    103  O   UNL     1       6.014 -18.974   2.833  1.00  0.00    -0.237 OA
ATOM    104  O   UNL     1       4.709 -21.061   2.960  1.00  0.00    -0.744 OA
ENDBRANCH  97 101
ENDBRANCH  71  94
ENDBRANCH  45  46
ENDBRANCH  37  40
ENDBRANCH  35  36
ENDBRANCH  34  35
ENDBRANCH  33  34
ENDBRANCH  32  33
ENDBRANCH   1  32
TORSDOF 21
