REMARK SMILES C=CCCCOc1ccc(C(=O)NCCCCCCNC(=O)c2ccc(-c3c4nc(c(-c5cc(S(=O)(=O)[O-])ccc5F)c5ccc([nH]5)c(-c5cc(S(=O)(=O)[O-])ccc5F)c5nc(c(-c6cc(S(=O)(=O)[O-])ccc6F)c6ccc3[nH]6)C=C5)C=C4)cc2)cc1[N+](=O)[O-]
REMARK SMILES IDX 15 1 14 2 13 3 11 4 12 5 10 7 7 8 8 9 87 10 9 11 86 12 6 13
REMARK SMILES IDX 5 14 4 15 3 16 2 17 1 18 88 19 89 20 90 21 16 22 17 23 18 24
REMARK SMILES IDX 19 25 20 26 21 27 22 29 23 30 24 31 85 32 25 33 84 34 26 35
REMARK SMILES IDX 27 36 28 37 78 38 29 39 83 40 77 41 79 42 30 43 82 44 76 45
REMARK SMILES IDX 75 46 31 48 63 49 43 50 62 51 44 52 47 53 61 54 80 55 45 56
REMARK SMILES IDX 46 57 60 59 81 60 48 61 32 62 33 63 41 64 34 65 40 66 42 67
REMARK SMILES IDX 39 68 35 69 36 70 37 71 38 72 64 73 65 74 73 75 66 76 72 77
REMARK SMILES IDX 74 78 71 79 67 80 68 81 69 82 70 83 49 84 50 85 58 86 51 87
REMARK SMILES IDX 57 88 59 89 56 90 52 91 53 92 54 93 55 94
REMARK H PARENT 13 6 20 28 79 47 47 58
REMARK Flexibility Score: inf
ROOT
ATOM      1  C   UNL     1      -2.195  -4.381   2.417  1.00  0.00     0.021 C 
ENDROOT
BRANCH   1   2
ATOM      2  C   UNL     1      -0.959  -4.363   1.515  1.00  0.00     0.116 C 
BRANCH   2   3
ATOM      3  N   UNL     1      -0.944  -5.508   0.615  1.00  0.00    -0.352 N 
ATOM      4  C   UNL     1      -1.135  -5.576  -0.742  1.00  0.00     0.251 C 
ATOM      5  O   UNL     1      -0.945  -6.636  -1.335  1.00  0.00    -0.269 OA
ATOM      6  H   UNL     1      -0.769  -6.373   1.051  1.00  0.00     0.163 HD
BRANCH   4   7
ATOM      7  C   UNL     1      -1.514  -4.374  -1.519  1.00  0.00     0.046 A 
ATOM      8  C   UNL     1      -2.008  -2.015  -2.956  1.00  0.00     0.197 A 
ATOM      9  C   UNL     1      -1.104  -2.958  -3.451  1.00  0.00     0.055 A 
ATOM     10  C   UNL     1      -2.750  -2.325  -1.813  1.00  0.00     0.311 A 
ATOM     11  C   UNL     1      -0.853  -4.131  -2.731  1.00  0.00     0.018 A 
ATOM     12  C   UNL     1      -2.514  -3.501  -1.091  1.00  0.00     0.103 A 
BRANCH   8  13
ATOM     13  O   UNL     1      -2.185  -0.826  -3.602  1.00  0.00    -0.487 OA
BRANCH  13  14
ATOM     14  C   UNL     1      -1.034   0.035  -3.563  1.00  0.00     0.230 C 
BRANCH  14  15
ATOM     15  C   UNL     1      -1.111   1.020  -2.389  1.00  0.00     0.046 C 
BRANCH  15  16
ATOM     16  C   UNL     1      -0.556   0.484  -1.062  1.00  0.00     0.030 C 
BRANCH  16  17
ATOM     17  C   UNL     1       0.938   0.324  -1.035  1.00  0.00    -0.035 C 
ATOM     18  C   UNL     1       1.650   0.389   0.098  1.00  0.00     0.004 C 
ENDBRANCH  16  17
ENDBRANCH  15  16
ENDBRANCH  14  15
ENDBRANCH  13  14
ENDBRANCH   8  13
BRANCH  10  19
ATOM     19  N   UNL     1      -3.716  -1.382  -1.275  1.00  0.00     0.066 N 
ATOM     20  O   UNL     1      -3.643  -1.149  -0.059  1.00  0.00    -0.258 OA
ATOM     21  O   UNL     1      -4.559  -0.906  -2.045  1.00  0.00    -0.258 OA
ENDBRANCH  10  19
ENDBRANCH   4   7
ENDBRANCH   2   3
ENDBRANCH   1   2
BRANCH   1  22
ATOM     22  C   UNL     1      -2.118  -5.397   3.562  1.00  0.00     0.002 C 
BRANCH  22  23
ATOM     23  C   UNL     1      -1.011  -5.137   4.589  1.00  0.00     0.002 C 
BRANCH  23  24
ATOM     24  C   UNL     1      -1.043  -3.756   5.250  1.00  0.00     0.021 C 
BRANCH  24  25
ATOM     25  C   UNL     1      -2.324  -3.440   6.019  1.00  0.00     0.116 C 
BRANCH  25  26
ATOM     26  N   UNL     1      -2.524  -4.350   7.135  1.00  0.00    -0.352 N 
ATOM     27  C   UNL     1      -2.707  -4.077   8.468  1.00  0.00     0.251 C 
ATOM     28  H   UNL     1      -2.530  -5.306   6.900  1.00  0.00     0.163 HD
ATOM     29  O   UNL     1      -2.627  -4.989   9.286  1.00  0.00    -0.269 OA
BRANCH  27  30
ATOM     30  C   UNL     1      -2.978  -2.693   8.920  1.00  0.00     0.039 A 
ATOM     31  C   UNL     1      -2.352  -2.228  10.079  1.00  0.00     0.014 A 
ATOM     32  C   UNL     1      -3.866  -1.864   8.226  1.00  0.00     0.014 A 
ATOM     33  C   UNL     1      -2.574  -0.918  10.511  1.00  0.00     0.010 A 
ATOM     34  C   UNL     1      -4.031  -0.536   8.618  1.00  0.00     0.010 A 
ATOM     35  C   UNL     1      -3.389  -0.049   9.766  1.00  0.00    -0.014 A 
BRANCH  35  36
ATOM     36  C   UNL     1      -3.565   1.369  10.178  1.00  0.00     0.031 A 
ATOM     37  C   UNL     1      -4.917   1.883  10.596  1.00  0.00     0.074 A 
ATOM     38  C   UNL     1      -2.508   2.205  10.137  1.00  0.00     0.049 A 
ATOM     39  N   UNL     1      -5.265   3.088  10.971  1.00  0.00    -0.248 NA
ATOM     40  C   UNL     1      -6.029   0.921  10.560  1.00  0.00     0.031 C 
ATOM     41  C   UNL     1      -1.159   1.835   9.701  1.00  0.00     0.029 A 
ATOM     42  N   UNL     1      -2.397   3.534  10.462  1.00  0.00    -0.354 N 
ATOM     43  C   UNL     1      -6.634   3.032  11.211  1.00  0.00     0.074 A 
ATOM     44  C   UNL     1      -7.061   1.690  10.874  1.00  0.00     0.031 C 
ATOM     45  C   UNL     1      -0.351   2.901   9.820  1.00  0.00     0.029 A 
ATOM     46  C   UNL     1      -1.128   4.040  10.296  1.00  0.00     0.049 A 
ATOM     47  H   UNL     1      -3.154   4.074  10.784  1.00  0.00     0.167 HD
ATOM     48  C   UNL     1      -7.454   4.002  11.690  1.00  0.00     0.034 A 
ATOM     49  C   UNL     1      -0.645   5.281  10.501  1.00  0.00     0.034 A 
ATOM     50  C   UNL     1      -7.009   5.335  12.023  1.00  0.00     0.049 A 
ATOM     51  C   UNL     1      -1.576   6.346  11.023  1.00  0.00     0.074 A 
ATOM     52  C   UNL     1      -7.741   6.381  12.558  1.00  0.00     0.029 A 
ATOM     53  N   UNL     1      -5.715   5.812  11.844  1.00  0.00    -0.354 N 
ATOM     54  N   UNL     1      -2.857   6.261  11.299  1.00  0.00    -0.248 NA
ATOM     55  C   UNL     1      -0.991   7.668  11.277  1.00  0.00     0.031 C 
ATOM     56  C   UNL     1      -6.912   7.505  12.637  1.00  0.00     0.029 A 
ATOM     57  C   UNL     1      -5.638   7.142  12.232  1.00  0.00     0.049 A 
ATOM     58  H   UNL     1      -4.963   5.283  11.494  1.00  0.00     0.167 HD
ATOM     59  C   UNL     1      -3.222   7.510  11.794  1.00  0.00     0.074 A 
ATOM     60  C   UNL     1      -2.021   8.321  11.793  1.00  0.00     0.031 C 
ATOM     61  C   UNL     1      -4.437   7.946  12.215  1.00  0.00     0.034 A 
BRANCH  48  62
ATOM     62  C   UNL     1      -8.917   3.659  11.854  1.00  0.00     0.023 A 
ATOM     63  C   UNL     1      -9.346   2.648  12.733  1.00  0.00     0.031 A 
ATOM     64  C   UNL     1      -9.898   4.335  11.106  1.00  0.00     0.131 A 
ATOM     65  C   UNL     1     -10.702   2.291  12.786  1.00  0.00     0.055 A 
ATOM     66  C   UNL     1     -11.256   4.032  11.226  1.00  0.00     0.041 A 
ATOM     67  F   UNL     1      -9.552   5.296  10.235  1.00  0.00    -0.206 F 
ATOM     68  C   UNL     1     -11.664   2.993  12.058  1.00  0.00     0.022 A 
BRANCH  65  69
ATOM     69  S   UNL     1     -11.170   0.798  13.705  1.00  0.00     0.124 S 
ATOM     70  O   UNL     1     -10.375  -0.225  13.030  1.00  0.00    -0.237 OA
ATOM     71  O   UNL     1     -10.765   1.127  15.067  1.00  0.00    -0.237 OA
ATOM     72  O   UNL     1     -12.612   0.700  13.489  1.00  0.00    -0.744 OA
ENDBRANCH  65  69
ENDBRANCH  48  62
BRANCH  49  73
ATOM     73  C   UNL     1       0.787   5.591  10.219  1.00  0.00     0.023 A 
ATOM     74  C   UNL     1       1.663   5.970  11.248  1.00  0.00     0.031 A 
ATOM     75  C   UNL     1       1.291   5.549   8.907  1.00  0.00     0.131 A 
ATOM     76  C   UNL     1       2.982   6.340  10.944  1.00  0.00     0.055 A 
ATOM     77  C   UNL     1       2.619   5.864   8.616  1.00  0.00     0.041 A 
ATOM     78  F   UNL     1       0.498   5.187   7.886  1.00  0.00    -0.206 F 
ATOM     79  C   UNL     1       3.470   6.277   9.637  1.00  0.00     0.022 A 
BRANCH  76  80
ATOM     80  S   UNL     1       4.031   6.993  12.273  1.00  0.00     0.124 S 
ATOM     81  O   UNL     1       3.247   8.132  12.737  1.00  0.00    -0.237 OA
ATOM     82  O   UNL     1       4.110   5.854  13.182  1.00  0.00    -0.237 OA
ATOM     83  O   UNL     1       5.277   7.329  11.588  1.00  0.00    -0.744 OA
ENDBRANCH  76  80
ENDBRANCH  49  73
BRANCH  61  84
ATOM     84  C   UNL     1      -4.508   9.354  12.758  1.00  0.00     0.023 A 
ATOM     85  C   UNL     1      -4.263  10.477  11.948  1.00  0.00     0.031 A 
ATOM     86  C   UNL     1      -4.795   9.572  14.118  1.00  0.00     0.131 A 
ATOM     87  C   UNL     1      -4.239  11.759  12.518  1.00  0.00     0.055 A 
ATOM     88  C   UNL     1      -4.838  10.856  14.664  1.00  0.00     0.041 A 
ATOM     89  F   UNL     1      -5.034   8.539  14.941  1.00  0.00    -0.206 F 
ATOM     90  C   UNL     1      -4.542  11.957  13.867  1.00  0.00     0.022 A 
BRANCH  87  91
ATOM     91  S   UNL     1      -3.690  13.155  11.497  1.00  0.00     0.124 S 
ATOM     92  O   UNL     1      -2.369  12.713  11.063  1.00  0.00    -0.237 OA
ATOM     93  O   UNL     1      -4.716  13.207  10.461  1.00  0.00    -0.237 OA
ATOM     94  O   UNL     1      -3.691  14.282  12.428  1.00  0.00    -0.744 OA
ENDBRANCH  87  91
ENDBRANCH  61  84
ENDBRANCH  35  36
ENDBRANCH  27  30
ENDBRANCH  25  26
ENDBRANCH  24  25
ENDBRANCH  23  24
ENDBRANCH  22  23
ENDBRANCH   1  22
TORSDOF 22
