REMARK SMILES O=C(NCCCCCCNC(=O)[C@H](CCc1ccccn1)c1ccccc1Br)c1ccc(-c2c3nc(c(-c4cc(S(=O)(=O)[O-])ccc4F)c4ccc([nH]4)c(-c4cc(S(=O)(=O)[O-])ccc4F)c4nc(c(-c5cc(S(=O)(=O)[O-])ccc5F)c5ccc2[nH]5)C=C4)C=C3)cc1
REMARK SMILES IDX 6 1 5 2 4 3 3 4 1 5 2 6 29 8 30 9 91 10 31 11 90 12 32 13
REMARK SMILES IDX 33 14 34 15 84 16 35 17 89 18 83 19 85 20 36 21 88 22 82 23
REMARK SMILES IDX 81 24 37 26 69 27 49 28 68 29 50 30 53 31 67 32 86 33 51 34
REMARK SMILES IDX 52 35 66 37 87 38 54 39 38 40 39 41 47 42 40 43 46 44 48 45
REMARK SMILES IDX 45 46 41 47 42 48 43 49 44 50 70 51 71 52 79 53 72 54 78 55
REMARK SMILES IDX 80 56 77 57 73 58 74 59 75 60 76 61 55 62 56 63 64 64 57 65
REMARK SMILES IDX 63 66 65 67 62 68 58 69 59 70 60 71 61 72 7 73 8 74 9 75
REMARK SMILES IDX 10 76 11 77 12 79 13 80 22 81 23 82 27 83 24 84 26 85 28 86
REMARK SMILES IDX 25 87 14 88 15 89 16 90 17 91 21 92 18 93 20 94 19 95
REMARK H PARENT 3 7 85 25 53 36 10 78
REMARK Flexibility Score: inf
ROOT
ATOM      1  C   UNL     1       6.557  -8.375   3.053  1.00  0.00     0.002 C 
ENDROOT
BRANCH   1   2
ATOM      2  C   UNL     1       5.392  -9.199   3.601  1.00  0.00     0.021 C 
BRANCH   2   3
ATOM      3  C   UNL     1       4.004  -8.723   3.184  1.00  0.00     0.116 C 
BRANCH   3   4
ATOM      4  N   UNL     1       3.758  -8.900   1.761  1.00  0.00    -0.352 N 
ATOM      5  O   UNL     1       2.784  -9.837  -0.053  1.00  0.00    -0.269 OA
ATOM      6  C   UNL     1       2.772  -9.643   1.149  1.00  0.00     0.251 C 
ATOM      7  H   UNL     1       4.376  -8.428   1.157  1.00  0.00     0.163 HD
BRANCH   6   8
ATOM      8  C   UNL     1       1.701 -10.216   1.994  1.00  0.00     0.039 A 
ATOM      9  C   UNL     1       0.963  -9.386   2.843  1.00  0.00     0.014 A 
ATOM     10  C   UNL     1       1.467 -11.591   1.960  1.00  0.00     0.014 A 
ATOM     11  C   UNL     1       0.063  -9.947   3.742  1.00  0.00     0.010 A 
ATOM     12  C   UNL     1       0.518 -12.145   2.821  1.00  0.00     0.010 A 
ATOM     13  C   UNL     1      -0.175 -11.331   3.733  1.00  0.00    -0.014 A 
BRANCH  13  14
ATOM     14  C   UNL     1      -1.187 -11.921   4.644  1.00  0.00     0.031 A 
ATOM     15  C   UNL     1      -0.779 -12.877   5.727  1.00  0.00     0.074 A 
ATOM     16  C   UNL     1      -2.484 -11.617   4.455  1.00  0.00     0.049 A 
ATOM     17  N   UNL     1      -1.530 -13.586   6.531  1.00  0.00    -0.248 NA
ATOM     18  C   UNL     1       0.664 -13.069   5.922  1.00  0.00     0.031 C 
ATOM     19  C   UNL     1      -2.989 -10.694   3.436  1.00  0.00     0.029 A 
ATOM     20  N   UNL     1      -3.613 -12.063   5.091  1.00  0.00    -0.354 N 
ATOM     21  C   UNL     1      -0.653 -14.330   7.314  1.00  0.00     0.074 A 
ATOM     22  C   UNL     1       0.685 -14.001   6.864  1.00  0.00     0.031 C 
ATOM     23  C   UNL     1      -4.326 -10.647   3.513  1.00  0.00     0.029 A 
ATOM     24  C   UNL     1      -4.775 -11.587   4.533  1.00  0.00     0.049 A 
ATOM     25  H   UNL     1      -3.594 -12.665   5.870  1.00  0.00     0.167 HD
ATOM     26  C   UNL     1      -0.944 -15.201   8.314  1.00  0.00     0.034 A 
ATOM     27  C   UNL     1      -6.060 -11.909   4.774  1.00  0.00     0.034 A 
ATOM     28  C   UNL     1      -2.292 -15.515   8.732  1.00  0.00     0.049 A 
ATOM     29  C   UNL     1      -6.366 -12.922   5.840  1.00  0.00     0.074 A 
ATOM     30  C   UNL     1      -2.708 -16.351   9.755  1.00  0.00     0.029 A 
ATOM     31  N   UNL     1      -3.446 -15.020   8.135  1.00  0.00    -0.354 N 
ATOM     32  N   UNL     1      -5.531 -13.608   6.585  1.00  0.00    -0.248 NA
ATOM     33  C   UNL     1      -7.782 -13.201   6.103  1.00  0.00     0.031 C 
ATOM     34  C   UNL     1      -4.106 -16.418   9.727  1.00  0.00     0.029 A 
ATOM     35  C   UNL     1      -4.570 -15.561   8.742  1.00  0.00     0.049 A 
ATOM     36  H   UNL     1      -3.463 -14.378   7.388  1.00  0.00     0.167 HD
ATOM     37  C   UNL     1      -6.322 -14.385   7.424  1.00  0.00     0.074 A 
ATOM     38  C   UNL     1      -7.700 -14.081   7.092  1.00  0.00     0.031 C 
ATOM     39  C   UNL     1      -5.940 -15.258   8.390  1.00  0.00     0.034 A 
BRANCH  26  40
ATOM     40  C   UNL     1       0.216 -15.915   8.972  1.00  0.00     0.023 A 
ATOM     41  C   UNL     1       1.226 -15.216   9.657  1.00  0.00     0.031 A 
ATOM     42  C   UNL     1       0.344 -17.312   8.868  1.00  0.00     0.131 A 
ATOM     43  C   UNL     1       2.361 -15.899  10.122  1.00  0.00     0.055 A 
ATOM     44  C   UNL     1       1.432 -17.997   9.413  1.00  0.00     0.041 A 
ATOM     45  F   UNL     1      -0.577 -18.036   8.211  1.00  0.00    -0.206 F 
ATOM     46  C   UNL     1       2.460 -17.288  10.026  1.00  0.00     0.022 A 
BRANCH  43  47
ATOM     47  S   UNL     1       3.785 -14.924  10.685  1.00  0.00     0.124 S 
ATOM     48  O   UNL     1       4.020 -14.050   9.538  1.00  0.00    -0.237 OA
ATOM     49  O   UNL     1       3.268 -14.277  11.885  1.00  0.00    -0.237 OA
ATOM     50  O   UNL     1       4.821 -15.930  10.913  1.00  0.00    -0.744 OA
ENDBRANCH  43  47
ENDBRANCH  26  40
BRANCH  27  51
ATOM     51  C   UNL     1      -7.131 -11.297   3.942  1.00  0.00     0.023 A 
ATOM     52  C   UNL     1      -8.030 -10.366   4.478  1.00  0.00     0.031 A 
ATOM     53  C   UNL     1      -7.234 -11.609   2.572  1.00  0.00     0.131 A 
ATOM     54  C   UNL     1      -9.005  -9.786   3.651  1.00  0.00     0.055 A 
ATOM     55  C   UNL     1      -8.176 -10.998   1.746  1.00  0.00     0.041 A 
ATOM     56  F   UNL     1      -6.385 -12.485   2.011  1.00  0.00    -0.206 F 
ATOM     57  C   UNL     1      -9.073 -10.083   2.287  1.00  0.00     0.022 A 
BRANCH  54  58
ATOM     58  S   UNL     1     -10.207  -8.648   4.391  1.00  0.00     0.124 S 
ATOM     59  O   UNL     1     -10.873  -9.510   5.361  1.00  0.00    -0.237 OA
ATOM     60  O   UNL     1      -9.343  -7.609   4.943  1.00  0.00    -0.237 OA
ATOM     61  O   UNL     1     -11.027  -8.233   3.256  1.00  0.00    -0.744 OA
ENDBRANCH  54  58
ENDBRANCH  27  51
BRANCH  39  62
ATOM     62  C   UNL     1      -7.034 -15.908   9.198  1.00  0.00     0.023 A 
ATOM     63  C   UNL     1      -7.885 -16.883   8.651  1.00  0.00     0.031 A 
ATOM     64  C   UNL     1      -7.211 -15.552  10.547  1.00  0.00     0.131 A 
ATOM     65  C   UNL     1      -8.897 -17.447   9.444  1.00  0.00     0.055 A 
ATOM     66  C   UNL     1      -8.186 -16.152  11.344  1.00  0.00     0.041 A 
ATOM     67  F   UNL     1      -6.426 -14.622  11.116  1.00  0.00    -0.206 F 
ATOM     68  C   UNL     1      -9.041 -17.100  10.790  1.00  0.00     0.022 A 
BRANCH  65  69
ATOM     69  S   UNL     1     -10.063 -18.608   8.680  1.00  0.00     0.124 S 
ATOM     70  O   UNL     1     -10.710 -17.769   7.676  1.00  0.00    -0.237 OA
ATOM     71  O   UNL     1      -9.180 -19.650   8.168  1.00  0.00    -0.237 OA
ATOM     72  O   UNL     1     -10.920 -19.015   9.793  1.00  0.00    -0.744 OA
ENDBRANCH  65  69
ENDBRANCH  39  62
ENDBRANCH  13  14
ENDBRANCH   6   8
ENDBRANCH   3   4
ENDBRANCH   2   3
ENDBRANCH   1   2
BRANCH   1  73
ATOM     73  C   UNL     1       6.493  -6.877   3.331  1.00  0.00     0.002 C 
BRANCH  73  74
ATOM     74  C   UNL     1       6.366  -6.463   4.798  1.00  0.00     0.021 C 
BRANCH  74  75
ATOM     75  C   UNL     1       7.631  -6.547   5.665  1.00  0.00     0.116 C 
BRANCH  75  76
ATOM     76  N   UNL     1       8.796  -5.839   5.160  1.00  0.00    -0.356 N 
ATOM     77  C   UNL     1       9.298  -4.579   5.359  1.00  0.00     0.227 C 
ATOM     78  H   UNL     1       9.342  -6.380   4.545  1.00  0.00     0.163 HD
ATOM     79  O   UNL     1      10.428  -4.370   4.896  1.00  0.00    -0.274 OA
BRANCH  77  80
ATOM     80  C   UNL     1       8.551  -3.515   6.194  1.00  0.00     0.110 C 
BRANCH  80  81
ATOM     81  C   UNL     1       9.354  -2.215   6.429  1.00  0.00    -0.021 A 
ATOM     82  C   UNL     1       9.022  -1.025   5.752  1.00  0.00     0.006 A 
ATOM     83  C   UNL     1      10.409  -2.133   7.362  1.00  0.00     0.021 A 
ATOM     84  C   UNL     1       9.618   0.202   6.060  1.00  0.00     0.000 A 
ATOM     85  C   UNL     1      11.028  -0.904   7.650  1.00  0.00     0.016 A 
ATOM     86  Br  UNL     1      11.072  -3.641   8.316  1.00  0.00    -0.051 Br
ATOM     87  C   UNL     1      10.614   0.266   7.020  1.00  0.00     0.001 A 
ENDBRANCH  80  81
BRANCH  80  88
ATOM     88  C   UNL     1       7.049  -3.266   5.899  1.00  0.00     0.025 C 
BRANCH  88  89
ATOM     89  C   UNL     1       6.468  -2.748   4.556  1.00  0.00     0.057 C 
BRANCH  89  90
ATOM     90  C   UNL     1       7.061  -3.051   3.201  1.00  0.00     0.040 A 
ATOM     91  C   UNL     1       6.497  -2.497   2.054  1.00  0.00     0.024 A 
ATOM     92  N   UNL     1       8.111  -3.877   3.113  1.00  0.00    -0.261 NA
ATOM     93  C   UNL     1       7.024  -2.822   0.802  1.00  0.00     0.003 A 
ATOM     94  C   UNL     1       8.620  -4.175   1.897  1.00  0.00     0.111 A 
ATOM     95  C   UNL     1       8.105  -3.686   0.717  1.00  0.00     0.020 A 
ENDBRANCH  89  90
ENDBRANCH  88  89
ENDBRANCH  80  88
ENDBRANCH  77  80
ENDBRANCH  75  76
ENDBRANCH  74  75
ENDBRANCH  73  74
ENDBRANCH   1  73
TORSDOF 20
