REMARK SMILES Cc1cc(/C=C2/C(=O)NC(=S)[NH+]=C2NCCCCCCNC(=O)c2ccc(-c3c4nc(c(-c5cc(S(=O)(=O)[O-])ccc5F)c5ccc([nH]5)c(-c5cc(S(=O)(=O)[O-])ccc5F)c5nc(c(-c6cc(S(=O)(=O)[O-])ccc6F)c6ccc3[nH]6)C=C5)C=C4)cc2)c(C)n1-c1cccc(C(=O)[O-])c1
REMARK SMILES IDX 18 1 17 2 16 3 15 4 14 5 5 6 6 7 7 8 13 9 8 10 9 11 12 12
REMARK SMILES IDX 10 13 11 17 4 18 1 19 2 20 3 21 89 22 87 23 88 24 90 25
REMARK SMILES IDX 91 26 98 27 92 28 94 29 93 30 95 31 96 32 97 33 19 34 20 35
REMARK SMILES IDX 21 36 22 37 23 39 24 40 25 41 86 42 26 43 85 44 27 45 28 46
REMARK SMILES IDX 29 47 79 48 30 49 84 50 78 51 80 52 31 53 83 54 77 55 76 56
REMARK SMILES IDX 32 58 64 59 44 60 63 61 45 62 48 63 62 64 81 65 46 66 47 67
REMARK SMILES IDX 61 69 82 70 49 71 33 72 34 73 42 74 35 75 41 76 43 77 40 78
REMARK SMILES IDX 36 79 37 80 38 81 39 82 65 83 66 84 74 85 67 86 73 87 75 88
REMARK SMILES IDX 72 89 68 90 69 91 70 92 71 93 50 94 51 95 59 96 52 97 58 98
REMARK SMILES IDX 60 99 57 100 53 101 54 102 55 103 56 104
REMARK H PARENT 9 14 12 15 14 16 21 38 80 57 48 68
REMARK Flexibility Score: inf
ROOT
ATOM      1  C   UNL     1       0.267   3.425   1.096  1.00  0.00     0.002 C 
ENDROOT
BRANCH   1   2
ATOM      2  C   UNL     1      -1.087   2.817   2.705  1.00  0.00     0.003 C 
BRANCH   2   3
ATOM      3  C   UNL     1      -2.271   1.479   2.956  1.00  0.00     0.037 C 
BRANCH   3   4
ATOM      4  C   UNL     1      -2.066   0.191   3.810  1.00  0.00     0.194 C 
BRANCH   4   5
ATOM      5  N   UNL     1      -1.615   0.344   5.186  1.00  0.00    -0.305 N 
ATOM      6  C   UNL     1       0.282  -2.311   4.742  1.00  0.00     0.032 C 
ATOM      7  C   UNL     1      -0.580  -1.997   5.731  1.00  0.00     0.128 C 
ATOM      8  C   UNL     1      -0.759  -3.096   6.713  1.00  0.00     0.319 C 
ATOM      9  C   UNL     1      -1.268  -0.690   6.058  1.00  0.00     0.234 C 
ATOM     10  O   UNL     1      -0.550  -4.282   6.480  1.00  0.00    -0.250 OA
ATOM     11  N   UNL     1      -1.119  -2.674   7.953  1.00  0.00    -0.229 N 
ATOM     12  N   UNL     1      -1.603  -0.450   7.306  1.00  0.00    -0.236 N 
ATOM     13  C   UNL     1      -1.425  -1.386   8.293  1.00  0.00     0.295 C 
ATOM     14  H   UNL     1      -1.164  -3.351   8.666  1.00  0.00     0.268 HD
ATOM     15  H   UNL     1      -1.992   0.424   7.539  1.00  0.00     0.268 HD
ATOM     16  H   UNL     1      -1.547   1.262   5.533  1.00  0.00     0.256 HD
ATOM     17  S   UNL     1      -1.635  -1.067   9.929  1.00  0.00    -0.005 S 
BRANCH   6  18
ATOM     18  C   UNL     1       0.731  -1.508   3.664  1.00  0.00    -0.003 A 
ATOM     19  C   UNL     1       1.174  -0.816   0.085  1.00  0.00     0.065 C 
ATOM     20  C   UNL     1       0.983  -0.835   1.550  1.00  0.00     0.020 A 
ATOM     21  C   UNL     1       0.845  -1.955   2.340  1.00  0.00     0.031 A 
ATOM     22  N   UNL     1       0.907   0.276   2.377  1.00  0.00    -0.318 N 
ATOM     23  C   UNL     1       1.114  -0.177   3.693  1.00  0.00     0.027 A 
ATOM     24  C   UNL     1       1.401   0.664   4.896  1.00  0.00     0.065 C 
BRANCH  22  25
ATOM     25  C   UNL     1       0.430   1.578   2.046  1.00  0.00     0.046 A 
ATOM     26  C   UNL     1       1.032   2.940   3.038  1.00  0.00     0.026 A 
ATOM     27  C   UNL     1      -0.984   1.841   0.915  1.00  0.00     0.036 A 
ATOM     28  C   UNL     1       0.220   4.534   2.970  1.00  0.00     0.003 A 
ATOM     29  C   UNL     1      -1.777   3.484   0.845  1.00  0.00    -0.001 A 
ATOM     30  C   UNL     1      -1.151   4.826   1.887  1.00  0.00     0.010 A 
BRANCH  29  31
ATOM     31  C   UNL     1      -2.691   3.957  -0.202  1.00  0.00     0.072 C 
ATOM     32  O   UNL     1      -3.000   5.126  -0.346  1.00  0.00    -0.545 OA
ATOM     33  O   UNL     1      -3.039   2.994  -1.053  1.00  0.00    -0.545 OA
ENDBRANCH  29  31
ENDBRANCH  22  25
ENDBRANCH   6  18
ENDBRANCH   4   5
ENDBRANCH   3   4
ENDBRANCH   2   3
ENDBRANCH   1   2
BRANCH   1  34
ATOM     34  C   UNL     1       0.978   2.665  -0.361  1.00  0.00     0.021 C 
BRANCH  34  35
ATOM     35  C   UNL     1       0.298   1.933  -1.591  1.00  0.00     0.116 C 
BRANCH  35  36
ATOM     36  N   UNL     1      -0.407   2.644  -2.627  1.00  0.00    -0.352 N 
ATOM     37  C   UNL     1      -1.201   2.095  -3.660  1.00  0.00     0.251 C 
ATOM     38  H   UNL     1      -0.328   3.626  -2.613  1.00  0.00     0.163 HD
ATOM     39  O   UNL     1      -1.712   2.913  -4.425  1.00  0.00    -0.269 OA
BRANCH  37  40
ATOM     40  C   UNL     1      -1.436   0.572  -3.899  1.00  0.00     0.039 A 
ATOM     41  C   UNL     1      -0.459  -0.221  -4.476  1.00  0.00     0.014 A 
ATOM     42  C   UNL     1      -2.693  -0.086  -3.853  1.00  0.00     0.014 A 
ATOM     43  C   UNL     1      -0.714  -1.617  -4.874  1.00  0.00     0.010 A 
ATOM     44  C   UNL     1      -2.969  -1.501  -4.346  1.00  0.00     0.010 A 
ATOM     45  C   UNL     1      -1.982  -2.364  -4.889  1.00  0.00    -0.014 A 
BRANCH  45  46
ATOM     46  C   UNL     1      -2.100  -3.752  -5.991  1.00  0.00     0.031 A 
ATOM     47  C   UNL     1      -1.352  -3.124  -7.114  1.00  0.00     0.074 A 
ATOM     48  C   UNL     1      -2.693  -5.016  -6.413  1.00  0.00     0.049 A 
ATOM     49  N   UNL     1      -1.845  -1.992  -7.531  1.00  0.00    -0.248 NA
ATOM     50  C   UNL     1       0.058  -3.317  -7.449  1.00  0.00     0.031 C 
ATOM     51  C   UNL     1      -3.854  -5.755  -5.845  1.00  0.00     0.029 A 
ATOM     52  N   UNL     1      -2.425  -5.987  -7.533  1.00  0.00    -0.354 N 
ATOM     53  C   UNL     1      -0.969  -1.458  -8.430  1.00  0.00     0.074 A 
ATOM     54  C   UNL     1       0.267  -2.199  -8.168  1.00  0.00     0.031 C 
ATOM     55  C   UNL     1      -4.073  -6.997  -6.409  1.00  0.00     0.029 A 
ATOM     56  C   UNL     1      -3.141  -7.324  -7.508  1.00  0.00     0.049 A 
ATOM     57  H   UNL     1      -1.803  -5.760  -8.262  1.00  0.00     0.167 HD
ATOM     58  C   UNL     1      -1.580  -1.179  -9.619  1.00  0.00     0.034 A 
ATOM     59  C   UNL     1      -3.095  -8.500  -8.359  1.00  0.00     0.034 A 
ATOM     60  C   UNL     1      -1.514  -2.326 -10.488  1.00  0.00     0.049 A 
ATOM     61  C   UNL     1      -2.967  -7.960  -9.705  1.00  0.00     0.074 A 
ATOM     62  C   UNL     1      -0.497  -3.227 -10.748  1.00  0.00     0.029 A 
ATOM     63  N   UNL     1      -2.696  -2.966 -10.784  1.00  0.00    -0.354 N 
ATOM     64  N   UNL     1      -3.953  -7.408 -10.334  1.00  0.00    -0.248 NA
ATOM     65  C   UNL     1      -1.703  -8.032 -10.414  1.00  0.00     0.031 C 
ATOM     66  C   UNL     1      -1.121  -4.481 -10.628  1.00  0.00     0.029 A 
ATOM     67  C   UNL     1      -2.479  -4.322 -10.869  1.00  0.00     0.049 A 
ATOM     68  H   UNL     1      -3.565  -2.522 -10.914  1.00  0.00     0.167 HD
ATOM     69  C   UNL     1      -3.289  -6.537 -11.139  1.00  0.00     0.074 A 
ATOM     70  C   UNL     1      -1.974  -7.131 -11.357  1.00  0.00     0.031 C 
ATOM     71  C   UNL     1      -3.601  -5.225 -10.982  1.00  0.00     0.034 A 
BRANCH  58  72
ATOM     72  C   UNL     1      -2.819  -0.319  -9.419  1.00  0.00     0.023 A 
ATOM     73  C   UNL     1      -2.748   1.034  -9.757  1.00  0.00     0.031 A 
ATOM     74  C   UNL     1      -3.989  -0.760  -8.746  1.00  0.00     0.131 A 
ATOM     75  C   UNL     1      -3.779   1.909  -9.369  1.00  0.00     0.055 A 
ATOM     76  C   UNL     1      -4.978   0.120  -8.309  1.00  0.00     0.041 A 
ATOM     77  F   UNL     1      -4.188  -2.063  -8.481  1.00  0.00    -0.206 F 
ATOM     78  C   UNL     1      -4.873   1.469  -8.617  1.00  0.00     0.022 A 
BRANCH  75  79
ATOM     79  S   UNL     1      -3.672   3.639  -9.886  1.00  0.00     0.124 S 
ATOM     80  O   UNL     1      -2.513   4.118  -9.139  1.00  0.00    -0.237 OA
ATOM     81  O   UNL     1      -3.481   3.519 -11.330  1.00  0.00    -0.237 OA
ATOM     82  O   UNL     1      -4.956   4.205  -9.481  1.00  0.00    -0.744 OA
ENDBRANCH  75  79
ENDBRANCH  58  72
BRANCH  59  83
ATOM     83  C   UNL     1      -3.352 -10.130  -8.623  1.00  0.00     0.023 A 
ATOM     84  C   UNL     1      -3.562 -10.784  -9.953  1.00  0.00     0.031 A 
ATOM     85  C   UNL     1      -2.904 -11.047  -7.661  1.00  0.00     0.131 A 
ATOM     86  C   UNL     1      -3.300 -12.192 -10.218  1.00  0.00     0.055 A 
ATOM     87  C   UNL     1      -2.639 -12.425  -7.939  1.00  0.00     0.041 A 
ATOM     88  F   UNL     1      -2.596 -10.622  -6.429  1.00  0.00    -0.206 F 
ATOM     89  C   UNL     1      -2.813 -12.996  -9.199  1.00  0.00     0.022 A 
BRANCH  86  90
ATOM     90  S   UNL     1      -3.413 -13.041 -11.901  1.00  0.00     0.124 S 
ATOM     91  O   UNL     1      -4.849 -13.165 -12.119  1.00  0.00    -0.237 OA
ATOM     92  O   UNL     1      -2.692 -12.133 -12.785  1.00  0.00    -0.237 OA
ATOM     93  O   UNL     1      -2.732 -14.325 -11.692  1.00  0.00    -0.744 OA
ENDBRANCH  86  90
ENDBRANCH  59  83
BRANCH  71  94
ATOM     94  C   UNL     1      -5.070  -4.849 -10.811  1.00  0.00     0.023 A 
ATOM     95  C   UNL     1      -6.015  -5.472  -9.953  1.00  0.00     0.031 A 
ATOM     96  C   UNL     1      -5.563  -3.827 -11.639  1.00  0.00     0.131 A 
ATOM     97  C   UNL     1      -7.373  -5.082  -9.967  1.00  0.00     0.055 A 
ATOM     98  C   UNL     1      -6.893  -3.410 -11.620  1.00  0.00     0.041 A 
ATOM     99  F   UNL     1      -4.745  -3.206 -12.505  1.00  0.00    -0.206 F 
ATOM    100  C   UNL     1      -7.809  -4.046 -10.794  1.00  0.00     0.022 A 
BRANCH  97 101
ATOM    101  S   UNL     1      -8.614  -5.974  -8.966  1.00  0.00     0.124 S 
ATOM    102  O   UNL     1      -8.342  -7.376  -9.261  1.00  0.00    -0.237 OA
ATOM    103  O   UNL     1      -8.300  -5.537  -7.609  1.00  0.00    -0.237 OA
ATOM    104  O   UNL     1      -9.891  -5.482  -9.487  1.00  0.00    -0.744 OA
ENDBRANCH  97 101
ENDBRANCH  71  94
ENDBRANCH  45  46
ENDBRANCH  37  40
ENDBRANCH  35  36
ENDBRANCH  34  35
ENDBRANCH   1  34
TORSDOF 18
