REMARK SMILES Cc1ccc(C[C@H](C(=O)NCCCCCCNC(=O)c2ccc(-c3c4nc(c(-c5cc(S(=O)(=O)[O-])ccc5F)c5ccc([nH]5)c(-c5cc(S(=O)(=O)[O-])ccc5F)c5nc(c(-c6cc(S(=O)(=O)[O-])ccc6F)c6ccc3[nH]6)C=C5)C=C4)cc2)[C@@H]2CCCC[C@@H]2O)cc1
REMARK SMILES IDX 14 1 13 2 12 3 11 4 10 5 8 6 9 7 7 9 6 10 5 11 1 12 2 13
REMARK SMILES IDX 3 14 91 15 4 16 90 17 83 18 84 19 88 20 85 21 87 22 86 23
REMARK SMILES IDX 89 24 15 26 16 27 17 28 18 29 19 31 20 32 21 33 82 34 22 35
REMARK SMILES IDX 81 36 23 37 24 38 25 39 75 40 26 41 80 42 74 43 76 44 27 45
REMARK SMILES IDX 79 46 73 47 72 48 28 50 60 51 40 52 59 53 41 54 44 55 58 56
REMARK SMILES IDX 77 57 42 58 43 59 57 61 78 62 45 63 29 64 30 65 38 66 31 67
REMARK SMILES IDX 37 68 39 69 36 70 32 71 33 72 34 73 35 74 61 75 62 76 70 77
REMARK SMILES IDX 63 78 69 79 71 80 68 81 64 82 65 83 66 84 67 85 46 86 47 87
REMARK SMILES IDX 55 88 48 89 54 90 56 91 53 92 49 93 50 94 51 95 52 96
REMARK H PARENT 10 8 89 25 17 30 76 49 44 60
REMARK Flexibility Score: inf
ROOT
ATOM      1  C   UNL     1      -3.326   0.001   5.834  1.00  0.00     0.002 C 
ENDROOT
BRANCH   1   2
ATOM      2  C   UNL     1      -4.394  -1.102   5.834  1.00  0.00     0.002 C 
BRANCH   2   3
ATOM      3  C   UNL     1      -4.926  -1.727   4.519  1.00  0.00     0.021 C 
BRANCH   3   4
ATOM      4  C   UNL     1      -5.045  -0.885   3.245  1.00  0.00     0.116 C 
BRANCH   4   5
ATOM      5  N   UNL     1      -4.321  -1.395   2.091  1.00  0.00    -0.356 N 
ATOM      6  C   UNL     1      -4.472  -1.213   0.750  1.00  0.00     0.223 C 
ATOM      7  O   UNL     1      -3.606  -1.780   0.062  1.00  0.00    -0.275 OA
ATOM      8  H   UNL     1      -3.572  -1.990   2.327  1.00  0.00     0.163 HD
BRANCH   6   9
ATOM      9  C   UNL     1      -5.660  -0.460   0.040  1.00  0.00     0.088 C 
BRANCH   9  10
ATOM     10  C   UNL     1      -5.819   1.030   0.466  1.00  0.00     0.049 C 
BRANCH  10  11
ATOM     11  C   UNL     1      -6.661   1.275   1.697  1.00  0.00    -0.047 A 
ATOM     12  C   UNL     1      -8.215   0.740   5.609  1.00  0.00     0.044 C 
ATOM     13  C   UNL     1      -7.809   1.109   4.221  1.00  0.00    -0.051 A 
ATOM     14  C   UNL     1      -8.461   0.538   3.128  1.00  0.00     0.004 A 
ATOM     15  C   UNL     1      -6.716   1.957   4.010  1.00  0.00     0.004 A 
ATOM     16  C   UNL     1      -7.899   0.638   1.860  1.00  0.00     0.004 A 
ATOM     17  C   UNL     1      -6.151   2.055   2.741  1.00  0.00     0.004 A 
ENDBRANCH  10  11
ENDBRANCH   9  10
BRANCH   9  18
ATOM     18  C   UNL     1      -5.441  -0.587  -1.545  1.00  0.00     0.030 C 
ATOM     19  C   UNL     1      -5.967   0.541  -2.461  1.00  0.00     0.007 C 
ATOM     20  C   UNL     1      -5.947  -1.937  -2.128  1.00  0.00     0.118 C 
ATOM     21  C   UNL     1      -7.484   0.534  -2.618  1.00  0.00     0.001 C 
ATOM     22  C   UNL     1      -7.465  -1.968  -2.346  1.00  0.00     0.032 C 
ATOM     23  C   UNL     1      -7.957  -0.797  -3.189  1.00  0.00     0.003 C 
BRANCH  20  24
ATOM     24  O   UNL     1      -5.595  -3.050  -1.320  1.00  0.00    -0.393 OA
ATOM     25  H   UNL     1      -6.041  -2.981  -0.462  1.00  0.00     0.210 HD
ENDBRANCH  20  24
ENDBRANCH   9  18
ENDBRANCH   6   9
ENDBRANCH   4   5
ENDBRANCH   3   4
ENDBRANCH   2   3
ENDBRANCH   1   2
BRANCH   1  26
ATOM     26  C   UNL     1      -3.632   1.381   6.472  1.00  0.00     0.021 C 
BRANCH  26  27
ATOM     27  C   UNL     1      -4.725   1.546   7.537  1.00  0.00     0.116 C 
BRANCH  27  28
ATOM     28  N   UNL     1      -4.298   1.521   8.923  1.00  0.00    -0.352 N 
ATOM     29  C   UNL     1      -4.989   1.942  10.055  1.00  0.00     0.251 C 
ATOM     30  H   UNL     1      -3.397   1.157   9.085  1.00  0.00     0.163 HD
ATOM     31  O   UNL     1      -4.404   2.321  11.057  1.00  0.00    -0.269 OA
BRANCH  29  32
ATOM     32  C   UNL     1      -6.465   1.715  10.137  1.00  0.00     0.039 A 
ATOM     33  C   UNL     1      -6.942   1.116  11.318  1.00  0.00     0.014 A 
ATOM     34  C   UNL     1      -7.323   1.859   9.055  1.00  0.00     0.014 A 
ATOM     35  C   UNL     1      -8.152   0.421  11.314  1.00  0.00     0.010 A 
ATOM     36  C   UNL     1      -8.512   1.151   9.042  1.00  0.00     0.010 A 
ATOM     37  C   UNL     1      -8.868   0.349  10.126  1.00  0.00    -0.014 A 
BRANCH  37  38
ATOM     38  C   UNL     1      -9.850  -0.688   9.830  1.00  0.00     0.031 A 
ATOM     39  C   UNL     1     -11.295  -0.427   9.883  1.00  0.00     0.074 A 
ATOM     40  C   UNL     1      -9.393  -1.870   9.362  1.00  0.00     0.049 A 
ATOM     41  N   UNL     1     -12.193  -1.331  10.081  1.00  0.00    -0.248 NA
ATOM     42  C   UNL     1     -11.845   0.911   9.734  1.00  0.00     0.031 C 
ATOM     43  C   UNL     1     -10.150  -2.947   8.732  1.00  0.00     0.029 A 
ATOM     44  N   UNL     1      -8.130  -2.413   9.566  1.00  0.00    -0.354 N 
ATOM     45  C   UNL     1     -13.415  -0.774   9.775  1.00  0.00     0.074 A 
ATOM     46  C   UNL     1     -13.153   0.644   9.669  1.00  0.00     0.031 C 
ATOM     47  C   UNL     1      -9.438  -4.084   8.819  1.00  0.00     0.029 A 
ATOM     48  C   UNL     1      -8.273  -3.805   9.642  1.00  0.00     0.049 A 
ATOM     49  H   UNL     1      -7.287  -1.910   9.643  1.00  0.00     0.167 HD
ATOM     50  C   UNL     1     -14.469  -1.592   9.479  1.00  0.00     0.034 A 
ATOM     51  C   UNL     1      -7.955  -4.457  10.801  1.00  0.00     0.034 A 
ATOM     52  C   UNL     1     -14.093  -3.005   9.601  1.00  0.00     0.049 A 
ATOM     53  C   UNL     1      -9.152  -5.115  11.456  1.00  0.00     0.074 A 
ATOM     54  C   UNL     1     -13.762  -3.966   8.659  1.00  0.00     0.029 A 
ATOM     55  N   UNL     1     -13.727  -3.528  10.838  1.00  0.00    -0.354 N 
ATOM     56  N   UNL     1     -10.393  -4.833  11.165  1.00  0.00    -0.248 NA
ATOM     57  C   UNL     1      -9.045  -6.147  12.482  1.00  0.00     0.031 C 
ATOM     58  C   UNL     1     -13.112  -5.034   9.331  1.00  0.00     0.029 A 
ATOM     59  C   UNL     1     -13.086  -4.743  10.684  1.00  0.00     0.049 A 
ATOM     60  H   UNL     1     -13.902  -3.092  11.704  1.00  0.00     0.167 HD
ATOM     61  C   UNL     1     -11.236  -5.599  11.930  1.00  0.00     0.074 A 
ATOM     62  C   UNL     1     -10.339  -6.421  12.724  1.00  0.00     0.031 C 
ATOM     63  C   UNL     1     -12.598  -5.485  11.841  1.00  0.00     0.034 A 
BRANCH  50  64
ATOM     64  C   UNL     1     -15.723  -1.141   8.748  1.00  0.00     0.023 A 
ATOM     65  C   UNL     1     -16.438  -2.076   7.966  1.00  0.00     0.031 A 
ATOM     66  C   UNL     1     -16.238   0.168   8.723  1.00  0.00     0.131 A 
ATOM     67  C   UNL     1     -17.498  -1.685   7.126  1.00  0.00     0.055 A 
ATOM     68  C   UNL     1     -17.258   0.573   7.848  1.00  0.00     0.041 A 
ATOM     69  F   UNL     1     -15.826   1.106   9.584  1.00  0.00    -0.206 F 
ATOM     70  C   UNL     1     -17.884  -0.353   7.029  1.00  0.00     0.022 A 
BRANCH  67  71
ATOM     71  S   UNL     1     -18.372  -2.947   6.159  1.00  0.00     0.124 S 
ATOM     72  O   UNL     1     -17.304  -3.492   5.327  1.00  0.00    -0.237 OA
ATOM     73  O   UNL     1     -18.896  -3.825   7.199  1.00  0.00    -0.237 OA
ATOM     74  O   UNL     1     -19.384  -2.178   5.435  1.00  0.00    -0.744 OA
ENDBRANCH  67  71
ENDBRANCH  50  64
BRANCH  51  75
ATOM     75  C   UNL     1      -6.792  -3.833  11.505  1.00  0.00     0.023 A 
ATOM     76  C   UNL     1      -5.574  -3.770  10.791  1.00  0.00     0.031 A 
ATOM     77  C   UNL     1      -6.959  -2.960  12.588  1.00  0.00     0.131 A 
ATOM     78  C   UNL     1      -4.649  -2.744  11.046  1.00  0.00     0.055 A 
ATOM     79  C   UNL     1      -5.998  -1.982  12.886  1.00  0.00     0.041 A 
ATOM     80  F   UNL     1      -8.103  -2.946  13.287  1.00  0.00    -0.206 F 
ATOM     81  C   UNL     1      -4.863  -1.837  12.083  1.00  0.00     0.022 A 
BRANCH  78  82
ATOM     82  S   UNL     1      -3.312  -2.441   9.848  1.00  0.00     0.124 S 
ATOM     83  O   UNL     1      -2.176  -3.097  10.482  1.00  0.00    -0.237 OA
ATOM     84  O   UNL     1      -3.812  -3.079   8.633  1.00  0.00    -0.237 OA
ATOM     85  O   UNL     1      -3.240  -0.982   9.767  1.00  0.00    -0.744 OA
ENDBRANCH  78  82
ENDBRANCH  51  75
BRANCH  63  86
ATOM     86  C   UNL     1     -13.606  -6.128  12.773  1.00  0.00     0.023 A 
ATOM     87  C   UNL     1     -13.277  -6.635  14.038  1.00  0.00     0.031 A 
ATOM     88  C   UNL     1     -14.984  -6.175  12.437  1.00  0.00     0.131 A 
ATOM     89  C   UNL     1     -14.250  -7.228  14.863  1.00  0.00     0.055 A 
ATOM     90  C   UNL     1     -15.963  -6.684  13.296  1.00  0.00     0.041 A 
ATOM     91  F   UNL     1     -15.443  -5.723  11.261  1.00  0.00    -0.206 F 
ATOM     92  C   UNL     1     -15.598  -7.231  14.513  1.00  0.00     0.022 A 
BRANCH  89  93
ATOM     93  S   UNL     1     -13.698  -8.064  16.372  1.00  0.00     0.124 S 
ATOM     94  O   UNL     1     -12.834  -9.111  15.834  1.00  0.00    -0.237 OA
ATOM     95  O   UNL     1     -13.021  -6.992  17.094  1.00  0.00    -0.237 OA
ATOM     96  O   UNL     1     -14.940  -8.537  16.979  1.00  0.00    -0.744 OA
ENDBRANCH  89  93
ENDBRANCH  63  86
ENDBRANCH  37  38
ENDBRANCH  29  32
ENDBRANCH  27  28
ENDBRANCH  26  27
ENDBRANCH   1  26
TORSDOF 20
