REMARK SMILES CC(C)C[C@H](NC(=O)CNC(=O)[C@@H](NC(=O)OCc1ccccc1)C(C)C)C(=O)N[C@@H](C)C(=O)NCCCCCCNC(=O)c1ccc(-c2c3nc(c(-c4cc(S(=O)(=O)[O-])ccc4F)c4ccc([nH]4)c(-c4cc(S(=O)(=O)[O-])ccc4F)c4nc(c(-c5cc(S(=O)(=O)[O-])ccc5F)c5ccc2[nH]5)C=C4)C=C3)cc1
REMARK SMILES IDX 33 1 34 2 35 3 31 5 32 6 30 7 28 8 29 9 5 11 4 12 2 13 1 14
REMARK SMILES IDX 3 15 6 16 7 17 8 19 9 20 10 21 11 22 12 24 13 25 14 26 15 27
REMARK SMILES IDX 16 29 17 30 18 31 19 32 20 33 24 34 21 35 23 36 22 37 25 38
REMARK SMILES IDX 26 39 27 40 36 41 37 42 38 43 39 44 40 45 41 46 42 47 43 48
REMARK SMILES IDX 44 50 45 51 46 52 107 53 47 54 106 55 48 56 49 57 50 58
REMARK SMILES IDX 100 59 51 60 105 61 99 62 101 63 52 64 104 65 98 66 97 67
REMARK SMILES IDX 53 69 85 70 65 71 84 72 66 73 69 74 83 75 102 76 67 77 68 78
REMARK SMILES IDX 82 80 103 81 70 82 54 83 55 84 63 85 56 86 62 87 64 88 61 89
REMARK SMILES IDX 57 90 58 91 59 92 60 93 86 94 87 95 95 96 88 97 94 98 96 99
REMARK SMILES IDX 93 100 89 101 90 102 91 103 92 104 71 105 72 106 80 107
REMARK SMILES IDX 73 108 79 109 81 110 78 111 74 112 75 113 76 114 77 115
REMARK H PARENT 35 4 30 10 6 18 10 23 14 28 42 49 101 68 69 79
REMARK Flexibility Score: inf
ROOT
ATOM      1  C   UNL     1      -3.513   3.642   3.313  1.00  0.00     0.242 C 
ATOM      2  O   UNL     1      -2.716   4.029   4.175  1.00  0.00    -0.273 OA
ATOM      3  N   UNL     1      -4.830   3.639   3.639  1.00  0.00    -0.354 N 
ATOM      4  H   UNL     1      -5.016   3.853   4.582  1.00  0.00     0.163 HD
ENDROOT
BRANCH   1   5
ATOM      5  C   UNL     1      -3.012   3.272   1.905  1.00  0.00     0.168 C 
ATOM      6  C   UNL     1      -3.382   4.327   0.871  1.00  0.00     0.041 C 
BRANCH   5   7
ATOM      7  N   UNL     1      -3.446   1.940   1.483  1.00  0.00    -0.343 N 
ATOM      8  C   UNL     1      -2.823   0.734   1.590  1.00  0.00     0.243 C 
ATOM      9  O   UNL     1      -3.531  -0.274   1.518  1.00  0.00    -0.273 OA
ATOM     10  H   UNL     1      -4.331   1.910   1.052  1.00  0.00     0.164 HD
BRANCH   8  11
ATOM     11  C   UNL     1      -1.319   0.624   1.903  1.00  0.00     0.171 C 
BRANCH  11  12
ATOM     12  C   UNL     1      -1.010   0.889   3.384  1.00  0.00     0.038 C 
BRANCH  12  13
ATOM     13  C   UNL     1      -1.849   0.074   4.402  1.00  0.00    -0.015 C 
ATOM     14  C   UNL     1      -1.821  -1.440   4.185  1.00  0.00     0.007 C 
ATOM     15  C   UNL     1      -1.365   0.376   5.823  1.00  0.00     0.007 C 
ENDBRANCH  12  13
ENDBRANCH  11  12
BRANCH  11  16
ATOM     16  N   UNL     1      -0.561   1.462   0.966  1.00  0.00    -0.343 N 
ATOM     17  C   UNL     1       0.585   1.243   0.272  1.00  0.00     0.240 C 
ATOM     18  H   UNL     1      -0.958   2.350   0.813  1.00  0.00     0.164 HD
ATOM     19  O   UNL     1       0.823   2.026  -0.655  1.00  0.00    -0.273 OA
BRANCH  17  20
ATOM     20  C   UNL     1       1.494   0.027   0.486  1.00  0.00     0.216 C 
BRANCH  20  21
ATOM     21  N   UNL     1       1.619  -0.456   1.842  1.00  0.00    -0.345 N 
ATOM     22  C   UNL     1       1.349  -1.646   2.427  1.00  0.00     0.243 C 
ATOM     23  H   UNL     1       1.973   0.218   2.467  1.00  0.00     0.164 HD
ATOM     24  O   UNL     1       1.697  -1.739   3.612  1.00  0.00    -0.273 OA
BRANCH  22  25
ATOM     25  C   UNL     1       0.764  -2.891   1.699  1.00  0.00     0.177 C 
BRANCH  25  26
ATOM     26  N   UNL     1      -0.415  -2.581   0.889  1.00  0.00    -0.309 N 
ATOM     27  C   UNL     1      -0.610  -2.339  -0.431  1.00  0.00     0.408 C 
ATOM     28  H   UNL     1      -1.246  -2.539   1.416  1.00  0.00     0.167 HD
ATOM     29  O   UNL     1      -1.553  -1.646  -0.784  1.00  0.00    -0.225 OA
BRANCH  27  30
ATOM     30  O   UNL     1       0.287  -2.919  -1.257  1.00  0.00    -0.445 OA
BRANCH  30  31
ATOM     31  C   UNL     1      -0.078  -2.889  -2.647  1.00  0.00     0.270 C 
BRANCH  31  32
ATOM     32  C   UNL     1      -1.064  -3.989  -2.973  1.00  0.00    -0.011 A 
ATOM     33  C   UNL     1      -0.627  -5.231  -3.453  1.00  0.00     0.007 A 
ATOM     34  C   UNL     1      -2.439  -3.800  -2.761  1.00  0.00     0.007 A 
ATOM     35  C   UNL     1      -1.544  -6.253  -3.711  1.00  0.00     0.000 A 
ATOM     36  C   UNL     1      -3.352  -4.828  -2.997  1.00  0.00     0.000 A 
ATOM     37  C   UNL     1      -2.904  -6.055  -3.476  1.00  0.00     0.000 A 
ENDBRANCH  31  32
ENDBRANCH  30  31
ENDBRANCH  27  30
ENDBRANCH  25  26
BRANCH  25  38
ATOM     38  C   UNL     1       1.848  -3.787   1.067  1.00  0.00     0.015 C 
ATOM     39  C   UNL     1       3.027  -4.013   2.026  1.00  0.00     0.010 C 
ATOM     40  C   UNL     1       1.265  -5.161   0.707  1.00  0.00     0.010 C 
ENDBRANCH  25  38
ENDBRANCH  22  25
ENDBRANCH  20  21
ENDBRANCH  17  20
ENDBRANCH  11  16
ENDBRANCH   8  11
ENDBRANCH   5   7
ENDBRANCH   1   5
BRANCH   3  41
ATOM     41  C   UNL     1      -6.010   3.376   2.842  1.00  0.00     0.116 C 
BRANCH  41  42
ATOM     42  C   UNL     1      -6.915   2.342   3.503  1.00  0.00     0.021 C 
BRANCH  42  43
ATOM     43  C   UNL     1      -7.505   2.783   4.848  1.00  0.00     0.002 C 
BRANCH  43  44
ATOM     44  C   UNL     1      -8.202   4.147   4.843  1.00  0.00     0.002 C 
BRANCH  44  45
ATOM     45  C   UNL     1      -9.273   4.332   3.765  1.00  0.00     0.021 C 
BRANCH  45  46
ATOM     46  C   UNL     1     -10.393   3.299   3.794  1.00  0.00     0.116 C 
BRANCH  46  47
ATOM     47  N   UNL     1     -11.158   3.360   5.027  1.00  0.00    -0.352 N 
ATOM     48  C   UNL     1     -12.518   3.457   5.194  1.00  0.00     0.251 C 
ATOM     49  H   UNL     1     -10.630   3.327   5.857  1.00  0.00     0.163 HD
ATOM     50  O   UNL     1     -12.980   3.697   6.304  1.00  0.00    -0.269 OA
BRANCH  48  51
ATOM     51  C   UNL     1     -13.412   3.297   4.026  1.00  0.00     0.039 A 
ATOM     52  C   UNL     1     -14.459   4.205   3.848  1.00  0.00     0.014 A 
ATOM     53  C   UNL     1     -13.219   2.256   3.112  1.00  0.00     0.014 A 
ATOM     54  C   UNL     1     -15.280   4.101   2.722  1.00  0.00     0.010 A 
ATOM     55  C   UNL     1     -13.994   2.196   1.957  1.00  0.00     0.010 A 
ATOM     56  C   UNL     1     -15.036   3.114   1.754  1.00  0.00    -0.014 A 
BRANCH  56  57
ATOM     57  C   UNL     1     -15.869   3.017   0.527  1.00  0.00     0.031 A 
ATOM     58  C   UNL     1     -16.719   1.799   0.290  1.00  0.00     0.074 A 
ATOM     59  C   UNL     1     -15.799   3.988  -0.405  1.00  0.00     0.049 A 
ATOM     60  N   UNL     1     -17.448   1.486  -0.750  1.00  0.00    -0.248 NA
ATOM     61  C   UNL     1     -16.718   0.783   1.353  1.00  0.00     0.031 C 
ATOM     62  C   UNL     1     -14.968   5.190  -0.311  1.00  0.00     0.029 A 
ATOM     63  N   UNL     1     -16.422   4.110  -1.621  1.00  0.00    -0.354 N 
ATOM     64  C   UNL     1     -17.976   0.228  -0.478  1.00  0.00     0.074 A 
ATOM     65  C   UNL     1     -17.433  -0.184   0.799  1.00  0.00     0.031 C 
ATOM     66  C   UNL     1     -15.137   5.929  -1.419  1.00  0.00     0.029 A 
ATOM     67  C   UNL     1     -16.057   5.238  -2.318  1.00  0.00     0.049 A 
ATOM     68  H   UNL     1     -17.069   3.451  -1.964  1.00  0.00     0.167 HD
ATOM     69  C   UNL     1     -18.848  -0.504  -1.216  1.00  0.00     0.034 A 
ATOM     70  C   UNL     1     -16.410   5.661  -3.548  1.00  0.00     0.034 A 
ATOM     71  C   UNL     1     -19.390  -0.066  -2.480  1.00  0.00     0.049 A 
ATOM     72  C   UNL     1     -17.384   4.838  -4.349  1.00  0.00     0.074 A 
ATOM     73  C   UNL     1     -20.340  -0.685  -3.273  1.00  0.00     0.029 A 
ATOM     74  N   UNL     1     -19.019   1.098  -3.144  1.00  0.00    -0.354 N 
ATOM     75  N   UNL     1     -17.933   3.684  -4.047  1.00  0.00    -0.248 NA
ATOM     76  C   UNL     1     -17.797   5.381  -5.649  1.00  0.00     0.031 C 
ATOM     77  C   UNL     1     -20.494   0.067  -4.444  1.00  0.00     0.029 A 
ATOM     78  C   UNL     1     -19.695   1.196  -4.351  1.00  0.00     0.049 A 
ATOM     79  H   UNL     1     -18.371   1.757  -2.806  1.00  0.00     0.167 HD
ATOM     80  C   UNL     1     -18.775   3.375  -5.111  1.00  0.00     0.074 A 
ATOM     81  C   UNL     1     -18.672   4.471  -6.053  1.00  0.00     0.031 C 
ATOM     82  C   UNL     1     -19.567   2.286  -5.290  1.00  0.00     0.034 A 
BRANCH  69  83
ATOM     83  C   UNL     1     -19.236  -1.864  -0.683  1.00  0.00     0.023 A 
ATOM     84  C   UNL     1     -19.898  -2.016   0.549  1.00  0.00     0.031 A 
ATOM     85  C   UNL     1     -18.902  -3.030  -1.394  1.00  0.00     0.131 A 
ATOM     86  C   UNL     1     -20.120  -3.298   1.074  1.00  0.00     0.055 A 
ATOM     87  C   UNL     1     -19.205  -4.304  -0.907  1.00  0.00     0.041 A 
ATOM     88  F   UNL     1     -18.253  -2.953  -2.567  1.00  0.00    -0.206 F 
ATOM     89  C   UNL     1     -19.800  -4.444   0.343  1.00  0.00     0.022 A 
BRANCH  86  90
ATOM     90  S   UNL     1     -20.678  -3.443   2.794  1.00  0.00     0.124 S 
ATOM     91  O   UNL     1     -19.625  -2.724   3.507  1.00  0.00    -0.237 OA
ATOM     92  O   UNL     1     -21.983  -2.795   2.757  1.00  0.00    -0.237 OA
ATOM     93  O   UNL     1     -20.702  -4.886   3.026  1.00  0.00    -0.744 OA
ENDBRANCH  86  90
ENDBRANCH  69  83
BRANCH  70  94
ATOM     94  C   UNL     1     -15.824   6.914  -4.103  1.00  0.00     0.023 A 
ATOM     95  C   UNL     1     -16.617   8.050  -4.330  1.00  0.00     0.031 A 
ATOM     96  C   UNL     1     -14.458   6.986  -4.428  1.00  0.00     0.131 A 
ATOM     97  C   UNL     1     -16.045   9.197  -4.901  1.00  0.00     0.055 A 
ATOM     98  C   UNL     1     -13.884   8.144  -4.953  1.00  0.00     0.041 A 
ATOM     99  F   UNL     1     -13.654   5.930  -4.219  1.00  0.00    -0.206 F 
ATOM    100  C   UNL     1     -14.682   9.257  -5.202  1.00  0.00     0.022 A 
BRANCH  97 101
ATOM    101  S   UNL     1     -17.123  10.600  -5.301  1.00  0.00     0.124 S 
ATOM    102  O   UNL     1     -18.068   9.992  -6.232  1.00  0.00    -0.237 OA
ATOM    103  O   UNL     1     -17.653  10.957  -3.990  1.00  0.00    -0.237 OA
ATOM    104  O   UNL     1     -16.208  11.576  -5.888  1.00  0.00    -0.744 OA
ENDBRANCH  97 101
ENDBRANCH  70  94
BRANCH  82 105
ATOM    105  C   UNL     1     -20.408   2.251  -6.543  1.00  0.00     0.023 A 
ATOM    106  C   UNL     1     -19.831   2.123  -7.818  1.00  0.00     0.031 A 
ATOM    107  C   UNL     1     -21.807   2.357  -6.456  1.00  0.00     0.131 A 
ATOM    108  C   UNL     1     -20.646   2.155  -8.960  1.00  0.00     0.055 A 
ATOM    109  C   UNL     1     -22.618   2.331  -7.592  1.00  0.00     0.041 A 
ATOM    110  F   UNL     1     -22.411   2.485  -5.264  1.00  0.00    -0.206 F 
ATOM    111  C   UNL     1     -22.037   2.242  -8.854  1.00  0.00     0.022 A 
BRANCH 108 112
ATOM    112  S   UNL     1     -19.859   2.170 -10.594  1.00  0.00     0.124 S 
ATOM    113  O   UNL     1     -19.034   3.372 -10.522  1.00  0.00    -0.237 OA
ATOM    114  O   UNL     1     -19.137   0.901 -10.604  1.00  0.00    -0.237 OA
ATOM    115  O   UNL     1     -20.988   2.247 -11.518  1.00  0.00    -0.744 OA
ENDBRANCH 108 112
ENDBRANCH  82 105
ENDBRANCH  56  57
ENDBRANCH  48  51
ENDBRANCH  46  47
ENDBRANCH  45  46
ENDBRANCH  44  45
ENDBRANCH  43  44
ENDBRANCH  42  43
ENDBRANCH  41  42
ENDBRANCH   3  41
TORSDOF 29
