REMARK SMILES COCC[C@@H](C)NC(=O)N1Cc2nc[nH]c2C[C@@H]1C(=O)NCCCCCCNC(=O)c1ccc(-c2c3nc(c(-c4cc(S(=O)(=O)[O-])ccc4F)c4ccc([nH]4)c(-c4cc(S(=O)(=O)[O-])ccc4F)c4nc(c(-c5cc(S(=O)(=O)[O-])ccc5F)c5ccc2[nH]5)C=C4)C=C3)cc1
REMARK SMILES IDX 23 1 22 2 21 3 19 4 20 5 18 7 10 8 11 9 12 10 17 11 13 12
REMARK SMILES IDX 16 13 14 14 15 15 8 17 7 18 9 20 5 21 6 22 4 23 3 24 2 25
REMARK SMILES IDX 1 26 24 27 25 28 26 29 27 30 28 31 29 32 30 34 31 35 32 36
REMARK SMILES IDX 93 37 33 38 92 39 34 40 35 41 36 42 86 43 37 44 91 45 85 46
REMARK SMILES IDX 87 47 38 48 90 49 84 50 83 51 39 53 71 54 51 55 70 56 52 57
REMARK SMILES IDX 55 58 69 59 88 60 53 61 54 62 68 64 89 65 56 66 40 67 41 68
REMARK SMILES IDX 49 69 42 70 48 71 50 72 47 73 43 74 44 75 45 76 46 77 72 78
REMARK SMILES IDX 73 79 81 80 74 81 80 82 82 83 79 84 75 85 76 86 77 87 78 88
REMARK SMILES IDX 57 89 58 90 66 91 59 92 65 93 67 94 64 95 60 96 61 97 62 98
REMARK SMILES IDX 63 99
REMARK H PARENT 21 6 15 16 7 19 28 33 87 52 55 63
REMARK Flexibility Score: inf
ROOT
ATOM      1  C   UNL     1       2.522  -1.310  -0.440  1.00  0.00     0.021 C 
ENDROOT
BRANCH   1   2
ATOM      2  C   UNL     1       2.549   0.188  -0.084  1.00  0.00     0.116 C 
BRANCH   2   3
ATOM      3  N   UNL     1       2.884   1.048  -1.215  1.00  0.00    -0.354 N 
ATOM      4  C   UNL     1       2.207   2.055  -1.859  1.00  0.00     0.243 C 
ATOM      5  O   UNL     1       2.799   2.551  -2.827  1.00  0.00    -0.273 OA
ATOM      6  H   UNL     1       3.776   0.871  -1.592  1.00  0.00     0.163 HD
BRANCH   4   7
ATOM      7  C   UNL     1       0.786   2.568  -1.446  1.00  0.00     0.182 C 
ATOM      8  N   UNL     1      -0.410   2.102  -2.232  1.00  0.00    -0.306 N 
ATOM      9  C   UNL     1      -1.737   2.590  -1.797  1.00  0.00     0.180 C 
ATOM     10  C   UNL     1      -1.660   4.039  -1.448  1.00  0.00     0.081 A 
ATOM     11  C   UNL     1       0.875   4.134  -1.403  1.00  0.00     0.091 C 
ATOM     12  N   UNL     1      -2.730   4.881  -1.282  1.00  0.00    -0.240 NA
ATOM     13  C   UNL     1      -0.480   4.716  -1.248  1.00  0.00     0.042 A 
ATOM     14  C   UNL     1      -2.201   6.060  -1.033  1.00  0.00     0.197 A 
ATOM     15  N   UNL     1      -0.832   6.006  -0.986  1.00  0.00    -0.348 N 
ATOM     16  H   UNL     1      -0.221   6.755  -0.799  1.00  0.00     0.167 HD
BRANCH   8  17
ATOM     17  C   UNL     1      -0.367   1.858  -3.585  1.00  0.00     0.318 C 
ATOM     18  N   UNL     1      -0.195   0.547  -3.926  1.00  0.00    -0.335 N 
ATOM     19  H   UNL     1      -0.597   0.259  -4.777  1.00  0.00     0.165 HD
ATOM     20  O   UNL     1      -0.710   2.668  -4.442  1.00  0.00    -0.249 OA
BRANCH  18  21
ATOM     21  C   UNL     1       0.517  -0.468  -3.167  1.00  0.00     0.083 C 
ATOM     22  C   UNL     1       1.783  -0.773  -3.983  1.00  0.00     0.031 C 
BRANCH  21  23
ATOM     23  C   UNL     1      -0.351  -1.700  -2.829  1.00  0.00     0.053 C 
BRANCH  23  24
ATOM     24  C   UNL     1      -0.766  -1.846  -1.342  1.00  0.00     0.162 C 
BRANCH  24  25
ATOM     25  O   UNL     1      -0.887  -0.582  -0.696  1.00  0.00    -0.385 OA
ATOM     26  C   UNL     1      -0.911  -0.642   0.723  1.00  0.00     0.194 C 
ENDBRANCH  24  25
ENDBRANCH  23  24
ENDBRANCH  21  23
ENDBRANCH  18  21
ENDBRANCH   8  17
ENDBRANCH   4   7
ENDBRANCH   2   3
ENDBRANCH   1   2
BRANCH   1  27
ATOM     27  C   UNL     1       3.753  -2.167  -0.150  1.00  0.00     0.002 C 
BRANCH  27  28
ATOM     28  C   UNL     1       3.861  -2.647   1.304  1.00  0.00     0.002 C 
BRANCH  28  29
ATOM     29  C   UNL     1       2.656  -3.422   1.873  1.00  0.00     0.021 C 
BRANCH  29  30
ATOM     30  C   UNL     1       2.275  -4.688   1.109  1.00  0.00     0.116 C 
BRANCH  30  31
ATOM     31  N   UNL     1       3.290  -5.725   1.215  1.00  0.00    -0.352 N 
ATOM     32  C   UNL     1       3.161  -7.082   1.028  1.00  0.00     0.251 C 
ATOM     33  H   UNL     1       4.193  -5.413   1.453  1.00  0.00     0.163 HD
ATOM     34  O   UNL     1       4.041  -7.834   1.455  1.00  0.00    -0.269 OA
BRANCH  32  35
ATOM     35  C   UNL     1       1.985  -7.636   0.324  1.00  0.00     0.039 A 
ATOM     36  C   UNL     1       1.475  -8.887   0.689  1.00  0.00     0.014 A 
ATOM     37  C   UNL     1       1.416  -6.932  -0.739  1.00  0.00     0.014 A 
ATOM     38  C   UNL     1       0.370  -9.398   0.011  1.00  0.00     0.010 A 
ATOM     39  C   UNL     1       0.272  -7.396  -1.353  1.00  0.00     0.010 A 
ATOM     40  C   UNL     1      -0.234  -8.644  -1.007  1.00  0.00    -0.014 A 
BRANCH  40  41
ATOM     41  C   UNL     1      -1.491  -9.090  -1.605  1.00  0.00     0.031 A 
ATOM     42  C   UNL     1      -2.593  -9.287  -0.623  1.00  0.00     0.074 A 
ATOM     43  C   UNL     1      -1.732  -9.108  -2.935  1.00  0.00     0.049 A 
ATOM     44  N   UNL     1      -3.170 -10.392  -0.290  1.00  0.00    -0.248 NA
ATOM     45  C   UNL     1      -3.001  -8.138   0.204  1.00  0.00     0.031 C 
ATOM     46  C   UNL     1      -0.863  -8.646  -4.021  1.00  0.00     0.029 A 
ATOM     47  N   UNL     1      -2.876  -9.443  -3.594  1.00  0.00    -0.354 N 
ATOM     48  C   UNL     1      -4.176 -10.051   0.611  1.00  0.00     0.074 A 
ATOM     49  C   UNL     1      -3.889  -8.703   1.024  1.00  0.00     0.031 C 
ATOM     50  C   UNL     1      -1.591  -8.504  -5.152  1.00  0.00     0.029 A 
ATOM     51  C   UNL     1      -2.933  -9.009  -4.917  1.00  0.00     0.049 A 
ATOM     52  H   UNL     1      -3.605  -9.951  -3.169  1.00  0.00     0.167 HD
ATOM     53  C   UNL     1      -5.285 -10.829   0.757  1.00  0.00     0.034 A 
ATOM     54  C   UNL     1      -4.015  -9.023  -5.745  1.00  0.00     0.034 A 
ATOM     55  C   UNL     1      -5.068 -12.145   0.196  1.00  0.00     0.049 A 
ATOM     56  C   UNL     1      -4.949 -10.043  -5.204  1.00  0.00     0.074 A 
ATOM     57  C   UNL     1      -4.134 -13.142   0.415  1.00  0.00     0.029 A 
ATOM     58  N   UNL     1      -5.626 -12.434  -1.030  1.00  0.00    -0.354 N 
ATOM     59  N   UNL     1      -4.664 -11.317  -5.153  1.00  0.00    -0.248 NA
ATOM     60  C   UNL     1      -5.967  -9.601  -4.262  1.00  0.00     0.031 C 
ATOM     61  C   UNL     1      -3.805 -13.619  -0.889  1.00  0.00     0.029 A 
ATOM     62  C   UNL     1      -4.627 -12.966  -1.810  1.00  0.00     0.049 A 
ATOM     63  H   UNL     1      -6.563 -12.288  -1.297  1.00  0.00     0.167 HD
ATOM     64  C   UNL     1      -5.116 -11.737  -3.911  1.00  0.00     0.074 A 
ATOM     65  C   UNL     1      -5.989 -10.658  -3.444  1.00  0.00     0.031 C 
ATOM     66  C   UNL     1      -4.526 -12.775  -3.246  1.00  0.00     0.034 A 
BRANCH  53  67
ATOM     67  C   UNL     1      -6.675 -10.312   1.069  1.00  0.00     0.023 A 
ATOM     68  C   UNL     1      -7.710 -11.265   1.149  1.00  0.00     0.031 A 
ATOM     69  C   UNL     1      -7.092  -8.964   1.002  1.00  0.00     0.131 A 
ATOM     70  C   UNL     1      -9.058 -10.883   1.034  1.00  0.00     0.055 A 
ATOM     71  C   UNL     1      -8.437  -8.584   0.961  1.00  0.00     0.041 A 
ATOM     72  F   UNL     1      -6.237  -7.943   0.877  1.00  0.00    -0.206 F 
ATOM     73  C   UNL     1      -9.430  -9.546   0.940  1.00  0.00     0.022 A 
BRANCH  70  74
ATOM     74  S   UNL     1     -10.300 -12.183   0.816  1.00  0.00     0.124 S 
ATOM     75  O   UNL     1      -9.764 -12.908  -0.331  1.00  0.00    -0.237 OA
ATOM     76  O   UNL     1     -10.241 -12.873   2.100  1.00  0.00    -0.237 OA
ATOM     77  O   UNL     1     -11.531 -11.436   0.565  1.00  0.00    -0.744 OA
ENDBRANCH  70  74
ENDBRANCH  53  67
BRANCH  54  78
ATOM     78  C   UNL     1      -4.408  -7.974  -6.736  1.00  0.00     0.023 A 
ATOM     79  C   UNL     1      -5.341  -8.196  -7.775  1.00  0.00     0.031 A 
ATOM     80  C   UNL     1      -4.028  -6.630  -6.513  1.00  0.00     0.131 A 
ATOM     81  C   UNL     1      -5.842  -7.106  -8.534  1.00  0.00     0.055 A 
ATOM     82  C   UNL     1      -4.523  -5.562  -7.264  1.00  0.00     0.041 A 
ATOM     83  F   UNL     1      -3.220  -6.296  -5.495  1.00  0.00    -0.206 F 
ATOM     84  C   UNL     1      -5.441  -5.794  -8.274  1.00  0.00     0.022 A 
BRANCH  81  85
ATOM     85  S   UNL     1      -7.102  -7.366  -9.830  1.00  0.00     0.124 S 
ATOM     86  O   UNL     1      -6.353  -8.091 -10.850  1.00  0.00    -0.237 OA
ATOM     87  O   UNL     1      -8.131  -8.118  -9.122  1.00  0.00    -0.237 OA
ATOM     88  O   UNL     1      -7.491  -6.006 -10.207  1.00  0.00    -0.744 OA
ENDBRANCH  81  85
ENDBRANCH  54  78
BRANCH  66  89
ATOM     89  C   UNL     1      -3.542 -13.665  -3.985  1.00  0.00     0.023 A 
ATOM     90  C   UNL     1      -2.375 -13.220  -4.648  1.00  0.00     0.031 A 
ATOM     91  C   UNL     1      -3.741 -15.055  -3.885  1.00  0.00     0.131 A 
ATOM     92  C   UNL     1      -1.467 -14.158  -5.184  1.00  0.00     0.055 A 
ATOM     93  C   UNL     1      -2.829 -15.978  -4.394  1.00  0.00     0.041 A 
ATOM     94  F   UNL     1      -4.817 -15.545  -3.248  1.00  0.00    -0.206 F 
ATOM     95  C   UNL     1      -1.690 -15.532  -5.050  1.00  0.00     0.022 A 
BRANCH  92  96
ATOM     96  S   UNL     1       0.022 -13.612  -6.085  1.00  0.00     0.124 S 
ATOM     97  O   UNL     1      -0.485 -12.595  -6.999  1.00  0.00    -0.237 OA
ATOM     98  O   UNL     1       0.886 -13.133  -5.010  1.00  0.00    -0.237 OA
ATOM     99  O   UNL     1       0.491 -14.836  -6.739  1.00  0.00    -0.744 OA
ENDBRANCH  92  96
ENDBRANCH  66  89
ENDBRANCH  40  41
ENDBRANCH  32  35
ENDBRANCH  30  31
ENDBRANCH  29  30
ENDBRANCH  28  29
ENDBRANCH  27  28
ENDBRANCH   1  27
TORSDOF 21
