REMARK SMILES CC(C)[C@H]([NH2+]Cc1ccc(O)cn1)C(=O)NCCCCCCNC(=O)c1ccc(-c2c3nc(c(-c4cc(S(=O)(=O)[O-])ccc4F)c4ccc([nH]4)c(-c4cc(S(=O)(=O)[O-])ccc4F)c4nc(c(-c5cc(S(=O)(=O)[O-])ccc5F)c5ccc2[nH]5)C=C4)C=C3)cc1
REMARK SMILES IDX 19 1 18 2 17 3 16 4 14 5 15 6 4 8 2 9 1 10 3 11 5 12 6 15
REMARK SMILES IDX 7 16 8 17 13 18 9 19 12 20 10 21 11 22 20 24 21 25 22 26
REMARK SMILES IDX 23 27 24 28 25 30 26 31 27 32 88 33 28 34 87 35 29 36 30 37
REMARK SMILES IDX 31 38 81 39 32 40 86 41 80 42 82 43 33 44 85 45 79 46 78 47
REMARK SMILES IDX 34 49 66 50 46 51 65 52 47 53 50 54 64 55 83 56 48 57 49 58
REMARK SMILES IDX 63 60 84 61 51 62 35 63 36 64 44 65 37 66 43 67 45 68 42 69
REMARK SMILES IDX 38 70 39 71 40 72 41 73 67 74 68 75 76 76 69 77 75 78 77 79
REMARK SMILES IDX 74 80 70 81 71 82 72 83 73 84 52 85 53 86 61 87 54 88 60 89
REMARK SMILES IDX 62 90 59 91 55 92 56 93 57 94 58 95
REMARK H PARENT 16 7 5 13 5 14 11 23 23 29 82 48 50 59
REMARK Flexibility Score: inf
ROOT
ATOM      1  C   UNL     1       0.486   5.360  -3.703  1.00  0.00     0.002 C 
ENDROOT
BRANCH   1   2
ATOM      2  C   UNL     1       0.982   4.260  -2.764  1.00  0.00     0.021 C 
BRANCH   2   3
ATOM      3  C   UNL     1      -0.105   3.668  -1.877  1.00  0.00     0.116 C 
BRANCH   3   4
ATOM      4  N   UNL     1      -1.037   2.848  -2.615  1.00  0.00    -0.351 N 
ATOM      5  C   UNL     1      -1.475   1.582  -2.361  1.00  0.00     0.278 C 
ATOM      6  O   UNL     1      -2.351   1.123  -3.103  1.00  0.00    -0.268 OA
ATOM      7  H   UNL     1      -1.412   3.266  -3.423  1.00  0.00     0.163 HD
BRANCH   5   8
ATOM      8  C   UNL     1      -0.942   0.753  -1.159  1.00  0.00     0.275 C 
BRANCH   8   9
ATOM      9  C   UNL     1      -1.508   1.185   0.239  1.00  0.00     0.051 C 
ATOM     10  C   UNL     1      -0.531   1.852   1.218  1.00  0.00     0.014 C 
ATOM     11  C   UNL     1      -2.777   2.045   0.150  1.00  0.00     0.014 C 
ENDBRANCH   8   9
BRANCH   8  12
ATOM     12  N   UNL     1       0.525   0.659  -1.276  1.00  0.00    -0.331 N 
ATOM     13  H   UNL     1       0.935   1.321  -0.618  1.00  0.00     0.347 HD
ATOM     14  H   UNL     1       0.740   0.861  -2.253  1.00  0.00     0.347 HD
BRANCH  12  15
ATOM     15  C   UNL     1       1.098  -0.660  -1.006  1.00  0.00     0.318 C 
BRANCH  15  16
ATOM     16  C   UNL     1       2.623  -0.658  -1.108  1.00  0.00     0.095 A 
ATOM     17  C   UNL     1       3.384   0.403  -0.600  1.00  0.00     0.033 A 
ATOM     18  N   UNL     1       3.207  -1.738  -1.688  1.00  0.00    -0.251 NA
ATOM     19  C   UNL     1       4.770   0.391  -0.739  1.00  0.00     0.050 A 
ATOM     20  C   UNL     1       4.560  -1.728  -1.798  1.00  0.00     0.157 A 
ATOM     21  C   UNL     1       5.367  -0.695  -1.353  1.00  0.00     0.133 A 
BRANCH  21  22
ATOM     22  O   UNL     1       6.715  -0.768  -1.523  1.00  0.00    -0.506 OA
ATOM     23  H   UNL     1       7.263  -0.070  -1.223  1.00  0.00     0.293 HD
ENDBRANCH  21  22
ENDBRANCH  15  16
ENDBRANCH  12  15
ENDBRANCH   8  12
ENDBRANCH   5   8
ENDBRANCH   3   4
ENDBRANCH   2   3
ENDBRANCH   1   2
BRANCH   1  24
ATOM     24  C   UNL     1      -0.271   6.502  -3.017  1.00  0.00     0.002 C 
BRANCH  24  25
ATOM     25  C   UNL     1       0.462   7.164  -1.846  1.00  0.00     0.021 C 
BRANCH  25  26
ATOM     26  C   UNL     1       1.849   7.703  -2.181  1.00  0.00     0.116 C 
BRANCH  26  27
ATOM     27  N   UNL     1       1.808   8.678  -3.255  1.00  0.00    -0.352 N 
ATOM     28  C   UNL     1       2.329   9.947  -3.301  1.00  0.00     0.251 C 
ATOM     29  H   UNL     1       1.339   8.387  -4.069  1.00  0.00     0.163 HD
ATOM     30  O   UNL     1       2.012  10.698  -4.217  1.00  0.00    -0.269 OA
BRANCH  28  31
ATOM     31  C   UNL     1       3.249  10.408  -2.238  1.00  0.00     0.039 A 
ATOM     32  C   UNL     1       3.100  11.702  -1.736  1.00  0.00     0.014 A 
ATOM     33  C   UNL     1       4.264   9.579  -1.751  1.00  0.00     0.014 A 
ATOM     34  C   UNL     1       3.940  12.148  -0.714  1.00  0.00     0.010 A 
ATOM     35  C   UNL     1       5.048   9.997  -0.679  1.00  0.00     0.010 A 
ATOM     36  C   UNL     1       4.903  11.291  -0.157  1.00  0.00    -0.014 A 
BRANCH  36  37
ATOM     37  C   UNL     1       5.777  11.743   0.958  1.00  0.00     0.031 A 
ATOM     38  C   UNL     1       7.266  11.836   0.759  1.00  0.00     0.074 A 
ATOM     39  C   UNL     1       5.233  12.031   2.157  1.00  0.00     0.049 A 
ATOM     40  N   UNL     1       8.197  12.161   1.619  1.00  0.00    -0.248 NA
ATOM     41  C   UNL     1       7.777  11.489  -0.575  1.00  0.00     0.031 C 
ATOM     42  C   UNL     1       3.807  11.943   2.480  1.00  0.00     0.029 A 
ATOM     43  N   UNL     1       5.811  12.453   3.328  1.00  0.00    -0.354 N 
ATOM     44  C   UNL     1       9.403  12.050   0.934  1.00  0.00     0.074 A 
ATOM     45  C   UNL     1       9.086  11.559  -0.390  1.00  0.00     0.031 C 
ATOM     46  C   UNL     1       3.619  12.332   3.751  1.00  0.00     0.029 A 
ATOM     47  C   UNL     1       4.911  12.648   4.351  1.00  0.00     0.049 A 
ATOM     48  H   UNL     1       6.779  12.603   3.427  1.00  0.00     0.167 HD
ATOM     49  C   UNL     1      10.654  12.354   1.361  1.00  0.00     0.034 A 
ATOM     50  C   UNL     1       5.106  13.029   5.629  1.00  0.00     0.034 A 
ATOM     51  C   UNL     1      10.949  12.851   2.683  1.00  0.00     0.049 A 
ATOM     52  C   UNL     1       6.510  13.334   6.090  1.00  0.00     0.074 A 
ATOM     53  C   UNL     1      12.172  13.232   3.208  1.00  0.00     0.029 A 
ATOM     54  N   UNL     1      10.013  13.031   3.695  1.00  0.00    -0.354 N 
ATOM     55  N   UNL     1       7.635  13.267   5.415  1.00  0.00    -0.248 NA
ATOM     56  C   UNL     1       6.667  13.781   7.479  1.00  0.00     0.031 C 
ATOM     57  C   UNL     1      11.989  13.568   4.553  1.00  0.00     0.029 A 
ATOM     58  C   UNL     1      10.637  13.486   4.847  1.00  0.00     0.049 A 
ATOM     59  H   UNL     1       9.048  12.861   3.606  1.00  0.00     0.167 HD
ATOM     60  C   UNL     1       8.628  13.701   6.290  1.00  0.00     0.074 A 
ATOM     61  C   UNL     1       7.965  14.041   7.532  1.00  0.00     0.031 C 
ATOM     62  C   UNL     1       9.966  13.814   6.084  1.00  0.00     0.034 A 
BRANCH  49  63
ATOM     63  C   UNL     1      11.794  12.128   0.394  1.00  0.00     0.023 A 
ATOM     64  C   UNL     1      11.874  12.815  -0.830  1.00  0.00     0.031 A 
ATOM     65  C   UNL     1      12.804  11.194   0.688  1.00  0.00     0.131 A 
ATOM     66  C   UNL     1      12.889  12.503  -1.746  1.00  0.00     0.055 A 
ATOM     67  C   UNL     1      13.864  10.953  -0.190  1.00  0.00     0.041 A 
ATOM     68  F   UNL     1      12.773  10.489   1.829  1.00  0.00    -0.206 F 
ATOM     69  C   UNL     1      13.901  11.597  -1.423  1.00  0.00     0.022 A 
BRANCH  66  70
ATOM     70  S   UNL     1      12.779  13.180  -3.425  1.00  0.00     0.124 S 
ATOM     71  O   UNL     1      11.484  12.666  -3.865  1.00  0.00    -0.237 OA
ATOM     72  O   UNL     1      12.850  14.618  -3.191  1.00  0.00    -0.237 OA
ATOM     73  O   UNL     1      13.935  12.600  -4.106  1.00  0.00    -0.744 OA
ENDBRANCH  66  70
ENDBRANCH  49  63
BRANCH  50  74
ATOM     74  C   UNL     1       3.954  13.140   6.571  1.00  0.00     0.023 A 
ATOM     75  C   UNL     1       3.603  14.373   7.144  1.00  0.00     0.031 A 
ATOM     76  C   UNL     1       3.216  12.005   6.950  1.00  0.00     0.131 A 
ATOM     77  C   UNL     1       2.582  14.432   8.105  1.00  0.00     0.055 A 
ATOM     78  C   UNL     1       2.160  12.079   7.861  1.00  0.00     0.041 A 
ATOM     79  F   UNL     1       3.505  10.801   6.430  1.00  0.00    -0.206 F 
ATOM     80  C   UNL     1       1.848  13.297   8.456  1.00  0.00     0.022 A 
BRANCH  77  81
ATOM     81  S   UNL     1       2.292  16.002   8.967  1.00  0.00     0.124 S 
ATOM     82  O   UNL     1       3.602  16.265   9.552  1.00  0.00    -0.237 OA
ATOM     83  O   UNL     1       1.889  16.878   7.872  1.00  0.00    -0.237 OA
ATOM     84  O   UNL     1       1.235  15.675   9.922  1.00  0.00    -0.744 OA
ENDBRANCH  77  81
ENDBRANCH  50  74
BRANCH  62  85
ATOM     85  C   UNL     1      10.789  14.381   7.216  1.00  0.00     0.023 A 
ATOM     86  C   UNL     1      10.923  13.714   8.447  1.00  0.00     0.031 A 
ATOM     87  C   UNL     1      11.433  15.623   7.066  1.00  0.00     0.131 A 
ATOM     88  C   UNL     1      11.623  14.323   9.500  1.00  0.00     0.055 A 
ATOM     89  C   UNL     1      12.188  16.190   8.094  1.00  0.00     0.041 A 
ATOM     90  F   UNL     1      11.338  16.308   5.915  1.00  0.00    -0.206 F 
ATOM     91  C   UNL     1      12.273  15.547   9.325  1.00  0.00     0.022 A 
BRANCH  88  92
ATOM     92  S   UNL     1      11.575  13.547  11.139  1.00  0.00     0.124 S 
ATOM     93  O   UNL     1      10.141  13.474  11.398  1.00  0.00    -0.237 OA
ATOM     94  O   UNL     1      12.245  12.273  10.900  1.00  0.00    -0.237 OA
ATOM     95  O   UNL     1      12.311  14.486  11.984  1.00  0.00    -0.744 OA
ENDBRANCH  88  92
ENDBRANCH  62  85
ENDBRANCH  36  37
ENDBRANCH  28  31
ENDBRANCH  26  27
ENDBRANCH  25  26
ENDBRANCH  24  25
ENDBRANCH   1  24
TORSDOF 21
