REMARK SMILES CC(=O)Oc1ccccc1SCCCCCC(=O)NCCCCCCNC(=O)c1ccc(-c2c3nc(c(-c4cc(S(=O)(=O)[O-])ccc4F)c4ccc([nH]4)c(-c4cc(S(=O)(=O)[O-])ccc4F)c4nc(c(-c5cc(S(=O)(=O)[O-])ccc5F)c5ccc2[nH]5)C=C4)C=C3)cc1
REMARK SMILES IDX 20 1 19 2 17 3 18 4 16 6 15 7 14 8 13 9 12 10 11 11 10 12
REMARK SMILES IDX 5 13 6 14 7 15 9 16 8 17 4 18 2 19 1 20 3 21 21 22 22 23
REMARK SMILES IDX 23 24 24 25 25 26 26 27 27 28 28 30 29 31 30 32 91 33 31 34
REMARK SMILES IDX 90 35 32 36 33 37 34 38 84 39 35 40 89 41 83 42 85 43 36 44
REMARK SMILES IDX 88 45 82 46 81 47 37 49 69 50 49 51 68 52 50 53 53 54 67 55
REMARK SMILES IDX 86 56 51 57 52 58 66 60 87 61 54 62 38 63 39 64 47 65 40 66
REMARK SMILES IDX 46 67 48 68 45 69 41 70 42 71 43 72 44 73 70 74 71 75 79 76
REMARK SMILES IDX 72 77 78 78 80 79 77 80 73 81 74 82 75 83 76 84 55 85 56 86
REMARK SMILES IDX 64 87 57 88 63 89 65 90 62 91 58 92 59 93 60 94 61 95
REMARK H PARENT 19 5 26 29 85 48 53 59
REMARK Flexibility Score: inf
ROOT
ATOM      1  C   UNL     1       3.185   2.984   0.479  1.00  0.00     0.116 C 
ENDROOT
BRANCH   1   2
ATOM      2  N   UNL     1       4.281   2.065   0.686  1.00  0.00    -0.356 N 
ATOM      3  C   UNL     1       4.228   0.736   0.967  1.00  0.00     0.219 C 
ATOM      4  O   UNL     1       5.273   0.138   1.223  1.00  0.00    -0.275 OA
ATOM      5  H   UNL     1       5.183   2.452   0.616  1.00  0.00     0.163 HD
BRANCH   3   6
ATOM      6  C   UNL     1       2.897   0.013   0.932  1.00  0.00     0.100 C 
BRANCH   6   7
ATOM      7  C   UNL     1       2.125   0.051   2.251  1.00  0.00     0.010 C 
BRANCH   7   8
ATOM      8  C   UNL     1       1.022   1.111   2.468  1.00  0.00     0.001 C 
BRANCH   8   9
ATOM      9  C   UNL     1       0.035   1.430   1.339  1.00  0.00     0.011 C 
BRANCH   9  10
ATOM     10  C   UNL     1      -1.448   1.017   1.329  1.00  0.00     0.075 C 
BRANCH  10  11
ATOM     11  S   UNL     1      -2.559   0.817   2.756  1.00  0.00    -0.122 SA
BRANCH  11  12
ATOM     12  C   UNL     1      -1.685  -0.100   3.999  1.00  0.00     0.050 A 
ATOM     13  C   UNL     1      -0.805  -1.177   3.859  1.00  0.00     0.144 A 
ATOM     14  C   UNL     1       0.015  -1.573   4.932  1.00  0.00     0.048 A 
ATOM     15  C   UNL     1      -0.080  -0.938   6.170  1.00  0.00     0.004 A 
ATOM     16  C   UNL     1      -1.829   0.460   5.285  1.00  0.00     0.019 A 
ATOM     17  C   UNL     1      -1.025   0.061   6.355  1.00  0.00     0.001 A 
BRANCH  13  18
ATOM     18  O   UNL     1      -0.411  -1.760   2.625  1.00  0.00    -0.426 OA
BRANCH  18  19
ATOM     19  C   UNL     1      -1.184  -2.184   1.545  1.00  0.00     0.308 C 
ATOM     20  C   UNL     1      -0.241  -2.458   0.400  1.00  0.00     0.139 C 
ATOM     21  O   UNL     1      -2.391  -2.319   1.518  1.00  0.00    -0.252 OA
ENDBRANCH  18  19
ENDBRANCH  13  18
ENDBRANCH  11  12
ENDBRANCH  10  11
ENDBRANCH   9  10
ENDBRANCH   8   9
ENDBRANCH   7   8
ENDBRANCH   6   7
ENDBRANCH   3   6
ENDBRANCH   1   2
BRANCH   1  22
ATOM     22  C   UNL     1       2.946   3.815   1.736  1.00  0.00     0.021 C 
BRANCH  22  23
ATOM     23  C   UNL     1       3.596   5.190   1.691  1.00  0.00     0.002 C 
BRANCH  23  24
ATOM     24  C   UNL     1       2.987   6.117   0.635  1.00  0.00     0.002 C 
BRANCH  24  25
ATOM     25  C   UNL     1       1.470   6.319   0.737  1.00  0.00     0.021 C 
BRANCH  25  26
ATOM     26  C   UNL     1       0.978   6.769   2.112  1.00  0.00     0.116 C 
BRANCH  26  27
ATOM     27  N   UNL     1       1.700   7.945   2.570  1.00  0.00    -0.352 N 
ATOM     28  C   UNL     1       1.277   9.245   2.660  1.00  0.00     0.251 C 
ATOM     29  H   UNL     1       2.627   7.784   2.856  1.00  0.00     0.163 HD
ATOM     30  O   UNL     1       2.103  10.149   2.731  1.00  0.00    -0.269 OA
BRANCH  28  31
ATOM     31  C   UNL     1      -0.169   9.545   2.674  1.00  0.00     0.039 A 
ATOM     32  C   UNL     1      -0.643  10.636   1.944  1.00  0.00     0.014 A 
ATOM     33  C   UNL     1      -1.046   8.771   3.439  1.00  0.00     0.014 A 
ATOM     34  C   UNL     1      -2.009  10.924   1.947  1.00  0.00     0.010 A 
ATOM     35  C   UNL     1      -2.414   9.014   3.381  1.00  0.00     0.010 A 
ATOM     36  C   UNL     1      -2.908  10.100   2.644  1.00  0.00    -0.014 A 
BRANCH  36  37
ATOM     37  C   UNL     1      -4.368  10.369   2.627  1.00  0.00     0.031 A 
ATOM     38  C   UNL     1      -5.081  10.730   3.900  1.00  0.00     0.074 A 
ATOM     39  C   UNL     1      -5.054  10.232   1.476  1.00  0.00     0.049 A 
ATOM     40  N   UNL     1      -6.357  10.932   4.107  1.00  0.00    -0.248 NA
ATOM     41  C   UNL     1      -4.251  10.851   5.108  1.00  0.00     0.031 C 
ATOM     42  C   UNL     1      -4.473   9.848   0.188  1.00  0.00     0.029 A 
ATOM     43  N   UNL     1      -6.389  10.389   1.203  1.00  0.00    -0.354 N 
ATOM     44  C   UNL     1      -6.485  11.193   5.467  1.00  0.00     0.074 A 
ATOM     45  C   UNL     1      -5.164  11.055   6.044  1.00  0.00     0.031 C 
ATOM     46  C   UNL     1      -5.441   9.822  -0.741  1.00  0.00     0.029 A 
ATOM     47  C   UNL     1      -6.718  10.139  -0.109  1.00  0.00     0.049 A 
ATOM     48  H   UNL     1      -7.050  10.657   1.882  1.00  0.00     0.167 HD
ATOM     49  C   UNL     1      -7.595  11.542   6.163  1.00  0.00     0.034 A 
ATOM     50  C   UNL     1      -7.914  10.148  -0.729  1.00  0.00     0.034 A 
ATOM     51  C   UNL     1      -8.902  11.675   5.566  1.00  0.00     0.049 A 
ATOM     52  C   UNL     1      -9.141  10.504   0.071  1.00  0.00     0.074 A 
ATOM     53  C   UNL     1     -10.089  12.065   6.163  1.00  0.00     0.029 A 
ATOM     54  N   UNL     1      -9.199  11.410   4.234  1.00  0.00    -0.354 N 
ATOM     55  N   UNL     1      -9.239  10.798   1.347  1.00  0.00    -0.248 NA
ATOM     56  C   UNL     1     -10.416  10.541  -0.656  1.00  0.00     0.031 C 
ATOM     57  C   UNL     1     -11.112  11.965   5.213  1.00  0.00     0.029 A 
ATOM     58  C   UNL     1     -10.554  11.597   3.999  1.00  0.00     0.049 A 
ATOM     59  H   UNL     1      -8.543  11.131   3.555  1.00  0.00     0.167 HD
ATOM     60  C   UNL     1     -10.584  11.085   1.568  1.00  0.00     0.074 A 
ATOM     61  C   UNL     1     -11.252  10.944   0.290  1.00  0.00     0.031 C 
ATOM     62  C   UNL     1     -11.209  11.438   2.721  1.00  0.00     0.034 A 
BRANCH  49  63
ATOM     63  C   UNL     1      -7.439  11.772   7.649  1.00  0.00     0.023 A 
ATOM     64  C   UNL     1      -6.597  12.779   8.156  1.00  0.00     0.031 A 
ATOM     65  C   UNL     1      -8.109  10.953   8.575  1.00  0.00     0.131 A 
ATOM     66  C   UNL     1      -6.380  12.884   9.538  1.00  0.00     0.055 A 
ATOM     67  C   UNL     1      -7.959  11.122   9.954  1.00  0.00     0.041 A 
ATOM     68  F   UNL     1      -8.909   9.960   8.157  1.00  0.00    -0.206 F 
ATOM     69  C   UNL     1      -7.076  12.080  10.442  1.00  0.00     0.022 A 
BRANCH  66  70
ATOM     70  S   UNL     1      -5.054  13.975  10.124  1.00  0.00     0.124 S 
ATOM     71  O   UNL     1      -3.892  13.424   9.432  1.00  0.00    -0.237 OA
ATOM     72  O   UNL     1      -5.503  15.287   9.675  1.00  0.00    -0.237 OA
ATOM     73  O   UNL     1      -5.060  13.774  11.572  1.00  0.00    -0.744 OA
ENDBRANCH  66  70
ENDBRANCH  49  63
BRANCH  50  74
ATOM     74  C   UNL     1      -8.015   9.799  -2.175  1.00  0.00     0.023 A 
ATOM     75  C   UNL     1      -8.437  10.745  -3.122  1.00  0.00     0.031 A 
ATOM     76  C   UNL     1      -7.717   8.501  -2.628  1.00  0.00     0.131 A 
ATOM     77  C   UNL     1      -8.592  10.370  -4.465  1.00  0.00     0.055 A 
ATOM     78  C   UNL     1      -7.821   8.147  -3.974  1.00  0.00     0.041 A 
ATOM     79  F   UNL     1      -7.303   7.559  -1.766  1.00  0.00    -0.206 F 
ATOM     80  C   UNL     1      -8.274   9.081  -4.900  1.00  0.00     0.022 A 
BRANCH  77  81
ATOM     81  S   UNL     1      -9.297  11.571  -5.627  1.00  0.00     0.124 S 
ATOM     82  O   UNL     1     -10.586  11.861  -5.009  1.00  0.00    -0.237 OA
ATOM     83  O   UNL     1      -8.310  12.645  -5.588  1.00  0.00    -0.237 OA
ATOM     84  O   UNL     1      -9.359  10.831  -6.885  1.00  0.00    -0.744 OA
ENDBRANCH  77  81
ENDBRANCH  50  74
BRANCH  62  85
ATOM     85  C   UNL     1     -12.686  11.741   2.635  1.00  0.00     0.023 A 
ATOM     86  C   UNL     1     -13.630  10.747   2.322  1.00  0.00     0.031 A 
ATOM     87  C   UNL     1     -13.152  13.049   2.860  1.00  0.00     0.131 A 
ATOM     88  C   UNL     1     -14.985  11.089   2.187  1.00  0.00     0.055 A 
ATOM     89  C   UNL     1     -14.508  13.368   2.789  1.00  0.00     0.041 A 
ATOM     90  F   UNL     1     -12.295  14.038   3.158  1.00  0.00    -0.206 F 
ATOM     91  C   UNL     1     -15.432  12.389   2.437  1.00  0.00     0.022 A 
BRANCH  88  92
ATOM     92  S   UNL     1     -16.144   9.832   1.581  1.00  0.00     0.124 S 
ATOM     93  O   UNL     1     -15.560   9.478   0.291  1.00  0.00    -0.237 OA
ATOM     94  O   UNL     1     -16.065   8.809   2.619  1.00  0.00    -0.237 OA
ATOM     95  O   UNL     1     -17.418  10.546   1.511  1.00  0.00    -0.744 OA
ENDBRANCH  88  92
ENDBRANCH  62  85
ENDBRANCH  36  37
ENDBRANCH  28  31
ENDBRANCH  26  27
ENDBRANCH  25  26
ENDBRANCH  24  25
ENDBRANCH  23  24
ENDBRANCH  22  23
ENDBRANCH   1  22
TORSDOF 24
