REMARK SMILES COc1cc2c(cc1OC)[C@H](C(=O)NCCCCCCNC(=O)c1ccc(-c3c4nc(c(-c5cc(S(=O)(=O)[O-])ccc5F)c5ccc([nH]5)c(-c5cc(S(=O)(=O)[O-])ccc5F)c5nc(c(-c6cc(S(=O)(=O)[O-])ccc6F)c6ccc3[nH]6)C=C5)C=C4)cc1)[C@H](c1cccc(Cl)c1)N(C)C2=O
REMARK SMILES IDX 18 1 17 2 16 3 15 4 14 5 12 6 13 7 11 9 3 10 4 11 8 12 5 13
REMARK SMILES IDX 7 14 6 15 97 16 95 17 98 18 87 19 96 20 2 21 1 22 9 23 10 24
REMARK SMILES IDX 88 25 89 26 94 27 90 28 92 29 91 30 93 31 19 32 20 33 21 34
REMARK SMILES IDX 22 35 23 37 24 38 25 39 86 40 26 41 85 42 27 43 28 44 29 45
REMARK SMILES IDX 79 46 30 47 84 48 78 49 80 50 31 51 83 52 77 53 76 54 32 56
REMARK SMILES IDX 64 57 44 58 63 59 45 60 48 61 62 62 81 63 46 64 47 65 61 67
REMARK SMILES IDX 82 68 49 69 33 70 34 71 42 72 35 73 41 74 43 75 40 76 36 77
REMARK SMILES IDX 37 78 38 79 39 80 65 81 66 82 74 83 67 84 73 85 75 86 72 87
REMARK SMILES IDX 68 88 69 89 70 90 71 91 50 92 51 93 59 94 52 95 58 96 60 97
REMARK SMILES IDX 57 98 53 99 54 100 55 101 56 102
REMARK H PARENT 14 8 21 36 80 55 48 66
REMARK Flexibility Score: inf
ROOT
ATOM      1  C   UNL     1      -3.096  -5.352  -3.318  1.00  0.00     0.002 C 
ENDROOT
BRANCH   1   2
ATOM      2  C   UNL     1      -2.920  -4.467  -4.555  1.00  0.00     0.002 C 
BRANCH   2   3
ATOM      3  C   UNL     1      -1.721  -3.520  -4.498  1.00  0.00     0.021 C 
BRANCH   3   4
ATOM      4  C   UNL     1      -0.351  -4.208  -4.571  1.00  0.00     0.116 C 
BRANCH   4   5
ATOM      5  N   UNL     1       0.196  -4.049  -5.908  1.00  0.00    -0.355 N 
ATOM      6  C   UNL     1       1.146  -3.247  -6.445  1.00  0.00     0.230 C 
ATOM      7  O   UNL     1       1.263  -3.349  -7.677  1.00  0.00    -0.274 OA
ATOM      8  H   UNL     1      -0.212  -4.656  -6.567  1.00  0.00     0.163 HD
BRANCH   6   9
ATOM      9  C   UNL     1       2.153  -2.372  -5.704  1.00  0.00     0.136 C 
ATOM     10  C   UNL     1       1.369  -0.799  -1.771  1.00  0.00     0.161 A 
ATOM     11  C   UNL     1       2.680  -0.944  -2.228  1.00  0.00     0.064 A 
ATOM     12  C   UNL     1       0.305  -0.905  -2.672  1.00  0.00     0.161 A 
ATOM     13  C   UNL     1       2.914  -1.334  -3.550  1.00  0.00     0.048 A 
ATOM     14  C   UNL     1       0.572  -1.264  -4.004  1.00  0.00     0.056 A 
ATOM     15  C   UNL     1       1.845  -1.670  -4.398  1.00  0.00    -0.016 A 
ATOM     16  C   UNL     1       4.310  -1.354  -4.077  1.00  0.00     0.254 C 
ATOM     17  N   UNL     1       4.540  -2.155  -5.189  1.00  0.00    -0.333 N 
ATOM     18  O   UNL     1       5.185  -0.682  -3.533  1.00  0.00    -0.269 OA
ATOM     19  C   UNL     1       3.520  -3.132  -5.612  1.00  0.00     0.132 C 
ATOM     20  C   UNL     1       5.860  -2.189  -5.790  1.00  0.00     0.147 C 
BRANCH  10  21
ATOM     21  O   UNL     1       1.153  -0.667  -0.427  1.00  0.00    -0.493 OA
ATOM     22  C   UNL     1       1.515   0.622   0.060  1.00  0.00     0.278 C 
ENDBRANCH  10  21
BRANCH  12  23
ATOM     23  O   UNL     1      -1.028  -0.708  -2.426  1.00  0.00    -0.493 OA
ATOM     24  C   UNL     1      -1.482  -0.865  -1.087  1.00  0.00     0.278 C 
ENDBRANCH  12  23
BRANCH  19  25
ATOM     25  C   UNL     1       3.562  -4.409  -4.747  1.00  0.00    -0.023 A 
ATOM     26  C   UNL     1       2.942  -5.588  -5.198  1.00  0.00     0.006 A 
ATOM     27  C   UNL     1       4.239  -4.478  -3.512  1.00  0.00     0.026 A 
ATOM     28  C   UNL     1       2.928  -6.751  -4.418  1.00  0.00     0.002 A 
ATOM     29  C   UNL     1       4.237  -5.642  -2.742  1.00  0.00     0.041 A 
ATOM     30  C   UNL     1       3.569  -6.776  -3.182  1.00  0.00     0.020 A 
ATOM     31  Cl  UNL     1       5.080  -5.673  -1.241  1.00  0.00    -0.084 Cl
ENDBRANCH  19  25
ENDBRANCH   6   9
ENDBRANCH   4   5
ENDBRANCH   3   4
ENDBRANCH   2   3
ENDBRANCH   1   2
BRANCH   1  32
ATOM     32  C   UNL     1      -3.089  -4.623  -1.969  1.00  0.00     0.021 C 
BRANCH  32  33
ATOM     33  C   UNL     1      -4.099  -3.485  -1.830  1.00  0.00     0.116 C 
BRANCH  33  34
ATOM     34  N   UNL     1      -5.468  -3.951  -1.941  1.00  0.00    -0.352 N 
ATOM     35  C   UNL     1      -6.496  -3.878  -1.034  1.00  0.00     0.251 C 
ATOM     36  H   UNL     1      -5.694  -4.386  -2.795  1.00  0.00     0.163 HD
ATOM     37  O   UNL     1      -7.519  -4.529  -1.232  1.00  0.00    -0.269 OA
BRANCH  35  38
ATOM     38  C   UNL     1      -6.374  -3.038   0.180  1.00  0.00     0.039 A 
ATOM     39  C   UNL     1      -6.824  -3.554   1.399  1.00  0.00     0.014 A 
ATOM     40  C   UNL     1      -5.871  -1.734   0.120  1.00  0.00     0.014 A 
ATOM     41  C   UNL     1      -6.729  -2.783   2.561  1.00  0.00     0.010 A 
ATOM     42  C   UNL     1      -5.726  -0.986   1.290  1.00  0.00     0.010 A 
ATOM     43  C   UNL     1      -6.160  -1.500   2.523  1.00  0.00    -0.014 A 
BRANCH  43  44
ATOM     44  C   UNL     1      -6.027  -0.688   3.762  1.00  0.00     0.031 A 
ATOM     45  C   UNL     1      -6.817   0.584   3.926  1.00  0.00     0.074 A 
ATOM     46  C   UNL     1      -5.169  -1.075   4.727  1.00  0.00     0.049 A 
ATOM     47  N   UNL     1      -6.803   1.447   4.910  1.00  0.00    -0.248 NA
ATOM     48  C   UNL     1      -7.724   0.941   2.826  1.00  0.00     0.031 C 
ATOM     49  C   UNL     1      -4.327  -2.272   4.675  1.00  0.00     0.029 A 
ATOM     50  N   UNL     1      -4.856  -0.503   5.935  1.00  0.00    -0.354 N 
ATOM     51  C   UNL     1      -7.693   2.453   4.548  1.00  0.00     0.074 A 
ATOM     52  C   UNL     1      -8.182   2.118   3.226  1.00  0.00     0.031 C 
ATOM     53  C   UNL     1      -3.611  -2.355   5.808  1.00  0.00     0.029 A 
ATOM     54  C   UNL     1      -3.908  -1.200   6.649  1.00  0.00     0.049 A 
ATOM     55  H   UNL     1      -5.272   0.327   6.261  1.00  0.00     0.167 HD
ATOM     56  C   UNL     1      -8.081   3.542   5.258  1.00  0.00     0.034 A 
ATOM     57  C   UNL     1      -3.334  -0.933   7.839  1.00  0.00     0.034 A 
ATOM     58  C   UNL     1      -7.590   3.860   6.578  1.00  0.00     0.049 A 
ATOM     59  C   UNL     1      -3.758   0.300   8.596  1.00  0.00     0.074 A 
ATOM     60  C   UNL     1      -7.954   4.911   7.403  1.00  0.00     0.029 A 
ATOM     61  N   UNL     1      -6.624   3.136   7.265  1.00  0.00    -0.354 N 
ATOM     62  N   UNL     1      -4.634   1.217   8.257  1.00  0.00    -0.248 NA
ATOM     63  C   UNL     1      -3.123   0.527   9.901  1.00  0.00     0.031 C 
ATOM     64  C   UNL     1      -7.161   4.861   8.556  1.00  0.00     0.029 A 
ATOM     65  C   UNL     1      -6.356   3.736   8.487  1.00  0.00     0.049 A 
ATOM     66  H   UNL     1      -6.191   2.317   6.932  1.00  0.00     0.167 HD
ATOM     67  C   UNL     1      -4.678   2.112   9.324  1.00  0.00     0.074 A 
ATOM     68  C   UNL     1      -3.751   1.615  10.320  1.00  0.00     0.031 C 
ATOM     69  C   UNL     1      -5.421   3.239   9.469  1.00  0.00     0.034 A 
BRANCH  56  70
ATOM     70  C   UNL     1      -9.065   4.484   4.604  1.00  0.00     0.023 A 
ATOM     71  C   UNL     1     -10.367   4.073   4.264  1.00  0.00     0.031 A 
ATOM     72  C   UNL     1      -8.693   5.805   4.296  1.00  0.00     0.131 A 
ATOM     73  C   UNL     1     -11.220   4.947   3.572  1.00  0.00     0.055 A 
ATOM     74  C   UNL     1      -9.575   6.695   3.681  1.00  0.00     0.041 A 
ATOM     75  F   UNL     1      -7.458   6.250   4.578  1.00  0.00    -0.206 F 
ATOM     76  C   UNL     1     -10.842   6.263   3.301  1.00  0.00     0.022 A 
BRANCH  73  77
ATOM     77  S   UNL     1     -12.775   4.292   2.907  1.00  0.00     0.124 S 
ATOM     78  O   UNL     1     -12.294   3.224   2.033  1.00  0.00    -0.237 OA
ATOM     79  O   UNL     1     -13.479   3.866   4.110  1.00  0.00    -0.237 OA
ATOM     80  O   UNL     1     -13.360   5.438   2.213  1.00  0.00    -0.744 OA
ENDBRANCH  73  77
ENDBRANCH  56  70
BRANCH  57  81
ATOM     81  C   UNL     1      -2.285  -1.839   8.391  1.00  0.00     0.023 A 
ATOM     82  C   UNL     1      -2.499  -2.553   9.581  1.00  0.00     0.031 A 
ATOM     83  C   UNL     1      -1.035  -1.967   7.760  1.00  0.00     0.131 A 
ATOM     84  C   UNL     1      -1.462  -3.324  10.129  1.00  0.00     0.055 A 
ATOM     85  C   UNL     1      -0.025  -2.778   8.281  1.00  0.00     0.041 A 
ATOM     86  F   UNL     1      -0.781  -1.309   6.617  1.00  0.00    -0.206 F 
ATOM     87  C   UNL     1      -0.232  -3.451   9.481  1.00  0.00     0.022 A 
BRANCH  84  88
ATOM     88  S   UNL     1      -1.717  -4.091  11.753  1.00  0.00     0.124 S 
ATOM     89  O   UNL     1      -2.019  -2.931  12.585  1.00  0.00    -0.237 OA
ATOM     90  O   UNL     1      -2.828  -4.998  11.488  1.00  0.00    -0.237 OA
ATOM     91  O   UNL     1      -0.436  -4.740  12.027  1.00  0.00    -0.744 OA
ENDBRANCH  84  88
ENDBRANCH  57  81
BRANCH  69  92
ATOM     92  C   UNL     1      -5.289   3.983  10.775  1.00  0.00     0.023 A 
ATOM     93  C   UNL     1      -4.097   4.631  11.143  1.00  0.00     0.031 A 
ATOM     94  C   UNL     1      -6.371   4.030  11.673  1.00  0.00     0.131 A 
ATOM     95  C   UNL     1      -3.996   5.249  12.399  1.00  0.00     0.055 A 
ATOM     96  C   UNL     1      -6.284   4.698  12.895  1.00  0.00     0.041 A 
ATOM     97  F   UNL     1      -7.533   3.428  11.375  1.00  0.00    -0.206 F 
ATOM     98  C   UNL     1      -5.087   5.301  13.271  1.00  0.00     0.022 A 
BRANCH  95  99
ATOM     99  S   UNL     1      -2.387   5.907  12.920  1.00  0.00     0.124 S 
ATOM    100  O   UNL     1      -1.539   4.722  12.856  1.00  0.00    -0.237 OA
ATOM    101  O   UNL     1      -2.129   6.932  11.913  1.00  0.00    -0.237 OA
ATOM    102  O   UNL     1      -2.644   6.414  14.267  1.00  0.00    -0.744 OA
ENDBRANCH  95  99
ENDBRANCH  69  92
ENDBRANCH  43  44
ENDBRANCH  35  38
ENDBRANCH  33  34
ENDBRANCH  32  33
ENDBRANCH   1  32
TORSDOF 19
