REMARK SMILES C[C@H](CC(=O)NCCCCCCNC(=O)c1ccc(-c2c3nc(c(-c4cc(S(=O)(=O)[O-])ccc4F)c4ccc([nH]4)c(-c4cc(S(=O)(=O)[O-])ccc4F)c4nc(c(-c5cc(S(=O)(=O)[O-])ccc5F)c5ccc2[nH]5)C=C4)C=C3)cc1)NC(=O)Cn1nc2ccccn2c1=O
REMARK SMILES IDX 9 1 8 2 7 3 6 4 4 5 5 6 3 8 2 9 1 10 79 11 80 12 81 14 82 15
REMARK SMILES IDX 83 16 84 17 91 18 85 19 90 20 92 21 86 22 89 23 87 24 88 25
REMARK SMILES IDX 10 26 11 27 12 28 13 29 14 30 15 32 16 33 17 34 78 35 18 36
REMARK SMILES IDX 77 37 19 38 20 39 21 40 71 41 22 42 76 43 70 44 72 45 23 46
REMARK SMILES IDX 75 47 69 48 68 49 24 51 56 52 36 53 55 54 37 55 40 56 54 57
REMARK SMILES IDX 73 58 38 59 39 60 53 62 74 63 41 64 25 65 26 66 34 67 27 68
REMARK SMILES IDX 33 69 35 70 32 71 28 72 29 73 30 74 31 75 57 76 58 77 66 78
REMARK SMILES IDX 59 79 65 80 67 81 64 82 60 83 61 84 62 85 63 86 42 87 43 88
REMARK SMILES IDX 51 89 44 90 50 91 52 92 49 93 45 94 46 95 47 96 48 97
REMARK H PARENT 6 7 79 13 13 31 72 50 40 61
REMARK Flexibility Score: inf
ROOT
ATOM      1  C   UNL     1      -2.711   2.842  -2.524  1.00  0.00     0.002 C 
ENDROOT
BRANCH   1   2
ATOM      2  C   UNL     1      -2.235   2.225  -1.207  1.00  0.00     0.021 C 
BRANCH   2   3
ATOM      3  C   UNL     1      -1.756   0.777  -1.329  1.00  0.00     0.116 C 
BRANCH   3   4
ATOM      4  N   UNL     1      -0.415   0.735  -1.876  1.00  0.00    -0.356 N 
ATOM      5  C   UNL     1       0.766   0.498  -1.245  1.00  0.00     0.222 C 
ATOM      6  O   UNL     1       1.807   0.588  -1.900  1.00  0.00    -0.275 OA
ATOM      7  H   UNL     1      -0.349   0.901  -2.844  1.00  0.00     0.163 HD
BRANCH   5   8
ATOM      8  C   UNL     1       0.802   0.097   0.218  1.00  0.00     0.124 C 
BRANCH   8   9
ATOM      9  C   UNL     1       0.695   1.228   1.256  1.00  0.00     0.088 C 
ATOM     10  C   UNL     1       1.299   2.556   0.794  1.00  0.00     0.031 C 
BRANCH   9  11
ATOM     11  N   UNL     1      -0.681   1.436   1.705  1.00  0.00    -0.352 N 
ATOM     12  C   UNL     1      -1.421   0.900   2.713  1.00  0.00     0.242 C 
ATOM     13  H   UNL     1      -1.172   2.100   1.169  1.00  0.00     0.163 HD
ATOM     14  O   UNL     1      -2.608   1.251   2.742  1.00  0.00    -0.273 OA
BRANCH  12  15
ATOM     15  C   UNL     1      -0.821   0.123   3.884  1.00  0.00     0.249 C 
BRANCH  15  16
ATOM     16  N   UNL     1       0.129  -0.898   3.540  1.00  0.00    -0.203 N 
ATOM     17  N   UNL     1       1.475  -0.819   3.846  1.00  0.00    -0.149 NA
ATOM     18  C   UNL     1      -0.175  -2.130   2.945  1.00  0.00     0.350 A 
ATOM     19  C   UNL     1       1.954  -1.926   3.372  1.00  0.00     0.161 A 
ATOM     20  N   UNL     1       1.039  -2.757   2.812  1.00  0.00    -0.250 N 
ATOM     21  O   UNL     1      -1.270  -2.527   2.577  1.00  0.00    -0.246 OA
ATOM     22  C   UNL     1       3.382  -2.358   3.376  1.00  0.00     0.050 A 
ATOM     23  C   UNL     1       1.342  -3.933   2.191  1.00  0.00     0.098 A 
ATOM     24  C   UNL     1       3.665  -3.299   2.449  1.00  0.00     0.005 A 
ATOM     25  C   UNL     1       2.635  -4.231   1.997  1.00  0.00     0.019 A 
ENDBRANCH  15  16
ENDBRANCH  12  15
ENDBRANCH   9  11
ENDBRANCH   8   9
ENDBRANCH   5   8
ENDBRANCH   3   4
ENDBRANCH   2   3
ENDBRANCH   1   2
BRANCH   1  26
ATOM     26  C   UNL     1      -3.934   2.162  -3.144  1.00  0.00     0.002 C 
BRANCH  26  27
ATOM     27  C   UNL     1      -5.141   2.025  -2.211  1.00  0.00     0.021 C 
BRANCH  27  28
ATOM     28  C   UNL     1      -5.660   3.344  -1.643  1.00  0.00     0.116 C 
BRANCH  28  29
ATOM     29  N   UNL     1      -6.104   4.241  -2.698  1.00  0.00    -0.352 N 
ATOM     30  C   UNL     1      -7.354   4.754  -2.940  1.00  0.00     0.251 C 
ATOM     31  H   UNL     1      -5.405   4.521  -3.333  1.00  0.00     0.163 HD
ATOM     32  O   UNL     1      -7.594   5.270  -4.028  1.00  0.00    -0.269 OA
BRANCH  30  33
ATOM     33  C   UNL     1      -8.404   4.673  -1.902  1.00  0.00     0.039 A 
ATOM     34  C   UNL     1      -9.707   4.344  -2.284  1.00  0.00     0.014 A 
ATOM     35  C   UNL     1      -8.116   4.946  -0.561  1.00  0.00     0.014 A 
ATOM     36  C   UNL     1     -10.705   4.234  -1.315  1.00  0.00     0.010 A 
ATOM     37  C   UNL     1      -9.096   4.763   0.413  1.00  0.00     0.010 A 
ATOM     38  C   UNL     1     -10.402   4.408   0.047  1.00  0.00    -0.014 A 
BRANCH  38  39
ATOM     39  C   UNL     1     -11.441   4.204   1.090  1.00  0.00     0.031 A 
ATOM     40  C   UNL     1     -11.887   5.349   1.959  1.00  0.00     0.074 A 
ATOM     41  C   UNL     1     -11.956   2.973   1.277  1.00  0.00     0.049 A 
ATOM     42  N   UNL     1     -12.763   5.357   2.931  1.00  0.00    -0.248 NA
ATOM     43  C   UNL     1     -11.245   6.650   1.720  1.00  0.00     0.031 C 
ATOM     44  C   UNL     1     -11.571   1.776   0.524  1.00  0.00     0.029 A 
ATOM     45  N   UNL     1     -12.910   2.518   2.152  1.00  0.00    -0.354 N 
ATOM     46  C   UNL     1     -12.776   6.659   3.421  1.00  0.00     0.074 A 
ATOM     47  C   UNL     1     -11.772   7.393   2.681  1.00  0.00     0.031 C 
ATOM     48  C   UNL     1     -12.306   0.736   0.945  1.00  0.00     0.029 A 
ATOM     49  C   UNL     1     -13.178   1.174   2.030  1.00  0.00     0.049 A 
ATOM     50  H   UNL     1     -13.361   3.099   2.806  1.00  0.00     0.167 HD
ATOM     51  C   UNL     1     -13.569   7.196   4.383  1.00  0.00     0.034 A 
ATOM     52  C   UNL     1     -14.021   0.380   2.720  1.00  0.00     0.034 A 
ATOM     53  C   UNL     1     -14.564   6.446   5.113  1.00  0.00     0.049 A 
ATOM     54  C   UNL     1     -14.862   0.992   3.812  1.00  0.00     0.074 A 
ATOM     55  C   UNL     1     -15.454   6.900   6.070  1.00  0.00     0.029 A 
ATOM     56  N   UNL     1     -14.793   5.082   4.978  1.00  0.00    -0.354 N 
ATOM     57  N   UNL     1     -14.905   2.239   4.222  1.00  0.00    -0.248 NA
ATOM     58  C   UNL     1     -15.776   0.092   4.524  1.00  0.00     0.031 C 
ATOM     59  C   UNL     1     -16.163   5.801   6.569  1.00  0.00     0.029 A 
ATOM     60  C   UNL     1     -15.781   4.673   5.862  1.00  0.00     0.049 A 
ATOM     61  H   UNL     1     -14.321   4.491   4.347  1.00  0.00     0.167 HD
ATOM     62  C   UNL     1     -15.873   2.276   5.222  1.00  0.00     0.074 A 
ATOM     63  C   UNL     1     -16.403   0.932   5.334  1.00  0.00     0.031 C 
ATOM     64  C   UNL     1     -16.288   3.325   5.978  1.00  0.00     0.034 A 
BRANCH  51  65
ATOM     65  C   UNL     1     -13.368   8.657   4.717  1.00  0.00     0.023 A 
ATOM     66  C   UNL     1     -13.579   9.670   3.763  1.00  0.00     0.031 A 
ATOM     67  C   UNL     1     -12.945   9.045   6.001  1.00  0.00     0.131 A 
ATOM     68  C   UNL     1     -13.295  11.006   4.083  1.00  0.00     0.055 A 
ATOM     69  C   UNL     1     -12.747  10.385   6.339  1.00  0.00     0.041 A 
ATOM     70  F   UNL     1     -12.707   8.125   6.949  1.00  0.00    -0.206 F 
ATOM     71  C   UNL     1     -12.907  11.374   5.373  1.00  0.00     0.022 A 
BRANCH  68  72
ATOM     72  S   UNL     1     -13.299  12.237   2.751  1.00  0.00     0.124 S 
ATOM     73  O   UNL     1     -12.307  11.681   1.833  1.00  0.00    -0.237 OA
ATOM     74  O   UNL     1     -14.683  12.203   2.293  1.00  0.00    -0.237 OA
ATOM     75  O   UNL     1     -12.893  13.470   3.421  1.00  0.00    -0.744 OA
ENDBRANCH  68  72
ENDBRANCH  51  65
BRANCH  52  76
ATOM     76  C   UNL     1     -14.108  -1.078   2.416  1.00  0.00     0.023 A 
ATOM     77  C   UNL     1     -15.302  -1.650   1.947  1.00  0.00     0.031 A 
ATOM     78  C   UNL     1     -13.011  -1.930   2.632  1.00  0.00     0.131 A 
ATOM     79  C   UNL     1     -15.386  -3.038   1.759  1.00  0.00     0.055 A 
ATOM     80  C   UNL     1     -13.081  -3.302   2.385  1.00  0.00     0.041 A 
ATOM     81  F   UNL     1     -11.844  -1.436   3.079  1.00  0.00    -0.206 F 
ATOM     82  C   UNL     1     -14.279  -3.866   1.960  1.00  0.00     0.022 A 
BRANCH  79  83
ATOM     83  S   UNL     1     -16.995  -3.762   1.340  1.00  0.00     0.124 S 
ATOM     84  O   UNL     1     -17.820  -3.319   2.458  1.00  0.00    -0.237 OA
ATOM     85  O   UNL     1     -17.278  -3.145   0.048  1.00  0.00    -0.237 OA
ATOM     86  O   UNL     1     -16.722  -5.197   1.296  1.00  0.00    -0.744 OA
ENDBRANCH  79  83
ENDBRANCH  52  76
BRANCH  64  87
ATOM     87  C   UNL     1     -17.399   3.058   6.967  1.00  0.00     0.023 A 
ATOM     88  C   UNL     1     -17.226   2.191   8.060  1.00  0.00     0.031 A 
ATOM     89  C   UNL     1     -18.658   3.662   6.798  1.00  0.00     0.131 A 
ATOM     90  C   UNL     1     -18.310   1.900   8.902  1.00  0.00     0.055 A 
ATOM     91  C   UNL     1     -19.713   3.424   7.680  1.00  0.00     0.041 A 
ATOM     92  F   UNL     1     -18.885   4.495   5.770  1.00  0.00    -0.206 F 
ATOM     93  C   UNL     1     -19.547   2.526   8.730  1.00  0.00     0.022 A 
BRANCH  90  94
ATOM     94  S   UNL     1     -18.115   0.605  10.157  1.00  0.00     0.124 S 
ATOM     95  O   UNL     1     -17.742  -0.550   9.346  1.00  0.00    -0.237 OA
ATOM     96  O   UNL     1     -17.064   1.151  11.009  1.00  0.00    -0.237 OA
ATOM     97  O   UNL     1     -19.437   0.526  10.777  1.00  0.00    -0.744 OA
ENDBRANCH  90  94
ENDBRANCH  64  87
ENDBRANCH  38  39
ENDBRANCH  30  33
ENDBRANCH  28  29
ENDBRANCH  27  28
ENDBRANCH  26  27
ENDBRANCH   1  26
TORSDOF 20
