REMARK SMILES CCC1(C(=O)N[C@H]2C=C[C@H](C(=O)NCCCCCCNC(=O)c3ccc(-c4c5nc(c(-c6cc(S(=O)(=O)[O-])ccc6F)c6ccc([nH]6)c(-c6cc(S(=O)(=O)[O-])ccc6F)c6nc(c(-c7cc(S(=O)(=O)[O-])ccc7F)c7ccc4[nH]7)C=C6)C=C5)cc3)C2)CC[NH2+]CC1
REMARK SMILES IDX 16 1 15 2 14 3 13 4 11 5 12 6 10 8 7 9 8 10 86 11 9 12 6 13
REMARK SMILES IDX 4 14 5 15 3 17 87 18 91 19 88 20 90 21 89 22 2 25 1 26 17 27
REMARK SMILES IDX 18 28 19 29 20 30 21 31 22 33 23 34 24 35 85 36 25 37 84 38
REMARK SMILES IDX 26 39 27 40 28 41 78 42 29 43 83 44 77 45 79 46 30 47 82 48
REMARK SMILES IDX 76 49 75 50 31 52 63 53 43 54 62 55 44 56 47 57 61 58 80 59
REMARK SMILES IDX 45 60 46 61 60 63 81 64 48 65 32 66 33 67 41 68 34 69 40 70
REMARK SMILES IDX 42 71 39 72 35 73 36 74 37 75 38 76 64 77 65 78 73 79 66 80
REMARK SMILES IDX 72 81 74 82 71 83 67 84 68 85 69 86 70 87 49 88 50 89 58 90
REMARK SMILES IDX 51 91 57 92 59 93 56 94 52 95 53 96 54 97 55 98
REMARK H PARENT 13 7 6 16 89 23 89 24 20 32 79 51 47 62
REMARK Flexibility Score: inf
ROOT
ATOM      1  C   UNL     1       8.523   4.925   0.326  1.00  0.00     0.002 C 
ENDROOT
BRANCH   1   2
ATOM      2  C   UNL     1       7.538   4.669   1.471  1.00  0.00     0.021 C 
BRANCH   2   3
ATOM      3  C   UNL     1       6.782   5.906   1.945  1.00  0.00     0.116 C 
BRANCH   3   4
ATOM      4  N   UNL     1       5.892   6.433   0.926  1.00  0.00    -0.356 N 
ATOM      5  C   UNL     1       4.582   6.811   1.062  1.00  0.00     0.227 C 
ATOM      6  O   UNL     1       4.005   7.320   0.103  1.00  0.00    -0.274 OA
ATOM      7  H   UNL     1       6.278   6.531   0.025  1.00  0.00     0.163 HD
BRANCH   5   8
ATOM      8  C   UNL     1       3.909   6.535   2.408  1.00  0.00     0.103 C 
ATOM      9  C   UNL     1       2.130   4.904   2.106  1.00  0.00     0.106 C 
ATOM     10  C   UNL     1       1.577   6.247   2.458  1.00  0.00    -0.006 C 
ATOM     11  C   UNL     1       3.596   5.039   2.525  1.00  0.00     0.047 C 
ATOM     12  C   UNL     1       2.554   7.154   2.578  1.00  0.00    -0.016 C 
BRANCH   9  13
ATOM     13  N   UNL     1       1.479   3.885   2.888  1.00  0.00    -0.349 N 
ATOM     14  C   UNL     1       0.959   2.676   2.554  1.00  0.00     0.227 C 
ATOM     15  O   UNL     1       0.652   1.966   3.519  1.00  0.00    -0.274 OA
ATOM     16  H   UNL     1       1.396   4.105   3.844  1.00  0.00     0.164 HD
BRANCH  14  17
ATOM     17  C   UNL     1       0.718   2.212   1.079  1.00  0.00     0.060 C 
ATOM     18  C   UNL     1      -0.201   3.277   0.403  1.00  0.00     0.078 C 
ATOM     19  C   UNL     1       2.074   2.037   0.350  1.00  0.00     0.078 C 
ATOM     20  C   UNL     1       0.007   3.528  -1.090  1.00  0.00     0.261 C 
ATOM     21  C   UNL     1       1.975   2.167  -1.168  1.00  0.00     0.261 C 
ATOM     22  N   UNL     1       1.400   3.460  -1.509  1.00  0.00    -0.346 N 
ATOM     23  H   UNL     1       1.928   4.196  -1.039  1.00  0.00     0.346 HD
ATOM     24  H   UNL     1       1.446   3.585  -2.520  1.00  0.00     0.346 HD
BRANCH  17  25
ATOM     25  C   UNL     1      -0.043   0.830   1.181  1.00  0.00     0.014 C 
ATOM     26  C   UNL     1       0.063  -0.172   0.040  1.00  0.00     0.005 C 
ENDBRANCH  17  25
ENDBRANCH  14  17
ENDBRANCH   9  13
ENDBRANCH   5   8
ENDBRANCH   3   4
ENDBRANCH   2   3
ENDBRANCH   1   2
BRANCH   1  27
ATOM     27  C   UNL     1       9.545   6.035   0.585  1.00  0.00     0.002 C 
BRANCH  27  28
ATOM     28  C   UNL     1      10.365   5.881   1.868  1.00  0.00     0.021 C 
BRANCH  28  29
ATOM     29  C   UNL     1      11.152   4.579   1.970  1.00  0.00     0.116 C 
BRANCH  29  30
ATOM     30  N   UNL     1      12.141   4.453   0.914  1.00  0.00    -0.352 N 
ATOM     31  C   UNL     1      13.492   4.219   1.008  1.00  0.00     0.251 C 
ATOM     32  H   UNL     1      11.793   4.549  -0.002  1.00  0.00     0.163 HD
ATOM     33  O   UNL     1      14.202   4.351   0.019  1.00  0.00    -0.269 OA
BRANCH  31  34
ATOM     34  C   UNL     1      14.082   3.837   2.311  1.00  0.00     0.039 A 
ATOM     35  C   UNL     1      15.275   4.439   2.715  1.00  0.00     0.014 A 
ATOM     36  C   UNL     1      13.460   2.891   3.132  1.00  0.00     0.014 A 
ATOM     37  C   UNL     1      15.812   4.138   3.970  1.00  0.00     0.010 A 
ATOM     38  C   UNL     1      13.953   2.653   4.412  1.00  0.00     0.010 A 
ATOM     39  C   UNL     1      15.136   3.272   4.845  1.00  0.00    -0.014 A 
BRANCH  39  40
ATOM     40  C   UNL     1      15.653   3.001   6.213  1.00  0.00     0.031 A 
ATOM     41  C   UNL     1      16.067   1.608   6.603  1.00  0.00     0.074 A 
ATOM     42  C   UNL     1      15.700   3.998   7.119  1.00  0.00     0.049 A 
ATOM     43  N   UNL     1      16.483   1.160   7.761  1.00  0.00    -0.248 NA
ATOM     44  C   UNL     1      15.972   0.577   5.559  1.00  0.00     0.031 C 
ATOM     45  C   UNL     1      15.299   5.384   6.870  1.00  0.00     0.029 A 
ATOM     46  N   UNL     1      16.103   4.002   8.431  1.00  0.00    -0.354 N 
ATOM     47  C   UNL     1      16.693  -0.204   7.586  1.00  0.00     0.074 A 
ATOM     48  C   UNL     1      16.287  -0.518   6.233  1.00  0.00     0.031 C 
ATOM     49  C   UNL     1      15.510   6.109   7.980  1.00  0.00     0.029 A 
ATOM     50  C   UNL     1      16.008   5.234   9.036  1.00  0.00     0.049 A 
ATOM     51  H   UNL     1      16.430   3.198   8.896  1.00  0.00     0.167 HD
ATOM     52  C   UNL     1      17.203  -1.105   8.464  1.00  0.00     0.034 A 
ATOM     53  C   UNL     1      16.280   5.614  10.301  1.00  0.00     0.034 A 
ATOM     54  C   UNL     1      17.601  -0.773   9.811  1.00  0.00     0.049 A 
ATOM     55  C   UNL     1      16.787   4.582  11.278  1.00  0.00     0.074 A 
ATOM     56  C   UNL     1      18.167  -1.596  10.770  1.00  0.00     0.029 A 
ATOM     57  N   UNL     1      17.463   0.479  10.398  1.00  0.00    -0.354 N 
ATOM     58  N   UNL     1      17.026   3.305  11.083  1.00  0.00    -0.248 NA
ATOM     59  C   UNL     1      17.068   5.046  12.642  1.00  0.00     0.031 C 
ATOM     60  C   UNL     1      18.295  -0.866  11.956  1.00  0.00     0.029 A 
ATOM     61  C   UNL     1      17.896   0.440  11.716  1.00  0.00     0.049 A 
ATOM     62  H   UNL     1      17.110   1.278   9.944  1.00  0.00     0.167 HD
ATOM     63  C   UNL     1      17.523   2.824  12.293  1.00  0.00     0.074 A 
ATOM     64  C   UNL     1      17.560   3.951  13.202  1.00  0.00     0.031 C 
ATOM     65  C   UNL     1      17.919   1.567  12.619  1.00  0.00     0.034 A 
BRANCH  52  66
ATOM     66  C   UNL     1      17.325  -2.537   7.995  1.00  0.00     0.023 A 
ATOM     67  C   UNL     1      18.126  -2.887   6.893  1.00  0.00     0.031 A 
ATOM     68  C   UNL     1      16.602  -3.563   8.630  1.00  0.00     0.131 A 
ATOM     69  C   UNL     1      18.113  -4.202   6.404  1.00  0.00     0.055 A 
ATOM     70  C   UNL     1      16.669  -4.889   8.196  1.00  0.00     0.041 A 
ATOM     71  F   UNL     1      15.802  -3.292   9.673  1.00  0.00    -0.206 F 
ATOM     72  C   UNL     1      17.412  -5.212   7.065  1.00  0.00     0.022 A 
BRANCH  69  73
ATOM     73  S   UNL     1      18.881  -4.532   4.794  1.00  0.00     0.124 S 
ATOM     74  O   UNL     1      18.157  -3.604   3.927  1.00  0.00    -0.237 OA
ATOM     75  O   UNL     1      20.282  -4.214   5.042  1.00  0.00    -0.237 OA
ATOM     76  O   UNL     1      18.592  -5.945   4.560  1.00  0.00    -0.744 OA
ENDBRANCH  69  73
ENDBRANCH  52  66
BRANCH  53  77
ATOM     77  C   UNL     1      16.078   7.029  10.728  1.00  0.00     0.023 A 
ATOM     78  C   UNL     1      17.160   7.813  11.159  1.00  0.00     0.031 A 
ATOM     79  C   UNL     1      14.795   7.605  10.759  1.00  0.00     0.131 A 
ATOM     80  C   UNL     1      16.935   9.107  11.652  1.00  0.00     0.055 A 
ATOM     81  C   UNL     1      14.584   8.915  11.193  1.00  0.00     0.041 A 
ATOM     82  F   UNL     1      13.724   6.902  10.357  1.00  0.00    -0.206 F 
ATOM     83  C   UNL     1      15.657   9.670  11.657  1.00  0.00     0.022 A 
BRANCH  80  84
ATOM     84  S   UNL     1      18.328  10.011  12.381  1.00  0.00     0.124 S 
ATOM     85  O   UNL     1      18.746   9.104  13.444  1.00  0.00    -0.237 OA
ATOM     86  O   UNL     1      19.237  10.134  11.246  1.00  0.00    -0.237 OA
ATOM     87  O   UNL     1      17.722  11.263  12.831  1.00  0.00    -0.744 OA
ENDBRANCH  80  84
ENDBRANCH  53  77
BRANCH  65  88
ATOM     88  C   UNL     1      18.476   1.359  14.008  1.00  0.00     0.023 A 
ATOM     89  C   UNL     1      17.684   1.518  15.160  1.00  0.00     0.031 A 
ATOM     90  C   UNL     1      19.828   1.009  14.181  1.00  0.00     0.131 A 
ATOM     91  C   UNL     1      18.264   1.385  16.431  1.00  0.00     0.055 A 
ATOM     92  C   UNL     1      20.381   0.810  15.446  1.00  0.00     0.041 A 
ATOM     93  F   UNL     1      20.634   0.849  13.119  1.00  0.00    -0.206 F 
ATOM     94  C   UNL     1      19.602   1.012  16.581  1.00  0.00     0.022 A 
BRANCH  91  95
ATOM     95  S   UNL     1      17.272   1.810  17.889  1.00  0.00     0.124 S 
ATOM     96  O   UNL     1      16.909   3.196  17.616  1.00  0.00    -0.237 OA
ATOM     97  O   UNL     1      16.184   0.840  17.820  1.00  0.00    -0.237 OA
ATOM     98  O   UNL     1      18.200   1.620  19.003  1.00  0.00    -0.744 OA
ENDBRANCH  91  95
ENDBRANCH  65  88
ENDBRANCH  39  40
ENDBRANCH  31  34
ENDBRANCH  29  30
ENDBRANCH  28  29
ENDBRANCH  27  28
ENDBRANCH   1  27
TORSDOF 19
