REMARK SMILES CC[C@H](C)[NH2+]CCc1ccc(C(=O)NCCCCCCNC(=O)c2ccc(-c3c4nc(c(-c5cc(S(=O)(=O)[O-])ccc5F)c5ccc([nH]5)c(-c5cc(S(=O)(=O)[O-])ccc5F)c5nc(c(-c6cc(S(=O)(=O)[O-])ccc6F)c6ccc3[nH]6)C=C5)C=C4)cc2)cc1
REMARK SMILES IDX 16 1 15 2 14 3 12 4 13 5 11 7 8 8 9 9 88 10 10 11 87 12 7 13
REMARK SMILES IDX 6 14 5 15 3 18 4 19 2 20 1 21 17 22 18 23 19 24 20 25 21 26
REMARK SMILES IDX 22 27 23 29 24 30 25 31 86 32 26 33 85 34 27 35 28 36 29 37
REMARK SMILES IDX 79 38 30 39 84 40 78 41 80 42 31 43 83 44 77 45 76 46 32 48
REMARK SMILES IDX 64 49 44 50 63 51 45 52 48 53 62 54 81 55 46 56 47 57 61 59
REMARK SMILES IDX 82 60 49 61 33 62 34 63 42 64 35 65 41 66 43 67 40 68 36 69
REMARK SMILES IDX 37 70 38 71 39 72 65 73 66 74 74 75 67 76 73 77 75 78 72 79
REMARK SMILES IDX 68 80 69 81 70 82 71 83 50 84 51 85 59 86 52 87 58 88 60 89
REMARK SMILES IDX 57 90 53 91 54 92 55 93 56 94
REMARK H PARENT 14 6 5 16 5 17 21 28 80 47 48 58
REMARK Flexibility Score: inf
ROOT
ATOM      1  C   UNL     1      -5.925   1.980   1.624  1.00  0.00     0.021 C 
ENDROOT
BRANCH   1   2
ATOM      2  C   UNL     1      -5.738   2.867   0.387  1.00  0.00     0.116 C 
BRANCH   2   3
ATOM      3  N   UNL     1      -6.129   4.237   0.679  1.00  0.00    -0.352 N 
ATOM      4  C   UNL     1      -5.405   5.368   0.970  1.00  0.00     0.251 C 
ATOM      5  O   UNL     1      -6.021   6.422   1.131  1.00  0.00    -0.269 OA
ATOM      6  H   UNL     1      -7.103   4.383   0.665  1.00  0.00     0.163 HD
BRANCH   4   7
ATOM      7  C   UNL     1      -3.920   5.380   1.055  1.00  0.00     0.039 A 
ATOM      8  C   UNL     1      -1.080   5.483   1.077  1.00  0.00    -0.042 A 
ATOM      9  C   UNL     1      -1.841   6.634   0.825  1.00  0.00     0.005 A 
ATOM     10  C   UNL     1      -1.775   4.299   1.310  1.00  0.00     0.005 A 
ATOM     11  C   UNL     1      -3.244   6.581   0.803  1.00  0.00     0.014 A 
ATOM     12  C   UNL     1      -3.165   4.262   1.375  1.00  0.00     0.014 A 
BRANCH   8  13
ATOM     13  C   UNL     1       0.429   5.548   0.993  1.00  0.00     0.097 C 
BRANCH  13  14
ATOM     14  C   UNL     1       1.309   4.598   1.850  1.00  0.00     0.265 C 
BRANCH  14  15
ATOM     15  N   UNL     1       1.050   3.172   1.957  1.00  0.00    -0.344 N 
ATOM     16  H   UNL     1       1.568   2.848   2.774  1.00  0.00     0.346 HD
ATOM     17  H   UNL     1       0.030   3.142   1.971  1.00  0.00     0.346 HD
BRANCH  15  18
ATOM     18  C   UNL     1       1.368   2.243   0.877  1.00  0.00     0.178 C 
ATOM     19  C   UNL     1       0.794   0.875   1.292  1.00  0.00     0.075 C 
BRANCH  18  20
ATOM     20  C   UNL     1       0.848   2.590  -0.531  1.00  0.00     0.061 C 
ATOM     21  C   UNL     1       1.664   1.917  -1.630  1.00  0.00     0.010 C 
ENDBRANCH  18  20
ENDBRANCH  15  18
ENDBRANCH  14  15
ENDBRANCH  13  14
ENDBRANCH   8  13
ENDBRANCH   4   7
ENDBRANCH   2   3
ENDBRANCH   1   2
BRANCH   1  22
ATOM     22  C   UNL     1      -7.382   1.561   1.846  1.00  0.00     0.002 C 
BRANCH  22  23
ATOM     23  C   UNL     1      -7.968   0.688   0.730  1.00  0.00     0.002 C 
BRANCH  23  24
ATOM     24  C   UNL     1      -7.213  -0.619   0.475  1.00  0.00     0.021 C 
BRANCH  24  25
ATOM     25  C   UNL     1      -7.213  -1.580   1.660  1.00  0.00     0.116 C 
BRANCH  25  26
ATOM     26  N   UNL     1      -8.562  -2.021   1.985  1.00  0.00    -0.352 N 
ATOM     27  C   UNL     1      -9.070  -3.292   2.021  1.00  0.00     0.251 C 
ATOM     28  H   UNL     1      -9.198  -1.304   2.211  1.00  0.00     0.163 HD
ATOM     29  O   UNL     1     -10.291  -3.461   2.047  1.00  0.00    -0.269 OA
BRANCH  27  30
ATOM     30  C   UNL     1      -8.155  -4.450   2.016  1.00  0.00     0.039 A 
ATOM     31  C   UNL     1      -8.454  -5.554   1.214  1.00  0.00     0.014 A 
ATOM     32  C   UNL     1      -7.005  -4.449   2.811  1.00  0.00     0.014 A 
ATOM     33  C   UNL     1      -7.571  -6.634   1.170  1.00  0.00     0.010 A 
ATOM     34  C   UNL     1      -6.090  -5.491   2.707  1.00  0.00     0.010 A 
ATOM     35  C   UNL     1      -6.367  -6.598   1.891  1.00  0.00    -0.014 A 
BRANCH  35  36
ATOM     36  C   UNL     1      -5.388  -7.713   1.812  1.00  0.00     0.031 A 
ATOM     37  C   UNL     1      -5.059  -8.516   3.042  1.00  0.00     0.074 A 
ATOM     38  C   UNL     1      -4.752  -7.960   0.651  1.00  0.00     0.049 A 
ATOM     39  N   UNL     1      -4.184  -9.476   3.195  1.00  0.00    -0.248 NA
ATOM     40  C   UNL     1      -5.790  -8.167   4.268  1.00  0.00     0.031 C 
ATOM     41  C   UNL     1      -4.958  -7.221  -0.597  1.00  0.00     0.029 A 
ATOM     42  N   UNL     1      -3.799  -8.893   0.329  1.00  0.00    -0.354 N 
ATOM     43  C   UNL     1      -4.250  -9.838   4.536  1.00  0.00     0.074 A 
ATOM     44  C   UNL     1      -5.200  -8.943   5.163  1.00  0.00     0.031 C 
ATOM     45  C   UNL     1      -4.175  -7.745  -1.552  1.00  0.00     0.029 A 
ATOM     46  C   UNL     1      -3.375  -8.822  -0.978  1.00  0.00     0.049 A 
ATOM     47  H   UNL     1      -3.450  -9.550   0.974  1.00  0.00     0.167 HD
ATOM     48  C   UNL     1      -3.597 -10.839   5.179  1.00  0.00     0.034 A 
ATOM     49  C   UNL     1      -2.439  -9.534  -1.635  1.00  0.00     0.034 A 
ATOM     50  C   UNL     1      -2.655 -11.722   4.532  1.00  0.00     0.049 A 
ATOM     51  C   UNL     1      -1.701 -10.621  -0.896  1.00  0.00     0.074 A 
ATOM     52  C   UNL     1      -1.977 -12.802   5.069  1.00  0.00     0.029 A 
ATOM     53  N   UNL     1      -2.247 -11.618   3.207  1.00  0.00    -0.354 N 
ATOM     54  N   UNL     1      -1.813 -10.989   0.360  1.00  0.00    -0.248 NA
ATOM     55  C   UNL     1      -0.722 -11.396  -1.667  1.00  0.00     0.031 C 
ATOM     56  C   UNL     1      -1.104 -13.300   4.095  1.00  0.00     0.029 A 
ATOM     57  C   UNL     1      -1.300 -12.590   2.921  1.00  0.00     0.049 A 
ATOM     58  H   UNL     1      -2.582 -10.952   2.564  1.00  0.00     0.167 HD
ATOM     59  C   UNL     1      -0.938 -12.059   0.521  1.00  0.00     0.074 A 
ATOM     60  C   UNL     1      -0.318 -12.284  -0.770  1.00  0.00     0.031 C 
ATOM     61  C   UNL     1      -0.676 -12.794   1.633  1.00  0.00     0.034 A 
BRANCH  48  62
ATOM     62  C   UNL     1      -3.863 -11.002   6.659  1.00  0.00     0.023 A 
ATOM     63  C   UNL     1      -5.151 -11.277   7.153  1.00  0.00     0.031 A 
ATOM     64  C   UNL     1      -2.826 -10.835   7.593  1.00  0.00     0.131 A 
ATOM     65  C   UNL     1      -5.386 -11.282   8.536  1.00  0.00     0.055 A 
ATOM     66  C   UNL     1      -3.049 -10.936   8.969  1.00  0.00     0.041 A 
ATOM     67  F   UNL     1      -1.578 -10.550   7.188  1.00  0.00    -0.206 F 
ATOM     68  C   UNL     1      -4.339 -11.140   9.448  1.00  0.00     0.022 A 
BRANCH  65  69
ATOM     69  S   UNL     1      -7.104 -11.297   9.120  1.00  0.00     0.124 S 
ATOM     70  O   UNL     1      -7.650 -10.113   8.460  1.00  0.00    -0.237 OA
ATOM     71  O   UNL     1      -7.591 -12.582   8.632  1.00  0.00    -0.237 OA
ATOM     72  O   UNL     1      -6.974 -11.187  10.571  1.00  0.00    -0.744 OA
ENDBRANCH  65  69
ENDBRANCH  48  62
BRANCH  49  73
ATOM     73  C   UNL     1      -2.139  -9.237  -3.065  1.00  0.00     0.023 A 
ATOM     74  C   UNL     1      -2.407 -10.176  -4.073  1.00  0.00     0.031 A 
ATOM     75  C   UNL     1      -1.560  -8.012  -3.442  1.00  0.00     0.131 A 
ATOM     76  C   UNL     1      -2.062  -9.892  -5.403  1.00  0.00     0.055 A 
ATOM     77  C   UNL     1      -1.268  -7.713  -4.774  1.00  0.00     0.041 A 
ATOM     78  F   UNL     1      -1.289  -7.075  -2.519  1.00  0.00    -0.206 F 
ATOM     79  C   UNL     1      -1.508  -8.661  -5.763  1.00  0.00     0.022 A 
BRANCH  76  80
ATOM     80  S   UNL     1      -2.282 -11.187  -6.654  1.00  0.00     0.124 S 
ATOM     81  O   UNL     1      -1.439 -12.254  -6.128  1.00  0.00    -0.237 OA
ATOM     82  O   UNL     1      -3.722 -11.419  -6.599  1.00  0.00    -0.237 OA
ATOM     83  O   UNL     1      -1.802 -10.558  -7.883  1.00  0.00    -0.744 OA
ENDBRANCH  76  80
ENDBRANCH  49  73
BRANCH  61  84
ATOM     84  C   UNL     1       0.296 -13.941   1.485  1.00  0.00     0.023 A 
ATOM     85  C   UNL     1       1.655 -13.732   1.194  1.00  0.00     0.031 A 
ATOM     86  C   UNL     1      -0.151 -15.267   1.631  1.00  0.00     0.131 A 
ATOM     87  C   UNL     1       2.506 -14.831   1.001  1.00  0.00     0.055 A 
ATOM     88  C   UNL     1       0.714 -16.354   1.504  1.00  0.00     0.041 A 
ATOM     89  F   UNL     1      -1.440 -15.528   1.905  1.00  0.00    -0.206 F 
ATOM     90  C   UNL     1       2.049 -16.140   1.174  1.00  0.00     0.022 A 
BRANCH  87  91
ATOM     91  S   UNL     1       4.200 -14.531   0.424  1.00  0.00     0.124 S 
ATOM     92  O   UNL     1       3.971 -13.817  -0.828  1.00  0.00    -0.237 OA
ATOM     93  O   UNL     1       4.766 -13.742   1.513  1.00  0.00    -0.237 OA
ATOM     94  O   UNL     1       4.756 -15.875   0.279  1.00  0.00    -0.744 OA
ENDBRANCH  87  91
ENDBRANCH  61  84
ENDBRANCH  35  36
ENDBRANCH  27  30
ENDBRANCH  25  26
ENDBRANCH  24  25
ENDBRANCH  23  24
ENDBRANCH  22  23
ENDBRANCH   1  22
TORSDOF 21
