REMARK SMILES CCC(CC)(CC(=O)Nc1ccc(F)c(F)c1)C(=O)NCCCCCCNC(=O)c1ccc(-c2c3nc(c(-c4cc(S(=O)(=O)[O-])ccc4F)c4ccc([nH]4)c(-c4cc(S(=O)(=O)[O-])ccc4F)c4nc(c(-c5cc(S(=O)(=O)[O-])ccc5F)c5ccc2[nH]5)C=C4)C=C3)cc1
REMARK SMILES IDX 23 1 22 2 21 3 20 4 18 5 19 6 3 8 2 9 1 10 4 11 5 12 6 13
REMARK SMILES IDX 7 14 8 15 9 16 10 18 11 19 17 20 12 21 15 22 13 23 16 24
REMARK SMILES IDX 14 25 24 26 25 27 26 28 27 29 28 30 29 32 30 33 31 34 92 35
REMARK SMILES IDX 32 36 91 37 33 38 34 39 35 40 85 41 36 42 90 43 84 44 86 45
REMARK SMILES IDX 37 46 89 47 83 48 82 49 38 51 70 52 50 53 69 54 51 55 54 56
REMARK SMILES IDX 68 57 87 58 52 59 53 60 67 62 88 63 55 64 39 65 40 66 48 67
REMARK SMILES IDX 41 68 47 69 49 70 46 71 42 72 43 73 44 74 45 75 71 76 72 77
REMARK SMILES IDX 80 78 73 79 79 80 81 81 78 82 74 83 75 84 76 85 77 86 56 87
REMARK SMILES IDX 57 88 65 89 58 90 64 91 66 92 63 93 59 94 60 95 61 96 62 97
REMARK H PARENT 20 7 9 17 27 31 86 50 54 61
REMARK Flexibility Score: inf
ROOT
ATOM      1  C   UNL     1       4.611   1.068   6.221  1.00  0.00     0.002 C 
ENDROOT
BRANCH   1   2
ATOM      2  C   UNL     1       3.107   0.779   6.140  1.00  0.00     0.021 C 
BRANCH   2   3
ATOM      3  C   UNL     1       2.392   1.371   4.930  1.00  0.00     0.116 C 
BRANCH   3   4
ATOM      4  N   UNL     1       2.989   0.928   3.690  1.00  0.00    -0.356 N 
ATOM      5  C   UNL     1       2.476   0.481   2.523  1.00  0.00     0.226 C 
ATOM      6  O   UNL     1       3.309   0.064   1.710  1.00  0.00    -0.274 OA
ATOM      7  H   UNL     1       3.973   0.957   3.698  1.00  0.00     0.163 HD
BRANCH   5   8
ATOM      8  C   UNL     1       0.962   0.477   2.200  1.00  0.00     0.057 C 
BRANCH   8   9
ATOM      9  C   UNL     1       0.830   0.157   0.678  1.00  0.00     0.014 C 
ATOM     10  C   UNL     1       1.305   1.211  -0.317  1.00  0.00     0.005 C 
ENDBRANCH   8   9
BRANCH   8  11
ATOM     11  C   UNL     1       0.312   1.869   2.476  1.00  0.00     0.014 C 
ATOM     12  C   UNL     1      -1.207   1.920   2.337  1.00  0.00     0.005 C 
ENDBRANCH   8  11
BRANCH   8  13
ATOM     13  C   UNL     1       0.224  -0.650   2.982  1.00  0.00     0.117 C 
BRANCH  13  14
ATOM     14  C   UNL     1       0.891  -2.023   3.090  1.00  0.00     0.225 C 
ATOM     15  O   UNL     1       1.836  -2.209   3.860  1.00  0.00    -0.275 OA
ATOM     16  N   UNL     1       0.340  -3.108   2.448  1.00  0.00    -0.326 N 
ATOM     17  H   UNL     1       0.600  -3.993   2.794  1.00  0.00     0.169 HD
BRANCH  16  18
ATOM     18  C   UNL     1      -0.543  -3.107   1.364  1.00  0.00     0.044 A 
ATOM     19  C   UNL     1      -0.070  -2.806   0.084  1.00  0.00     0.029 A 
ATOM     20  C   UNL     1      -1.875  -3.474   1.541  1.00  0.00     0.068 A 
ATOM     21  C   UNL     1      -0.954  -2.689  -0.989  1.00  0.00     0.044 A 
ATOM     22  C   UNL     1      -2.748  -3.394   0.456  1.00  0.00     0.160 A 
ATOM     23  C   UNL     1      -2.298  -2.969  -0.791  1.00  0.00     0.158 A 
ATOM     24  F   UNL     1      -4.036  -3.720   0.626  1.00  0.00    -0.204 F 
ATOM     25  F   UNL     1      -3.154  -2.841  -1.814  1.00  0.00    -0.204 F 
ENDBRANCH  16  18
ENDBRANCH  13  14
ENDBRANCH   8  13
ENDBRANCH   5   8
ENDBRANCH   3   4
ENDBRANCH   2   3
ENDBRANCH   1   2
BRANCH   1  26
ATOM     26  C   UNL     1       5.014   2.540   6.103  1.00  0.00     0.002 C 
BRANCH  26  27
ATOM     27  C   UNL     1       4.326   3.490   7.084  1.00  0.00     0.021 C 
BRANCH  27  28
ATOM     28  C   UNL     1       4.410   3.078   8.548  1.00  0.00     0.116 C 
BRANCH  28  29
ATOM     29  N   UNL     1       5.780   2.992   9.020  1.00  0.00    -0.352 N 
ATOM     30  C   UNL     1       6.335   3.515  10.162  1.00  0.00     0.251 C 
ATOM     31  H   UNL     1       6.397   2.488   8.441  1.00  0.00     0.163 HD
ATOM     32  O   UNL     1       7.551   3.495  10.313  1.00  0.00    -0.269 OA
BRANCH  30  33
ATOM     33  C   UNL     1       5.461   4.127  11.188  1.00  0.00     0.039 A 
ATOM     34  C   UNL     1       5.845   5.343  11.756  1.00  0.00     0.014 A 
ATOM     35  C   UNL     1       4.271   3.510  11.587  1.00  0.00     0.014 A 
ATOM     36  C   UNL     1       5.011   5.964  12.687  1.00  0.00     0.010 A 
ATOM     37  C   UNL     1       3.404   4.168  12.456  1.00  0.00     0.010 A 
ATOM     38  C   UNL     1       3.770   5.397  13.023  1.00  0.00    -0.014 A 
BRANCH  38  39
ATOM     39  C   UNL     1       2.855   6.085  13.970  1.00  0.00     0.031 A 
ATOM     40  C   UNL     1       2.518   5.457  15.296  1.00  0.00     0.074 A 
ATOM     41  C   UNL     1       2.302   7.262  13.618  1.00  0.00     0.049 A 
ATOM     42  N   UNL     1       1.755   5.911  16.257  1.00  0.00    -0.248 NA
ATOM     43  C   UNL     1       3.092   4.130  15.561  1.00  0.00     0.031 C 
ATOM     44  C   UNL     1       2.513   7.943  12.338  1.00  0.00     0.029 A 
ATOM     45  N   UNL     1       1.458   8.099  14.302  1.00  0.00    -0.354 N 
ATOM     46  C   UNL     1       1.747   4.921  17.235  1.00  0.00     0.074 A 
ATOM     47  C   UNL     1       2.527   3.818  16.717  1.00  0.00     0.031 C 
ATOM     48  C   UNL     1       1.858   9.115  12.350  1.00  0.00     0.029 A 
ATOM     49  C   UNL     1       1.147   9.251  13.617  1.00  0.00     0.049 A 
ATOM     50  H   UNL     1       1.107   7.894  15.199  1.00  0.00     0.167 HD
ATOM     51  C   UNL     1       1.163   4.942  18.460  1.00  0.00     0.034 A 
ATOM     52  C   UNL     1       0.382  10.300  13.974  1.00  0.00     0.034 A 
ATOM     53  C   UNL     1       0.397   6.059  18.961  1.00  0.00     0.049 A 
ATOM     54  C   UNL     1      -0.268  10.295  15.333  1.00  0.00     0.074 A 
ATOM     55  C   UNL     1      -0.176   6.222  20.211  1.00  0.00     0.029 A 
ATOM     56  N   UNL     1       0.081   7.200  18.232  1.00  0.00    -0.354 N 
ATOM     57  N   UNL     1      -0.205   9.386  16.279  1.00  0.00    -0.248 NA
ATOM     58  C   UNL     1      -1.082  11.467  15.675  1.00  0.00     0.031 C 
ATOM     59  C   UNL     1      -0.900   7.420  20.210  1.00  0.00     0.029 A 
ATOM     60  C   UNL     1      -0.713   8.049  18.990  1.00  0.00     0.049 A 
ATOM     61  H   UNL     1       0.378   7.379  17.311  1.00  0.00     0.167 HD
ATOM     62  C   UNL     1      -0.949   9.892  17.341  1.00  0.00     0.074 A 
ATOM     63  C   UNL     1      -1.429  11.194  16.924  1.00  0.00     0.031 C 
ATOM     64  C   UNL     1      -1.211   9.334  18.552  1.00  0.00     0.034 A 
BRANCH  51  65
ATOM     65  C   UNL     1       1.306   3.704  19.318  1.00  0.00     0.023 A 
ATOM     66  C   UNL     1       2.563   3.229  19.734  1.00  0.00     0.031 A 
ATOM     67  C   UNL     1       0.171   2.961  19.689  1.00  0.00     0.131 A 
ATOM     68  C   UNL     1       2.662   2.003  20.411  1.00  0.00     0.055 A 
ATOM     69  C   UNL     1       0.270   1.789  20.443  1.00  0.00     0.041 A 
ATOM     70  F   UNL     1      -1.056   3.349  19.307  1.00  0.00    -0.206 F 
ATOM     71  C   UNL     1       1.522   1.293  20.791  1.00  0.00     0.022 A 
BRANCH  68  72
ATOM     72  S   UNL     1       4.306   1.268  20.634  1.00  0.00     0.124 S 
ATOM     73  O   UNL     1       4.786   1.195  19.256  1.00  0.00    -0.237 OA
ATOM     74  O   UNL     1       4.972   2.239  21.493  1.00  0.00    -0.237 OA
ATOM     75  O   UNL     1       4.022  -0.025  21.254  1.00  0.00    -0.744 OA
ENDBRANCH  68  72
ENDBRANCH  51  65
BRANCH  52  76
ATOM     76  C   UNL     1       0.199  11.452  13.046  1.00  0.00     0.023 A 
ATOM     77  C   UNL     1       0.688  12.726  13.376  1.00  0.00     0.031 A 
ATOM     78  C   UNL     1      -0.497  11.306  11.833  1.00  0.00     0.131 A 
ATOM     79  C   UNL     1       0.440  13.813  12.524  1.00  0.00     0.055 A 
ATOM     80  C   UNL     1      -0.698  12.381  10.965  1.00  0.00     0.041 A 
ATOM     81  F   UNL     1      -0.980  10.108  11.467  1.00  0.00    -0.206 F 
ATOM     82  C   UNL     1      -0.239  13.647  11.315  1.00  0.00     0.022 A 
BRANCH  79  83
ATOM     83  S   UNL     1       0.954  15.469  13.058  1.00  0.00     0.124 S 
ATOM     84  O   UNL     1       0.212  15.624  14.304  1.00  0.00    -0.237 OA
ATOM     85  O   UNL     1       2.399  15.310  13.185  1.00  0.00    -0.237 OA
ATOM     86  O   UNL     1       0.519  16.330  11.960  1.00  0.00    -0.744 OA
ENDBRANCH  79  83
ENDBRANCH  52  76
BRANCH  64  87
ATOM     87  C   UNL     1      -2.035  10.158  19.514  1.00  0.00     0.023 A 
ATOM     88  C   UNL     1      -3.370  10.502  19.234  1.00  0.00     0.031 A 
ATOM     89  C   UNL     1      -1.464  10.646  20.702  1.00  0.00     0.131 A 
ATOM     90  C   UNL     1      -4.061  11.374  20.089  1.00  0.00     0.055 A 
ATOM     91  C   UNL     1      -2.182  11.453  21.586  1.00  0.00     0.041 A 
ATOM     92  F   UNL     1      -0.193  10.353  21.021  1.00  0.00    -0.206 F 
ATOM     93  C   UNL     1      -3.482  11.837  21.272  1.00  0.00     0.022 A 
BRANCH  90  94
ATOM     94  S   UNL     1      -5.682  11.999  19.565  1.00  0.00     0.124 S 
ATOM     95  O   UNL     1      -5.371  12.603  18.273  1.00  0.00    -0.237 OA
ATOM     96  O   UNL     1      -6.487  10.783  19.522  1.00  0.00    -0.237 OA
ATOM     97  O   UNL     1      -6.042  12.944  20.620  1.00  0.00    -0.744 OA
ENDBRANCH  90  94
ENDBRANCH  64  87
ENDBRANCH  38  39
ENDBRANCH  30  33
ENDBRANCH  28  29
ENDBRANCH  27  28
ENDBRANCH  26  27
ENDBRANCH   1  26
TORSDOF 21
