REMARK SMILES Cc1ccc(C(C)C)c(OCC(=O)Nc2nc(CC(=O)NCCCCCCNC(=O)c3ccc(-c4c5nc(c(-c6cc(S(=O)(=O)[O-])ccc6F)c6ccc([nH]6)c(-c6cc(S(=O)(=O)[O-])ccc6F)c6nc(c(-c7cc(S(=O)(=O)[O-])ccc7F)c7ccc4[nH]7)C=C6)C=C5)cc3)cs2)c1
REMARK SMILES IDX 23 1 22 2 21 3 19 4 20 5 18 7 17 8 15 9 16 10 95 11 94 12
REMARK SMILES IDX 14 13 12 14 13 15 11 17 10 18 9 19 1 20 2 21 3 22 96 23 4 24
REMARK SMILES IDX 5 25 6 26 7 27 8 28 24 29 25 30 26 31 27 32 28 33 29 34
REMARK SMILES IDX 30 36 31 37 32 38 93 39 33 40 92 41 34 42 35 43 36 44 86 45
REMARK SMILES IDX 37 46 91 47 85 48 87 49 38 50 90 51 84 52 83 53 39 55 71 56
REMARK SMILES IDX 51 57 70 58 52 59 55 60 69 61 88 62 53 63 54 64 68 66 89 67
REMARK SMILES IDX 56 68 40 69 41 70 49 71 42 72 48 73 50 74 47 75 43 76 44 77
REMARK SMILES IDX 45 78 46 79 72 80 73 81 81 82 74 83 80 84 82 85 79 86 75 87
REMARK SMILES IDX 76 88 77 89 78 90 57 91 58 92 66 93 59 94 65 95 67 96 64 97
REMARK SMILES IDX 60 98 61 99 62 100 63 101
REMARK H PARENT 21 6 14 16 28 35 87 54 55 65
REMARK Flexibility Score: inf
ROOT
ATOM      1  C   UNL     1      -3.522   0.199   5.024  1.00  0.00     0.021 C 
ENDROOT
BRANCH   1   2
ATOM      2  C   UNL     1      -4.258   0.148   3.687  1.00  0.00     0.116 C 
BRANCH   2   3
ATOM      3  N   UNL     1      -5.648   0.559   3.778  1.00  0.00    -0.356 N 
ATOM      4  C   UNL     1      -6.330   1.461   3.011  1.00  0.00     0.226 C 
ATOM      5  O   UNL     1      -7.551   1.565   3.160  1.00  0.00    -0.275 OA
ATOM      6  H   UNL     1      -6.171   0.128   4.492  1.00  0.00     0.163 HD
BRANCH   4   7
ATOM      7  C   UNL     1      -5.607   2.291   1.964  1.00  0.00     0.157 C 
BRANCH   7   8
ATOM      8  C   UNL     1      -4.553   3.175   2.544  1.00  0.00     0.063 A 
ATOM      9  C   UNL     1      -2.481   3.914   2.613  1.00  0.00     0.189 A 
ATOM     10  N   UNL     1      -3.347   3.292   1.861  1.00  0.00    -0.224 NA
ATOM     11  S   UNL     1      -3.061   4.529   4.093  1.00  0.00    -0.105 S 
ATOM     12  C   UNL     1      -4.605   3.875   3.737  1.00  0.00     0.093 A 
BRANCH   9  13
ATOM     13  N   UNL     1      -1.153   4.123   2.404  1.00  0.00    -0.299 N 
ATOM     14  C   UNL     1      -0.452   3.841   1.274  1.00  0.00     0.264 C 
ATOM     15  O   UNL     1       0.774   4.013   1.296  1.00  0.00    -0.271 OA
ATOM     16  H   UNL     1      -0.647   4.520   3.149  1.00  0.00     0.172 HD
BRANCH  14  17
ATOM     17  C   UNL     1      -1.148   3.432  -0.037  1.00  0.00     0.329 C 
BRANCH  17  18
ATOM     18  O   UNL     1      -1.715   2.146  -0.175  1.00  0.00    -0.483 OA
BRANCH  18  19
ATOM     19  C   UNL     1      -0.916   1.040  -0.250  1.00  0.00     0.123 A 
ATOM     20  C   UNL     1       2.719  -0.096  -0.049  1.00  0.00     0.044 C 
ATOM     21  C   UNL     1       1.226  -0.124  -0.188  1.00  0.00    -0.047 A 
ATOM     22  C   UNL     1       0.561  -1.345  -0.299  1.00  0.00     0.004 A 
ATOM     23  C   UNL     1       0.481   1.063  -0.181  1.00  0.00     0.050 A 
ATOM     24  C   UNL     1      -0.828  -1.379  -0.412  1.00  0.00     0.008 A 
ATOM     25  C   UNL     1      -1.586  -0.196  -0.384  1.00  0.00    -0.003 A 
BRANCH  25  26
ATOM     26  C   UNL     1      -3.106  -0.268  -0.483  1.00  0.00     0.017 C 
ATOM     27  C   UNL     1      -3.559  -0.627  -1.900  1.00  0.00     0.012 C 
ATOM     28  C   UNL     1      -3.691  -1.259   0.525  1.00  0.00     0.012 C 
ENDBRANCH  25  26
ENDBRANCH  18  19
ENDBRANCH  17  18
ENDBRANCH  14  17
ENDBRANCH   9  13
ENDBRANCH   7   8
ENDBRANCH   4   7
ENDBRANCH   2   3
ENDBRANCH   1   2
BRANCH   1  29
ATOM     29  C   UNL     1      -3.917  -0.901   6.020  1.00  0.00     0.002 C 
BRANCH  29  30
ATOM     30  C   UNL     1      -3.849  -2.353   5.514  1.00  0.00     0.002 C 
BRANCH  30  31
ATOM     31  C   UNL     1      -2.545  -2.779   4.838  1.00  0.00     0.021 C 
BRANCH  31  32
ATOM     32  C   UNL     1      -1.323  -2.750   5.747  1.00  0.00     0.116 C 
BRANCH  32  33
ATOM     33  N   UNL     1      -0.961  -4.034   6.334  1.00  0.00    -0.352 N 
ATOM     34  C   UNL     1       0.097  -4.332   7.183  1.00  0.00     0.251 C 
ATOM     35  H   UNL     1      -1.545  -4.791   6.097  1.00  0.00     0.163 HD
ATOM     36  O   UNL     1       0.334  -5.473   7.534  1.00  0.00    -0.269 OA
BRANCH  34  37
ATOM     37  C   UNL     1       0.863  -3.204   7.772  1.00  0.00     0.039 A 
ATOM     38  C   UNL     1       0.931  -3.142   9.169  1.00  0.00     0.014 A 
ATOM     39  C   UNL     1       1.259  -2.119   6.997  1.00  0.00     0.014 A 
ATOM     40  C   UNL     1       1.147  -1.913   9.787  1.00  0.00     0.010 A 
ATOM     41  C   UNL     1       1.373  -0.882   7.602  1.00  0.00     0.010 A 
ATOM     42  C   UNL     1       1.246  -0.772   8.991  1.00  0.00    -0.014 A 
BRANCH  42  43
ATOM     43  C   UNL     1       1.094   0.578   9.521  1.00  0.00     0.031 A 
ATOM     44  C   UNL     1       2.268   1.453   9.690  1.00  0.00     0.074 A 
ATOM     45  C   UNL     1      -0.136   1.040   9.833  1.00  0.00     0.049 A 
ATOM     46  N   UNL     1       2.342   2.424  10.536  1.00  0.00    -0.248 NA
ATOM     47  C   UNL     1       3.496   1.254   8.935  1.00  0.00     0.031 C 
ATOM     48  C   UNL     1      -0.515   2.412  10.158  1.00  0.00     0.029 A 
ATOM     49  N   UNL     1      -1.256   0.284  10.164  1.00  0.00    -0.354 N 
ATOM     50  C   UNL     1       3.477   3.147  10.249  1.00  0.00     0.074 A 
ATOM     51  C   UNL     1       4.200   2.327   9.304  1.00  0.00     0.031 C 
ATOM     52  C   UNL     1      -1.653   2.390  10.869  1.00  0.00     0.029 A 
ATOM     53  C   UNL     1      -1.972   0.999  11.138  1.00  0.00     0.049 A 
ATOM     54  H   UNL     1      -1.502  -0.591   9.785  1.00  0.00     0.167 HD
ATOM     55  C   UNL     1       3.599   4.417  10.735  1.00  0.00     0.034 A 
ATOM     56  C   UNL     1      -2.186   0.468  12.376  1.00  0.00     0.034 A 
ATOM     57  C   UNL     1       2.490   4.752  11.635  1.00  0.00     0.049 A 
ATOM     58  C   UNL     1      -1.562   1.274  13.494  1.00  0.00     0.074 A 
ATOM     59  C   UNL     1       1.335   5.499  11.469  1.00  0.00     0.029 A 
ATOM     60  N   UNL     1       2.338   4.060  12.834  1.00  0.00    -0.354 N 
ATOM     61  N   UNL     1      -0.647   2.188  13.318  1.00  0.00    -0.248 NA
ATOM     62  C   UNL     1      -1.918   1.106  14.899  1.00  0.00     0.031 C 
ATOM     63  C   UNL     1       0.456   5.195  12.541  1.00  0.00     0.029 A 
ATOM     64  C   UNL     1       1.089   4.293  13.380  1.00  0.00     0.049 A 
ATOM     65  H   UNL     1       3.026   3.483  13.238  1.00  0.00     0.167 HD
ATOM     66  C   UNL     1      -0.279   2.715  14.532  1.00  0.00     0.074 A 
ATOM     67  C   UNL     1      -1.126   2.019  15.487  1.00  0.00     0.031 C 
ATOM     68  C   UNL     1       0.694   3.672  14.640  1.00  0.00     0.034 A 
BRANCH  55  69
ATOM     69  C   UNL     1       4.536   5.465  10.156  1.00  0.00     0.023 A 
ATOM     70  C   UNL     1       4.196   6.832  10.270  1.00  0.00     0.031 A 
ATOM     71  C   UNL     1       5.719   5.210   9.435  1.00  0.00     0.131 A 
ATOM     72  C   UNL     1       4.924   7.835   9.602  1.00  0.00     0.055 A 
ATOM     73  C   UNL     1       6.412   6.198   8.721  1.00  0.00     0.041 A 
ATOM     74  F   UNL     1       6.304   4.007   9.437  1.00  0.00    -0.206 F 
ATOM     75  C   UNL     1       6.007   7.519   8.788  1.00  0.00     0.022 A 
BRANCH  72  76
ATOM     76  S   UNL     1       4.439   9.572   9.809  1.00  0.00     0.124 S 
ATOM     77  O   UNL     1       3.075   9.575   9.293  1.00  0.00    -0.237 OA
ATOM     78  O   UNL     1       4.589   9.764  11.247  1.00  0.00    -0.237 OA
ATOM     79  O   UNL     1       5.410  10.295   8.988  1.00  0.00    -0.744 OA
ENDBRANCH  72  76
ENDBRANCH  55  69
BRANCH  56  80
ATOM     80  C   UNL     1      -2.356  -1.014  12.351  1.00  0.00     0.023 A 
ATOM     81  C   UNL     1      -3.418  -1.522  11.570  1.00  0.00     0.031 A 
ATOM     82  C   UNL     1      -1.315  -1.888  12.692  1.00  0.00     0.131 A 
ATOM     83  C   UNL     1      -3.335  -2.805  11.012  1.00  0.00     0.055 A 
ATOM     84  C   UNL     1      -1.271  -3.194  12.185  1.00  0.00     0.041 A 
ATOM     85  F   UNL     1      -0.264  -1.456  13.403  1.00  0.00    -0.206 F 
ATOM     86  C   UNL     1      -2.256  -3.640  11.303  1.00  0.00     0.022 A 
BRANCH  83  87
ATOM     87  S   UNL     1      -4.495  -3.263   9.687  1.00  0.00     0.124 S 
ATOM     88  O   UNL     1      -5.552  -3.941  10.428  1.00  0.00    -0.237 OA
ATOM     89  O   UNL     1      -4.856  -1.971   9.105  1.00  0.00    -0.237 OA
ATOM     90  O   UNL     1      -3.689  -4.111   8.813  1.00  0.00    -0.744 OA
ENDBRANCH  83  87
ENDBRANCH  56  80
BRANCH  68  91
ATOM     91  C   UNL     1       1.300   4.189  15.934  1.00  0.00     0.023 A 
ATOM     92  C   UNL     1       1.171   3.537  17.170  1.00  0.00     0.031 A 
ATOM     93  C   UNL     1       2.107   5.355  15.945  1.00  0.00     0.131 A 
ATOM     94  C   UNL     1       1.733   4.075  18.344  1.00  0.00     0.055 A 
ATOM     95  C   UNL     1       2.733   5.843  17.097  1.00  0.00     0.041 A 
ATOM     96  F   UNL     1       2.333   6.071  14.834  1.00  0.00    -0.206 F 
ATOM     97  C   UNL     1       2.533   5.213  18.313  1.00  0.00     0.022 A 
BRANCH  94  98
ATOM     98  S   UNL     1       1.338   3.284  19.926  1.00  0.00     0.124 S 
ATOM     99  O   UNL     1      -0.108   3.476  20.003  1.00  0.00    -0.237 OA
ATOM    100  O   UNL     1       1.784   1.912  19.712  1.00  0.00    -0.237 OA
ATOM    101  O   UNL     1       2.117   4.047  20.899  1.00  0.00    -0.744 OA
ENDBRANCH  94  98
ENDBRANCH  68  91
ENDBRANCH  42  43
ENDBRANCH  34  37
ENDBRANCH  32  33
ENDBRANCH  31  32
ENDBRANCH  30  31
ENDBRANCH  29  30
ENDBRANCH   1  29
TORSDOF 22
