REMARK SMILES O=C(NCCCCCCNC(=O)c1ccccc1/C=C1/SC(=S)N(C2CCCCC2)C1=O)c1ccc(-c2c3nc(c(-c4cc(S(=O)(=O)[O-])ccc4F)c4ccc([nH]4)c(-c4cc(S(=O)(=O)[O-])ccc4F)c4nc(c(-c5cc(S(=O)(=O)[O-])ccc5F)c5ccc2[nH]5)C=C4)C=C3)cc1
REMARK SMILES IDX 6 1 5 2 4 3 3 4 1 5 2 6 33 8 34 9 95 10 35 11 94 12 36 13
REMARK SMILES IDX 37 14 38 15 88 16 39 17 93 18 87 19 89 20 40 21 92 22 86 23
REMARK SMILES IDX 85 24 41 26 73 27 53 28 72 29 54 30 57 31 71 32 90 33 55 34
REMARK SMILES IDX 56 35 70 37 91 38 58 39 42 40 43 41 51 42 44 43 50 44 52 45
REMARK SMILES IDX 49 46 45 47 46 48 47 49 48 50 74 51 75 52 83 53 76 54 82 55
REMARK SMILES IDX 84 56 81 57 77 58 78 59 79 60 80 61 59 62 60 63 68 64 61 65
REMARK SMILES IDX 67 66 69 67 66 68 62 69 63 70 64 71 65 72 7 73 8 74 9 75
REMARK SMILES IDX 10 76 11 77 12 79 13 80 14 81 18 82 15 83 17 84 16 85 19 86
REMARK SMILES IDX 20 87 21 88 31 89 22 90 24 91 32 92 23 93 25 94 26 95 30 96
REMARK SMILES IDX 27 97 29 98 28 99
REMARK H PARENT 3 7 89 25 57 36 10 78
REMARK Flexibility Score: inf
ROOT
ATOM      1  C   UNL     1       4.330  -1.494   3.513  1.00  0.00     0.002 C 
ENDROOT
BRANCH   1   2
ATOM      2  C   UNL     1       4.817  -0.424   2.534  1.00  0.00     0.021 C 
BRANCH   2   3
ATOM      3  C   UNL     1       4.519  -0.703   1.065  1.00  0.00     0.116 C 
BRANCH   3   4
ATOM      4  N   UNL     1       3.096  -0.827   0.800  1.00  0.00    -0.352 N 
ATOM      5  O   UNL     1       1.103  -0.271  -0.090  1.00  0.00    -0.269 OA
ATOM      6  C   UNL     1       2.325  -0.154  -0.114  1.00  0.00     0.251 C 
ATOM      7  H   UNL     1       2.618  -1.485   1.355  1.00  0.00     0.163 HD
BRANCH   6   8
ATOM      8  C   UNL     1       2.970   0.721  -1.116  1.00  0.00     0.039 A 
ATOM      9  C   UNL     1       4.078   0.281  -1.847  1.00  0.00     0.014 A 
ATOM     10  C   UNL     1       2.441   1.995  -1.336  1.00  0.00     0.014 A 
ATOM     11  C   UNL     1       4.721   1.151  -2.722  1.00  0.00     0.010 A 
ATOM     12  C   UNL     1       3.047   2.841  -2.266  1.00  0.00     0.010 A 
ATOM     13  C   UNL     1       4.202   2.433  -2.953  1.00  0.00    -0.014 A 
BRANCH  13  14
ATOM     14  C   UNL     1       4.834   3.333  -3.952  1.00  0.00     0.031 A 
ATOM     15  C   UNL     1       5.453   4.632  -3.526  1.00  0.00     0.074 A 
ATOM     16  C   UNL     1       4.801   2.991  -5.254  1.00  0.00     0.049 A 
ATOM     17  N   UNL     1       5.937   5.599  -4.262  1.00  0.00    -0.248 NA
ATOM     18  C   UNL     1       5.521   4.880  -2.080  1.00  0.00     0.031 C 
ATOM     19  C   UNL     1       4.229   1.751  -5.782  1.00  0.00     0.029 A 
ATOM     20  N   UNL     1       5.235   3.660  -6.370  1.00  0.00    -0.354 N 
ATOM     21  C   UNL     1       6.348   6.585  -3.371  1.00  0.00     0.074 A 
ATOM     22  C   UNL     1       6.021   6.106  -2.043  1.00  0.00     0.031 C 
ATOM     23  C   UNL     1       4.345   1.749  -7.117  1.00  0.00     0.029 A 
ATOM     24  C   UNL     1       4.929   3.016  -7.545  1.00  0.00     0.049 A 
ATOM     25  H   UNL     1       5.718   4.517  -6.333  1.00  0.00     0.167 HD
ATOM     26  C   UNL     1       6.946   7.774  -3.642  1.00  0.00     0.034 A 
ATOM     27  C   UNL     1       5.052   3.416  -8.825  1.00  0.00     0.034 A 
ATOM     28  C   UNL     1       7.245   8.231  -4.980  1.00  0.00     0.049 A 
ATOM     29  C   UNL     1       5.648   4.767  -9.111  1.00  0.00     0.074 A 
ATOM     30  C   UNL     1       7.881   9.397  -5.372  1.00  0.00     0.029 A 
ATOM     31  N   UNL     1       6.905   7.556  -6.148  1.00  0.00    -0.354 N 
ATOM     32  N   UNL     1       6.056   5.682  -8.262  1.00  0.00    -0.248 NA
ATOM     33  C   UNL     1       5.808   5.138 -10.521  1.00  0.00     0.031 C 
ATOM     34  C   UNL     1       7.849   9.466  -6.769  1.00  0.00     0.029 A 
ATOM     35  C   UNL     1       7.280   8.300  -7.257  1.00  0.00     0.049 A 
ATOM     36  H   UNL     1       6.462   6.678  -6.182  1.00  0.00     0.167 HD
ATOM     37  C   UNL     1       6.549   6.727  -9.037  1.00  0.00     0.074 A 
ATOM     38  C   UNL     1       6.384   6.329 -10.421  1.00  0.00     0.031 C 
ATOM     39  C   UNL     1       7.103   7.899  -8.636  1.00  0.00     0.034 A 
BRANCH  26  40
ATOM     40  C   UNL     1       7.253   8.678  -2.469  1.00  0.00     0.023 A 
ATOM     41  C   UNL     1       8.110   8.278  -1.428  1.00  0.00     0.031 A 
ATOM     42  C   UNL     1       6.633   9.936  -2.358  1.00  0.00     0.131 A 
ATOM     43  C   UNL     1       8.239   9.075  -0.280  1.00  0.00     0.055 A 
ATOM     44  C   UNL     1       6.843  10.769  -1.256  1.00  0.00     0.041 A 
ATOM     45  F   UNL     1       5.790  10.370  -3.308  1.00  0.00    -0.206 F 
ATOM     46  C   UNL     1       7.632  10.329  -0.197  1.00  0.00     0.022 A 
BRANCH  43  47
ATOM     47  S   UNL     1       9.048   8.358   1.179  1.00  0.00     0.124 S 
ATOM     48  O   UNL     1       8.284   7.126   1.368  1.00  0.00    -0.237 OA
ATOM     49  O   UNL     1      10.424   8.192   0.726  1.00  0.00    -0.237 OA
ATOM     50  O   UNL     1       8.847   9.370   2.214  1.00  0.00    -0.744 OA
ENDBRANCH  43  47
ENDBRANCH  26  40
BRANCH  27  51
ATOM     51  C   UNL     1       4.546   2.538  -9.916  1.00  0.00     0.023 A 
ATOM     52  C   UNL     1       5.420   1.923 -10.823  1.00  0.00     0.031 A 
ATOM     53  C   UNL     1       3.168   2.278 -10.041  1.00  0.00     0.131 A 
ATOM     54  C   UNL     1       4.905   1.090 -11.829  1.00  0.00     0.055 A 
ATOM     55  C   UNL     1       2.666   1.411 -11.011  1.00  0.00     0.041 A 
ATOM     56  F   UNL     1       2.292   2.836  -9.190  1.00  0.00    -0.206 F 
ATOM     57  C   UNL     1       3.537   0.816 -11.918  1.00  0.00     0.022 A 
BRANCH  54  58
ATOM     58  S   UNL     1       6.048   0.395 -13.052  1.00  0.00     0.124 S 
ATOM     59  O   UNL     1       6.595   1.600 -13.665  1.00  0.00    -0.237 OA
ATOM     60  O   UNL     1       6.964  -0.370 -12.212  1.00  0.00    -0.237 OA
ATOM     61  O   UNL     1       5.181  -0.406 -13.913  1.00  0.00    -0.744 OA
ENDBRANCH  54  58
ENDBRANCH  27  51
BRANCH  39  62
ATOM     62  C   UNL     1       7.637   8.818  -9.707  1.00  0.00     0.023 A 
ATOM     63  C   UNL     1       6.792   9.507 -10.594  1.00  0.00     0.031 A 
ATOM     64  C   UNL     1       9.024   9.031  -9.812  1.00  0.00     0.131 A 
ATOM     65  C   UNL     1       7.346  10.357 -11.565  1.00  0.00     0.055 A 
ATOM     66  C   UNL     1       9.564   9.918 -10.743  1.00  0.00     0.041 A 
ATOM     67  F   UNL     1       9.876   8.392  -8.994  1.00  0.00    -0.206 F 
ATOM     68  C   UNL     1       8.725  10.582 -11.630  1.00  0.00     0.022 A 
BRANCH  65  69
ATOM     69  S   UNL     1       6.248  11.132 -12.784  1.00  0.00     0.124 S 
ATOM     70  O   UNL     1       5.681   9.970 -13.461  1.00  0.00    -0.237 OA
ATOM     71  O   UNL     1       5.330  11.891 -11.942  1.00  0.00    -0.237 OA
ATOM     72  O   UNL     1       7.154  11.941 -13.597  1.00  0.00    -0.744 OA
ENDBRANCH  65  69
ENDBRANCH  39  62
ENDBRANCH  13  14
ENDBRANCH   6   8
ENDBRANCH   3   4
ENDBRANCH   2   3
ENDBRANCH   1   2
BRANCH   1  73
ATOM     73  C   UNL     1       4.768  -2.928   3.199  1.00  0.00     0.002 C 
BRANCH  73  74
ATOM     74  C   UNL     1       6.276  -3.144   3.018  1.00  0.00     0.021 C 
BRANCH  74  75
ATOM     75  C   UNL     1       7.141  -2.674   4.181  1.00  0.00     0.116 C 
BRANCH  75  76
ATOM     76  N   UNL     1       6.846  -3.392   5.407  1.00  0.00    -0.352 N 
ATOM     77  C   UNL     1       7.706  -3.897   6.348  1.00  0.00     0.251 C 
ATOM     78  H   UNL     1       5.889  -3.536   5.591  1.00  0.00     0.163 HD
ATOM     79  O   UNL     1       7.257  -4.593   7.256  1.00  0.00    -0.269 OA
BRANCH  77  80
ATOM     80  C   UNL     1       9.165  -3.639   6.262  1.00  0.00     0.047 A 
ATOM     81  C   UNL     1       9.992  -4.772   6.256  1.00  0.00     0.014 A 
ATOM     82  C   UNL     1       9.732  -2.346   6.242  1.00  0.00    -0.012 A 
ATOM     83  C   UNL     1      11.376  -4.630   6.173  1.00  0.00     0.001 A 
ATOM     84  C   UNL     1      11.125  -2.223   6.134  1.00  0.00     0.009 A 
ATOM     85  C   UNL     1      11.940  -3.358   6.100  1.00  0.00     0.001 A 
BRANCH  82  86
ATOM     86  C   UNL     1       8.945  -1.105   6.292  1.00  0.00     0.030 C 
ATOM     87  C   UNL     1       8.092  -0.762   7.267  1.00  0.00     0.081 C 
ATOM     88  S   UNL     1       6.994   0.550   7.129  1.00  0.00    -0.054 SA
ATOM     89  C   UNL     1       7.875  -1.460   8.560  1.00  0.00     0.266 C 
ATOM     90  C   UNL     1       6.072   0.042   8.544  1.00  0.00     0.148 C 
ATOM     91  N   UNL     1       6.684  -1.045   9.145  1.00  0.00    -0.290 N 
ATOM     92  O   UNL     1       8.693  -2.221   9.058  1.00  0.00    -0.268 OA
ATOM     93  S   UNL     1       4.688   0.868   8.979  1.00  0.00    -0.052 S 
BRANCH  91  94
ATOM     94  C   UNL     1       6.295  -1.704  10.410  1.00  0.00     0.092 C 
ATOM     95  C   UNL     1       6.555  -0.794  11.621  1.00  0.00     0.025 C 
ATOM     96  C   UNL     1       4.889  -2.330  10.399  1.00  0.00     0.025 C 
ATOM     97  C   UNL     1       6.170  -1.464  12.935  1.00  0.00     0.002 C 
ATOM     98  C   UNL     1       4.540  -2.966  11.745  1.00  0.00     0.002 C 
ATOM     99  C   UNL     1       4.737  -1.983  12.895  1.00  0.00     0.000 C 
ENDBRANCH  91  94
ENDBRANCH  82  86
ENDBRANCH  77  80
ENDBRANCH  75  76
ENDBRANCH  74  75
ENDBRANCH  73  74
ENDBRANCH   1  73
TORSDOF 18
