REMARK SMILES CC(C)(C)OC(=O)N1C[C@@H](C(=O)NCCCCCCNC(=O)c2ccc(-c3c4nc(c(-c5cc(S(=O)(=O)[O-])ccc5F)c5ccc([nH]5)c(-c5cc(S(=O)(=O)[O-])ccc5F)c5nc(c(-c6cc(S(=O)(=O)[O-])ccc6F)c6ccc3[nH]6)C=C5)C=C4)cc2)[C@@]2(C1)C(=O)Nc1ccccc12
REMARK SMILES IDX 16 1 15 2 14 3 13 4 11 5 12 6 10 8 8 9 9 10 87 11 86 12
REMARK SMILES IDX 88 13 96 14 89 15 90 16 91 17 95 18 92 20 94 21 93 22 6 23
REMARK SMILES IDX 7 24 5 25 2 26 1 27 3 28 4 29 17 30 18 31 19 32 20 33 21 34
REMARK SMILES IDX 22 36 23 37 24 38 85 39 25 40 84 41 26 42 27 43 28 44 78 45
REMARK SMILES IDX 29 46 83 47 77 48 79 49 30 50 82 51 76 52 75 53 31 55 63 56
REMARK SMILES IDX 43 57 62 58 44 59 47 60 61 61 80 62 45 63 46 64 60 66 81 67
REMARK SMILES IDX 48 68 32 69 33 70 41 71 34 72 40 73 42 74 39 75 35 76 36 77
REMARK SMILES IDX 37 78 38 79 64 80 65 81 73 82 66 83 72 84 74 85 71 86 67 87
REMARK SMILES IDX 68 88 69 89 70 90 49 91 50 92 58 93 51 94 57 95 59 96 56 97
REMARK SMILES IDX 52 98 53 99 54 100 55 101
REMARK H PARENT 13 7 90 19 20 35 79 54 47 65
REMARK Flexibility Score: inf
ROOT
ATOM      1  C   UNL     1       2.958   4.420  -6.302  1.00  0.00     0.002 C 
ENDROOT
BRANCH   1   2
ATOM      2  C   UNL     1       2.688   3.074  -5.619  1.00  0.00     0.021 C 
BRANCH   2   3
ATOM      3  C   UNL     1       1.292   2.506  -5.885  1.00  0.00     0.116 C 
BRANCH   3   4
ATOM      4  N   UNL     1       1.109   2.091  -7.269  1.00  0.00    -0.356 N 
ATOM      5  C   UNL     1       1.103   0.901  -7.920  1.00  0.00     0.226 C 
ATOM      6  O   UNL     1       0.897   0.969  -9.139  1.00  0.00    -0.275 OA
ATOM      7  H   UNL     1       0.954   2.852  -7.873  1.00  0.00     0.163 HD
BRANCH   5   8
ATOM      8  C   UNL     1       1.336  -0.470  -7.297  1.00  0.00     0.120 C 
ATOM      9  N   UNL     1       1.179  -0.718  -4.944  1.00  0.00    -0.306 N 
ATOM     10  C   UNL     1       0.383  -0.764  -6.155  1.00  0.00     0.138 C 
ATOM     11  C   UNL     1       2.612  -0.563  -5.226  1.00  0.00     0.145 C 
ATOM     12  C   UNL     1       2.726  -0.823  -6.746  1.00  0.00     0.107 C 
ATOM     13  C   UNL     1       2.950  -2.370  -6.847  1.00  0.00     0.237 C 
ATOM     14  C   UNL     1       3.932  -0.332  -7.531  1.00  0.00    -0.006 A 
ATOM     15  O   UNL     1       2.197  -3.259  -6.483  1.00  0.00    -0.274 OA
ATOM     16  N   UNL     1       4.187  -2.592  -7.420  1.00  0.00    -0.325 N 
ATOM     17  C   UNL     1       4.754  -1.414  -7.858  1.00  0.00     0.045 A 
ATOM     18  C   UNL     1       4.255   0.905  -8.069  1.00  0.00     0.007 A 
ATOM     19  H   UNL     1       4.610  -3.477  -7.504  1.00  0.00     0.169 HD
ATOM     20  C   UNL     1       5.904  -1.311  -8.621  1.00  0.00     0.026 A 
ATOM     21  C   UNL     1       5.404   1.042  -8.861  1.00  0.00     0.000 A 
ATOM     22  C   UNL     1       6.231  -0.057  -9.126  1.00  0.00     0.002 A 
BRANCH   9  23
ATOM     23  C   UNL     1       0.556  -0.993  -3.746  1.00  0.00     0.410 C 
ATOM     24  O   UNL     1      -0.590  -1.421  -3.708  1.00  0.00    -0.224 OA
BRANCH  23  25
ATOM     25  O   UNL     1       1.308  -0.688  -2.659  1.00  0.00    -0.444 OA
BRANCH  25  26
ATOM     26  C   UNL     1       0.798  -0.955  -1.315  1.00  0.00     0.106 C 
ATOM     27  C   UNL     1       1.552   0.006  -0.384  1.00  0.00     0.056 C 
ATOM     28  C   UNL     1       1.150  -2.400  -0.951  1.00  0.00     0.056 C 
ATOM     29  C   UNL     1      -0.708  -0.699  -1.108  1.00  0.00     0.056 C 
ENDBRANCH  25  26
ENDBRANCH  23  25
ENDBRANCH   9  23
ENDBRANCH   5   8
ENDBRANCH   3   4
ENDBRANCH   2   3
ENDBRANCH   1   2
BRANCH   1  30
ATOM     30  C   UNL     1       2.180   5.596  -5.706  1.00  0.00     0.002 C 
BRANCH  30  31
ATOM     31  C   UNL     1       2.369   5.801  -4.199  1.00  0.00     0.021 C 
BRANCH  31  32
ATOM     32  C   UNL     1       3.816   6.012  -3.761  1.00  0.00     0.116 C 
BRANCH  32  33
ATOM     33  N   UNL     1       4.343   7.272  -4.255  1.00  0.00    -0.352 N 
ATOM     34  C   UNL     1       4.895   8.309  -3.545  1.00  0.00     0.251 C 
ATOM     35  H   UNL     1       4.298   7.400  -5.230  1.00  0.00     0.163 HD
ATOM     36  O   UNL     1       5.051   9.402  -4.082  1.00  0.00    -0.269 OA
BRANCH  34  37
ATOM     37  C   UNL     1       5.287   8.106  -2.132  1.00  0.00     0.039 A 
ATOM     38  C   UNL     1       4.951   9.079  -1.188  1.00  0.00     0.014 A 
ATOM     39  C   UNL     1       6.008   6.970  -1.747  1.00  0.00     0.014 A 
ATOM     40  C   UNL     1       5.303   8.893   0.151  1.00  0.00     0.010 A 
ATOM     41  C   UNL     1       6.306   6.760  -0.403  1.00  0.00     0.010 A 
ATOM     42  C   UNL     1       5.966   7.724   0.559  1.00  0.00    -0.014 A 
BRANCH  42  43
ATOM     43  C   UNL     1       6.332   7.509   1.983  1.00  0.00     0.031 A 
ATOM     44  C   UNL     1       7.780   7.469   2.391  1.00  0.00     0.074 A 
ATOM     45  C   UNL     1       5.364   7.303   2.897  1.00  0.00     0.049 A 
ATOM     46  N   UNL     1       8.303   7.246   3.570  1.00  0.00    -0.248 NA
ATOM     47  C   UNL     1       8.770   7.678   1.324  1.00  0.00     0.031 C 
ATOM     48  C   UNL     1       3.927   7.278   2.613  1.00  0.00     0.029 A 
ATOM     49  N   UNL     1       5.439   7.071   4.247  1.00  0.00    -0.354 N 
ATOM     50  C   UNL     1       9.682   7.278   3.386  1.00  0.00     0.074 A 
ATOM     51  C   UNL     1       9.909   7.479   1.970  1.00  0.00     0.031 C 
ATOM     52  C   UNL     1       3.257   7.064   3.757  1.00  0.00     0.029 A 
ATOM     53  C   UNL     1       4.213   6.901   4.848  1.00  0.00     0.049 A 
ATOM     54  H   UNL     1       6.290   7.029   4.740  1.00  0.00     0.167 HD
ATOM     55  C   UNL     1      10.666   7.172   4.314  1.00  0.00     0.034 A 
ATOM     56  C   UNL     1       3.896   6.639   6.132  1.00  0.00     0.034 A 
ATOM     57  C   UNL     1      10.421   6.984   5.724  1.00  0.00     0.049 A 
ATOM     58  C   UNL     1       5.006   6.518   7.145  1.00  0.00     0.074 A 
ATOM     59  C   UNL     1      11.338   6.918   6.758  1.00  0.00     0.029 A 
ATOM     60  N   UNL     1       9.165   6.827   6.298  1.00  0.00    -0.354 N 
ATOM     61  N   UNL     1       6.304   6.603   6.963  1.00  0.00    -0.248 NA
ATOM     62  C   UNL     1       4.606   6.283   8.538  1.00  0.00     0.031 C 
ATOM     63  C   UNL     1      10.643   6.659   7.946  1.00  0.00     0.029 A 
ATOM     64  C   UNL     1       9.286   6.636   7.667  1.00  0.00     0.049 A 
ATOM     65  H   UNL     1       8.313   6.847   5.805  1.00  0.00     0.167 HD
ATOM     66  C   UNL     1       6.873   6.459   8.225  1.00  0.00     0.074 A 
ATOM     67  C   UNL     1       5.777   6.300   9.159  1.00  0.00     0.031 C 
ATOM     68  C   UNL     1       8.183   6.464   8.582  1.00  0.00     0.034 A 
BRANCH  55  69
ATOM     69  C   UNL     1      12.093   7.232   3.821  1.00  0.00     0.023 A 
ATOM     70  C   UNL     1      12.609   8.379   3.191  1.00  0.00     0.031 A 
ATOM     71  C   UNL     1      12.941   6.119   3.953  1.00  0.00     0.131 A 
ATOM     72  C   UNL     1      13.902   8.359   2.646  1.00  0.00     0.055 A 
ATOM     73  C   UNL     1      14.256   6.134   3.482  1.00  0.00     0.041 A 
ATOM     74  F   UNL     1      12.501   4.988   4.527  1.00  0.00    -0.206 F 
ATOM     75  C   UNL     1      14.739   7.253   2.810  1.00  0.00     0.022 A 
BRANCH  72  76
ATOM     76  S   UNL     1      14.419   9.742   1.593  1.00  0.00     0.124 S 
ATOM     77  O   UNL     1      13.409   9.701   0.537  1.00  0.00    -0.237 OA
ATOM     78  O   UNL     1      14.346  10.877   2.504  1.00  0.00    -0.237 OA
ATOM     79  O   UNL     1      15.767   9.365   1.170  1.00  0.00    -0.744 OA
ENDBRANCH  72  76
ENDBRANCH  55  69
BRANCH  56  80
ATOM     80  C   UNL     1       2.472   6.470   6.538  1.00  0.00     0.023 A 
ATOM     81  C   UNL     1       1.855   7.382   7.408  1.00  0.00     0.031 A 
ATOM     82  C   UNL     1       1.718   5.371   6.089  1.00  0.00     0.131 A 
ATOM     83  C   UNL     1       0.539   7.156   7.840  1.00  0.00     0.055 A 
ATOM     84  C   UNL     1       0.393   5.177   6.482  1.00  0.00     0.041 A 
ATOM     85  F   UNL     1       2.258   4.474   5.249  1.00  0.00    -0.206 F 
ATOM     86  C   UNL     1      -0.200   6.066   7.374  1.00  0.00     0.022 A 
BRANCH  83  87
ATOM     87  S   UNL     1      -0.169   8.269   9.085  1.00  0.00     0.124 S 
ATOM     88  O   UNL     1       0.781   8.131  10.182  1.00  0.00    -0.237 OA
ATOM     89  O   UNL     1      -0.160   9.549   8.385  1.00  0.00    -0.237 OA
ATOM     90  O   UNL     1      -1.494   7.704   9.331  1.00  0.00    -0.744 OA
ENDBRANCH  83  87
ENDBRANCH  56  80
BRANCH  68  91
ATOM     91  C   UNL     1       8.489   6.331  10.054  1.00  0.00     0.023 A 
ATOM     92  C   UNL     1       8.223   5.146  10.761  1.00  0.00     0.031 A 
ATOM     93  C   UNL     1       9.036   7.416  10.762  1.00  0.00     0.131 A 
ATOM     94  C   UNL     1       8.450   5.091  12.144  1.00  0.00     0.055 A 
ATOM     95  C   UNL     1       9.314   7.337  12.127  1.00  0.00     0.041 A 
ATOM     96  F   UNL     1       9.307   8.573  10.137  1.00  0.00    -0.206 F 
ATOM     97  C   UNL     1       9.008   6.174  12.829  1.00  0.00     0.022 A 
BRANCH  94  98
ATOM     98  S   UNL     1       7.917   3.617  13.057  1.00  0.00     0.124 S 
ATOM     99  O   UNL     1       6.489   3.574  12.756  1.00  0.00    -0.237 OA
ATOM    100  O   UNL     1       8.728   2.566  12.451  1.00  0.00    -0.237 OA
ATOM    101  O   UNL     1       8.249   3.934  14.444  1.00  0.00    -0.744 OA
ENDBRANCH  94  98
ENDBRANCH  68  91
ENDBRANCH  42  43
ENDBRANCH  34  37
ENDBRANCH  32  33
ENDBRANCH  31  32
ENDBRANCH  30  31
ENDBRANCH   1  30
TORSDOF 19
