REMARK SMILES CC(C)=CCc1cccc2c(C(=O)NCCCCCCNC(=O)c3ccc(-c4c5nc(c(-c6cc(S(=O)(=O)[O-])ccc6F)c6ccc([nH]6)c(-c6cc(S(=O)(=O)[O-])ccc6F)c6nc(c(-c7cc(S(=O)(=O)[O-])ccc7F)c7ccc4[nH]7)C=C6)C=C5)cc3)c[nH]c12
REMARK SMILES IDX 18 1 17 2 16 3 15 4 14 5 12 6 13 7 11 9 6 10 7 11 89 12 8 13
REMARK SMILES IDX 10 14 88 15 9 16 87 17 5 19 4 20 1 21 2 22 3 23 19 24 20 25
REMARK SMILES IDX 21 26 22 27 23 29 24 30 25 31 86 32 26 33 85 34 27 35 28 36
REMARK SMILES IDX 29 37 79 38 30 39 84 40 78 41 80 42 31 43 83 44 77 45 76 46
REMARK SMILES IDX 32 48 64 49 44 50 63 51 45 52 48 53 62 54 81 55 46 56 47 57
REMARK SMILES IDX 61 59 82 60 49 61 33 62 34 63 42 64 35 65 41 66 43 67 40 68
REMARK SMILES IDX 36 69 37 70 38 71 39 72 65 73 66 74 74 75 67 76 73 77 75 78
REMARK SMILES IDX 72 79 68 80 69 81 70 82 71 83 50 84 51 85 59 86 52 87 58 88
REMARK SMILES IDX 60 89 57 90 53 91 54 92 55 93 56 94
REMARK H PARENT 14 8 88 18 21 28 80 47 48 58
REMARK Flexibility Score: inf
ROOT
ATOM      1  C   UNL     1       9.553  -1.194  -7.233  1.00  0.00     0.002 C 
ENDROOT
BRANCH   1   2
ATOM      2  C   UNL     1       9.683  -1.951  -5.908  1.00  0.00     0.002 C 
BRANCH   2   3
ATOM      3  C   UNL     1       8.720  -1.556  -4.787  1.00  0.00     0.021 C 
BRANCH   3   4
ATOM      4  C   UNL     1       7.246  -1.492  -5.161  1.00  0.00     0.116 C 
BRANCH   4   5
ATOM      5  N   UNL     1       6.631  -2.756  -5.474  1.00  0.00    -0.352 N 
ATOM      6  C   UNL     1       5.325  -3.151  -5.311  1.00  0.00     0.253 C 
ATOM      7  O   UNL     1       5.045  -4.301  -5.662  1.00  0.00    -0.269 OA
ATOM      8  H   UNL     1       7.232  -3.434  -5.860  1.00  0.00     0.163 HD
BRANCH   6   9
ATOM      9  C   UNL     1       4.326  -2.296  -4.657  1.00  0.00     0.065 A 
ATOM     10  C   UNL     1       2.552   0.665  -3.394  1.00  0.00    -0.020 A 
ATOM     11  C   UNL     1       3.284   1.742  -3.936  1.00  0.00     0.006 A 
ATOM     12  C   UNL     1       3.022  -0.631  -3.728  1.00  0.00     0.050 A 
ATOM     13  C   UNL     1       4.299   1.549  -4.859  1.00  0.00     0.001 A 
ATOM     14  C   UNL     1       4.081  -0.870  -4.620  1.00  0.00     0.012 A 
ATOM     15  N   UNL     1       2.586  -1.869  -3.316  1.00  0.00    -0.360 N 
ATOM     16  C   UNL     1       4.647   0.259  -5.255  1.00  0.00     0.011 A 
ATOM     17  C   UNL     1       3.326  -2.861  -3.881  1.00  0.00     0.097 A 
ATOM     18  H   UNL     1       1.837  -2.018  -2.694  1.00  0.00     0.166 HD
BRANCH  10  19
ATOM     19  C   UNL     1       1.376   1.028  -2.499  1.00  0.00     0.065 C 
BRANCH  19  20
ATOM     20  C   UNL     1       0.432  -0.096  -2.178  1.00  0.00    -0.024 C 
ATOM     21  C   UNL     1       0.905  -0.139   0.280  1.00  0.00     0.039 C 
ATOM     22  C   UNL     1       0.236  -0.652  -0.965  1.00  0.00    -0.080 C 
ATOM     23  C   UNL     1      -0.651  -1.856  -0.819  1.00  0.00     0.039 C 
ENDBRANCH  19  20
ENDBRANCH  10  19
ENDBRANCH   6   9
ENDBRANCH   4   5
ENDBRANCH   3   4
ENDBRANCH   2   3
ENDBRANCH   1   2
BRANCH   1  24
ATOM     24  C   UNL     1       9.563   0.336  -7.160  1.00  0.00     0.021 C 
BRANCH  24  25
ATOM     25  C   UNL     1      10.727   0.964  -6.401  1.00  0.00     0.116 C 
BRANCH  25  26
ATOM     26  N   UNL     1      12.020   0.562  -6.925  1.00  0.00    -0.352 N 
ATOM     27  C   UNL     1      13.089   1.331  -7.307  1.00  0.00     0.251 C 
ATOM     28  H   UNL     1      12.149  -0.410  -7.019  1.00  0.00     0.163 HD
ATOM     29  O   UNL     1      14.039   0.798  -7.881  1.00  0.00    -0.269 OA
BRANCH  27  30
ATOM     30  C   UNL     1      13.093   2.790  -7.063  1.00  0.00     0.039 A 
ATOM     31  C   UNL     1      13.554   3.638  -8.073  1.00  0.00     0.014 A 
ATOM     32  C   UNL     1      12.662   3.327  -5.846  1.00  0.00     0.014 A 
ATOM     33  C   UNL     1      13.527   5.022  -7.885  1.00  0.00     0.010 A 
ATOM     34  C   UNL     1      12.563   4.709  -5.690  1.00  0.00     0.010 A 
ATOM     35  C   UNL     1      12.997   5.572  -6.706  1.00  0.00    -0.014 A 
BRANCH  35  36
ATOM     36  C   UNL     1      12.891   7.046  -6.532  1.00  0.00     0.031 A 
ATOM     37  C   UNL     1      13.661   7.742  -5.441  1.00  0.00     0.074 A 
ATOM     38  C   UNL     1      12.068   7.753  -7.334  1.00  0.00     0.049 A 
ATOM     39  N   UNL     1      13.670   9.009  -5.114  1.00  0.00    -0.248 NA
ATOM     40  C   UNL     1      14.511   6.897  -4.590  1.00  0.00     0.031 C 
ATOM     41  C   UNL     1      11.240   7.185  -8.401  1.00  0.00     0.029 A 
ATOM     42  N   UNL     1      11.789   9.096  -7.380  1.00  0.00    -0.354 N 
ATOM     43  C   UNL     1      14.519   9.113  -4.017  1.00  0.00     0.074 A 
ATOM     44  C   UNL     1      14.950   7.769  -3.696  1.00  0.00     0.031 C 
ATOM     45  C   UNL     1      10.576   8.176  -9.016  1.00  0.00     0.029 A 
ATOM     46  C   UNL     1      10.886   9.441  -8.359  1.00  0.00     0.049 A 
ATOM     47  H   UNL     1      12.197   9.751  -6.769  1.00  0.00     0.167 HD
ATOM     48  C   UNL     1      14.921  10.227  -3.356  1.00  0.00     0.034 A 
ATOM     49  C   UNL     1      10.358  10.638  -8.686  1.00  0.00     0.034 A 
ATOM     50  C   UNL     1      14.483  11.561  -3.694  1.00  0.00     0.049 A 
ATOM     51  C   UNL     1      10.792  11.858  -7.912  1.00  0.00     0.074 A 
ATOM     52  C   UNL     1      14.866  12.763  -3.124  1.00  0.00     0.029 A 
ATOM     53  N   UNL     1      13.556  11.870  -4.682  1.00  0.00    -0.354 N 
ATOM     54  N   UNL     1      11.639  11.945  -6.912  1.00  0.00    -0.248 NA
ATOM     55  C   UNL     1      10.207  13.143  -8.319  1.00  0.00     0.031 C 
ATOM     56  C   UNL     1      14.114  13.787  -3.710  1.00  0.00     0.029 A 
ATOM     57  C   UNL     1      13.328  13.238  -4.710  1.00  0.00     0.049 A 
ATOM     58  H   UNL     1      13.125  11.214  -5.275  1.00  0.00     0.167 HD
ATOM     59  C   UNL     1      11.714  13.299  -6.595  1.00  0.00     0.074 A 
ATOM     60  C   UNL     1      10.839  13.990  -7.520  1.00  0.00     0.031 C 
ATOM     61  C   UNL     1      12.443  13.916  -5.630  1.00  0.00     0.034 A 
BRANCH  48  62
ATOM     62  C   UNL     1      15.860  10.044  -2.185  1.00  0.00     0.023 A 
ATOM     63  C   UNL     1      17.141   9.486  -2.344  1.00  0.00     0.031 A 
ATOM     64  C   UNL     1      15.463  10.414  -0.888  1.00  0.00     0.131 A 
ATOM     65  C   UNL     1      17.945   9.243  -1.220  1.00  0.00     0.055 A 
ATOM     66  C   UNL     1      16.304  10.251   0.216  1.00  0.00     0.041 A 
ATOM     67  F   UNL     1      14.244  10.931  -0.666  1.00  0.00    -0.206 F 
ATOM     68  C   UNL     1      17.547   9.647   0.056  1.00  0.00     0.022 A 
BRANCH  65  69
ATOM     69  S   UNL     1      19.450   8.252  -1.431  1.00  0.00     0.124 S 
ATOM     70  O   UNL     1      18.912   7.014  -1.990  1.00  0.00    -0.237 OA
ATOM     71  O   UNL     1      20.243   9.072  -2.340  1.00  0.00    -0.237 OA
ATOM     72  O   UNL     1      19.977   8.136  -0.073  1.00  0.00    -0.744 OA
ENDBRANCH  65  69
ENDBRANCH  48  62
BRANCH  49  73
ATOM     73  C   UNL     1       9.355  10.749  -9.785  1.00  0.00     0.023 A 
ATOM     74  C   UNL     1       9.624  11.504 -10.938  1.00  0.00     0.031 A 
ATOM     75  C   UNL     1       8.093  10.138  -9.679  1.00  0.00     0.131 A 
ATOM     76  C   UNL     1       8.628  11.672 -11.913  1.00  0.00     0.055 A 
ATOM     77  C   UNL     1       7.128  10.257 -10.680  1.00  0.00     0.041 A 
ATOM     78  F   UNL     1       7.782   9.403  -8.599  1.00  0.00    -0.206 F 
ATOM     79  C   UNL     1       7.388  11.041 -11.800  1.00  0.00     0.022 A 
BRANCH  76  80
ATOM     80  S   UNL     1       8.942  12.813 -13.289  1.00  0.00     0.124 S 
ATOM     81  O   UNL     1       9.223  14.057 -12.582  1.00  0.00    -0.237 OA
ATOM     82  O   UNL     1      10.077  12.181 -13.952  1.00  0.00    -0.237 OA
ATOM     83  O   UNL     1       7.690  12.790 -14.042  1.00  0.00    -0.744 OA
ENDBRANCH  76  80
ENDBRANCH  49  73
BRANCH  61  84
ATOM     84  C   UNL     1      12.360  15.423  -5.562  1.00  0.00     0.023 A 
ATOM     85  C   UNL     1      11.168  16.088  -5.224  1.00  0.00     0.031 A 
ATOM     86  C   UNL     1      13.493  16.206  -5.849  1.00  0.00     0.131 A 
ATOM     87  C   UNL     1      11.120  17.490  -5.241  1.00  0.00     0.055 A 
ATOM     88  C   UNL     1      13.458  17.600  -5.797  1.00  0.00     0.041 A 
ATOM     89  F   UNL     1      14.658  15.627  -6.183  1.00  0.00    -0.206 F 
ATOM     90  C   UNL     1      12.263  18.250  -5.505  1.00  0.00     0.022 A 
BRANCH  87  91
ATOM     91  S   UNL     1       9.518  18.310  -5.014  1.00  0.00     0.124 S 
ATOM     92  O   UNL     1       8.729  17.739  -6.101  1.00  0.00    -0.237 OA
ATOM     93  O   UNL     1       9.142  17.893  -3.667  1.00  0.00    -0.237 OA
ATOM     94  O   UNL     1       9.836  19.730  -5.156  1.00  0.00    -0.744 OA
ENDBRANCH  87  91
ENDBRANCH  61  84
ENDBRANCH  35  36
ENDBRANCH  27  30
ENDBRANCH  25  26
ENDBRANCH  24  25
ENDBRANCH   1  24
TORSDOF 18
