REMARK SMILES CN(C(=O)N[C@@](C)(C(=O)NCCCCCCNC(=O)c1ccc(-c2c3nc(c(-c4cc(S(=O)(=O)[O-])ccc4F)c4ccc([nH]4)c(-c4cc(S(=O)(=O)[O-])ccc4F)c4nc(c(-c5cc(S(=O)(=O)[O-])ccc5F)c5ccc2[nH]5)C=C4)C=C3)cc1)C(F)(F)F)c1ccc(F)cc1
REMARK SMILES IDX 13 1 12 2 11 3 10 4 8 5 9 6 6 8 7 9 5 10 3 11 4 12 2 14 1 15
REMARK SMILES IDX 87 16 88 17 93 18 89 19 92 20 90 21 91 22 83 23 84 24 85 25
REMARK SMILES IDX 86 26 14 27 15 28 16 29 17 30 18 31 19 33 20 34 21 35 82 36
REMARK SMILES IDX 22 37 81 38 23 39 24 40 25 41 75 42 26 43 80 44 74 45 76 46
REMARK SMILES IDX 27 47 79 48 73 49 72 50 28 52 60 53 40 54 59 55 41 56 44 57
REMARK SMILES IDX 58 58 77 59 42 60 43 61 57 63 78 64 45 65 29 66 30 67 38 68
REMARK SMILES IDX 31 69 37 70 39 71 36 72 32 73 33 74 34 75 35 76 61 77 62 78
REMARK SMILES IDX 70 79 63 80 69 81 71 82 68 83 64 84 65 85 66 86 67 87 46 88
REMARK SMILES IDX 47 89 55 90 48 91 54 92 56 93 53 94 49 95 50 96 51 97 52 98
REMARK H PARENT 10 7 5 13 17 32 76 51 44 62
REMARK Flexibility Score: inf
ROOT
ATOM      1  C   UNL     1      -0.744   4.410  -5.822  1.00  0.00     0.002 C 
ENDROOT
BRANCH   1   2
ATOM      2  C   UNL     1      -1.349   4.046  -4.459  1.00  0.00     0.021 C 
BRANCH   2   3
ATOM      3  C   UNL     1      -1.474   2.547  -4.191  1.00  0.00     0.116 C 
BRANCH   3   4
ATOM      4  N   UNL     1      -0.169   1.916  -4.230  1.00  0.00    -0.354 N 
ATOM      5  C   UNL     1       0.496   1.046  -3.431  1.00  0.00     0.255 C 
ATOM      6  O   UNL     1       1.694   0.927  -3.715  1.00  0.00    -0.272 OA
ATOM      7  H   UNL     1       0.356   2.181  -5.020  1.00  0.00     0.163 HD
BRANCH   5   8
ATOM      8  C   UNL     1      -0.147   0.305  -2.232  1.00  0.00     0.213 C 
ATOM      9  C   UNL     1      -1.502  -0.332  -2.600  1.00  0.00     0.056 C 
BRANCH   8  10
ATOM     10  N   UNL     1      -0.415   1.360  -1.182  1.00  0.00    -0.316 N 
ATOM     11  C   UNL     1      -0.065   1.867   0.008  1.00  0.00     0.322 C 
ATOM     12  O   UNL     1      -0.473   3.028   0.151  1.00  0.00    -0.248 OA
ATOM     13  H   UNL     1      -1.165   1.905  -1.513  1.00  0.00     0.166 HD
BRANCH  11  14
ATOM     14  N   UNL     1       0.644   1.212   0.970  1.00  0.00    -0.298 N 
ATOM     15  C   UNL     1       0.900  -0.214   1.011  1.00  0.00     0.155 C 
BRANCH  14  16
ATOM     16  C   UNL     1       0.978   1.865   2.206  1.00  0.00     0.045 A 
ATOM     17  C   UNL     1       0.006   2.542   2.958  1.00  0.00     0.029 A 
ATOM     18  C   UNL     1       2.258   1.683   2.754  1.00  0.00     0.029 A 
ATOM     19  C   UNL     1       0.296   2.981   4.253  1.00  0.00     0.041 A 
ATOM     20  C   UNL     1       2.554   2.144   4.037  1.00  0.00     0.041 A 
ATOM     21  C   UNL     1       1.564   2.771   4.782  1.00  0.00     0.123 A 
ATOM     22  F   UNL     1       1.833   3.163   6.035  1.00  0.00    -0.207 F 
ENDBRANCH  14  16
ENDBRANCH  11  14
ENDBRANCH   8  10
BRANCH   8  23
ATOM     23  C   UNL     1       0.831  -0.877  -2.023  1.00  0.00     0.420 C 
ATOM     24  F   UNL     1       2.045  -0.516  -1.563  1.00  0.00    -0.168 F 
ATOM     25  F   UNL     1       0.328  -1.799  -1.161  1.00  0.00    -0.168 F 
ATOM     26  F   UNL     1       1.024  -1.573  -3.176  1.00  0.00    -0.168 F 
ENDBRANCH   8  23
ENDBRANCH   5   8
ENDBRANCH   3   4
ENDBRANCH   2   3
ENDBRANCH   1   2
BRANCH   1  27
ATOM     27  C   UNL     1      -1.441   3.783  -7.032  1.00  0.00     0.002 C 
BRANCH  27  28
ATOM     28  C   UNL     1      -2.944   4.054  -7.118  1.00  0.00     0.021 C 
BRANCH  28  29
ATOM     29  C   UNL     1      -3.324   5.529  -7.079  1.00  0.00     0.116 C 
BRANCH  29  30
ATOM     30  N   UNL     1      -2.771   6.268  -8.201  1.00  0.00    -0.352 N 
ATOM     31  C   UNL     1      -3.413   7.097  -9.086  1.00  0.00     0.251 C 
ATOM     32  H   UNL     1      -1.803   6.158  -8.346  1.00  0.00     0.163 HD
ATOM     33  O   UNL     1      -2.830   7.482 -10.097  1.00  0.00    -0.269 OA
BRANCH  31  34
ATOM     34  C   UNL     1      -4.814   7.493  -8.829  1.00  0.00     0.039 A 
ATOM     35  C   UNL     1      -5.733   7.445  -9.879  1.00  0.00     0.014 A 
ATOM     36  C   UNL     1      -5.222   7.894  -7.553  1.00  0.00     0.014 A 
ATOM     37  C   UNL     1      -7.075   7.743  -9.634  1.00  0.00     0.010 A 
ATOM     38  C   UNL     1      -6.572   8.109  -7.294  1.00  0.00     0.010 A 
ATOM     39  C   UNL     1      -7.513   8.042  -8.333  1.00  0.00    -0.014 A 
BRANCH  39  40
ATOM     40  C   UNL     1      -8.951   8.290  -8.046  1.00  0.00     0.031 A 
ATOM     41  C   UNL     1      -9.396   9.630  -7.526  1.00  0.00     0.074 A 
ATOM     42  C   UNL     1      -9.844   7.293  -8.200  1.00  0.00     0.049 A 
ATOM     43  N   UNL     1     -10.590  10.021  -7.161  1.00  0.00    -0.248 NA
ATOM     44  C   UNL     1      -8.353  10.654  -7.365  1.00  0.00     0.031 C 
ATOM     45  C   UNL     1      -9.523   5.937  -8.652  1.00  0.00     0.029 A 
ATOM     46  N   UNL     1     -11.199   7.257  -7.985  1.00  0.00    -0.354 N 
ATOM     47  C   UNL     1     -10.441  11.331  -6.717  1.00  0.00     0.074 A 
ATOM     48  C   UNL     1      -9.028  11.639  -6.794  1.00  0.00     0.031 C 
ATOM     49  C   UNL     1     -10.651   5.212  -8.702  1.00  0.00     0.029 A 
ATOM     50  C   UNL     1     -11.767   6.029  -8.237  1.00  0.00     0.049 A 
ATOM     51  H   UNL     1     -11.716   8.037  -7.679  1.00  0.00     0.167 HD
ATOM     52  C   UNL     1     -11.396  12.203  -6.307  1.00  0.00     0.034 A 
ATOM     53  C   UNL     1     -13.037   5.603  -8.092  1.00  0.00     0.034 A 
ATOM     54  C   UNL     1     -12.800  11.875  -6.240  1.00  0.00     0.049 A 
ATOM     55  C   UNL     1     -14.080   6.579  -7.608  1.00  0.00     0.074 A 
ATOM     56  C   UNL     1     -13.861  12.696  -5.898  1.00  0.00     0.029 A 
ATOM     57  N   UNL     1     -13.340  10.621  -6.503  1.00  0.00    -0.354 N 
ATOM     58  N   UNL     1     -13.934   7.835  -7.255  1.00  0.00    -0.248 NA
ATOM     59  C   UNL     1     -15.458   6.083  -7.515  1.00  0.00     0.031 C 
ATOM     60  C   UNL     1     -15.025  11.920  -5.871  1.00  0.00     0.029 A 
ATOM     61  C   UNL     1     -14.710  10.637  -6.290  1.00  0.00     0.049 A 
ATOM     62  H   UNL     1     -12.824   9.836  -6.798  1.00  0.00     0.167 HD
ATOM     63  C   UNL     1     -15.209   8.288  -6.924  1.00  0.00     0.074 A 
ATOM     64  C   UNL     1     -16.110   7.174  -7.138  1.00  0.00     0.031 C 
ATOM     65  C   UNL     1     -15.599   9.514  -6.489  1.00  0.00     0.034 A 
BRANCH  52  66
ATOM     66  C   UNL     1     -10.941  13.577  -5.868  1.00  0.00     0.023 A 
ATOM     67  C   UNL     1     -10.268  14.449  -6.742  1.00  0.00     0.031 A 
ATOM     68  C   UNL     1     -11.148  14.009  -4.546  1.00  0.00     0.131 A 
ATOM     69  C   UNL     1      -9.747  15.661  -6.263  1.00  0.00     0.055 A 
ATOM     70  C   UNL     1     -10.710  15.258  -4.100  1.00  0.00     0.041 A 
ATOM     71  F   UNL     1     -11.765  13.215  -3.656  1.00  0.00    -0.206 F 
ATOM     72  C   UNL     1      -9.988  16.084  -4.955  1.00  0.00     0.022 A 
BRANCH  69  73
ATOM     73  S   UNL     1      -8.604  16.589  -7.322  1.00  0.00     0.124 S 
ATOM     74  O   UNL     1      -7.568  15.592  -7.584  1.00  0.00    -0.237 OA
ATOM     75  O   UNL     1      -9.446  16.948  -8.457  1.00  0.00    -0.237 OA
ATOM     76  O   UNL     1      -8.183  17.705  -6.478  1.00  0.00    -0.744 OA
ENDBRANCH  69  73
ENDBRANCH  52  66
BRANCH  53  77
ATOM     77  C   UNL     1     -13.390   4.183  -8.384  1.00  0.00     0.023 A 
ATOM     78  C   UNL     1     -14.272   3.846  -9.422  1.00  0.00     0.031 A 
ATOM     79  C   UNL     1     -12.864   3.137  -7.602  1.00  0.00     0.131 A 
ATOM     80  C   UNL     1     -14.634   2.505  -9.626  1.00  0.00     0.055 A 
ATOM     81  C   UNL     1     -13.182   1.800  -7.845  1.00  0.00     0.041 A 
ATOM     82  F   UNL     1     -12.013   3.402  -6.598  1.00  0.00    -0.206 F 
ATOM     83  C   UNL     1     -14.083   1.479  -8.854  1.00  0.00     0.022 A 
BRANCH  80  84
ATOM     84  S   UNL     1     -15.905   2.124 -10.863  1.00  0.00     0.124 S 
ATOM     85  O   UNL     1     -17.036   2.905 -10.376  1.00  0.00    -0.237 OA
ATOM     86  O   UNL     1     -15.280   2.596 -12.094  1.00  0.00    -0.237 OA
ATOM     87  O   UNL     1     -16.056   0.674 -10.759  1.00  0.00    -0.744 OA
ENDBRANCH  80  84
ENDBRANCH  53  77
BRANCH  65  88
ATOM     88  C   UNL     1     -17.077   9.723  -6.255  1.00  0.00     0.023 A 
ATOM     89  C   UNL     1     -17.777   9.031  -5.250  1.00  0.00     0.031 A 
ATOM     90  C   UNL     1     -17.798  10.625  -7.058  1.00  0.00     0.131 A 
ATOM     91  C   UNL     1     -19.162   9.208  -5.115  1.00  0.00     0.055 A 
ATOM     92  C   UNL     1     -19.163  10.849  -6.872  1.00  0.00     0.041 A 
ATOM     93  F   UNL     1     -17.185  11.309  -8.038  1.00  0.00    -0.206 F 
ATOM     94  C   UNL     1     -19.856  10.128  -5.905  1.00  0.00     0.022 A 
BRANCH  91  95
ATOM     95  S   UNL     1     -20.068   8.141  -3.961  1.00  0.00     0.124 S 
ATOM     96  O   UNL     1     -19.747   6.809  -4.465  1.00  0.00    -0.237 OA
ATOM     97  O   UNL     1     -19.475   8.495  -2.676  1.00  0.00    -0.237 OA
ATOM     98  O   UNL     1     -21.460   8.551  -4.135  1.00  0.00    -0.744 OA
ENDBRANCH  91  95
ENDBRANCH  65  88
ENDBRANCH  39  40
ENDBRANCH  31  34
ENDBRANCH  29  30
ENDBRANCH  28  29
ENDBRANCH  27  28
ENDBRANCH   1  27
TORSDOF 20
