REMARK SMILES O=C(NCCCCCCNC(=O)c1ccnc(-n2cnnn2)c1)c1ccc(-c2c3nc(c(-c4cc(S(=O)(=O)[O-])ccc4F)c4ccc([nH]4)c(-c4cc(S(=O)(=O)[O-])ccc4F)c4nc(c(-c5cc(S(=O)(=O)[O-])ccc5F)c5ccc2[nH]5)C=C4)C=C3)cc1
REMARK SMILES IDX 5 1 4 2 3 3 1 4 2 5 24 7 25 8 86 9 26 10 85 11 27 12 28 13
REMARK SMILES IDX 29 14 79 15 30 16 84 17 78 18 80 19 31 20 83 21 77 22 76 23
REMARK SMILES IDX 32 25 64 26 44 27 63 28 45 29 48 30 62 31 81 32 46 33 47 34
REMARK SMILES IDX 61 36 82 37 49 38 33 39 34 40 42 41 35 42 41 43 43 44 40 45
REMARK SMILES IDX 36 46 37 47 38 48 39 49 65 50 66 51 74 52 67 53 73 54 75 55
REMARK SMILES IDX 72 56 68 57 69 58 70 59 71 60 50 61 51 62 59 63 52 64 58 65
REMARK SMILES IDX 60 66 57 67 53 68 54 69 55 70 56 71 6 72 7 73 8 74 9 75
REMARK SMILES IDX 10 76 11 77 12 79 13 80 14 81 23 82 15 83 17 84 16 85 18 86
REMARK SMILES IDX 19 87 22 88 20 89 21 90
REMARK H PARENT 3 6 80 24 48 35 10 78
REMARK Flexibility Score: inf
ROOT
ATOM      1  C   UNL     1       4.783   2.102   0.656  1.00  0.00     0.021 C 
ENDROOT
BRANCH   1   2
ATOM      2  C   UNL     1       4.660   0.586   0.794  1.00  0.00     0.116 C 
BRANCH   2   3
ATOM      3  N   UNL     1       3.298   0.107   0.901  1.00  0.00    -0.352 N 
ATOM      4  O   UNL     1       1.229  -0.535   0.461  1.00  0.00    -0.269 OA
ATOM      5  C   UNL     1       2.271  -0.051   0.010  1.00  0.00     0.251 C 
ATOM      6  H   UNL     1       3.058  -0.165   1.816  1.00  0.00     0.163 HD
BRANCH   5   7
ATOM      7  C   UNL     1       2.319   0.347  -1.425  1.00  0.00     0.039 A 
ATOM      8  C   UNL     1       3.483   0.517  -2.176  1.00  0.00     0.014 A 
ATOM      9  C   UNL     1       1.078   0.512  -2.068  1.00  0.00     0.014 A 
ATOM     10  C   UNL     1       3.415   0.886  -3.519  1.00  0.00     0.010 A 
ATOM     11  C   UNL     1       1.005   0.854  -3.418  1.00  0.00     0.010 A 
ATOM     12  C   UNL     1       2.178   1.052  -4.146  1.00  0.00    -0.014 A 
BRANCH  12  13
ATOM     13  C   UNL     1       2.171   1.264  -5.597  1.00  0.00     0.031 A 
ATOM     14  C   UNL     1       2.714   0.143  -6.427  1.00  0.00     0.074 A 
ATOM     15  C   UNL     1       1.559   2.291  -6.217  1.00  0.00     0.049 A 
ATOM     16  N   UNL     1       3.639   0.178  -7.333  1.00  0.00    -0.248 NA
ATOM     17  C   UNL     1       2.179  -1.204  -6.178  1.00  0.00     0.031 C 
ATOM     18  C   UNL     1       0.697   3.309  -5.615  1.00  0.00     0.029 A 
ATOM     19  N   UNL     1       1.485   2.565  -7.555  1.00  0.00    -0.354 N 
ATOM     20  C   UNL     1       3.679  -1.096  -7.901  1.00  0.00     0.074 A 
ATOM     21  C   UNL     1       2.843  -1.930  -7.077  1.00  0.00     0.031 C 
ATOM     22  C   UNL     1       0.015   3.943  -6.594  1.00  0.00     0.029 A 
ATOM     23  C   UNL     1       0.481   3.465  -7.887  1.00  0.00     0.049 A 
ATOM     24  H   UNL     1       2.087   2.161  -8.221  1.00  0.00     0.167 HD
ATOM     25  C   UNL     1       4.272  -1.347  -9.102  1.00  0.00     0.034 A 
ATOM     26  C   UNL     1       0.004   3.748  -9.125  1.00  0.00     0.034 A 
ATOM     27  C   UNL     1       5.215  -0.319  -9.461  1.00  0.00     0.049 A 
ATOM     28  C   UNL     1       1.033   3.359 -10.115  1.00  0.00     0.074 A 
ATOM     29  C   UNL     1       6.347   0.207  -8.868  1.00  0.00     0.029 A 
ATOM     30  N   UNL     1       4.890   0.562 -10.464  1.00  0.00    -0.354 N 
ATOM     31  N   UNL     1       2.192   3.946 -10.232  1.00  0.00    -0.248 NA
ATOM     32  C   UNL     1       0.938   2.052 -10.746  1.00  0.00     0.031 C 
ATOM     33  C   UNL     1       6.325   1.594  -9.196  1.00  0.00     0.029 A 
ATOM     34  C   UNL     1       5.203   1.815  -9.997  1.00  0.00     0.049 A 
ATOM     35  H   UNL     1       4.508   0.340 -11.344  1.00  0.00     0.167 HD
ATOM     36  C   UNL     1       3.075   2.936 -10.574  1.00  0.00     0.074 A 
ATOM     37  C   UNL     1       2.229   1.825 -10.997  1.00  0.00     0.031 C 
ATOM     38  C   UNL     1       4.393   2.996 -10.221  1.00  0.00     0.034 A 
BRANCH  25  39
ATOM     39  C   UNL     1       3.819  -2.405 -10.085  1.00  0.00     0.023 A 
ATOM     40  C   UNL     1       4.600  -2.629 -11.238  1.00  0.00     0.031 A 
ATOM     41  C   UNL     1       2.539  -3.004 -10.086  1.00  0.00     0.131 A 
ATOM     42  C   UNL     1       4.090  -3.357 -12.330  1.00  0.00     0.055 A 
ATOM     43  C   UNL     1       2.065  -3.788 -11.143  1.00  0.00     0.041 A 
ATOM     44  F   UNL     1       1.645  -2.785  -9.114  1.00  0.00    -0.206 F 
ATOM     45  C   UNL     1       2.831  -3.948 -12.285  1.00  0.00     0.022 A 
BRANCH  42  46
ATOM     46  S   UNL     1       5.025  -3.361 -13.885  1.00  0.00     0.124 S 
ATOM     47  O   UNL     1       5.269  -1.938 -14.090  1.00  0.00    -0.237 OA
ATOM     48  O   UNL     1       6.187  -4.170 -13.534  1.00  0.00    -0.237 OA
ATOM     49  O   UNL     1       4.100  -3.977 -14.834  1.00  0.00    -0.744 OA
ENDBRANCH  42  46
ENDBRANCH  25  39
BRANCH  26  50
ATOM     50  C   UNL     1      -1.398   4.082  -9.486  1.00  0.00     0.023 A 
ATOM     51  C   UNL     1      -1.735   4.747 -10.680  1.00  0.00     0.031 A 
ATOM     52  C   UNL     1      -2.467   3.541  -8.735  1.00  0.00     0.131 A 
ATOM     53  C   UNL     1      -3.089   4.863 -11.069  1.00  0.00     0.055 A 
ATOM     54  C   UNL     1      -3.803   3.675  -9.113  1.00  0.00     0.041 A 
ATOM     55  F   UNL     1      -2.241   2.788  -7.646  1.00  0.00    -0.206 F 
ATOM     56  C   UNL     1      -4.120   4.334 -10.289  1.00  0.00     0.022 A 
BRANCH  53  57
ATOM     57  S   UNL     1      -3.519   5.614 -12.671  1.00  0.00     0.124 S 
ATOM     58  O   UNL     1      -3.238   7.027 -12.435  1.00  0.00    -0.237 OA
ATOM     59  O   UNL     1      -2.628   4.920 -13.593  1.00  0.00    -0.237 OA
ATOM     60  O   UNL     1      -4.937   5.287 -12.829  1.00  0.00    -0.744 OA
ENDBRANCH  53  57
ENDBRANCH  26  50
BRANCH  38  61
ATOM     61  C   UNL     1       4.967   4.320  -9.762  1.00  0.00     0.023 A 
ATOM     62  C   UNL     1       4.458   5.082  -8.687  1.00  0.00     0.031 A 
ATOM     63  C   UNL     1       6.159   4.761 -10.365  1.00  0.00     0.131 A 
ATOM     64  C   UNL     1       5.130   6.244  -8.264  1.00  0.00     0.055 A 
ATOM     65  C   UNL     1       6.833   5.903  -9.931  1.00  0.00     0.041 A 
ATOM     66  F   UNL     1       6.715   4.062 -11.369  1.00  0.00    -0.206 F 
ATOM     67  C   UNL     1       6.316   6.654  -8.882  1.00  0.00     0.022 A 
BRANCH  64  68
ATOM     68  S   UNL     1       4.467   7.246  -6.895  1.00  0.00     0.124 S 
ATOM     69  O   UNL     1       3.059   7.404  -7.236  1.00  0.00    -0.237 OA
ATOM     70  O   UNL     1       4.756   6.416  -5.728  1.00  0.00    -0.237 OA
ATOM     71  O   UNL     1       5.253   8.480  -6.967  1.00  0.00    -0.744 OA
ENDBRANCH  64  68
ENDBRANCH  38  61
ENDBRANCH  12  13
ENDBRANCH   5   7
ENDBRANCH   2   3
ENDBRANCH   1   2
BRANCH   1  72
ATOM     72  C   UNL     1       4.266   2.898   1.861  1.00  0.00     0.002 C 
BRANCH  72  73
ATOM     73  C   UNL     1       4.845   2.498   3.222  1.00  0.00     0.002 C 
BRANCH  73  74
ATOM     74  C   UNL     1       6.376   2.456   3.307  1.00  0.00     0.021 C 
BRANCH  74  75
ATOM     75  C   UNL     1       7.071   3.789   3.029  1.00  0.00     0.116 C 
BRANCH  75  76
ATOM     76  N   UNL     1       6.804   4.750   4.087  1.00  0.00    -0.352 N 
ATOM     77  C   UNL     1       7.673   5.313   4.976  1.00  0.00     0.251 C 
ATOM     78  H   UNL     1       5.866   5.034   4.175  1.00  0.00     0.163 HD
ATOM     79  O   UNL     1       7.258   5.891   5.986  1.00  0.00    -0.269 OA
BRANCH  77  80
ATOM     80  C   UNL     1       9.128   5.230   4.763  1.00  0.00     0.045 A 
ATOM     81  C   UNL     1       9.700   5.653   3.567  1.00  0.00     0.034 A 
ATOM     82  C   UNL     1       9.928   4.821   5.831  1.00  0.00     0.063 A 
ATOM     83  C   UNL     1      11.077   5.632   3.481  1.00  0.00     0.114 A 
ATOM     84  C   UNL     1      11.306   4.839   5.658  1.00  0.00     0.157 A 
ATOM     85  N   UNL     1      11.882   5.242   4.494  1.00  0.00    -0.237 NA
BRANCH  84  86
ATOM     86  N   UNL     1      12.156   4.444   6.725  1.00  0.00    -0.182 N 
ATOM     87  C   UNL     1      11.838   3.822   7.907  1.00  0.00     0.254 A 
ATOM     88  N   UNL     1      13.495   4.642   6.712  1.00  0.00    -0.039 NA
ATOM     89  N   UNL     1      12.923   3.676   8.632  1.00  0.00    -0.117 NA
ATOM     90  N   UNL     1      13.942   4.199   7.879  1.00  0.00    -0.024 NA
ENDBRANCH  84  86
ENDBRANCH  77  80
ENDBRANCH  75  76
ENDBRANCH  74  75
ENDBRANCH  73  74
ENDBRANCH  72  73
ENDBRANCH   1  72
TORSDOF 17
