REMARK SMILES O=C(NCCCCCCNC(=O)[C@H](CO)NC(=O)[C@H](Cc1c[nH]c2ccccc12)NC(=O)[C@H](Cc1ccc(O)cc1)NC(=O)c1ccc(F)cc1)c1ccc(-c2c3nc(c(-c4cc(S(=O)(=O)[O-])ccc4F)c4ccc([nH]4)c(-c4cc(S(=O)(=O)[O-])ccc4F)c4nc(c(-c5cc(S(=O)(=O)[O-])ccc5F)c5ccc2[nH]5)C=C4)C=C3)cc1
REMARK SMILES IDX 8 1 7 2 6 3 5 4 4 5 3 6 1 7 2 8 52 10 53 11 114 12 54 13
REMARK SMILES IDX 113 14 55 15 56 16 57 17 107 18 58 19 112 20 106 21 108 22
REMARK SMILES IDX 59 23 111 24 105 25 104 26 60 28 92 29 72 30 91 31 73 32
REMARK SMILES IDX 76 33 90 34 109 35 74 36 75 37 89 39 110 40 77 41 61 42
REMARK SMILES IDX 62 43 70 44 63 45 69 46 71 47 68 48 64 49 65 50 66 51 67 52
REMARK SMILES IDX 93 53 94 54 102 55 95 56 101 57 103 58 100 59 96 60 97 61
REMARK SMILES IDX 98 62 99 63 78 64 79 65 87 66 80 67 86 68 88 69 85 70 81 71
REMARK SMILES IDX 82 72 83 73 84 74 9 75 10 76 11 77 12 79 13 80 16 81 17 82
REMARK SMILES IDX 18 84 19 85 30 86 31 87 32 89 33 90 42 91 43 92 44 94 45 95
REMARK SMILES IDX 46 96 51 97 47 98 50 99 48 100 49 101 34 102 35 103 36 104
REMARK SMILES IDX 41 105 37 106 40 107 38 108 39 109 20 111 21 112 22 113
REMARK SMILES IDX 29 114 23 115 24 116 28 117 25 119 27 120 26 121 14 122
REMARK SMILES IDX 15 123
REMARK H PARENT 3 9 108 27 76 38 10 78 16 83 30 88 42 93 39 110 23 118 15 124
REMARK Flexibility Score: inf
ROOT
ATOM      1  C   UNL     1      16.950  -4.437   6.716  1.00  0.00     0.021 C 
ENDROOT
BRANCH   1   2
ATOM      2  C   UNL     1      18.246  -3.903   7.320  1.00  0.00     0.002 C 
BRANCH   2   3
ATOM      3  C   UNL     1      18.193  -2.438   7.758  1.00  0.00     0.002 C 
BRANCH   3   4
ATOM      4  C   UNL     1      17.041  -2.072   8.701  1.00  0.00     0.021 C 
BRANCH   4   5
ATOM      5  C   UNL     1      16.933  -2.928   9.960  1.00  0.00     0.116 C 
BRANCH   5   6
ATOM      6  N   UNL     1      18.143  -2.878  10.764  1.00  0.00    -0.352 N 
ATOM      7  O   UNL     1      19.483  -2.193  12.438  1.00  0.00    -0.269 OA
ATOM      8  C   UNL     1      18.343  -2.327  12.006  1.00  0.00     0.251 C 
ATOM      9  H   UNL     1      18.935  -3.300  10.359  1.00  0.00     0.163 HD
BRANCH   8  10
ATOM     10  C   UNL     1      17.184  -1.879  12.806  1.00  0.00     0.039 A 
ATOM     11  C   UNL     1      16.069  -2.705  12.975  1.00  0.00     0.014 A 
ATOM     12  C   UNL     1      17.225  -0.621  13.411  1.00  0.00     0.014 A 
ATOM     13  C   UNL     1      14.950  -2.228  13.652  1.00  0.00     0.010 A 
ATOM     14  C   UNL     1      16.127  -0.171  14.147  1.00  0.00     0.010 A 
ATOM     15  C   UNL     1      14.971  -0.961  14.256  1.00  0.00    -0.014 A 
BRANCH  15  16
ATOM     16  C   UNL     1      13.803  -0.483  15.040  1.00  0.00     0.031 A 
ATOM     17  C   UNL     1      13.014   0.715  14.586  1.00  0.00     0.074 A 
ATOM     18  C   UNL     1      13.460  -1.133  16.170  1.00  0.00     0.049 A 
ATOM     19  N   UNL     1      12.040   1.339  15.198  1.00  0.00    -0.248 NA
ATOM     20  C   UNL     1      13.363   1.288  13.276  1.00  0.00     0.031 C 
ATOM     21  C   UNL     1      14.130  -2.326  16.693  1.00  0.00     0.029 A 
ATOM     22  N   UNL     1      12.464  -0.887  17.081  1.00  0.00    -0.354 N 
ATOM     23  C   UNL     1      11.664   2.381  14.357  1.00  0.00     0.074 A 
ATOM     24  C   UNL     1      12.534   2.322  13.201  1.00  0.00     0.031 C 
ATOM     25  C   UNL     1      13.510  -2.722  17.815  1.00  0.00     0.029 A 
ATOM     26  C   UNL     1      12.451  -1.773  18.134  1.00  0.00     0.049 A 
ATOM     27  H   UNL     1      11.821  -0.147  16.991  1.00  0.00     0.167 HD
ATOM     28  C   UNL     1      10.678   3.293  14.534  1.00  0.00     0.034 A 
ATOM     29  C   UNL     1      11.696  -1.799  19.250  1.00  0.00     0.034 A 
ATOM     30  C   UNL     1       9.812   3.333  15.687  1.00  0.00     0.049 A 
ATOM     31  C   UNL     1      10.670  -0.718  19.459  1.00  0.00     0.074 A 
ATOM     32  C   UNL     1       8.779   4.216  15.952  1.00  0.00     0.029 A 
ATOM     33  N   UNL     1       9.872   2.458  16.762  1.00  0.00    -0.354 N 
ATOM     34  N   UNL     1      10.353   0.282  18.671  1.00  0.00    -0.248 NA
ATOM     35  C   UNL     1       9.907  -0.764  20.713  1.00  0.00     0.031 C 
ATOM     36  C   UNL     1       8.256   3.914  17.213  1.00  0.00     0.029 A 
ATOM     37  C   UNL     1       8.914   2.799  17.704  1.00  0.00     0.049 A 
ATOM     38  H   UNL     1      10.502   1.706  16.843  1.00  0.00     0.167 HD
ATOM     39  C   UNL     1       9.341   0.974  19.328  1.00  0.00     0.074 A 
ATOM     40  C   UNL     1       9.087   0.267  20.566  1.00  0.00     0.031 C 
ATOM     41  C   UNL     1       8.682   2.095  18.942  1.00  0.00     0.034 A 
BRANCH  28  42
ATOM     42  C   UNL     1      10.485   4.346  13.475  1.00  0.00     0.023 A 
ATOM     43  C   UNL     1       9.939   4.033  12.219  1.00  0.00     0.031 A 
ATOM     44  C   UNL     1      10.777   5.692  13.756  1.00  0.00     0.131 A 
ATOM     45  C   UNL     1       9.716   5.054  11.282  1.00  0.00     0.055 A 
ATOM     46  C   UNL     1      10.505   6.710  12.840  1.00  0.00     0.041 A 
ATOM     47  F   UNL     1      11.313   6.042  14.936  1.00  0.00    -0.206 F 
ATOM     48  C   UNL     1       9.972   6.392  11.594  1.00  0.00     0.022 A 
BRANCH  45  49
ATOM     49  S   UNL     1       9.121   4.608   9.629  1.00  0.00     0.124 S 
ATOM     50  O   UNL     1      10.256   3.855   9.100  1.00  0.00    -0.237 OA
ATOM     51  O   UNL     1       7.921   3.833   9.919  1.00  0.00    -0.237 OA
ATOM     52  O   UNL     1       8.886   5.901   8.988  1.00  0.00    -0.744 OA
ENDBRANCH  45  49
ENDBRANCH  28  42
BRANCH  29  53
ATOM     53  C   UNL     1      11.911  -2.854  20.279  1.00  0.00     0.023 A 
ATOM     54  C   UNL     1      10.908  -3.790  20.572  1.00  0.00     0.031 A 
ATOM     55  C   UNL     1      13.111  -2.920  21.010  1.00  0.00     0.131 A 
ATOM     56  C   UNL     1      11.106  -4.729  21.595  1.00  0.00     0.055 A 
ATOM     57  C   UNL     1      13.325  -3.890  21.991  1.00  0.00     0.041 A 
ATOM     58  F   UNL     1      14.103  -2.048  20.769  1.00  0.00    -0.206 F 
ATOM     59  C   UNL     1      12.313  -4.795  22.296  1.00  0.00     0.022 A 
BRANCH  56  60
ATOM     60  S   UNL     1       9.734  -5.826  22.044  1.00  0.00     0.124 S 
ATOM     61  O   UNL     1       8.727  -4.871  22.493  1.00  0.00    -0.237 OA
ATOM     62  O   UNL     1       9.459  -6.503  20.781  1.00  0.00    -0.237 OA
ATOM     63  O   UNL     1      10.304  -6.673  23.090  1.00  0.00    -0.744 OA
ENDBRANCH  56  60
ENDBRANCH  29  53
BRANCH  41  64
ATOM     64  C   UNL     1       7.605   2.610  19.860  1.00  0.00     0.023 A 
ATOM     65  C   UNL     1       7.916   3.167  21.112  1.00  0.00     0.031 A 
ATOM     66  C   UNL     1       6.255   2.557  19.473  1.00  0.00     0.131 A 
ATOM     67  C   UNL     1       6.885   3.609  21.954  1.00  0.00     0.055 A 
ATOM     68  C   UNL     1       5.238   3.049  20.291  1.00  0.00     0.041 A 
ATOM     69  F   UNL     1       5.904   2.035  18.286  1.00  0.00    -0.206 F 
ATOM     70  C   UNL     1       5.550   3.570  21.544  1.00  0.00     0.022 A 
BRANCH  67  71
ATOM     71  S   UNL     1       7.309   4.180  23.621  1.00  0.00     0.124 S 
ATOM     72  O   UNL     1       7.878   2.976  24.218  1.00  0.00    -0.237 OA
ATOM     73  O   UNL     1       8.248   5.265  23.354  1.00  0.00    -0.237 OA
ATOM     74  O   UNL     1       6.023   4.599  24.177  1.00  0.00    -0.744 OA
ENDBRANCH  67  71
ENDBRANCH  41  64
ENDBRANCH  15  16
ENDBRANCH   8  10
ENDBRANCH   5   6
ENDBRANCH   4   5
ENDBRANCH   3   4
ENDBRANCH   2   3
ENDBRANCH   1   2
BRANCH   1  75
ATOM     75  C   UNL     1      16.518  -3.747   5.431  1.00  0.00     0.116 C 
BRANCH  75  76
ATOM     76  N   UNL     1      17.284  -4.232   4.299  1.00  0.00    -0.354 N 
ATOM     77  C   UNL     1      16.867  -5.010   3.256  1.00  0.00     0.244 C 
ATOM     78  H   UNL     1      18.232  -3.966   4.280  1.00  0.00     0.163 HD
ATOM     79  O   UNL     1      17.730  -5.557   2.566  1.00  0.00    -0.273 OA
BRANCH  77  80
ATOM     80  C   UNL     1      15.360  -5.296   3.065  1.00  0.00     0.197 C 
BRANCH  80  81
ATOM     81  N   UNL     1      14.591  -4.039   3.025  1.00  0.00    -0.340 N 
ATOM     82  C   UNL     1      13.448  -3.679   3.689  1.00  0.00     0.243 C 
ATOM     83  H   UNL     1      14.958  -3.349   2.427  1.00  0.00     0.164 HD
ATOM     84  O   UNL     1      13.080  -2.507   3.603  1.00  0.00    -0.273 OA
BRANCH  82  85
ATOM     85  C   UNL     1      12.721  -4.695   4.591  1.00  0.00     0.175 C 
BRANCH  85  86
ATOM     86  N   UNL     1      12.964  -4.360   6.014  1.00  0.00    -0.342 N 
ATOM     87  C   UNL     1      13.366  -5.001   7.146  1.00  0.00     0.243 C 
ATOM     88  H   UNL     1      12.785  -3.408   6.191  1.00  0.00     0.164 HD
ATOM     89  O   UNL     1      13.412  -4.273   8.150  1.00  0.00    -0.273 OA
BRANCH  87  90
ATOM     90  C   UNL     1      13.897  -6.476   7.264  1.00  0.00     0.176 C 
BRANCH  90  91
ATOM     91  N   UNL     1      13.681  -6.899   8.663  1.00  0.00    -0.340 N 
ATOM     92  C   UNL     1      14.413  -7.745   9.456  1.00  0.00     0.251 C 
ATOM     93  H   UNL     1      12.885  -6.512   9.094  1.00  0.00     0.164 HD
ATOM     94  O   UNL     1      13.958  -8.180  10.506  1.00  0.00    -0.269 OA
BRANCH  92  95
ATOM     95  C   UNL     1      15.766  -8.151   9.034  1.00  0.00     0.040 A 
ATOM     96  C   UNL     1      16.770  -7.189   8.916  1.00  0.00     0.017 A 
ATOM     97  C   UNL     1      16.054  -9.502   8.817  1.00  0.00     0.017 A 
ATOM     98  C   UNL     1      18.044  -7.566   8.490  1.00  0.00     0.040 A 
ATOM     99  C   UNL     1      17.324  -9.875   8.378  1.00  0.00     0.040 A 
ATOM    100  C   UNL     1      18.303  -8.902   8.205  1.00  0.00     0.123 A 
ATOM    101  F   UNL     1      19.517  -9.255   7.764  1.00  0.00    -0.207 F 
ENDBRANCH  92  95
ENDBRANCH  90  91
BRANCH  90 102
ATOM    102  C   UNL     1      13.230  -7.429   6.285  1.00  0.00     0.070 C 
BRANCH 102 103
ATOM    103  C   UNL     1      13.520  -8.906   6.215  1.00  0.00    -0.045 A 
ATOM    104  C   UNL     1      14.071  -9.432   5.031  1.00  0.00     0.007 A 
ATOM    105  C   UNL     1      13.048  -9.790   7.188  1.00  0.00     0.007 A 
ATOM    106  C   UNL     1      14.102 -10.805   4.804  1.00  0.00     0.046 A 
ATOM    107  C   UNL     1      13.113 -11.168   6.977  1.00  0.00     0.046 A 
ATOM    108  C   UNL     1      13.603 -11.661   5.775  1.00  0.00     0.115 A 
BRANCH 108 109
ATOM    109  O   UNL     1      13.536 -13.005   5.556  1.00  0.00    -0.508 OA
ATOM    110  H   UNL     1      13.859 -13.366   4.754  1.00  0.00     0.293 HD
ENDBRANCH 108 109
ENDBRANCH 102 103
ENDBRANCH  90 102
ENDBRANCH  87  90
ENDBRANCH  85  86
BRANCH  85 111
ATOM    111  C   UNL     1      11.212  -4.678   4.245  1.00  0.00     0.072 C 
BRANCH 111 112
ATOM    112  C   UNL     1      10.573  -6.011   4.504  1.00  0.00    -0.020 A 
ATOM    113  C   UNL     1       9.719  -6.335   5.540  1.00  0.00     0.087 A 
ATOM    114  C   UNL     1      10.808  -7.220   3.767  1.00  0.00     0.003 A 
ATOM    115  N   UNL     1       9.480  -7.685   5.495  1.00  0.00    -0.361 N 
ATOM    116  C   UNL     1      10.163  -8.254   4.444  1.00  0.00     0.046 A 
ATOM    117  C   UNL     1      11.578  -7.538   2.630  1.00  0.00     0.010 A 
ATOM    118  H   UNL     1       8.904  -8.176   6.124  1.00  0.00     0.166 HD
ATOM    119  C   UNL     1      10.284  -9.596   4.063  1.00  0.00     0.026 A 
ATOM    120  C   UNL     1      11.710  -8.872   2.234  1.00  0.00     0.001 A 
ATOM    121  C   UNL     1      11.076  -9.886   2.947  1.00  0.00     0.002 A 
ENDBRANCH 111 112
ENDBRANCH  85 111
ENDBRANCH  82  85
ENDBRANCH  80  81
BRANCH  80 122
ATOM    122  C   UNL     1      15.148  -6.117   1.781  1.00  0.00     0.191 C 
BRANCH 122 123
ATOM    123  O   UNL     1      15.278  -7.516   2.044  1.00  0.00    -0.394 OA
ATOM    124  H   UNL     1      16.170  -7.700   2.378  1.00  0.00     0.210 HD
ENDBRANCH 122 123
ENDBRANCH  80 122
ENDBRANCH  77  80
ENDBRANCH  75  76
ENDBRANCH   1  75
TORSDOF 29
