REMARK SMILES O=C(CN(CC(F)(F)F)C(=O)CC[C@H]1CCC[NH2+]C1)NCCCCCCNC(=O)c1ccc(-c2c3nc(c(-c4cc(S(=O)(=O)[O-])ccc4F)c4ccc([nH]4)c(-c4cc(S(=O)(=O)[O-])ccc4F)c4nc(c(-c5cc(S(=O)(=O)[O-])ccc5F)c5ccc2[nH]5)C=C4)C=C3)cc1
REMARK SMILES IDX 22 1 21 2 20 3 1 4 2 5 3 7 4 8 5 9 6 10 7 11 8 12 9 13 10 14
REMARK SMILES IDX 11 15 12 16 13 17 14 18 15 19 19 20 16 21 18 22 17 23 23 26
REMARK SMILES IDX 24 27 25 28 26 29 27 30 28 31 29 33 30 34 31 35 92 36 32 37
REMARK SMILES IDX 91 38 33 39 34 40 35 41 85 42 36 43 90 44 84 45 86 46 37 47
REMARK SMILES IDX 89 48 83 49 82 50 38 52 70 53 50 54 69 55 51 56 54 57 68 58
REMARK SMILES IDX 87 59 52 60 53 61 67 63 88 64 55 65 39 66 40 67 48 68 41 69
REMARK SMILES IDX 47 70 49 71 46 72 42 73 43 74 44 75 45 76 71 77 72 78 80 79
REMARK SMILES IDX 73 80 79 81 81 82 78 83 74 84 75 85 76 86 77 87 56 88 57 89
REMARK SMILES IDX 65 90 58 91 64 92 66 93 63 94 59 95 60 96 61 97 62 98
REMARK H PARENT 20 6 18 24 18 25 27 32 86 51 54 62
REMARK Flexibility Score: inf
ROOT
ATOM      1  C   UNL     1       6.169   2.749   4.267  1.00  0.00     0.021 C 
ENDROOT
BRANCH   1   2
ATOM      2  C   UNL     1       5.575   2.568   2.865  1.00  0.00     0.116 C 
BRANCH   2   3
ATOM      3  N   UNL     1       4.711   1.405   2.688  1.00  0.00    -0.355 N 
ATOM      4  O   UNL     1       2.887   2.628   2.042  1.00  0.00    -0.273 OA
ATOM      5  C   UNL     1       3.455   1.538   2.124  1.00  0.00     0.239 C 
ATOM      6  H   UNL     1       5.026   0.517   2.973  1.00  0.00     0.163 HD
BRANCH   5   7
ATOM      7  C   UNL     1       2.680   0.233   1.825  1.00  0.00     0.219 C 
BRANCH   7   8
ATOM      8  N   UNL     1       3.346  -0.914   1.159  1.00  0.00    -0.324 N 
BRANCH   8   9
ATOM      9  C   UNL     1       3.233  -2.208   1.904  1.00  0.00     0.235 C 
BRANCH   9  10
ATOM     10  C   UNL     1       2.888  -3.547   1.238  1.00  0.00     0.406 C 
ATOM     11  F   UNL     1       3.687  -3.893   0.216  1.00  0.00    -0.169 F 
ATOM     12  F   UNL     1       3.002  -4.544   2.155  1.00  0.00    -0.169 F 
ATOM     13  F   UNL     1       1.610  -3.562   0.799  1.00  0.00    -0.169 F 
ENDBRANCH   9  10
ENDBRANCH   8   9
BRANCH   8  14
ATOM     14  C   UNL     1       3.880  -0.621  -0.097  1.00  0.00     0.223 C 
ATOM     15  O   UNL     1       3.785   0.535  -0.533  1.00  0.00    -0.275 OA
BRANCH  14  16
ATOM     16  C   UNL     1       4.571  -1.631  -1.028  1.00  0.00     0.101 C 
BRANCH  16  17
ATOM     17  C   UNL     1       6.015  -2.130  -0.764  1.00  0.00     0.019 C 
BRANCH  17  18
ATOM     18  C   UNL     1       6.347  -2.264   0.708  1.00  0.00     0.045 C 
ATOM     19  C   UNL     1       7.318  -3.355   1.159  1.00  0.00     0.015 C 
ATOM     20  C   UNL     1       6.805  -0.941   1.306  1.00  0.00     0.264 C 
ATOM     21  C   UNL     1       7.228  -3.433   2.696  1.00  0.00     0.062 C 
ATOM     22  N   UNL     1       6.591  -1.019   2.751  1.00  0.00    -0.346 N 
ATOM     23  C   UNL     1       7.422  -2.066   3.356  1.00  0.00     0.260 C 
ATOM     24  H   UNL     1       6.829  -0.121   3.172  1.00  0.00     0.346 HD
ATOM     25  H   UNL     1       5.611  -1.247   2.920  1.00  0.00     0.346 HD
ENDBRANCH  17  18
ENDBRANCH  16  17
ENDBRANCH  14  16
ENDBRANCH   8  14
ENDBRANCH   7   8
ENDBRANCH   5   7
ENDBRANCH   2   3
ENDBRANCH   1   2
BRANCH   1  26
ATOM     26  C   UNL     1       7.248   1.753   4.703  1.00  0.00     0.002 C 
BRANCH  26  27
ATOM     27  C   UNL     1       8.456   1.621   3.763  1.00  0.00     0.002 C 
BRANCH  27  28
ATOM     28  C   UNL     1       9.354   2.849   3.659  1.00  0.00     0.021 C 
BRANCH  28  29
ATOM     29  C   UNL     1       9.991   3.286   4.969  1.00  0.00     0.116 C 
BRANCH  29  30
ATOM     30  N   UNL     1      10.877   2.275   5.530  1.00  0.00    -0.352 N 
ATOM     31  C   UNL     1      12.159   2.421   6.004  1.00  0.00     0.251 C 
ATOM     32  H   UNL     1      10.507   1.364   5.576  1.00  0.00     0.163 HD
ATOM     33  O   UNL     1      12.821   1.427   6.296  1.00  0.00    -0.269 OA
BRANCH  31  34
ATOM     34  C   UNL     1      12.742   3.775   6.122  1.00  0.00     0.039 A 
ATOM     35  C   UNL     1      14.034   4.005   5.645  1.00  0.00     0.014 A 
ATOM     36  C   UNL     1      11.997   4.825   6.667  1.00  0.00     0.014 A 
ATOM     37  C   UNL     1      14.549   5.304   5.644  1.00  0.00     0.010 A 
ATOM     38  C   UNL     1      12.477   6.128   6.585  1.00  0.00     0.010 A 
ATOM     39  C   UNL     1      13.759   6.383   6.074  1.00  0.00    -0.014 A 
BRANCH  39  40
ATOM     40  C   UNL     1      14.252   7.785   5.999  1.00  0.00     0.031 A 
ATOM     41  C   UNL     1      14.411   8.594   7.259  1.00  0.00     0.074 A 
ATOM     42  C   UNL     1      14.490   8.347   4.796  1.00  0.00     0.049 A 
ATOM     43  N   UNL     1      14.751   9.849   7.398  1.00  0.00    -0.248 NA
ATOM     44  C   UNL     1      14.120   7.908   8.528  1.00  0.00     0.031 C 
ATOM     45  C   UNL     1      14.335   7.675   3.503  1.00  0.00     0.029 A 
ATOM     46  N   UNL     1      14.903   9.613   4.460  1.00  0.00    -0.354 N 
ATOM     47  C   UNL     1      14.694  10.110   8.763  1.00  0.00     0.074 A 
ATOM     48  C   UNL     1      14.238   8.895   9.404  1.00  0.00     0.031 C 
ATOM     49  C   UNL     1      14.676   8.525   2.520  1.00  0.00     0.029 A 
ATOM     50  C   UNL     1      15.019   9.818   3.103  1.00  0.00     0.049 A 
ATOM     51  H   UNL     1      15.098  10.309   5.128  1.00  0.00     0.167 HD
ATOM     52  C   UNL     1      15.010  11.252   9.421  1.00  0.00     0.034 A 
ATOM     53  C   UNL     1      15.348  10.926   2.407  1.00  0.00     0.034 A 
ATOM     54  C   UNL     1      15.488  12.446   8.768  1.00  0.00     0.049 A 
ATOM     55  C   UNL     1      15.669  12.192   3.167  1.00  0.00     0.074 A 
ATOM     56  C   UNL     1      15.915  13.628   9.347  1.00  0.00     0.029 A 
ATOM     57  N   UNL     1      15.589  12.618   7.394  1.00  0.00    -0.354 N 
ATOM     58  N   UNL     1      15.682  12.397   4.464  1.00  0.00    -0.248 NA
ATOM     59  C   UNL     1      16.029  13.371   2.369  1.00  0.00     0.031 C 
ATOM     60  C   UNL     1      16.190  14.542   8.325  1.00  0.00     0.029 A 
ATOM     61  C   UNL     1      16.027  13.902   7.107  1.00  0.00     0.049 A 
ATOM     62  H   UNL     1      15.380  11.930   6.722  1.00  0.00     0.167 HD
ATOM     63  C   UNL     1      16.092  13.717   4.635  1.00  0.00     0.074 A 
ATOM     64  C   UNL     1      16.330  14.252   3.311  1.00  0.00     0.031 C 
ATOM     65  C   UNL     1      16.261  14.424   5.782  1.00  0.00     0.034 A 
BRANCH  52  66
ATOM     66  C   UNL     1      14.820  11.279  10.919  1.00  0.00     0.023 A 
ATOM     67  C   UNL     1      15.554  10.445  11.780  1.00  0.00     0.031 A 
ATOM     68  C   UNL     1      13.890  12.164  11.495  1.00  0.00     0.131 A 
ATOM     69  C   UNL     1      15.304  10.471  13.161  1.00  0.00     0.055 A 
ATOM     70  C   UNL     1      13.704  12.242  12.876  1.00  0.00     0.041 A 
ATOM     71  F   UNL     1      13.143  12.968  10.722  1.00  0.00    -0.206 F 
ATOM     72  C   UNL     1      14.405  11.384  13.717  1.00  0.00     0.022 A 
BRANCH  69  73
ATOM     73  S   UNL     1      16.079   9.209  14.208  1.00  0.00     0.124 S 
ATOM     74  O   UNL     1      15.569   7.977  13.611  1.00  0.00    -0.237 OA
ATOM     75  O   UNL     1      17.501   9.470  14.017  1.00  0.00    -0.237 OA
ATOM     76  O   UNL     1      15.563   9.506  15.543  1.00  0.00    -0.744 OA
ENDBRANCH  69  73
ENDBRANCH  52  66
BRANCH  53  77
ATOM     77  C   UNL     1      15.378  10.915   0.914  1.00  0.00     0.023 A 
ATOM     78  C   UNL     1      16.562  11.196   0.214  1.00  0.00     0.031 A 
ATOM     79  C   UNL     1      14.207  10.703   0.164  1.00  0.00     0.131 A 
ATOM     80  C   UNL     1      16.537  11.328  -1.184  1.00  0.00     0.055 A 
ATOM     81  C   UNL     1      14.201  10.767  -1.232  1.00  0.00     0.041 A 
ATOM     82  F   UNL     1      13.045  10.430   0.778  1.00  0.00    -0.206 F 
ATOM     83  C   UNL     1      15.368  11.100  -1.912  1.00  0.00     0.022 A 
BRANCH  80  84
ATOM     84  S   UNL     1      18.028  11.930  -2.024  1.00  0.00     0.124 S 
ATOM     85  O   UNL     1      18.267  13.191  -1.332  1.00  0.00    -0.237 OA
ATOM     86  O   UNL     1      18.980  10.858  -1.754  1.00  0.00    -0.237 OA
ATOM     87  O   UNL     1      17.607  12.051  -3.418  1.00  0.00    -0.744 OA
ENDBRANCH  80  84
ENDBRANCH  53  77
BRANCH  65  88
ATOM     88  C   UNL     1      16.785  15.834   5.653  1.00  0.00     0.023 A 
ATOM     89  C   UNL     1      16.042  16.851   5.030  1.00  0.00     0.031 A 
ATOM     90  C   UNL     1      18.056  16.161   6.162  1.00  0.00     0.131 A 
ATOM     91  C   UNL     1      16.599  18.131   4.879  1.00  0.00     0.055 A 
ATOM     92  C   UNL     1      18.575  17.453   6.070  1.00  0.00     0.041 A 
ATOM     93  F   UNL     1      18.812  15.229   6.764  1.00  0.00    -0.206 F 
ATOM     94  C   UNL     1      17.852  18.443   5.413  1.00  0.00     0.022 A 
BRANCH  91  95
ATOM     95  S   UNL     1      15.704  19.359   3.888  1.00  0.00     0.124 S 
ATOM     96  O   UNL     1      15.590  18.684   2.599  1.00  0.00    -0.237 OA
ATOM     97  O   UNL     1      14.461  19.518   4.636  1.00  0.00    -0.237 OA
ATOM     98  O   UNL     1      16.589  20.522   3.903  1.00  0.00    -0.744 OA
ENDBRANCH  91  95
ENDBRANCH  65  88
ENDBRANCH  39  40
ENDBRANCH  31  34
ENDBRANCH  29  30
ENDBRANCH  28  29
ENDBRANCH  27  28
ENDBRANCH  26  27
ENDBRANCH   1  26
TORSDOF 23
