REMARK SMILES C[C@H]1[C@H](C(=O)NCCCCCCNC(=O)c2ccc(-c3c4nc(c(-c5cc(S(=O)(=O)[O-])ccc5F)c5ccc([nH]5)c(-c5cc(S(=O)(=O)[O-])ccc5F)c5nc(c(-c6cc(S(=O)(=O)[O-])ccc6F)c6ccc3[nH]6)C=C5)C=C4)cc2)CC[N@@H+]1Cc1cnn(-c2ccccc2)c1
REMARK SMILES IDX 9 1 8 2 7 3 6 4 4 5 5 6 3 8 1 9 2 10 81 11 79 12 80 13 82 15
REMARK SMILES IDX 83 16 84 17 93 18 85 19 86 20 87 21 88 22 92 23 89 24 91 25
REMARK SMILES IDX 90 26 10 27 11 28 12 29 13 30 14 31 15 33 16 34 17 35 78 36
REMARK SMILES IDX 18 37 77 38 19 39 20 40 21 41 71 42 22 43 76 44 70 45 72 46
REMARK SMILES IDX 23 47 75 48 69 49 68 50 24 52 56 53 36 54 55 55 37 56 40 57
REMARK SMILES IDX 54 58 73 59 38 60 39 61 53 63 74 64 41 65 25 66 26 67 34 68
REMARK SMILES IDX 27 69 33 70 35 71 32 72 28 73 29 74 30 75 31 76 57 77 58 78
REMARK SMILES IDX 66 79 59 80 65 81 67 82 64 83 60 84 61 85 62 86 63 87 42 88
REMARK SMILES IDX 43 89 51 90 44 91 50 92 52 93 49 94 45 95 46 96 47 97 48 98
REMARK H PARENT 6 7 81 14 13 32 72 51 40 62
REMARK Flexibility Score: inf
ROOT
ATOM      1  C   UNL     1       1.406   0.454   5.600  1.00  0.00     0.002 C 
ENDROOT
BRANCH   1   2
ATOM      2  C   UNL     1       1.506   0.290   4.068  1.00  0.00     0.021 C 
BRANCH   2   3
ATOM      3  C   UNL     1       0.568   1.197   3.267  1.00  0.00     0.116 C 
BRANCH   3   4
ATOM      4  N   UNL     1       1.166   2.111   2.323  1.00  0.00    -0.356 N 
ATOM      5  C   UNL     1       0.725   2.367   1.056  1.00  0.00     0.229 C 
ATOM      6  O   UNL     1       0.761   3.546   0.684  1.00  0.00    -0.275 OA
ATOM      7  H   UNL     1       1.969   2.596   2.622  1.00  0.00     0.163 HD
BRANCH   5   8
ATOM      8  C   UNL     1       0.274   1.284   0.074  1.00  0.00     0.142 C 
ATOM      9  C   UNL     1       1.635  -0.688  -0.603  1.00  0.00     0.076 C 
ATOM     10  C   UNL     1       0.551  -0.195   0.381  1.00  0.00     0.193 C 
ATOM     11  N   UNL     1      -0.721  -0.917   0.145  1.00  0.00    -0.328 N 
ATOM     12  C   UNL     1      -1.192   1.342  -0.344  1.00  0.00     0.081 C 
ATOM     13  C   UNL     1      -1.495  -0.090  -0.773  1.00  0.00     0.263 C 
ATOM     14  H   UNL     1      -0.490  -1.823  -0.263  1.00  0.00     0.348 HD
BRANCH  11  15
ATOM     15  C   UNL     1      -1.471  -1.441   1.311  1.00  0.00     0.302 C 
BRANCH  15  16
ATOM     16  C   UNL     1      -2.381  -0.498   2.067  1.00  0.00     0.045 A 
ATOM     17  C   UNL     1      -3.587   0.153   1.696  1.00  0.00     0.145 A 
ATOM     18  C   UNL     1      -2.302  -0.158   3.402  1.00  0.00     0.124 A 
ATOM     19  N   UNL     1      -4.051   1.006   2.622  1.00  0.00    -0.176 NA
ATOM     20  N   UNL     1      -3.204   0.850   3.655  1.00  0.00    -0.240 N 
BRANCH  20  21
ATOM     21  C   UNL     1      -3.213   1.669   4.809  1.00  0.00     0.065 A 
ATOM     22  C   UNL     1      -3.898   1.224   5.941  1.00  0.00     0.028 A 
ATOM     23  C   UNL     1      -2.301   2.732   4.909  1.00  0.00     0.028 A 
ATOM     24  C   UNL     1      -3.619   1.800   7.185  1.00  0.00     0.002 A 
ATOM     25  C   UNL     1      -2.001   3.277   6.164  1.00  0.00     0.002 A 
ATOM     26  C   UNL     1      -2.648   2.798   7.303  1.00  0.00     0.000 A 
ENDBRANCH  20  21
ENDBRANCH  15  16
ENDBRANCH  11  15
ENDBRANCH   5   8
ENDBRANCH   3   4
ENDBRANCH   2   3
ENDBRANCH   1   2
BRANCH   1  27
ATOM     27  C   UNL     1       0.009   0.341   6.218  1.00  0.00     0.002 C 
BRANCH  27  28
ATOM     28  C   UNL     1      -0.554  -1.061   6.420  1.00  0.00     0.021 C 
BRANCH  28  29
ATOM     29  C   UNL     1      -0.081  -1.745   7.687  1.00  0.00     0.116 C 
BRANCH  29  30
ATOM     30  N   UNL     1      -0.442  -1.008   8.896  1.00  0.00    -0.352 N 
ATOM     31  C   UNL     1      -1.246  -1.346   9.963  1.00  0.00     0.251 C 
ATOM     32  H   UNL     1      -0.040  -0.111   8.960  1.00  0.00     0.163 HD
ATOM     33  O   UNL     1      -1.571  -0.484  10.769  1.00  0.00    -0.269 OA
BRANCH  31  34
ATOM     34  C   UNL     1      -1.731  -2.736  10.112  1.00  0.00     0.039 A 
ATOM     35  C   UNL     1      -2.996  -2.984  10.651  1.00  0.00     0.014 A 
ATOM     36  C   UNL     1      -0.937  -3.801   9.697  1.00  0.00     0.014 A 
ATOM     37  C   UNL     1      -3.484  -4.294  10.690  1.00  0.00     0.010 A 
ATOM     38  C   UNL     1      -1.490  -5.061   9.566  1.00  0.00     0.010 A 
ATOM     39  C   UNL     1      -2.754  -5.338  10.099  1.00  0.00    -0.014 A 
BRANCH  39  40
ATOM     40  C   UNL     1      -3.235  -6.745  10.075  1.00  0.00     0.031 A 
ATOM     41  C   UNL     1      -2.351  -7.833  10.639  1.00  0.00     0.074 A 
ATOM     42  C   UNL     1      -4.399  -7.051   9.470  1.00  0.00     0.049 A 
ATOM     43  N   UNL     1      -2.488  -9.132  10.573  1.00  0.00    -0.248 NA
ATOM     44  C   UNL     1      -1.109  -7.401  11.303  1.00  0.00     0.031 C 
ATOM     45  C   UNL     1      -5.303  -6.091   8.830  1.00  0.00     0.029 A 
ATOM     46  N   UNL     1      -5.021  -8.259   9.287  1.00  0.00    -0.354 N 
ATOM     47  C   UNL     1      -1.333  -9.660  11.144  1.00  0.00     0.074 A 
ATOM     48  C   UNL     1      -0.465  -8.546  11.447  1.00  0.00     0.031 C 
ATOM     49  C   UNL     1      -6.387  -6.740   8.377  1.00  0.00     0.029 A 
ATOM     50  C   UNL     1      -6.230  -8.166   8.635  1.00  0.00     0.049 A 
ATOM     51  H   UNL     1      -4.639  -9.113   9.593  1.00  0.00     0.167 HD
ATOM     52  C   UNL     1      -1.042 -10.951  11.436  1.00  0.00     0.034 A 
ATOM     53  C   UNL     1      -7.107  -9.128   8.285  1.00  0.00     0.034 A 
ATOM     54  C   UNL     1      -1.953 -12.036  11.178  1.00  0.00     0.049 A 
ATOM     55  C   UNL     1      -6.774 -10.557   8.631  1.00  0.00     0.074 A 
ATOM     56  C   UNL     1      -1.815 -13.374  11.494  1.00  0.00     0.029 A 
ATOM     57  N   UNL     1      -3.183 -11.899  10.544  1.00  0.00    -0.354 N 
ATOM     58  N   UNL     1      -5.703 -11.037   9.223  1.00  0.00    -0.248 NA
ATOM     59  C   UNL     1      -7.771 -11.573   8.274  1.00  0.00     0.031 C 
ATOM     60  C   UNL     1      -2.927 -14.056  10.990  1.00  0.00     0.029 A 
ATOM     61  C   UNL     1      -3.800 -13.133  10.434  1.00  0.00     0.049 A 
ATOM     62  H   UNL     1      -3.560 -11.049  10.221  1.00  0.00     0.167 HD
ATOM     63  C   UNL     1      -5.913 -12.408   9.335  1.00  0.00     0.074 A 
ATOM     64  C   UNL     1      -7.221 -12.672   8.768  1.00  0.00     0.031 C 
ATOM     65  C   UNL     1      -5.103 -13.366   9.857  1.00  0.00     0.034 A 
BRANCH  52  66
ATOM     66  C   UNL     1       0.306 -11.242  12.058  1.00  0.00     0.023 A 
ATOM     67  C   UNL     1       0.696 -10.670  13.283  1.00  0.00     0.031 A 
ATOM     68  C   UNL     1       1.238 -12.060  11.395  1.00  0.00     0.131 A 
ATOM     69  C   UNL     1       2.007 -10.837  13.752  1.00  0.00     0.055 A 
ATOM     70  C   UNL     1       2.509 -12.306  11.919  1.00  0.00     0.041 A 
ATOM     71  F   UNL     1       0.938 -12.619  10.212  1.00  0.00    -0.206 F 
ATOM     72  C   UNL     1       2.908 -11.676  13.095  1.00  0.00     0.022 A 
BRANCH  69  73
ATOM     73  S   UNL     1       2.568  -9.804  15.135  1.00  0.00     0.124 S 
ATOM     74  O   UNL     1       2.374  -8.460  14.593  1.00  0.00    -0.237 OA
ATOM     75  O   UNL     1       1.664 -10.196  16.209  1.00  0.00    -0.237 OA
ATOM     76  O   UNL     1       3.963 -10.199  15.315  1.00  0.00    -0.744 OA
ENDBRANCH  69  73
ENDBRANCH  52  66
BRANCH  53  77
ATOM     77  C   UNL     1      -8.378  -8.780   7.585  1.00  0.00     0.023 A 
ATOM     78  C   UNL     1      -9.623  -9.022   8.190  1.00  0.00     0.031 A 
ATOM     79  C   UNL     1      -8.374  -8.229   6.291  1.00  0.00     0.131 A 
ATOM     80  C   UNL     1     -10.809  -8.762   7.485  1.00  0.00     0.055 A 
ATOM     81  C   UNL     1      -9.557  -7.917   5.617  1.00  0.00     0.041 A 
ATOM     82  F   UNL     1      -7.214  -7.971   5.666  1.00  0.00    -0.206 F 
ATOM     83  C   UNL     1     -10.784  -8.197   6.209  1.00  0.00     0.022 A 
BRANCH  80  84
ATOM     84  S   UNL     1     -12.387  -9.261   8.228  1.00  0.00     0.124 S 
ATOM     85  O   UNL     1     -12.177 -10.689   8.437  1.00  0.00    -0.237 OA
ATOM     86  O   UNL     1     -12.430  -8.436   9.430  1.00  0.00    -0.237 OA
ATOM     87  O   UNL     1     -13.369  -8.917   7.202  1.00  0.00    -0.744 OA
ENDBRANCH  80  84
ENDBRANCH  53  77
BRANCH  65  88
ATOM     88  C   UNL     1      -5.636 -14.776   9.872  1.00  0.00     0.023 A 
ATOM     89  C   UNL     1      -5.869 -15.489   8.684  1.00  0.00     0.031 A 
ATOM     90  C   UNL     1      -5.915 -15.414  11.094  1.00  0.00     0.131 A 
ATOM     91  C   UNL     1      -6.422 -16.775   8.741  1.00  0.00     0.055 A 
ATOM     92  C   UNL     1      -6.398 -16.720  11.146  1.00  0.00     0.041 A 
ATOM     93  F   UNL     1      -5.712 -14.777  12.259  1.00  0.00    -0.206 F 
ATOM     94  C   UNL     1      -6.668 -17.404   9.964  1.00  0.00     0.022 A 
BRANCH  91  95
ATOM     95  S   UNL     1      -6.912 -17.576   7.190  1.00  0.00     0.124 S 
ATOM     96  O   UNL     1      -7.867 -16.618   6.643  1.00  0.00    -0.237 OA
ATOM     97  O   UNL     1      -5.642 -17.686   6.480  1.00  0.00    -0.237 OA
ATOM     98  O   UNL     1      -7.489 -18.846   7.628  1.00  0.00    -0.744 OA
ENDBRANCH  91  95
ENDBRANCH  65  88
ENDBRANCH  39  40
ENDBRANCH  31  34
ENDBRANCH  29  30
ENDBRANCH  28  29
ENDBRANCH  27  28
ENDBRANCH   1  27
TORSDOF 19
