REMARK SMILES Cc1c(NC(=O)[C@@H]2CC=CC[C@@H]2C(=O)NCCCCCCNC(=O)c2ccc(-c3c4nc(c(-c5cc(S(=O)(=O)[O-])ccc5F)c5ccc([nH]5)c(-c5cc(S(=O)(=O)[O-])ccc5F)c5nc(c(-c6cc(S(=O)(=O)[O-])ccc6F)c6ccc3[nH]6)C=C5)C=C4)cc2)cccc1C(=O)N1CCOCC1
REMARK SMILES IDX 18 1 17 2 16 3 15 4 13 5 14 6 12 8 7 9 8 10 9 11 11 12 10 13
REMARK SMILES IDX 5 14 4 15 6 17 3 18 1 19 2 20 91 21 88 22 90 23 89 24 92 25
REMARK SMILES IDX 93 26 94 27 95 28 99 29 96 30 98 31 97 32 19 33 20 34 21 35
REMARK SMILES IDX 22 36 23 37 24 39 25 40 26 41 87 42 27 43 86 44 28 45 29 46
REMARK SMILES IDX 30 47 80 48 31 49 85 50 79 51 81 52 32 53 84 54 78 55 77 56
REMARK SMILES IDX 33 58 65 59 45 60 64 61 46 62 49 63 63 64 82 65 47 66 48 67
REMARK SMILES IDX 62 69 83 70 50 71 34 72 35 73 43 74 36 75 42 76 44 77 41 78
REMARK SMILES IDX 37 79 38 80 39 81 40 82 66 83 67 84 75 85 68 86 74 87 76 88
REMARK SMILES IDX 73 89 69 90 70 91 71 92 72 93 51 94 52 95 60 96 53 97 59 98
REMARK SMILES IDX 61 99 58 100 54 101 55 102 56 103 57 104
REMARK H PARENT 15 7 4 16 22 38 81 57 49 68
REMARK Flexibility Score: inf
ROOT
ATOM      1  C   UNL     1      -6.139  -5.018   1.782  1.00  0.00     0.002 C 
ENDROOT
BRANCH   1   2
ATOM      2  C   UNL     1      -4.653  -4.644   1.752  1.00  0.00     0.021 C 
BRANCH   2   3
ATOM      3  C   UNL     1      -4.010  -4.613   0.364  1.00  0.00     0.116 C 
BRANCH   3   4
ATOM      4  N   UNL     1      -4.250  -3.365  -0.332  1.00  0.00    -0.356 N 
ATOM      5  C   UNL     1      -3.505  -2.441  -0.976  1.00  0.00     0.224 C 
ATOM      6  O   UNL     1      -4.185  -1.587  -1.571  1.00  0.00    -0.275 OA
ATOM      7  H   UNL     1      -5.206  -3.128  -0.335  1.00  0.00     0.163 HD
BRANCH   5   8
ATOM      8  C   UNL     1      -1.966  -2.369  -1.123  1.00  0.00     0.095 C 
ATOM      9  C   UNL     1      -0.991  -3.218  -0.275  1.00  0.00     0.095 C 
ATOM     10  C   UNL     1      -1.175  -2.892   1.216  1.00  0.00     0.041 C 
ATOM     11  C   UNL     1      -1.130  -1.407   1.459  1.00  0.00    -0.030 C 
ATOM     12  C   UNL     1      -1.539  -0.882  -0.954  1.00  0.00     0.041 C 
ATOM     13  C   UNL     1      -1.267  -0.504   0.478  1.00  0.00    -0.030 C 
BRANCH   9  14
ATOM     14  C   UNL     1      -1.000  -4.670  -0.732  1.00  0.00     0.228 C 
ATOM     15  N   UNL     1      -0.314  -5.675  -0.137  1.00  0.00    -0.326 N 
ATOM     16  H   UNL     1      -0.645  -6.557  -0.421  1.00  0.00     0.169 HD
ATOM     17  O   UNL     1      -1.680  -5.021  -1.706  1.00  0.00    -0.274 OA
BRANCH  15  18
ATOM     18  C   UNL     1       0.746  -5.791   0.778  1.00  0.00     0.044 A 
ATOM     19  C   UNL     1      -0.165  -8.087   1.297  1.00  0.00     0.047 C 
ATOM     20  C   UNL     1       0.935  -7.058   1.403  1.00  0.00    -0.015 A 
ATOM     21  C   UNL     1       2.101  -7.288   2.171  1.00  0.00     0.045 A 
ATOM     22  C   UNL     1       1.646  -4.755   1.028  1.00  0.00     0.026 A 
ATOM     23  C   UNL     1       2.972  -6.214   2.420  1.00  0.00     0.014 A 
ATOM     24  C   UNL     1       2.735  -4.955   1.874  1.00  0.00     0.003 A 
BRANCH  21  25
ATOM     25  C   UNL     1       2.408  -8.549   2.916  1.00  0.00     0.254 C 
ATOM     26  O   UNL     1       2.895  -8.436   4.042  1.00  0.00    -0.269 OA
ATOM     27  N   UNL     1       2.115  -9.802   2.389  1.00  0.00    -0.334 N 
ATOM     28  C   UNL     1       2.233 -10.207   0.985  1.00  0.00     0.148 C 
ATOM     29  C   UNL     1       2.006 -10.922   3.325  1.00  0.00     0.148 C 
ATOM     30  C   UNL     1       1.183 -11.271   0.612  1.00  0.00     0.181 C 
ATOM     31  C   UNL     1       0.895 -11.873   2.878  1.00  0.00     0.181 C 
ATOM     32  O   UNL     1       1.157 -12.358   1.550  1.00  0.00    -0.378 OA
ENDBRANCH  21  25
ENDBRANCH  15  18
ENDBRANCH   9  14
ENDBRANCH   5   8
ENDBRANCH   3   4
ENDBRANCH   2   3
ENDBRANCH   1   2
BRANCH   1  33
ATOM     33  C   UNL     1      -6.532  -6.345   1.112  1.00  0.00     0.002 C 
BRANCH  33  34
ATOM     34  C   UNL     1      -5.651  -7.555   1.429  1.00  0.00     0.021 C 
BRANCH  34  35
ATOM     35  C   UNL     1      -5.696  -7.999   2.885  1.00  0.00     0.116 C 
BRANCH  35  36
ATOM     36  N   UNL     1      -6.695  -9.008   3.177  1.00  0.00    -0.352 N 
ATOM     37  C   UNL     1      -7.075  -9.554   4.405  1.00  0.00     0.251 C 
ATOM     38  H   UNL     1      -7.177  -9.360   2.394  1.00  0.00     0.163 HD
ATOM     39  O   UNL     1      -7.841 -10.492   4.445  1.00  0.00    -0.269 OA
BRANCH  37  40
ATOM     40  C   UNL     1      -6.594  -8.919   5.660  1.00  0.00     0.039 A 
ATOM     41  C   UNL     1      -7.521  -8.696   6.689  1.00  0.00     0.014 A 
ATOM     42  C   UNL     1      -5.306  -8.415   5.765  1.00  0.00     0.014 A 
ATOM     43  C   UNL     1      -7.216  -7.797   7.715  1.00  0.00     0.010 A 
ATOM     44  C   UNL     1      -5.043  -7.446   6.708  1.00  0.00     0.010 A 
ATOM     45  C   UNL     1      -6.009  -7.106   7.662  1.00  0.00    -0.014 A 
BRANCH  45  46
ATOM     46  C   UNL     1      -5.652  -5.962   8.493  1.00  0.00     0.031 A 
ATOM     47  C   UNL     1      -4.543  -6.067   9.467  1.00  0.00     0.074 A 
ATOM     48  C   UNL     1      -6.163  -4.750   8.190  1.00  0.00     0.049 A 
ATOM     49  N   UNL     1      -4.231  -5.152  10.319  1.00  0.00    -0.248 NA
ATOM     50  C   UNL     1      -3.711  -7.258   9.586  1.00  0.00     0.031 C 
ATOM     51  C   UNL     1      -5.602  -3.445   8.525  1.00  0.00     0.029 A 
ATOM     52  N   UNL     1      -7.440  -4.466   7.711  1.00  0.00    -0.354 N 
ATOM     53  C   UNL     1      -3.026  -5.489  10.891  1.00  0.00     0.074 A 
ATOM     54  C   UNL     1      -2.786  -6.844  10.457  1.00  0.00     0.031 C 
ATOM     55  C   UNL     1      -6.576  -2.525   8.477  1.00  0.00     0.029 A 
ATOM     56  C   UNL     1      -7.826  -3.238   8.292  1.00  0.00     0.049 A 
ATOM     57  H   UNL     1      -7.970  -5.015   7.090  1.00  0.00     0.167 HD
ATOM     58  C   UNL     1      -2.333  -4.532  11.572  1.00  0.00     0.034 A 
ATOM     59  C   UNL     1      -8.895  -3.173   9.141  1.00  0.00     0.034 A 
ATOM     60  C   UNL     1      -3.118  -3.301  11.710  1.00  0.00     0.049 A 
ATOM     61  C   UNL     1      -8.565  -2.709  10.548  1.00  0.00     0.074 A 
ATOM     62  C   UNL     1      -3.114  -2.058  11.100  1.00  0.00     0.029 A 
ATOM     63  N   UNL     1      -4.269  -3.346  12.472  1.00  0.00    -0.354 N 
ATOM     64  N   UNL     1      -7.359  -2.461  10.980  1.00  0.00    -0.248 NA
ATOM     65  C   UNL     1      -9.567  -2.576  11.608  1.00  0.00     0.031 C 
ATOM     66  C   UNL     1      -4.296  -1.367  11.501  1.00  0.00     0.029 A 
ATOM     67  C   UNL     1      -5.000  -2.183  12.368  1.00  0.00     0.049 A 
ATOM     68  H   UNL     1      -4.535  -4.117  13.024  1.00  0.00     0.167 HD
ATOM     69  C   UNL     1      -7.394  -2.243  12.333  1.00  0.00     0.074 A 
ATOM     70  C   UNL     1      -8.802  -2.301  12.679  1.00  0.00     0.031 C 
ATOM     71  C   UNL     1      -6.263  -2.096  13.083  1.00  0.00     0.034 A 
BRANCH  58  72
ATOM     72  C   UNL     1      -0.875  -4.595  11.979  1.00  0.00     0.023 A 
ATOM     73  C   UNL     1      -0.220  -3.383  12.293  1.00  0.00     0.031 A 
ATOM     74  C   UNL     1      -0.059  -5.741  12.042  1.00  0.00     0.131 A 
ATOM     75  C   UNL     1       1.160  -3.330  12.559  1.00  0.00     0.055 A 
ATOM     76  C   UNL     1       1.322  -5.688  12.278  1.00  0.00     0.041 A 
ATOM     77  F   UNL     1      -0.549  -6.978  11.930  1.00  0.00    -0.206 F 
ATOM     78  C   UNL     1       1.943  -4.477  12.527  1.00  0.00     0.022 A 
BRANCH  75  79
ATOM     79  S   UNL     1       1.921  -1.727  12.923  1.00  0.00     0.124 S 
ATOM     80  O   UNL     1       1.605  -0.957  11.725  1.00  0.00    -0.237 OA
ATOM     81  O   UNL     1       1.234  -1.332  14.148  1.00  0.00    -0.237 OA
ATOM     82  O   UNL     1       3.337  -2.055  13.088  1.00  0.00    -0.744 OA
ENDBRANCH  75  79
ENDBRANCH  58  72
BRANCH  59  83
ATOM     83  C   UNL     1      -9.950  -4.169   8.792  1.00  0.00     0.023 A 
ATOM     84  C   UNL     1     -10.544  -4.065   7.517  1.00  0.00     0.031 A 
ATOM     85  C   UNL     1     -10.038  -5.397   9.465  1.00  0.00     0.131 A 
ATOM     86  C   UNL     1     -11.056  -5.207   6.886  1.00  0.00     0.055 A 
ATOM     87  C   UNL     1     -10.607  -6.519   8.853  1.00  0.00     0.041 A 
ATOM     88  F   UNL     1      -9.458  -5.565  10.662  1.00  0.00    -0.206 F 
ATOM     89  C   UNL     1     -11.078  -6.439   7.542  1.00  0.00     0.022 A 
BRANCH  86  90
ATOM     90  S   UNL     1     -11.441  -5.112   5.112  1.00  0.00     0.124 S 
ATOM     91  O   UNL     1     -12.754  -4.478   5.121  1.00  0.00    -0.237 OA
ATOM     92  O   UNL     1     -10.342  -4.300   4.593  1.00  0.00    -0.237 OA
ATOM     93  O   UNL     1     -11.420  -6.509   4.684  1.00  0.00    -0.744 OA
ENDBRANCH  86  90
ENDBRANCH  59  83
BRANCH  71  94
ATOM     94  C   UNL     1      -6.268  -1.905  14.576  1.00  0.00     0.023 A 
ATOM     95  C   UNL     1      -7.165  -1.034  15.211  1.00  0.00     0.031 A 
ATOM     96  C   UNL     1      -5.307  -2.531  15.404  1.00  0.00     0.131 A 
ATOM     97  C   UNL     1      -7.117  -0.851  16.605  1.00  0.00     0.055 A 
ATOM     98  C   UNL     1      -5.205  -2.278  16.773  1.00  0.00     0.041 A 
ATOM     99  F   UNL     1      -4.459  -3.455  14.926  1.00  0.00    -0.206 F 
ATOM    100  C   UNL     1      -6.120  -1.438  17.385  1.00  0.00     0.022 A 
BRANCH  97 101
ATOM    101  S   UNL     1      -8.431   0.107  17.401  1.00  0.00     0.124 S 
ATOM    102  O   UNL     1      -8.387   1.374  16.680  1.00  0.00    -0.237 OA
ATOM    103  O   UNL     1      -9.601  -0.730  17.144  1.00  0.00    -0.237 OA
ATOM    104  O   UNL     1      -8.015   0.172  18.800  1.00  0.00    -0.744 OA
ENDBRANCH  97 101
ENDBRANCH  71  94
ENDBRANCH  45  46
ENDBRANCH  37  40
ENDBRANCH  35  36
ENDBRANCH  34  35
ENDBRANCH  33  34
ENDBRANCH   1  33
TORSDOF 19
