REMARK SMILES COC(=O)[C@@H]1CN(C(=O)NC(=O)CCCC(=O)NCCCCCCNC(=O)c2ccc(-c3c4nc(c(-c5cc(S(=O)(=O)[O-])ccc5F)c5ccc([nH]5)c(-c5cc(S(=O)(=O)[O-])ccc5F)c5nc(c(-c6cc(S(=O)(=O)[O-])ccc6F)c6ccc3[nH]6)C=C5)C=C4)cc2)C[C@H]1C
REMARK SMILES IDX 20 1 19 2 18 3 16 4 17 5 15 7 14 8 13 9 11 10 8 11 9 12
REMARK SMILES IDX 10 13 12 15 7 16 5 17 6 18 92 19 91 20 93 21 3 22 4 23 2 24
REMARK SMILES IDX 1 25 21 26 22 27 23 28 24 29 25 30 26 31 27 33 28 34 29 35
REMARK SMILES IDX 90 36 30 37 89 38 31 39 32 40 33 41 83 42 34 43 88 44 82 45
REMARK SMILES IDX 84 46 35 47 87 48 81 49 80 50 36 52 68 53 48 54 67 55 49 56
REMARK SMILES IDX 52 57 66 58 85 59 50 60 51 61 65 63 86 64 53 65 37 66 38 67
REMARK SMILES IDX 46 68 39 69 45 70 47 71 44 72 40 73 41 74 42 75 43 76 69 77
REMARK SMILES IDX 70 78 78 79 71 80 77 81 79 82 76 83 72 84 73 85 74 86 75 87
REMARK SMILES IDX 54 88 55 89 63 90 56 91 62 92 64 93 61 94 57 95 58 96 59 97
REMARK SMILES IDX 60 98
REMARK H PARENT 18 6 10 14 25 32 84 51 52 62
REMARK Flexibility Score: inf
ROOT
ATOM      1  C   UNL     1       4.925  -1.285  -1.464  1.00  0.00     0.021 C 
ENDROOT
BRANCH   1   2
ATOM      2  C   UNL     1       4.862  -0.120  -2.465  1.00  0.00     0.116 C 
BRANCH   2   3
ATOM      3  N   UNL     1       3.423  -0.178  -3.248  1.00  0.00    -0.356 N 
ATOM      4  C   UNL     1       1.833   0.937  -3.570  1.00  0.00     0.220 C 
ATOM      5  O   UNL     1       0.732   0.644  -4.095  1.00  0.00    -0.275 OA
ATOM      6  H   UNL     1       3.322  -1.046  -3.701  1.00  0.00     0.163 HD
BRANCH   4   7
ATOM      7  C   UNL     1       1.637   2.678  -3.077  1.00  0.00     0.100 C 
BRANCH   7   8
ATOM      8  C   UNL     1       1.773   3.423  -1.700  1.00  0.00     0.020 C 
BRANCH   8   9
ATOM      9  C   UNL     1       2.888   3.261  -0.646  1.00  0.00     0.101 C 
BRANCH   9  10
ATOM     10  C   UNL     1       4.322   3.588  -0.953  1.00  0.00     0.227 C 
ATOM     11  C   UNL     1       4.471   2.717  -3.289  1.00  0.00     0.324 C 
ATOM     12  O   UNL     1       5.001   3.006  -4.365  1.00  0.00    -0.248 OA
ATOM     13  N   UNL     1       4.831   3.423  -2.198  1.00  0.00    -0.278 N 
ATOM     14  H   UNL     1       5.657   3.940  -2.339  1.00  0.00     0.174 HD
ATOM     15  O   UNL     1       5.084   3.952  -0.053  1.00  0.00    -0.275 OA
BRANCH  11  16
ATOM     16  N   UNL     1       3.572   1.688  -3.207  1.00  0.00    -0.323 N 
ATOM     17  C   UNL     1       1.760  -0.961  -2.712  1.00  0.00     0.123 C 
ATOM     18  C   UNL     1       2.577   0.672  -1.796  1.00  0.00     0.137 C 
ATOM     19  C   UNL     1       2.232  -0.835  -4.690  1.00  0.00     0.021 C 
ATOM     20  C   UNL     1       3.351   0.818  -4.925  1.00  0.00     0.125 C 
ATOM     21  C   UNL     1       2.982  -2.075  -5.265  1.00  0.00     0.010 C 
BRANCH  17  22
ATOM     22  C   UNL     1       0.301  -1.327  -2.469  1.00  0.00     0.310 C 
ATOM     23  O   UNL     1      -0.377  -1.845  -3.355  1.00  0.00    -0.252 OA
BRANCH  22  24
ATOM     24  O   UNL     1      -0.193  -1.273  -1.211  1.00  0.00    -0.469 OA
ATOM     25  C   UNL     1       0.480  -0.736  -0.069  1.00  0.00     0.282 C 
ENDBRANCH  22  24
ENDBRANCH  17  22
ENDBRANCH  11  16
ENDBRANCH   9  10
ENDBRANCH   8   9
ENDBRANCH   7   8
ENDBRANCH   4   7
ENDBRANCH   2   3
ENDBRANCH   1   2
BRANCH   1  26
ATOM     26  C   UNL     1       5.559  -2.539  -2.039  1.00  0.00     0.002 C 
BRANCH  26  27
ATOM     27  C   UNL     1       7.029  -2.346  -2.413  1.00  0.00     0.002 C 
BRANCH  27  28
ATOM     28  C   UNL     1       7.877  -1.700  -1.312  1.00  0.00     0.021 C 
BRANCH  28  29
ATOM     29  C   UNL     1       7.743  -2.371   0.050  1.00  0.00     0.116 C 
BRANCH  29  30
ATOM     30  N   UNL     1       7.995  -3.797  -0.045  1.00  0.00    -0.352 N 
ATOM     31  C   UNL     1       8.945  -4.536   0.602  1.00  0.00     0.251 C 
ATOM     32  H   UNL     1       7.404  -4.296  -0.654  1.00  0.00     0.163 HD
ATOM     33  O   UNL     1       9.239  -5.652   0.191  1.00  0.00    -0.269 OA
BRANCH  31  34
ATOM     34  C   UNL     1       9.602  -3.960   1.788  1.00  0.00     0.039 A 
ATOM     35  C   UNL     1      10.979  -4.112   1.934  1.00  0.00     0.014 A 
ATOM     36  C   UNL     1       8.850  -3.276   2.751  1.00  0.00     0.014 A 
ATOM     37  C   UNL     1      11.606  -3.569   3.051  1.00  0.00     0.010 A 
ATOM     38  C   UNL     1       9.492  -2.652   3.810  1.00  0.00     0.010 A 
ATOM     39  C   UNL     1      10.871  -2.826   3.990  1.00  0.00    -0.014 A 
BRANCH  39  40
ATOM     40  C   UNL     1      11.534  -2.277   5.197  1.00  0.00     0.031 A 
ATOM     41  C   UNL     1      11.123  -2.761   6.561  1.00  0.00     0.074 A 
ATOM     42  C   UNL     1      12.488  -1.338   5.059  1.00  0.00     0.049 A 
ATOM     43  N   UNL     1      11.585  -2.415   7.734  1.00  0.00    -0.248 NA
ATOM     44  C   UNL     1      10.024  -3.736   6.615  1.00  0.00     0.031 C 
ATOM     45  C   UNL     1      12.923  -0.761   3.784  1.00  0.00     0.029 A 
ATOM     46  N   UNL     1      13.267  -0.708   5.993  1.00  0.00    -0.354 N 
ATOM     47  C   UNL     1      10.825  -3.118   8.663  1.00  0.00     0.074 A 
ATOM     48  C   UNL     1       9.823  -3.847   7.918  1.00  0.00     0.031 C 
ATOM     49  C   UNL     1      13.919   0.108   4.014  1.00  0.00     0.029 A 
ATOM     50  C   UNL     1      14.158   0.189   5.452  1.00  0.00     0.049 A 
ATOM     51  H   UNL     1      13.195  -0.880   6.959  1.00  0.00     0.167 HD
ATOM     52  C   UNL     1      10.970  -3.170  10.010  1.00  0.00     0.034 A 
ATOM     53  C   UNL     1      15.059   0.992   6.049  1.00  0.00     0.034 A 
ATOM     54  C   UNL     1      11.985  -2.435  10.725  1.00  0.00     0.049 A 
ATOM     55  C   UNL     1      15.198   0.928   7.548  1.00  0.00     0.074 A 
ATOM     56  C   UNL     1      12.272  -2.457  12.077  1.00  0.00     0.029 A 
ATOM     57  N   UNL     1      12.869  -1.530  10.147  1.00  0.00    -0.354 N 
ATOM     58  N   UNL     1      14.521   0.204   8.410  1.00  0.00    -0.248 NA
ATOM     59  C   UNL     1      16.232   1.775   8.150  1.00  0.00     0.031 C 
ATOM     60  C   UNL     1      13.259  -1.499  12.330  1.00  0.00     0.029 A 
ATOM     61  C   UNL     1      13.669  -0.955  11.122  1.00  0.00     0.049 A 
ATOM     62  H   UNL     1      12.919  -1.328   9.184  1.00  0.00     0.167 HD
ATOM     63  C   UNL     1      15.070   0.488   9.658  1.00  0.00     0.074 A 
ATOM     64  C   UNL     1      16.144   1.434   9.427  1.00  0.00     0.031 C 
ATOM     65  C   UNL     1      14.723   0.005  10.880  1.00  0.00     0.034 A 
BRANCH  52  66
ATOM     66  C   UNL     1       9.980  -4.012  10.785  1.00  0.00     0.023 A 
ATOM     67  C   UNL     1       9.833  -5.393  10.554  1.00  0.00     0.031 A 
ATOM     68  C   UNL     1       9.131  -3.416  11.733  1.00  0.00     0.131 A 
ATOM     69  C   UNL     1       8.801  -6.104  11.185  1.00  0.00     0.055 A 
ATOM     70  C   UNL     1       8.172  -4.151  12.433  1.00  0.00     0.041 A 
ATOM     71  F   UNL     1       9.200  -2.098  11.981  1.00  0.00    -0.206 F 
ATOM     72  C   UNL     1       7.989  -5.500  12.146  1.00  0.00     0.022 A 
BRANCH  69  73
ATOM     73  S   UNL     1       8.414  -7.775  10.592  1.00  0.00     0.124 S 
ATOM     74  O   UNL     1       8.161  -7.532   9.173  1.00  0.00    -0.237 OA
ATOM     75  O   UNL     1       9.631  -8.512  10.907  1.00  0.00    -0.237 OA
ATOM     76  O   UNL     1       7.235  -8.151  11.370  1.00  0.00    -0.744 OA
ENDBRANCH  69  73
ENDBRANCH  52  66
BRANCH  53  77
ATOM     77  C   UNL     1      15.883   1.927   5.230  1.00  0.00     0.023 A 
ATOM     78  C   UNL     1      17.277   1.794   5.143  1.00  0.00     0.031 A 
ATOM     79  C   UNL     1      15.275   2.982   4.524  1.00  0.00     0.131 A 
ATOM     80  C   UNL     1      18.022   2.722   4.397  1.00  0.00     0.055 A 
ATOM     81  C   UNL     1      16.014   3.867   3.738  1.00  0.00     0.041 A 
ATOM     82  F   UNL     1      13.944   3.151   4.569  1.00  0.00    -0.206 F 
ATOM     83  C   UNL     1      17.398   3.746   3.680  1.00  0.00     0.022 A 
BRANCH  80  84
ATOM     84  S   UNL     1      19.832   2.619   4.435  1.00  0.00     0.124 S 
ATOM     85  O   UNL     1      20.108   2.765   5.860  1.00  0.00    -0.237 OA
ATOM     86  O   UNL     1      20.073   1.297   3.866  1.00  0.00    -0.237 OA
ATOM     87  O   UNL     1      20.254   3.741   3.599  1.00  0.00    -0.744 OA
ENDBRANCH  80  84
ENDBRANCH  53  77
BRANCH  65  88
ATOM     88  C   UNL     1      15.551   0.465  12.059  1.00  0.00     0.023 A 
ATOM     89  C   UNL     1      15.597   1.812  12.457  1.00  0.00     0.031 A 
ATOM     90  C   UNL     1      16.324  -0.462  12.782  1.00  0.00     0.131 A 
ATOM     91  C   UNL     1      16.454   2.205  13.495  1.00  0.00     0.055 A 
ATOM     92  C   UNL     1      17.112  -0.077  13.867  1.00  0.00     0.041 A 
ATOM     93  F   UNL     1      16.327  -1.762  12.445  1.00  0.00    -0.206 F 
ATOM     94  C   UNL     1      17.194   1.266  14.218  1.00  0.00     0.022 A 
BRANCH  91  95
ATOM     95  S   UNL     1      16.693   3.977  13.801  1.00  0.00     0.124 S 
ATOM     96  O   UNL     1      17.131   4.452  12.492  1.00  0.00    -0.237 OA
ATOM     97  O   UNL     1      15.362   4.403  14.221  1.00  0.00    -0.237 OA
ATOM     98  O   UNL     1      17.714   4.010  14.846  1.00  0.00    -0.744 OA
ENDBRANCH  91  95
ENDBRANCH  65  88
ENDBRANCH  39  40
ENDBRANCH  31  34
ENDBRANCH  29  30
ENDBRANCH  28  29
ENDBRANCH  27  28
ENDBRANCH  26  27
ENDBRANCH   1  26
TORSDOF 22
