REMARK SMILES CCN(c1cccc(C)c1)c1nc(OCC(=O)NCCCCCCNC(=O)c2ccc(-c3c4nc(c(-c5cc(S(=O)(=O)[O-])ccc5F)c5ccc([nH]5)c(-c5cc(S(=O)(=O)[O-])ccc5F)c5nc(c(-c6cc(S(=O)(=O)[O-])ccc6F)c6ccc3[nH]6)C=C5)C=C4)cc2)cc(-c2ccc(C)cc2)n1
REMARK SMILES IDX 21 1 20 2 19 3 18 4 16 5 17 6 15 8 14 9 13 10 11 11 12 12
REMARK SMILES IDX 100 13 92 14 91 15 3 16 2 17 1 18 4 19 5 20 10 21 6 22 8 23
REMARK SMILES IDX 7 24 9 25 93 26 94 27 99 28 95 29 98 30 96 31 97 32 22 33
REMARK SMILES IDX 23 34 24 35 25 36 26 37 27 39 28 40 29 41 90 42 30 43 89 44
REMARK SMILES IDX 31 45 32 46 33 47 83 48 34 49 88 50 82 51 84 52 35 53 87 54
REMARK SMILES IDX 81 55 80 56 36 58 68 59 48 60 67 61 49 62 52 63 66 64 85 65
REMARK SMILES IDX 50 66 51 67 65 69 86 70 53 71 37 72 38 73 46 74 39 75 45 76
REMARK SMILES IDX 47 77 44 78 40 79 41 80 42 81 43 82 69 83 70 84 78 85 71 86
REMARK SMILES IDX 77 87 79 88 76 89 72 90 73 91 74 92 75 93 54 94 55 95 63 96
REMARK SMILES IDX 56 97 62 98 64 99 61 100 57 101 58 102 59 103 60 104
REMARK H PARENT 18 7 25 38 84 57 52 68
REMARK Flexibility Score: inf
ROOT
ATOM      1  C   UNL     1       5.374   0.489   6.491  1.00  0.00     0.002 C 
ENDROOT
BRANCH   1   2
ATOM      2  C   UNL     1       4.688   1.781   6.022  1.00  0.00     0.021 C 
BRANCH   2   3
ATOM      3  C   UNL     1       5.597   2.990   5.811  1.00  0.00     0.116 C 
BRANCH   3   4
ATOM      4  N   UNL     1       6.649   2.741   4.846  1.00  0.00    -0.353 N 
ATOM      5  C   UNL     1       6.941   3.432   3.711  1.00  0.00     0.258 C 
ATOM      6  O   UNL     1       7.949   3.131   3.067  1.00  0.00    -0.271 OA
ATOM      7  H   UNL     1       7.230   1.970   5.037  1.00  0.00     0.163 HD
BRANCH   5   8
ATOM      8  C   UNL     1       6.035   4.587   3.258  1.00  0.00     0.331 C 
BRANCH   8   9
ATOM      9  O   UNL     1       4.654   4.333   3.090  1.00  0.00    -0.467 OA
BRANCH   9  10
ATOM     10  C   UNL     1       4.272   3.400   2.171  1.00  0.00     0.219 A 
ATOM     11  C   UNL     1       2.445   2.229   1.374  1.00  0.00     0.233 A 
ATOM     12  N   UNL     1       2.951   3.176   2.184  1.00  0.00    -0.177 NA
ATOM     13  N   UNL     1       3.216   1.523   0.531  1.00  0.00    -0.212 NA
ATOM     14  C   UNL     1       4.530   1.802   0.496  1.00  0.00     0.080 A 
ATOM     15  C   UNL     1       5.110   2.751   1.306  1.00  0.00     0.097 A 
BRANCH  11  16
ATOM     16  N   UNL     1       1.057   2.010   1.392  1.00  0.00    -0.311 N 
BRANCH  16  17
ATOM     17  C   UNL     1       0.637   0.601   1.370  1.00  0.00     0.122 C 
ATOM     18  C   UNL     1       0.724  -0.030  -0.015  1.00  0.00     0.028 C 
ENDBRANCH  16  17
BRANCH  16  19
ATOM     19  C   UNL     1       0.088   3.024   1.513  1.00  0.00     0.044 A 
ATOM     20  C   UNL     1      -1.050   2.902   2.322  1.00  0.00     0.026 A 
ATOM     21  C   UNL     1       0.244   4.231   0.803  1.00  0.00     0.029 A 
ATOM     22  C   UNL     1      -1.999   3.927   2.402  1.00  0.00     0.002 A 
ATOM     23  C   UNL     1      -0.705   5.265   0.866  1.00  0.00    -0.049 A 
ATOM     24  C   UNL     1      -1.831   5.101   1.672  1.00  0.00     0.003 A 
ATOM     25  C   UNL     1      -0.510   6.506   0.047  1.00  0.00     0.044 C 
ENDBRANCH  16  19
ENDBRANCH  11  16
BRANCH  14  26
ATOM     26  C   UNL     1       5.336   1.096  -0.503  1.00  0.00     0.000 A 
ATOM     27  C   UNL     1       6.415   0.285  -0.120  1.00  0.00     0.010 A 
ATOM     28  C   UNL     1       5.108   1.297  -1.873  1.00  0.00     0.010 A 
ATOM     29  C   UNL     1       7.269  -0.273  -1.075  1.00  0.00     0.004 A 
ATOM     30  C   UNL     1       5.967   0.748  -2.829  1.00  0.00     0.004 A 
ATOM     31  C   UNL     1       7.062  -0.030  -2.436  1.00  0.00    -0.051 A 
ATOM     32  C   UNL     1       8.011  -0.566  -3.466  1.00  0.00     0.044 C 
ENDBRANCH  14  26
ENDBRANCH   9  10
ENDBRANCH   8   9
ENDBRANCH   5   8
ENDBRANCH   3   4
ENDBRANCH   2   3
ENDBRANCH   1   2
BRANCH   1  33
ATOM     33  C   UNL     1       6.341   0.593   7.681  1.00  0.00     0.002 C 
BRANCH  33  34
ATOM     34  C   UNL     1       5.829   1.325   8.921  1.00  0.00     0.021 C 
BRANCH  34  35
ATOM     35  C   UNL     1       4.647   0.655   9.607  1.00  0.00     0.116 C 
BRANCH  35  36
ATOM     36  N   UNL     1       4.974  -0.029  10.848  1.00  0.00    -0.352 N 
ATOM     37  C   UNL     1       4.139  -0.682  11.739  1.00  0.00     0.251 C 
ATOM     38  H   UNL     1       5.928  -0.027  11.090  1.00  0.00     0.163 HD
ATOM     39  O   UNL     1       4.568  -1.069  12.817  1.00  0.00    -0.269 OA
BRANCH  37  40
ATOM     40  C   UNL     1       2.746  -1.017  11.338  1.00  0.00     0.039 A 
ATOM     41  C   UNL     1       2.280  -2.309  11.620  1.00  0.00     0.014 A 
ATOM     42  C   UNL     1       1.983  -0.165  10.546  1.00  0.00     0.014 A 
ATOM     43  C   UNL     1       1.177  -2.813  10.930  1.00  0.00     0.010 A 
ATOM     44  C   UNL     1       0.963  -0.691   9.784  1.00  0.00     0.010 A 
ATOM     45  C   UNL     1       0.593  -2.029   9.938  1.00  0.00    -0.014 A 
BRANCH  45  46
ATOM     46  C   UNL     1      -0.320  -2.537   8.925  1.00  0.00     0.031 A 
ATOM     47  C   UNL     1      -1.750  -2.174   8.940  1.00  0.00     0.074 A 
ATOM     48  C   UNL     1       0.183  -3.240   7.886  1.00  0.00     0.049 A 
ATOM     49  N   UNL     1      -2.667  -2.858   8.346  1.00  0.00    -0.248 NA
ATOM     50  C   UNL     1      -2.274  -1.016   9.658  1.00  0.00     0.031 C 
ATOM     51  C   UNL     1      -0.476  -3.551   6.621  1.00  0.00     0.029 A 
ATOM     52  N   UNL     1       1.339  -4.015   7.874  1.00  0.00    -0.354 N 
ATOM     53  C   UNL     1      -3.818  -2.110   8.353  1.00  0.00     0.074 A 
ATOM     54  C   UNL     1      -3.542  -0.999   9.235  1.00  0.00     0.031 C 
ATOM     55  C   UNL     1       0.124  -4.617   6.070  1.00  0.00     0.029 A 
ATOM     56  C   UNL     1       1.088  -5.114   7.034  1.00  0.00     0.049 A 
ATOM     57  H   UNL     1       2.174  -3.829   8.362  1.00  0.00     0.167 HD
ATOM     58  C   UNL     1      -4.835  -2.434   7.510  1.00  0.00     0.034 A 
ATOM     59  C   UNL     1       1.131  -6.390   7.518  1.00  0.00     0.034 A 
ATOM     60  C   UNL     1      -4.516  -3.607   6.705  1.00  0.00     0.049 A 
ATOM     61  C   UNL     1      -0.181  -7.131   7.385  1.00  0.00     0.074 A 
ATOM     62  C   UNL     1      -4.050  -3.764   5.409  1.00  0.00     0.029 A 
ATOM     63  N   UNL     1      -4.387  -4.843   7.323  1.00  0.00    -0.354 N 
ATOM     64  N   UNL     1      -1.328  -6.553   7.151  1.00  0.00    -0.248 NA
ATOM     65  C   UNL     1      -0.308  -8.579   7.506  1.00  0.00     0.031 C 
ATOM     66  C   UNL     1      -3.600  -5.102   5.266  1.00  0.00     0.029 A 
ATOM     67  C   UNL     1      -3.823  -5.762   6.462  1.00  0.00     0.049 A 
ATOM     68  H   UNL     1      -4.660  -5.037   8.249  1.00  0.00     0.167 HD
ATOM     69  C   UNL     1      -2.326  -7.497   7.095  1.00  0.00     0.074 A 
ATOM     70  C   UNL     1      -1.628  -8.752   7.306  1.00  0.00     0.031 C 
ATOM     71  C   UNL     1      -3.632  -7.143   6.885  1.00  0.00     0.034 A 
BRANCH  58  72
ATOM     72  C   UNL     1      -5.998  -1.524   7.220  1.00  0.00     0.023 A 
ATOM     73  C   UNL     1      -6.541  -1.492   5.919  1.00  0.00     0.031 A 
ATOM     74  C   UNL     1      -6.601  -0.667   8.158  1.00  0.00     0.131 A 
ATOM     75  C   UNL     1      -7.557  -0.586   5.572  1.00  0.00     0.055 A 
ATOM     76  C   UNL     1      -7.579   0.272   7.803  1.00  0.00     0.041 A 
ATOM     77  F   UNL     1      -6.290  -0.729   9.461  1.00  0.00    -0.206 F 
ATOM     78  C   UNL     1      -8.056   0.324   6.500  1.00  0.00     0.022 A 
BRANCH  75  79
ATOM     79  S   UNL     1      -8.221  -0.620   3.884  1.00  0.00     0.124 S 
ATOM     80  O   UNL     1      -7.033  -0.350   3.079  1.00  0.00    -0.237 OA
ATOM     81  O   UNL     1      -8.770  -1.968   3.794  1.00  0.00    -0.237 OA
ATOM     82  O   UNL     1      -9.217   0.451   3.890  1.00  0.00    -0.744 OA
ENDBRANCH  75  79
ENDBRANCH  58  72
BRANCH  59  83
ATOM     83  C   UNL     1       2.138  -6.556   8.606  1.00  0.00     0.023 A 
ATOM     84  C   UNL     1       3.476  -6.241   8.281  1.00  0.00     0.031 A 
ATOM     85  C   UNL     1       1.775  -6.560   9.959  1.00  0.00     0.131 A 
ATOM     86  C   UNL     1       4.348  -5.759   9.267  1.00  0.00     0.055 A 
ATOM     87  C   UNL     1       2.677  -6.152  10.953  1.00  0.00     0.041 A 
ATOM     88  F   UNL     1       0.513  -6.822  10.329  1.00  0.00    -0.206 F 
ATOM     89  C   UNL     1       3.952  -5.701  10.604  1.00  0.00     0.022 A 
BRANCH  86  90
ATOM     90  S   UNL     1       5.881  -4.933   8.734  1.00  0.00     0.124 S 
ATOM     91  O   UNL     1       6.808  -6.054   8.627  1.00  0.00    -0.237 OA
ATOM     92  O   UNL     1       5.489  -4.309   7.472  1.00  0.00    -0.237 OA
ATOM     93  O   UNL     1       6.155  -3.988   9.813  1.00  0.00    -0.744 OA
ENDBRANCH  86  90
ENDBRANCH  59  83
BRANCH  71  94
ATOM     94  C   UNL     1      -4.861  -8.034   6.982  1.00  0.00     0.023 A 
ATOM     95  C   UNL     1      -4.846  -9.338   7.493  1.00  0.00     0.031 A 
ATOM     96  C   UNL     1      -6.146  -7.548   6.613  1.00  0.00     0.131 A 
ATOM     97  C   UNL     1      -6.024 -10.111   7.568  1.00  0.00     0.055 A 
ATOM     98  C   UNL     1      -7.323  -8.288   6.756  1.00  0.00     0.041 A 
ATOM     99  F   UNL     1      -6.324  -6.321   6.102  1.00  0.00    -0.206 F 
ATOM    100  C   UNL     1      -7.266  -9.587   7.228  1.00  0.00     0.022 A 
BRANCH  97 101
ATOM    101  S   UNL     1      -5.881 -11.843   8.079  1.00  0.00     0.124 S 
ATOM    102  O   UNL     1      -5.056 -12.403   7.012  1.00  0.00    -0.237 OA
ATOM    103  O   UNL     1      -5.238 -11.733   9.384  1.00  0.00    -0.237 OA
ATOM    104  O   UNL     1      -7.265 -12.312   8.104  1.00  0.00    -0.744 OA
ENDBRANCH  97 101
ENDBRANCH  71  94
ENDBRANCH  45  46
ENDBRANCH  37  40
ENDBRANCH  35  36
ENDBRANCH  34  35
ENDBRANCH  33  34
ENDBRANCH   1  33
TORSDOF 22
