REMARK SMILES O=C(NCCCCCCNC(=O)c1ccc(-c2c3nc(c(-c4cc(S(=O)(=O)[O-])ccc4F)c4ccc([nH]4)c(-c4cc(S(=O)(=O)[O-])ccc4F)c4nc(c(-c5cc(S(=O)(=O)[O-])ccc5F)c5ccc2[nH]5)C=C4)C=C3)cc1)C1=Cc2cc(OC(F)(F)F)ccc2O[C@@H]1C(F)(F)F
REMARK SMILES IDX 7 1 6 2 5 3 4 4 3 5 1 6 2 7 76 9 77 10 90 11 78 12 89 13
REMARK SMILES IDX 79 14 88 15 80 16 87 17 86 18 91 19 92 20 93 21 94 22 81 23
REMARK SMILES IDX 82 24 83 25 84 26 85 27 8 28 9 29 10 30 11 31 12 33 13 34
REMARK SMILES IDX 14 35 75 36 15 37 74 38 16 39 17 40 18 41 68 42 19 43 73 44
REMARK SMILES IDX 67 45 69 46 20 47 72 48 66 49 65 50 21 52 53 53 33 54 52 55
REMARK SMILES IDX 34 56 37 57 51 58 70 59 35 60 36 61 50 63 71 64 38 65 22 66
REMARK SMILES IDX 23 67 31 68 24 69 30 70 32 71 29 72 25 73 26 74 27 75 28 76
REMARK SMILES IDX 54 77 55 78 63 79 56 80 62 81 64 82 61 83 57 84 58 85 59 86
REMARK SMILES IDX 60 87 39 88 40 89 48 90 41 91 47 92 49 93 46 94 42 95 43 96
REMARK SMILES IDX 44 97 45 98
REMARK H PARENT 3 8 10 32 69 51 37 62
REMARK Flexibility Score: inf
ROOT
ATOM      1  C   UNL     1       4.358   3.501  -3.085  1.00  0.00     0.002 C 
ENDROOT
BRANCH   1   2
ATOM      2  C   UNL     1       3.732   2.298  -3.801  1.00  0.00     0.002 C 
BRANCH   2   3
ATOM      3  C   UNL     1       4.120   0.912  -3.291  1.00  0.00     0.021 C 
BRANCH   3   4
ATOM      4  C   UNL     1       3.852   0.630  -1.818  1.00  0.00     0.116 C 
BRANCH   4   5
ATOM      5  N   UNL     1       2.552   0.060  -1.509  1.00  0.00    -0.352 N 
ATOM      6  O   UNL     1       0.970  -0.939  -0.269  1.00  0.00    -0.270 OA
ATOM      7  C   UNL     1       2.163  -0.679  -0.425  1.00  0.00     0.251 C 
ATOM      8  H   UNL     1       1.849   0.232  -2.175  1.00  0.00     0.163 HD
BRANCH   7   9
ATOM      9  C   UNL     1       3.118  -1.111   0.641  1.00  0.00     0.067 C 
ATOM     10  C   UNL     1       4.335  -1.620   0.371  1.00  0.00     0.025 C 
ATOM     11  C   UNL     1       2.929  -0.336   1.927  1.00  0.00     0.314 C 
ATOM     12  C   UNL     1       5.402  -0.621   0.662  1.00  0.00     0.021 A 
ATOM     13  O   UNL     1       3.901   0.742   2.032  1.00  0.00    -0.475 OA
ATOM     14  C   UNL     1       6.633  -0.733  -0.000  1.00  0.00     0.058 A 
ATOM     15  C   UNL     1       5.090   0.550   1.371  1.00  0.00     0.128 A 
ATOM     16  C   UNL     1       7.493   0.365  -0.058  1.00  0.00     0.130 A 
ATOM     17  C   UNL     1       5.963   1.632   1.333  1.00  0.00     0.051 A 
ATOM     18  C   UNL     1       7.155   1.547   0.605  1.00  0.00     0.050 A 
BRANCH  11  19
ATOM     19  C   UNL     1       2.934  -1.237   3.173  1.00  0.00     0.429 C 
ATOM     20  F   UNL     1       2.598  -0.542   4.286  1.00  0.00    -0.167 F 
ATOM     21  F   UNL     1       2.037  -2.247   3.060  1.00  0.00    -0.167 F 
ATOM     22  F   UNL     1       4.141  -1.805   3.403  1.00  0.00    -0.167 F 
ENDBRANCH  11  19
BRANCH  16  23
ATOM     23  O   UNL     1       8.684   0.187  -0.702  1.00  0.00    -0.406 OA
BRANCH  23  24
ATOM     24  C   UNL     1       8.929   1.090  -1.776  1.00  0.00     0.573 C 
ATOM     25  F   UNL     1       7.983   0.948  -2.735  1.00  0.00    -0.132 F 
ATOM     26  F   UNL     1       8.945   2.376  -1.368  1.00  0.00    -0.132 F 
ATOM     27  F   UNL     1      10.126   0.801  -2.326  1.00  0.00    -0.132 F 
ENDBRANCH  23  24
ENDBRANCH  16  23
ENDBRANCH   7   9
ENDBRANCH   4   5
ENDBRANCH   3   4
ENDBRANCH   2   3
ENDBRANCH   1   2
BRANCH   1  28
ATOM     28  C   UNL     1       5.878   3.488  -2.893  1.00  0.00     0.021 C 
BRANCH  28  29
ATOM     29  C   UNL     1       6.725   3.318  -4.152  1.00  0.00     0.116 C 
BRANCH  29  30
ATOM     30  N   UNL     1       6.534   4.379  -5.122  1.00  0.00    -0.352 N 
ATOM     31  C   UNL     1       7.463   5.145  -5.791  1.00  0.00     0.251 C 
ATOM     32  H   UNL     1       5.595   4.583  -5.336  1.00  0.00     0.163 HD
ATOM     33  O   UNL     1       7.075   6.078  -6.484  1.00  0.00    -0.269 OA
BRANCH  31  34
ATOM     34  C   UNL     1       8.918   4.879  -5.652  1.00  0.00     0.039 A 
ATOM     35  C   UNL     1       9.784   5.971  -5.537  1.00  0.00     0.014 A 
ATOM     36  C   UNL     1       9.444   3.583  -5.665  1.00  0.00     0.014 A 
ATOM     37  C   UNL     1      11.158   5.764  -5.379  1.00  0.00     0.010 A 
ATOM     38  C   UNL     1      10.806   3.376  -5.435  1.00  0.00     0.010 A 
ATOM     39  C   UNL     1      11.682   4.464  -5.293  1.00  0.00    -0.014 A 
BRANCH  39  40
ATOM     40  C   UNL     1      13.140   4.241  -5.073  1.00  0.00     0.031 A 
ATOM     41  C   UNL     1      13.973   3.553  -6.123  1.00  0.00     0.074 A 
ATOM     42  C   UNL     1      13.714   4.639  -3.918  1.00  0.00     0.049 A 
ATOM     43  N   UNL     1      15.244   3.238  -6.097  1.00  0.00    -0.248 NA
ATOM     44  C   UNL     1      13.282   3.146  -7.355  1.00  0.00     0.031 C 
ATOM     45  C   UNL     1      13.013   5.291  -2.810  1.00  0.00     0.029 A 
ATOM     46  N   UNL     1      15.014   4.553  -3.481  1.00  0.00    -0.354 N 
ATOM     47  C   UNL     1      15.505   2.599  -7.305  1.00  0.00     0.074 A 
ATOM     48  C   UNL     1      14.243   2.511  -8.009  1.00  0.00     0.031 C 
ATOM     49  C   UNL     1      13.893   5.568  -1.834  1.00  0.00     0.029 A 
ATOM     50  C   UNL     1      15.211   5.070  -2.220  1.00  0.00     0.049 A 
ATOM     51  H   UNL     1      15.737   4.159  -4.019  1.00  0.00     0.167 HD
ATOM     52  C   UNL     1      16.688   2.153  -7.796  1.00  0.00     0.034 A 
ATOM     53  C   UNL     1      16.319   5.123  -1.452  1.00  0.00     0.034 A 
ATOM     54  C   UNL     1      17.942   2.247  -7.086  1.00  0.00     0.049 A 
ATOM     55  C   UNL     1      17.615   4.575  -1.999  1.00  0.00     0.074 A 
ATOM     56  C   UNL     1      19.201   1.853  -7.507  1.00  0.00     0.029 A 
ATOM     57  N   UNL     1      18.098   2.763  -5.806  1.00  0.00    -0.354 N 
ATOM     58  N   UNL     1      17.848   4.011  -3.163  1.00  0.00    -0.248 NA
ATOM     59  C   UNL     1      18.799   4.681  -1.137  1.00  0.00     0.031 C 
ATOM     60  C   UNL     1      20.101   2.061  -6.457  1.00  0.00     0.029 A 
ATOM     61  C   UNL     1      19.424   2.667  -5.412  1.00  0.00     0.049 A 
ATOM     62  H   UNL     1      17.372   3.141  -5.258  1.00  0.00     0.167 HD
ATOM     63  C   UNL     1      19.212   3.729  -3.181  1.00  0.00     0.074 A 
ATOM     64  C   UNL     1      19.750   4.201  -1.923  1.00  0.00     0.031 C 
ATOM     65  C   UNL     1      19.953   3.135  -4.151  1.00  0.00     0.034 A 
BRANCH  52  66
ATOM     66  C   UNL     1      16.677   1.504  -9.161  1.00  0.00     0.023 A 
ATOM     67  C   UNL     1      16.308   2.220 -10.313  1.00  0.00     0.031 A 
ATOM     68  C   UNL     1      17.033   0.153  -9.314  1.00  0.00     0.131 A 
ATOM     69  C   UNL     1      16.235   1.566 -11.552  1.00  0.00     0.055 A 
ATOM     70  C   UNL     1      17.040  -0.471 -10.563  1.00  0.00     0.041 A 
ATOM     71  F   UNL     1      17.375  -0.589  -8.249  1.00  0.00    -0.206 F 
ATOM     72  C   UNL     1      16.625   0.233 -11.690  1.00  0.00     0.022 A 
BRANCH  69  73
ATOM     73  S   UNL     1      15.488   2.444 -12.952  1.00  0.00     0.124 S 
ATOM     74  O   UNL     1      14.153   2.739 -12.436  1.00  0.00    -0.237 OA
ATOM     75  O   UNL     1      16.376   3.588 -13.117  1.00  0.00    -0.237 OA
ATOM     76  O   UNL     1      15.527   1.462 -14.033  1.00  0.00    -0.744 OA
ENDBRANCH  69  73
ENDBRANCH  52  66
BRANCH  53  77
ATOM     77  C   UNL     1      16.259   5.689  -0.071  1.00  0.00     0.023 A 
ATOM     78  C   UNL     1      17.014   6.817   0.290  1.00  0.00     0.031 A 
ATOM     79  C   UNL     1      15.491   5.066   0.930  1.00  0.00     0.131 A 
ATOM     80  C   UNL     1      17.033   7.250   1.625  1.00  0.00     0.055 A 
ATOM     81  C   UNL     1      15.461   5.541   2.243  1.00  0.00     0.041 A 
ATOM     82  F   UNL     1      14.750   3.984   0.644  1.00  0.00    -0.206 F 
ATOM     83  C   UNL     1      16.249   6.630   2.601  1.00  0.00     0.022 A 
BRANCH  80  84
ATOM     84  S   UNL     1      18.187   8.569   2.096  1.00  0.00     0.124 S 
ATOM     85  O   UNL     1      19.465   8.008   1.673  1.00  0.00    -0.237 OA
ATOM     86  O   UNL     1      17.690   9.697   1.315  1.00  0.00    -0.237 OA
ATOM     87  O   UNL     1      18.002   8.683   3.541  1.00  0.00    -0.744 OA
ENDBRANCH  80  84
ENDBRANCH  53  77
BRANCH  65  88
ATOM     88  C   UNL     1      21.439   3.011  -3.909  1.00  0.00     0.023 A 
ATOM     89  C   UNL     1      21.961   2.203  -2.883  1.00  0.00     0.031 A 
ATOM     90  C   UNL     1      22.347   3.722  -4.714  1.00  0.00     0.131 A 
ATOM     91  C   UNL     1      23.345   2.171  -2.653  1.00  0.00     0.055 A 
ATOM     92  C   UNL     1      23.727   3.633  -4.524  1.00  0.00     0.041 A 
ATOM     93  F   UNL     1      21.908   4.513  -5.706  1.00  0.00    -0.206 F 
ATOM     94  C   UNL     1      24.233   2.866  -3.479  1.00  0.00     0.022 A 
BRANCH  91  95
ATOM     95  S   UNL     1      23.967   1.288  -1.196  1.00  0.00     0.124 S 
ATOM     96  O   UNL     1      23.265   1.964  -0.109  1.00  0.00    -0.237 OA
ATOM     97  O   UNL     1      23.553  -0.086  -1.463  1.00  0.00    -0.237 OA
ATOM     98  O   UNL     1      25.409   1.520  -1.243  1.00  0.00    -0.744 OA
ENDBRANCH  91  95
ENDBRANCH  65  88
ENDBRANCH  39  40
ENDBRANCH  31  34
ENDBRANCH  29  30
ENDBRANCH  28  29
ENDBRANCH   1  28
TORSDOF 19
