REMARK SMILES O=C(CCN1C(=O)/C(=C/c2cc(Br)cc(Br)c2O)SC1=S)NCCCCCCNC(=O)c1ccc(-c2c3nc(c(-c4cc(S(=O)(=O)[O-])ccc4F)c4ccc([nH]4)c(-c4cc(S(=O)(=O)[O-])ccc4F)c4nc(c(-c5cc(S(=O)(=O)[O-])ccc5F)c5ccc2[nH]5)C=C4)C=C3)cc1
REMARK SMILES IDX 25 1 24 2 23 3 22 4 1 5 2 6 3 8 4 9 5 10 6 11 20 12 7 13
REMARK SMILES IDX 8 14 19 15 21 16 9 17 10 18 11 19 17 20 12 21 15 22 13 23
REMARK SMILES IDX 14 24 16 25 18 26 26 28 27 29 28 30 29 31 30 32 31 34 32 35
REMARK SMILES IDX 33 36 94 37 34 38 93 39 35 40 36 41 37 42 87 43 38 44 92 45
REMARK SMILES IDX 86 46 88 47 39 48 91 49 85 50 84 51 40 53 72 54 52 55 71 56
REMARK SMILES IDX 53 57 56 58 70 59 89 60 54 61 55 62 69 64 90 65 57 66 41 67
REMARK SMILES IDX 42 68 50 69 43 70 49 71 51 72 48 73 44 74 45 75 46 76 47 77
REMARK SMILES IDX 73 78 74 79 82 80 75 81 81 82 83 83 80 84 76 85 77 86 78 87
REMARK SMILES IDX 79 88 58 89 59 90 67 91 60 92 66 93 68 94 65 95 61 96 62 97
REMARK SMILES IDX 63 98 64 99
REMARK H PARENT 22 7 18 27 29 33 88 52 56 63
REMARK Flexibility Score: inf
ROOT
ATOM      1  C   UNL     1       3.924  -2.813   2.392  1.00  0.00     0.002 C 
ENDROOT
BRANCH   1   2
ATOM      2  C   UNL     1       2.418  -2.650   2.145  1.00  0.00     0.021 C 
BRANCH   2   3
ATOM      3  C   UNL     1       1.923  -1.202   2.081  1.00  0.00     0.116 C 
BRANCH   3   4
ATOM      4  N   UNL     1       2.595  -0.458   1.029  1.00  0.00    -0.356 N 
ATOM      5  O   UNL     1       0.703   0.329   0.009  1.00  0.00    -0.275 OA
ATOM      6  C   UNL     1       1.926   0.218   0.041  1.00  0.00     0.221 C 
ATOM      7  H   UNL     1       3.579  -0.438   1.025  1.00  0.00     0.163 HD
BRANCH   6   8
ATOM      8  C   UNL     1       2.782   0.710  -1.109  1.00  0.00     0.122 C 
BRANCH   8   9
ATOM      9  C   UNL     1       3.982   1.596  -0.771  1.00  0.00     0.137 C 
BRANCH   9  10
ATOM     10  N   UNL     1       5.088   1.014   0.009  1.00  0.00    -0.292 N 
ATOM     11  C   UNL     1       5.661   1.795   1.006  1.00  0.00     0.266 C 
ATOM     12  C   UNL     1       5.772  -0.149  -0.281  1.00  0.00     0.148 C 
ATOM     13  O   UNL     1       5.375   2.960   1.271  1.00  0.00    -0.268 OA
ATOM     14  C   UNL     1       6.714   1.037   1.732  1.00  0.00     0.081 C 
ATOM     15  S   UNL     1       6.862  -0.524   1.042  1.00  0.00    -0.054 SA
ATOM     16  S   UNL     1       5.665  -1.134  -1.617  1.00  0.00    -0.052 S 
ATOM     17  C   UNL     1       7.363   1.554   2.789  1.00  0.00     0.033 C 
BRANCH  17  18
ATOM     18  C   UNL     1       8.234   0.817   3.729  1.00  0.00     0.020 A 
ATOM     19  C   UNL     1       9.251  -0.028   3.256  1.00  0.00     0.027 A 
ATOM     20  C   UNL     1       8.029   0.892   5.122  1.00  0.00     0.137 A 
ATOM     21  C   UNL     1       9.950  -0.864   4.129  1.00  0.00     0.019 A 
ATOM     22  C   UNL     1       8.758   0.066   5.993  1.00  0.00     0.061 A 
ATOM     23  Br  UNL     1      11.217  -2.084   3.434  1.00  0.00    -0.051 Br
ATOM     24  C   UNL     1       9.700  -0.833   5.495  1.00  0.00     0.035 A 
ATOM     25  Br  UNL     1       8.479   0.114   7.871  1.00  0.00    -0.047 Br
BRANCH  20  26
ATOM     26  O   UNL     1       7.105   1.738   5.682  1.00  0.00    -0.506 OA
ATOM     27  H   UNL     1       6.598   2.305   5.135  1.00  0.00     0.293 HD
ENDBRANCH  20  26
ENDBRANCH  17  18
ENDBRANCH   9  10
ENDBRANCH   8   9
ENDBRANCH   6   8
ENDBRANCH   3   4
ENDBRANCH   2   3
ENDBRANCH   1   2
BRANCH   1  28
ATOM     28  C   UNL     1       4.470  -2.117   3.642  1.00  0.00     0.002 C 
BRANCH  28  29
ATOM     29  C   UNL     1       3.846  -2.576   4.960  1.00  0.00     0.021 C 
BRANCH  29  30
ATOM     30  C   UNL     1       4.020  -4.059   5.270  1.00  0.00     0.116 C 
BRANCH  30  31
ATOM     31  N   UNL     1       5.412  -4.431   5.460  1.00  0.00    -0.352 N 
ATOM     32  C   UNL     1       5.982  -5.177   6.465  1.00  0.00     0.251 C 
ATOM     33  H   UNL     1       6.036  -4.101   4.773  1.00  0.00     0.163 HD
ATOM     34  O   UNL     1       7.205  -5.242   6.552  1.00  0.00    -0.269 OA
BRANCH  32  35
ATOM     35  C   UNL     1       5.122  -5.871   7.452  1.00  0.00     0.039 A 
ATOM     36  C   UNL     1       5.471  -5.824   8.804  1.00  0.00     0.014 A 
ATOM     37  C   UNL     1       3.978  -6.567   7.051  1.00  0.00     0.014 A 
ATOM     38  C   UNL     1       4.643  -6.426   9.757  1.00  0.00     0.010 A 
ATOM     39  C   UNL     1       3.114  -7.097   8.008  1.00  0.00     0.010 A 
ATOM     40  C   UNL     1       3.439  -7.040   9.372  1.00  0.00    -0.014 A 
BRANCH  40  41
ATOM     41  C   UNL     1       2.528  -7.652  10.378  1.00  0.00     0.031 A 
ATOM     42  C   UNL     1       2.253  -9.133  10.343  1.00  0.00     0.074 A 
ATOM     43  C   UNL     1       1.917  -6.874  11.295  1.00  0.00     0.049 A 
ATOM     44  N   UNL     1       1.439  -9.843  11.082  1.00  0.00    -0.248 NA
ATOM     45  C   UNL     1       2.969  -9.912   9.320  1.00  0.00     0.031 C 
ATOM     46  C   UNL     1       2.071  -5.422  11.409  1.00  0.00     0.029 A 
ATOM     47  N   UNL     1       1.038  -7.192  12.301  1.00  0.00    -0.354 N 
ATOM     48  C   UNL     1       1.546 -11.150  10.616  1.00  0.00     0.074 A 
ATOM     49  C   UNL     1       2.442 -11.116   9.479  1.00  0.00     0.031 C 
ATOM     50  C   UNL     1       1.331  -4.981  12.439  1.00  0.00     0.029 A 
ATOM     51  C   UNL     1       0.614  -6.105  13.032  1.00  0.00     0.049 A 
ATOM     52  H   UNL     1       0.738  -8.112  12.482  1.00  0.00     0.167 HD
ATOM     53  C   UNL     1       0.978 -12.280  11.108  1.00  0.00     0.034 A 
ATOM     54  C   UNL     1      -0.261  -6.023  14.056  1.00  0.00     0.034 A 
ATOM     55  C   UNL     1       0.088 -12.302  12.243  1.00  0.00     0.049 A 
ATOM     56  C   UNL     1      -0.904  -7.290  14.567  1.00  0.00     0.074 A 
ATOM     57  C   UNL     1      -0.538 -13.389  12.829  1.00  0.00     0.029 A 
ATOM     58  N   UNL     1      -0.303 -11.183  12.969  1.00  0.00    -0.354 N 
ATOM     59  N   UNL     1      -0.767  -8.522  14.131  1.00  0.00    -0.248 NA
ATOM     60  C   UNL     1      -1.802  -7.158  15.721  1.00  0.00     0.031 C 
ATOM     61  C   UNL     1      -1.349 -12.923  13.869  1.00  0.00     0.029 A 
ATOM     62  C   UNL     1      -1.169 -11.554  13.987  1.00  0.00     0.049 A 
ATOM     63  H   UNL     1      -0.008 -10.262  12.787  1.00  0.00     0.167 HD
ATOM     64  C   UNL     1      -1.528  -9.313  14.989  1.00  0.00     0.074 A 
ATOM     65  C   UNL     1      -2.105  -8.422  15.973  1.00  0.00     0.031 C 
ATOM     66  C   UNL     1      -1.732 -10.656  14.967  1.00  0.00     0.034 A 
BRANCH  53  67
ATOM     67  C   UNL     1       1.304 -13.579  10.409  1.00  0.00     0.023 A 
ATOM     68  C   UNL     1       2.620 -14.074  10.360  1.00  0.00     0.031 A 
ATOM     69  C   UNL     1       0.299 -14.322   9.765  1.00  0.00     0.131 A 
ATOM     70  C   UNL     1       2.908 -15.230   9.621  1.00  0.00     0.055 A 
ATOM     71  C   UNL     1       0.580 -15.520   9.104  1.00  0.00     0.041 A 
ATOM     72  F   UNL     1      -0.972 -13.892   9.758  1.00  0.00    -0.206 F 
ATOM     73  C   UNL     1       1.893 -15.973   9.015  1.00  0.00     0.022 A 
BRANCH  70  74
ATOM     74  S   UNL     1       4.646 -15.669   9.345  1.00  0.00     0.124 S 
ATOM     75  O   UNL     1       5.138 -14.490   8.637  1.00  0.00    -0.237 OA
ATOM     76  O   UNL     1       5.146 -15.854  10.702  1.00  0.00    -0.237 OA
ATOM     77  O   UNL     1       4.568 -16.884   8.537  1.00  0.00    -0.744 OA
ENDBRANCH  70  74
ENDBRANCH  53  67
BRANCH  54  78
ATOM     78  C   UNL     1      -0.599  -4.703  14.667  1.00  0.00     0.023 A 
ATOM     79  C   UNL     1      -0.328  -4.438  16.019  1.00  0.00     0.031 A 
ATOM     80  C   UNL     1      -1.268  -3.712  13.926  1.00  0.00     0.131 A 
ATOM     81  C   UNL     1      -0.788  -3.248  16.606  1.00  0.00     0.055 A 
ATOM     82  C   UNL     1      -1.664  -2.502  14.498  1.00  0.00     0.041 A 
ATOM     83  F   UNL     1      -1.550  -3.909  12.628  1.00  0.00    -0.206 F 
ATOM     84  C   UNL     1      -1.441  -2.272  15.851  1.00  0.00     0.022 A 
BRANCH  81  85
ATOM     85  S   UNL     1      -0.631  -3.051  18.403  1.00  0.00     0.124 S 
ATOM     86  O   UNL     1      -1.310  -4.245  18.893  1.00  0.00    -0.237 OA
ATOM     87  O   UNL     1       0.818  -3.018  18.578  1.00  0.00    -0.237 OA
ATOM     88  O   UNL     1      -1.318  -1.788  18.667  1.00  0.00    -0.744 OA
ENDBRANCH  81  85
ENDBRANCH  54  78
BRANCH  66  89
ATOM     89  C   UNL     1      -2.558 -11.244  16.087  1.00  0.00     0.023 A 
ATOM     90  C   UNL     1      -3.920 -10.936  16.251  1.00  0.00     0.031 A 
ATOM     91  C   UNL     1      -1.960 -12.109  17.021  1.00  0.00     0.131 A 
ATOM     92  C   UNL     1      -4.619 -11.430  17.363  1.00  0.00     0.055 A 
ATOM     93  C   UNL     1      -2.679 -12.652  18.087  1.00  0.00     0.041 A 
ATOM     94  F   UNL     1      -0.662 -12.438  16.916  1.00  0.00    -0.206 F 
ATOM     95  C   UNL     1      -4.012 -12.300  18.272  1.00  0.00     0.022 A 
BRANCH  92  96
ATOM     96  S   UNL     1      -6.304 -10.829  17.669  1.00  0.00     0.124 S 
ATOM     97  O   UNL     1      -6.105  -9.385  17.728  1.00  0.00    -0.237 OA
ATOM     98  O   UNL     1      -7.028 -11.326  16.503  1.00  0.00    -0.237 OA
ATOM     99  O   UNL     1      -6.667 -11.458  18.938  1.00  0.00    -0.744 OA
ENDBRANCH  92  96
ENDBRANCH  66  89
ENDBRANCH  40  41
ENDBRANCH  32  35
ENDBRANCH  30  31
ENDBRANCH  29  30
ENDBRANCH  28  29
ENDBRANCH   1  28
TORSDOF 20
