REMARK SMILES COc1ccc([C@@H]2[C@@H](C(=O)c3cccc4c3CCCC4)[C@H](C(=O)NCCCCCCNC(=O)c3ccc(-c4c5nc(c(-c6cc(S(=O)(=O)[O-])ccc6F)c6ccc([nH]6)c(-c6cc(S(=O)(=O)[O-])ccc6F)c6nc(c(-c7cc(S(=O)(=O)[O-])ccc7F)c7ccc4[nH]7)C=C6)C=C5)cc3)SC3=NC(=O)S[C@H]32)cc1
REMARK SMILES IDX 28 1 27 2 26 3 25 4 24 5 22 6 23 7 21 9 7 10 8 11 103 12
REMARK SMILES IDX 98 13 102 14 97 15 99 16 100 17 101 18 6 19 3 20 4 21 105 22
REMARK SMILES IDX 5 23 104 24 2 25 1 26 9 27 10 28 11 29 12 30 16 31 13 32
REMARK SMILES IDX 15 33 17 34 14 35 20 36 18 37 19 38 29 39 30 40 31 41 32 42
REMARK SMILES IDX 33 44 34 45 35 46 96 47 36 48 95 49 37 50 38 51 39 52 89 53
REMARK SMILES IDX 40 54 94 55 88 56 90 57 41 58 93 59 87 60 86 61 42 63 74 64
REMARK SMILES IDX 54 65 73 66 55 67 58 68 72 69 91 70 56 71 57 72 71 74 92 75
REMARK SMILES IDX 59 76 43 77 44 78 52 79 45 80 51 81 53 82 50 83 46 84 47 85
REMARK SMILES IDX 48 86 49 87 75 88 76 89 84 90 77 91 83 92 85 93 82 94 78 95
REMARK SMILES IDX 79 96 80 97 81 98 60 99 61 100 69 101 62 102 68 103 70 104
REMARK SMILES IDX 67 105 63 106 64 107 65 108 66 109
REMARK H PARENT 24 8 31 43 90 62 58 73
REMARK Flexibility Score: inf
ROOT
ATOM      1  C   UNL     1       9.206  -1.233   6.961  1.00  0.00     0.002 C 
ENDROOT
BRANCH   1   2
ATOM      2  C   UNL     1       8.066  -0.226   6.774  1.00  0.00     0.002 C 
BRANCH   2   3
ATOM      3  C   UNL     1       6.739  -0.830   6.300  1.00  0.00     0.021 C 
BRANCH   3   4
ATOM      4  C   UNL     1       6.159  -1.877   7.250  1.00  0.00     0.116 C 
BRANCH   4   5
ATOM      5  N   UNL     1       5.777  -1.278   8.520  1.00  0.00    -0.355 N 
ATOM      6  C   UNL     1       4.569  -1.154   9.140  1.00  0.00     0.234 C 
ATOM      7  O   UNL     1       4.539  -0.602  10.244  1.00  0.00    -0.274 OA
ATOM      8  H   UNL     1       6.529  -0.891   9.024  1.00  0.00     0.163 HD
BRANCH   6   9
ATOM      9  C   UNL     1       3.281  -1.730   8.531  1.00  0.00     0.153 C 
ATOM     10  C   UNL     1       1.810  -1.850   6.383  1.00  0.00     0.052 C 
ATOM     11  C   UNL     1       2.870  -1.042   7.206  1.00  0.00     0.093 C 
ATOM     12  C   UNL     1       2.254  -3.315   6.134  1.00  0.00     0.121 C 
ATOM     13  C   UNL     1       2.365  -4.093   7.409  1.00  0.00     0.093 C 
ATOM     14  S   UNL     1       1.048  -4.332   5.195  1.00  0.00    -0.052 SA
ATOM     15  S   UNL     1       3.475  -3.556   8.610  1.00  0.00    -0.095 SA
ATOM     16  N   UNL     1       1.721  -5.194   7.586  1.00  0.00    -0.200 NA
ATOM     17  C   UNL     1       0.960  -5.516   6.492  1.00  0.00     0.306 C 
ATOM     18  O   UNL     1       0.266  -6.506   6.393  1.00  0.00    -0.259 OA
BRANCH  10  19
ATOM     19  C   UNL     1       1.507  -1.218   5.021  1.00  0.00    -0.042 A 
ATOM     20  C   UNL     1       0.848  -0.180   2.479  1.00  0.00     0.118 A 
ATOM     21  C   UNL     1      -0.140  -0.369   3.440  1.00  0.00     0.047 A 
ATOM     22  C   UNL     1       2.165  -0.520   2.779  1.00  0.00     0.047 A 
ATOM     23  C   UNL     1       0.179  -0.927   4.677  1.00  0.00     0.008 A 
ATOM     24  C   UNL     1       2.496  -1.020   4.046  1.00  0.00     0.008 A 
BRANCH  20  25
ATOM     25  O   UNL     1       0.413   0.379   1.310  1.00  0.00    -0.497 OA
ATOM     26  C   UNL     1       1.128   0.002   0.139  1.00  0.00     0.278 C 
ENDBRANCH  20  25
ENDBRANCH  10  19
BRANCH  11  27
ATOM     27  C   UNL     1       2.545   0.463   7.513  1.00  0.00     0.168 C 
ATOM     28  O   UNL     1       3.403   1.332   7.363  1.00  0.00    -0.294 OA
BRANCH  27  29
ATOM     29  C   UNL     1       1.239   0.880   8.105  1.00  0.00     0.021 A 
ATOM     30  C   UNL     1       0.110   0.824   7.312  1.00  0.00     0.012 A 
ATOM     31  C   UNL     1       1.060   0.838   9.487  1.00  0.00    -0.034 A 
ATOM     32  C   UNL     1      -1.059   0.288   7.854  1.00  0.00     0.001 A 
ATOM     33  C   UNL     1       0.039   0.023   9.988  1.00  0.00    -0.044 A 
ATOM     34  C   UNL     1       1.011   2.207  10.219  1.00  0.00     0.036 C 
ATOM     35  C   UNL     1      -1.049  -0.234   9.154  1.00  0.00     0.004 A 
ATOM     36  C   UNL     1       0.058  -0.311  11.456  1.00  0.00     0.036 C 
ATOM     37  C   UNL     1       0.857   2.087  11.744  1.00  0.00     0.005 C 
ATOM     38  C   UNL     1       0.969   0.646  12.242  1.00  0.00     0.005 C 
ENDBRANCH  27  29
ENDBRANCH  11  27
ENDBRANCH   6   9
ENDBRANCH   4   5
ENDBRANCH   3   4
ENDBRANCH   2   3
ENDBRANCH   1   2
BRANCH   1  39
ATOM     39  C   UNL     1       9.560  -2.049   5.715  1.00  0.00     0.021 C 
BRANCH  39  40
ATOM     40  C   UNL     1       9.956  -1.216   4.500  1.00  0.00     0.116 C 
BRANCH  40  41
ATOM     41  N   UNL     1      11.149  -0.422   4.744  1.00  0.00    -0.352 N 
ATOM     42  C   UNL     1      12.319  -0.363   4.026  1.00  0.00     0.251 C 
ATOM     43  H   UNL     1      11.114   0.157   5.540  1.00  0.00     0.163 HD
ATOM     44  O   UNL     1      13.295   0.209   4.501  1.00  0.00    -0.269 OA
BRANCH  42  45
ATOM     45  C   UNL     1      12.402  -1.011   2.699  1.00  0.00     0.039 A 
ATOM     46  C   UNL     1      13.537  -1.761   2.382  1.00  0.00     0.014 A 
ATOM     47  C   UNL     1      11.367  -0.879   1.768  1.00  0.00     0.014 A 
ATOM     48  C   UNL     1      13.604  -2.430   1.158  1.00  0.00     0.010 A 
ATOM     49  C   UNL     1      11.402  -1.610   0.583  1.00  0.00     0.010 A 
ATOM     50  C   UNL     1      12.522  -2.393   0.264  1.00  0.00    -0.014 A 
BRANCH  50  51
ATOM     51  C   UNL     1      12.546  -3.165  -1.008  1.00  0.00     0.031 A 
ATOM     52  C   UNL     1      12.488  -2.448  -2.329  1.00  0.00     0.074 A 
ATOM     53  C   UNL     1      12.568  -4.512  -0.970  1.00  0.00     0.049 A 
ATOM     54  N   UNL     1      12.425  -2.944  -3.539  1.00  0.00    -0.248 NA
ATOM     55  C   UNL     1      12.467  -0.978  -2.282  1.00  0.00     0.031 C 
ATOM     56  C   UNL     1      12.590  -5.322   0.251  1.00  0.00     0.029 A 
ATOM     57  N   UNL     1      12.568  -5.441  -1.981  1.00  0.00    -0.354 N 
ATOM     58  C   UNL     1      12.354  -1.850  -4.395  1.00  0.00     0.074 A 
ATOM     59  C   UNL     1      12.309  -0.669  -3.560  1.00  0.00     0.031 C 
ATOM     60  C   UNL     1      12.626  -6.621  -0.084  1.00  0.00     0.029 A 
ATOM     61  C   UNL     1      12.575  -6.744  -1.537  1.00  0.00     0.049 A 
ATOM     62  H   UNL     1      12.563  -5.198  -2.935  1.00  0.00     0.167 HD
ATOM     63  C   UNL     1      12.354  -1.832  -5.752  1.00  0.00     0.034 A 
ATOM     64  C   UNL     1      12.528  -7.906  -2.220  1.00  0.00     0.034 A 
ATOM     65  C   UNL     1      12.402  -3.021  -6.569  1.00  0.00     0.049 A 
ATOM     66  C   UNL     1      12.481  -7.861  -3.727  1.00  0.00     0.074 A 
ATOM     67  C   UNL     1      12.448  -3.116  -7.949  1.00  0.00     0.029 A 
ATOM     68  N   UNL     1      12.400  -4.323  -6.084  1.00  0.00    -0.354 N 
ATOM     69  N   UNL     1      12.462  -6.816  -4.523  1.00  0.00    -0.248 NA
ATOM     70  C   UNL     1      12.462  -9.151  -4.428  1.00  0.00     0.031 C 
ATOM     71  C   UNL     1      12.393  -4.469  -8.299  1.00  0.00     0.029 A 
ATOM     72  C   UNL     1      12.406  -5.225  -7.138  1.00  0.00     0.049 A 
ATOM     73  H   UNL     1      12.394  -4.570  -5.131  1.00  0.00     0.167 HD
ATOM     74  C   UNL     1      12.460  -7.327  -5.819  1.00  0.00     0.074 A 
ATOM     75  C   UNL     1      12.500  -8.769  -5.696  1.00  0.00     0.031 C 
ATOM     76  C   UNL     1      12.433  -6.663  -7.003  1.00  0.00     0.034 A 
BRANCH  63  77
ATOM     77  C   UNL     1      12.274  -0.484  -6.430  1.00  0.00     0.023 A 
ATOM     78  C   UNL     1      13.274   0.490  -6.258  1.00  0.00     0.031 A 
ATOM     79  C   UNL     1      11.174  -0.157  -7.243  1.00  0.00     0.131 A 
ATOM     80  C   UNL     1      13.116   1.765  -6.821  1.00  0.00     0.055 A 
ATOM     81  C   UNL     1      11.067   1.085  -7.874  1.00  0.00     0.041 A 
ATOM     82  F   UNL     1      10.175  -1.034  -7.428  1.00  0.00    -0.206 F 
ATOM     83  C   UNL     1      12.034   2.060  -7.651  1.00  0.00     0.022 A 
BRANCH  80  84
ATOM     84  S   UNL     1      14.265   3.077  -6.323  1.00  0.00     0.124 S 
ATOM     85  O   UNL     1      14.077   3.099  -4.874  1.00  0.00    -0.237 OA
ATOM     86  O   UNL     1      15.548   2.568  -6.793  1.00  0.00    -0.237 OA
ATOM     87  O   UNL     1      13.764   4.256  -7.027  1.00  0.00    -0.744 OA
ENDBRANCH  80  84
ENDBRANCH  63  77
BRANCH  64  88
ATOM     88  C   UNL     1      12.496  -9.209  -1.494  1.00  0.00     0.023 A 
ATOM     89  C   UNL     1      13.526 -10.151  -1.646  1.00  0.00     0.031 A 
ATOM     90  C   UNL     1      11.407  -9.553  -0.673  1.00  0.00     0.131 A 
ATOM     91  C   UNL     1      13.421 -11.409  -1.031  1.00  0.00     0.055 A 
ATOM     92  C   UNL     1      11.337 -10.781  -0.013  1.00  0.00     0.041 A 
ATOM     93  F   UNL     1      10.394  -8.691  -0.491  1.00  0.00    -0.206 F 
ATOM     94  C   UNL     1      12.341 -11.724  -0.203  1.00  0.00     0.022 A 
BRANCH  91  95
ATOM     95  S   UNL     1      14.669 -12.669  -1.413  1.00  0.00     0.124 S 
ATOM     96  O   UNL     1      14.561 -12.762  -2.865  1.00  0.00    -0.237 OA
ATOM     97  O   UNL     1      15.887 -12.055  -0.897  1.00  0.00    -0.237 OA
ATOM     98  O   UNL     1      14.204 -13.842  -0.676  1.00  0.00    -0.744 OA
ENDBRANCH  91  95
ENDBRANCH  64  88
BRANCH  76  99
ATOM     99  C   UNL     1      12.492  -7.497  -8.262  1.00  0.00     0.023 A 
ATOM    100  C   UNL     1      11.457  -8.379  -8.618  1.00  0.00     0.031 A 
ATOM    101  C   UNL     1      13.608  -7.412  -9.114  1.00  0.00     0.131 A 
ATOM    102  C   UNL     1      11.585  -9.185  -9.759  1.00  0.00     0.055 A 
ATOM    103  C   UNL     1      13.699  -8.165 -10.286  1.00  0.00     0.041 A 
ATOM    104  F   UNL     1      14.630  -6.591  -8.823  1.00  0.00    -0.206 F 
ATOM    105  C   UNL     1      12.691  -9.069 -10.606  1.00  0.00     0.022 A 
BRANCH 102 106
ATOM    106  S   UNL     1      10.336 -10.463 -10.069  1.00  0.00     0.124 S 
ATOM    107  O   UNL     1      10.410 -11.259  -8.848  1.00  0.00    -0.237 OA
ATOM    108  O   UNL     1       9.120  -9.675 -10.244  1.00  0.00    -0.237 OA
ATOM    109  O   UNL     1      10.820 -11.131 -11.275  1.00  0.00    -0.744 OA
ENDBRANCH 102 106
ENDBRANCH  76  99
ENDBRANCH  50  51
ENDBRANCH  42  45
ENDBRANCH  40  41
ENDBRANCH  39  40
ENDBRANCH   1  39
TORSDOF 20
