REMARK SMILES O=C(COc1ccc(/C=C2\C(=O)N(c3ccc(Cl)cc3Cl)C(=O)N=C2O)cc1Cl)NCCCCCCNC(=O)c1ccc(-c2c3nc(c(-c4cc(S(=O)(=O)[O-])ccc4F)c4ccc([nH]4)c(-c4cc(S(=O)(=O)[O-])ccc4F)c4nc(c(-c5cc(S(=O)(=O)[O-])ccc5F)c5ccc2[nH]5)C=C4)C=C3)cc1
REMARK SMILES IDX 33 1 32 2 31 3 30 4 1 5 2 6 3 8 4 9 5 10 6 11 28 12 7 13
REMARK SMILES IDX 27 14 29 15 8 16 9 17 10 18 11 19 25 20 12 21 13 22 24 23
REMARK SMILES IDX 22 24 23 25 26 26 14 28 15 29 20 30 16 31 19 32 21 33 17 34
REMARK SMILES IDX 18 35 34 36 35 37 36 38 37 39 38 40 39 42 40 43 41 44 102 45
REMARK SMILES IDX 42 46 101 47 43 48 44 49 45 50 95 51 46 52 100 53 94 54
REMARK SMILES IDX 96 55 47 56 99 57 93 58 92 59 48 61 80 62 60 63 79 64 61 65
REMARK SMILES IDX 64 66 78 67 97 68 62 69 63 70 77 72 98 73 65 74 49 75 50 76
REMARK SMILES IDX 58 77 51 78 57 79 59 80 56 81 52 82 53 83 54 84 55 85 81 86
REMARK SMILES IDX 82 87 90 88 83 89 89 90 91 91 88 92 84 93 85 94 86 95 87 96
REMARK SMILES IDX 66 97 67 98 75 99 68 100 74 101 76 102 73 103 69 104 70 105
REMARK SMILES IDX 71 106 72 107
REMARK H PARENT 30 7 26 27 37 41 96 60 64 71
REMARK Flexibility Score: inf
ROOT
ATOM      1  C   UNL     1       4.397   1.566   3.463  1.00  0.00     0.002 C 
ENDROOT
BRANCH   1   2
ATOM      2  C   UNL     1       2.925   1.143   3.533  1.00  0.00     0.021 C 
BRANCH   2   3
ATOM      3  C   UNL     1       2.144   1.268   2.232  1.00  0.00     0.116 C 
BRANCH   3   4
ATOM      4  N   UNL     1       2.792   0.614   1.118  1.00  0.00    -0.353 N 
ATOM      5  O   UNL     1       1.192  -0.996   0.707  1.00  0.00    -0.271 OA
ATOM      6  C   UNL     1       2.195  -0.376   0.368  1.00  0.00     0.257 C 
ATOM      7  H   UNL     1       3.707   0.891   0.883  1.00  0.00     0.163 HD
BRANCH   6   8
ATOM      8  C   UNL     1       2.920  -0.648  -0.950  1.00  0.00     0.329 C 
BRANCH   8   9
ATOM      9  O   UNL     1       3.626   0.516  -1.404  1.00  0.00    -0.482 OA
BRANCH   9  10
ATOM     10  C   UNL     1       3.051   1.067  -2.518  1.00  0.00     0.138 A 
ATOM     11  C   UNL     1       3.686   0.823  -3.734  1.00  0.00     0.048 A 
ATOM     12  C   UNL     1       1.956   1.934  -2.478  1.00  0.00     0.083 A 
ATOM     13  C   UNL     1       3.202   1.411  -4.908  1.00  0.00     0.012 A 
ATOM     14  C   UNL     1       1.453   2.485  -3.659  1.00  0.00     0.032 A 
ATOM     15  Cl  UNL     1       1.202   2.434  -1.015  1.00  0.00    -0.080 Cl
ATOM     16  C   UNL     1       2.054   2.215  -4.894  1.00  0.00    -0.023 A 
BRANCH  16  17
ATOM     17  C   UNL     1       1.501   2.898  -6.077  1.00  0.00     0.027 C 
ATOM     18  C   UNL     1       1.474   2.502  -7.363  1.00  0.00     0.103 C 
ATOM     19  C   UNL     1       2.019   1.227  -7.873  1.00  0.00     0.272 C 
ATOM     20  C   UNL     1       1.000   3.389  -8.415  1.00  0.00     0.228 C 
ATOM     21  O   UNL     1       1.911   0.186  -7.240  1.00  0.00    -0.268 OA
ATOM     22  N   UNL     1       2.647   1.395  -9.100  1.00  0.00    -0.224 N 
ATOM     23  N   UNL     1       1.270   3.286  -9.663  1.00  0.00    -0.156 NA
ATOM     24  C   UNL     1       2.141   2.294 -10.052  1.00  0.00     0.358 C 
ATOM     25  O   UNL     1       2.404   2.170 -11.255  1.00  0.00    -0.245 OA
BRANCH  20  26
ATOM     26  O   UNL     1       0.185   4.375  -8.026  1.00  0.00    -0.493 OA
ATOM     27  H   UNL     1      -0.031   4.474  -7.120  1.00  0.00     0.295 HD
ENDBRANCH  20  26
BRANCH  22  28
ATOM     28  C   UNL     1       3.722   0.517  -9.468  1.00  0.00     0.073 A 
ATOM     29  C   UNL     1       3.635  -0.867  -9.233  1.00  0.00     0.030 A 
ATOM     30  C   UNL     1       4.935   1.024  -9.987  1.00  0.00     0.066 A 
ATOM     31  C   UNL     1       4.705  -1.717  -9.527  1.00  0.00     0.023 A 
ATOM     32  C   UNL     1       6.000   0.169 -10.293  1.00  0.00     0.043 A 
ATOM     33  Cl  UNL     1       5.263   2.724 -10.097  1.00  0.00    -0.082 Cl
ATOM     34  C   UNL     1       5.879  -1.196 -10.062  1.00  0.00     0.042 A 
ATOM     35  Cl  UNL     1       7.200  -2.243 -10.405  1.00  0.00    -0.084 Cl
ENDBRANCH  22  28
ENDBRANCH  16  17
ENDBRANCH   9  10
ENDBRANCH   8   9
ENDBRANCH   6   8
ENDBRANCH   3   4
ENDBRANCH   2   3
ENDBRANCH   1   2
BRANCH   1  36
ATOM     36  C   UNL     1       4.682   2.966   2.910  1.00  0.00     0.002 C 
BRANCH  36  37
ATOM     37  C   UNL     1       3.979   4.129   3.611  1.00  0.00     0.021 C 
BRANCH  37  38
ATOM     38  C   UNL     1       4.139   4.193   5.127  1.00  0.00     0.116 C 
BRANCH  38  39
ATOM     39  N   UNL     1       5.524   4.266   5.555  1.00  0.00    -0.352 N 
ATOM     40  C   UNL     1       6.095   5.021   6.551  1.00  0.00     0.251 C 
ATOM     41  H   UNL     1       6.147   3.689   5.057  1.00  0.00     0.163 HD
ATOM     42  O   UNL     1       7.316   5.012   6.684  1.00  0.00    -0.269 OA
BRANCH  40  43
ATOM     43  C   UNL     1       5.258   5.871   7.432  1.00  0.00     0.039 A 
ATOM     44  C   UNL     1       5.710   7.159   7.737  1.00  0.00     0.014 A 
ATOM     45  C   UNL     1       4.048   5.417   7.965  1.00  0.00     0.014 A 
ATOM     46  C   UNL     1       4.922   8.009   8.517  1.00  0.00     0.010 A 
ATOM     47  C   UNL     1       3.232   6.288   8.689  1.00  0.00     0.010 A 
ATOM     48  C   UNL     1       3.659   7.595   8.970  1.00  0.00    -0.014 A 
BRANCH  48  49
ATOM     49  C   UNL     1       2.776   8.531   9.714  1.00  0.00     0.031 A 
ATOM     50  C   UNL     1       2.421   8.274  11.153  1.00  0.00     0.074 A 
ATOM     51  C   UNL     1       2.257   9.598   9.073  1.00  0.00     0.049 A 
ATOM     52  N   UNL     1       1.673   8.983  11.961  1.00  0.00    -0.248 NA
ATOM     53  C   UNL     1       2.954   7.043  11.753  1.00  0.00     0.031 C 
ATOM     54  C   UNL     1       2.480   9.924   7.663  1.00  0.00     0.029 A 
ATOM     55  N   UNL     1       1.439  10.604   9.520  1.00  0.00    -0.354 N 
ATOM     56  C   UNL     1       1.635   8.281  13.161  1.00  0.00     0.074 A 
ATOM     57  C   UNL     1       2.388   7.061  12.951  1.00  0.00     0.031 C 
ATOM     58  C   UNL     1       1.846  11.071   7.371  1.00  0.00     0.029 A 
ATOM     59  C   UNL     1       1.145  11.544   8.560  1.00  0.00     0.049 A 
ATOM     60  H   UNL     1       1.094  10.649  10.441  1.00  0.00     0.167 HD
ATOM     61  C   UNL     1       1.046   8.630  14.333  1.00  0.00     0.034 A 
ATOM     62  C   UNL     1       0.398  12.663   8.629  1.00  0.00     0.034 A 
ATOM     63  C   UNL     1       0.307   9.855  14.528  1.00  0.00     0.049 A 
ATOM     64  C   UNL     1      -0.247  13.030   9.939  1.00  0.00     0.074 A 
ATOM     65  C   UNL     1      -0.260  10.347  15.693  1.00  0.00     0.029 A 
ATOM     66  N   UNL     1       0.017  10.779  13.531  1.00  0.00    -0.354 N 
ATOM     67  N   UNL     1      -0.209  12.393  11.088  1.00  0.00    -0.248 NA
ATOM     68  C   UNL     1      -1.025  14.274   9.962  1.00  0.00     0.031 C 
ATOM     69  C   UNL     1      -0.948  11.527  15.385  1.00  0.00     0.029 A 
ATOM     70  C   UNL     1      -0.752  11.815  14.044  1.00  0.00     0.049 A 
ATOM     71  H   UNL     1       0.314  10.708  12.595  1.00  0.00     0.167 HD
ATOM     72  C   UNL     1      -0.943  13.175  11.976  1.00  0.00     0.074 A 
ATOM     73  C   UNL     1      -1.388  14.338  11.234  1.00  0.00     0.031 C 
ATOM     74  C   UNL     1      -1.221  12.953  13.287  1.00  0.00     0.034 A 
BRANCH  61  75
ATOM     75  C   UNL     1       1.156   7.652  15.481  1.00  0.00     0.023 A 
ATOM     76  C   UNL     1       2.400   7.293  16.032  1.00  0.00     0.031 A 
ATOM     77  C   UNL     1       0.006   7.038  16.007  1.00  0.00     0.131 A 
ATOM     78  C   UNL     1       2.472   6.288  17.009  1.00  0.00     0.055 A 
ATOM     79  C   UNL     1       0.077   6.099  17.039  1.00  0.00     0.041 A 
ATOM     80  F   UNL     1      -1.209   7.324  15.512  1.00  0.00    -0.206 F 
ATOM     81  C   UNL     1       1.317   5.705  17.533  1.00  0.00     0.022 A 
BRANCH  78  82
ATOM     82  S   UNL     1       4.104   5.641  17.467  1.00  0.00     0.124 S 
ATOM     83  O   UNL     1       4.621   5.200  16.173  1.00  0.00    -0.237 OA
ATOM     84  O   UNL     1       4.753   6.809  18.051  1.00  0.00    -0.237 OA
ATOM     85  O   UNL     1       3.795   4.563  18.404  1.00  0.00    -0.744 OA
ENDBRANCH  78  82
ENDBRANCH  61  75
BRANCH  62  86
ATOM     86  C   UNL     1       0.227  13.529   7.430  1.00  0.00     0.023 A 
ATOM     87  C   UNL     1       0.774  14.821   7.392  1.00  0.00     0.031 A 
ATOM     88  C   UNL     1      -0.511  13.089   6.317  1.00  0.00     0.131 A 
ATOM     89  C   UNL     1       0.542  15.645   6.280  1.00  0.00     0.055 A 
ATOM     90  C   UNL     1      -0.701  13.896   5.195  1.00  0.00     0.041 A 
ATOM     91  F   UNL     1      -1.046  11.858   6.302  1.00  0.00    -0.206 F 
ATOM     92  C   UNL     1      -0.182  15.188   5.177  1.00  0.00     0.022 A 
BRANCH  89  93
ATOM     93  S   UNL     1       1.153  17.352   6.323  1.00  0.00     0.124 S 
ATOM     94  O   UNL     1       0.457  17.890   7.486  1.00  0.00    -0.237 OA
ATOM     95  O   UNL     1       2.591  17.156   6.469  1.00  0.00    -0.237 OA
ATOM     96  O   UNL     1       0.730  17.897   5.034  1.00  0.00    -0.744 OA
ENDBRANCH  89  93
ENDBRANCH  62  86
BRANCH  74  97
ATOM     97  C   UNL     1      -2.032  14.013  13.993  1.00  0.00     0.023 A 
ATOM     98  C   UNL     1      -3.367  14.276  13.638  1.00  0.00     0.031 A 
ATOM     99  C   UNL     1      -1.448  14.804  14.998  1.00  0.00     0.131 A 
ATOM    100  C   UNL     1      -4.050  15.350  14.229  1.00  0.00     0.055 A 
ATOM    101  C   UNL     1      -2.154  15.830  15.629  1.00  0.00     0.041 A 
ATOM    102  F   UNL     1      -0.175  14.600  15.376  1.00  0.00    -0.206 F 
ATOM    103  C   UNL     1      -3.456  16.119  15.233  1.00  0.00     0.022 A 
BRANCH 100 104
ATOM    104  S   UNL     1      -5.682  15.805  13.581  1.00  0.00     0.124 S 
ATOM    105  O   UNL     1      -5.397  16.030  12.167  1.00  0.00    -0.237 OA
ATOM    106  O   UNL     1      -6.480  14.623  13.889  1.00  0.00    -0.237 OA
ATOM    107  O   UNL     1      -6.032  17.004  14.341  1.00  0.00    -0.744 OA
ENDBRANCH 100 104
ENDBRANCH  74  97
ENDBRANCH  48  49
ENDBRANCH  40  43
ENDBRANCH  38  39
ENDBRANCH  37  38
ENDBRANCH  36  37
ENDBRANCH   1  36
TORSDOF 21
