REMARK SMILES CCc1cccc(CC)c1N1/C(=[NH+]/C(=O)CCCC(=O)NCCCCCCNC(=O)c2ccc(-c3c4nc(c(-c5cc(S(=O)(=O)[O-])ccc5F)c5ccc([nH]5)c(-c5cc(S(=O)(=O)[O-])ccc5F)c5nc(c(-c6cc(S(=O)(=O)[O-])ccc6F)c6ccc3[nH]6)C=C5)C=C4)cc2)S[C@@H]2CS(=O)(=O)C[C@@H]21
REMARK SMILES IDX 23 1 22 2 21 3 19 4 20 5 18 7 17 8 16 9 14 10 11 11 12 12
REMARK SMILES IDX 101 13 13 14 94 15 95 16 100 17 96 19 97 20 15 21 98 22
REMARK SMILES IDX 99 23 10 24 3 25 4 26 5 27 7 28 6 29 2 30 1 31 8 32 9 33
REMARK SMILES IDX 24 34 25 35 26 36 27 37 28 38 29 39 30 41 31 42 32 43 93 44
REMARK SMILES IDX 33 45 92 46 34 47 35 48 36 49 86 50 37 51 91 52 85 53 87 54
REMARK SMILES IDX 38 55 90 56 84 57 83 58 39 60 71 61 51 62 70 63 52 64 55 65
REMARK SMILES IDX 69 66 88 67 53 68 54 69 68 71 89 72 56 73 40 74 41 75 49 76
REMARK SMILES IDX 42 77 48 78 50 79 47 80 43 81 44 82 45 83 46 84 72 85 73 86
REMARK SMILES IDX 81 87 74 88 80 89 82 90 79 91 75 92 76 93 77 94 78 95 57 96
REMARK SMILES IDX 58 97 66 98 59 99 65 100 67 101 64 102 60 103 61 104 62 105
REMARK SMILES IDX 63 106
REMARK H PARENT 21 6 13 18 28 40 87 59 55 70
REMARK Flexibility Score: inf
ROOT
ATOM      1  C   UNL     1       4.878  -0.794   2.877  1.00  0.00     0.021 C 
ENDROOT
BRANCH   1   2
ATOM      2  C   UNL     1       3.666  -1.249   2.066  1.00  0.00     0.116 C 
BRANCH   2   3
ATOM      3  N   UNL     1       2.533  -1.424   2.946  1.00  0.00    -0.356 N 
ATOM      4  C   UNL     1       1.482  -0.584   3.154  1.00  0.00     0.220 C 
ATOM      5  O   UNL     1       0.719  -0.814   4.093  1.00  0.00    -0.275 OA
ATOM      6  H   UNL     1       2.520  -2.260   3.465  1.00  0.00     0.163 HD
BRANCH   4   7
ATOM      7  C   UNL     1       1.220   0.551   2.185  1.00  0.00     0.100 C 
BRANCH   7   8
ATOM      8  C   UNL     1       1.936   1.876   2.416  1.00  0.00     0.022 C 
BRANCH   8   9
ATOM      9  C   UNL     1       3.194   2.134   1.578  1.00  0.00     0.128 C 
BRANCH   9  10
ATOM     10  C   UNL     1       3.008   2.131   0.061  1.00  0.00     0.307 C 
ATOM     11  N   UNL     1       2.969  -0.355  -2.609  1.00  0.00    -0.216 N 
ATOM     12  C   UNL     1       3.322   0.631  -1.682  1.00  0.00     0.319 C 
ATOM     13  C   UNL     1       3.442  -0.118  -3.997  1.00  0.00     0.212 C 
ATOM     14  N   UNL     1       2.779   0.907  -0.541  1.00  0.00    -0.204 N 
ATOM     15  S   UNL     1       4.674   1.561  -2.381  1.00  0.00    -0.029 SA
ATOM     16  C   UNL     1       3.993   1.319  -4.040  1.00  0.00     0.120 C 
ATOM     17  C   UNL     1       2.374  -0.228  -5.081  1.00  0.00     0.188 C 
ATOM     18  H   UNL     1       2.201   0.244  -0.100  1.00  0.00     0.316 HD
ATOM     19  C   UNL     1       2.830   2.276  -4.259  1.00  0.00     0.156 C 
ATOM     20  S   UNL     1       1.768   1.415  -5.384  1.00  0.00     0.155 S 
ATOM     21  O   UNL     1       2.949   3.203  -0.541  1.00  0.00    -0.247 OA
ATOM     22  O   UNL     1       0.399   1.505  -4.908  1.00  0.00    -0.229 OA
ATOM     23  O   UNL     1       2.135   1.784  -6.731  1.00  0.00    -0.229 OA
BRANCH  11  24
ATOM     24  C   UNL     1       2.241  -1.544  -2.361  1.00  0.00     0.134 A 
ATOM     25  C   UNL     1       0.842  -1.504  -2.114  1.00  0.00    -0.001 A 
ATOM     26  C   UNL     1       0.103  -2.702  -2.004  1.00  0.00     0.008 A 
ATOM     27  C   UNL     1       0.711  -3.938  -2.138  1.00  0.00     0.001 A 
ATOM     28  C   UNL     1       2.860  -2.828  -2.483  1.00  0.00    -0.001 A 
ATOM     29  C   UNL     1       2.073  -3.997  -2.387  1.00  0.00     0.008 A 
BRANCH  25  30
ATOM     30  C   UNL     1       0.045  -0.221  -2.000  1.00  0.00     0.036 C 
ATOM     31  C   UNL     1      -0.599  -0.097  -0.627  1.00  0.00     0.009 C 
ENDBRANCH  25  30
BRANCH  28  32
ATOM     32  C   UNL     1       4.337  -3.017  -2.793  1.00  0.00     0.036 C 
ATOM     33  C   UNL     1       5.056  -4.072  -1.956  1.00  0.00     0.009 C 
ENDBRANCH  28  32
ENDBRANCH  11  24
ENDBRANCH   9  10
ENDBRANCH   8   9
ENDBRANCH   7   8
ENDBRANCH   4   7
ENDBRANCH   2   3
ENDBRANCH   1   2
BRANCH   1  34
ATOM     34  C   UNL     1       5.746  -1.969   3.317  1.00  0.00     0.002 C 
BRANCH  34  35
ATOM     35  C   UNL     1       6.508  -2.627   2.160  1.00  0.00     0.002 C 
BRANCH  35  36
ATOM     36  C   UNL     1       7.426  -1.686   1.374  1.00  0.00     0.021 C 
BRANCH  36  37
ATOM     37  C   UNL     1       8.424  -0.919   2.235  1.00  0.00     0.116 C 
BRANCH  37  38
ATOM     38  N   UNL     1       9.273  -1.824   2.996  1.00  0.00    -0.352 N 
ATOM     39  C   UNL     1      10.639  -1.937   2.980  1.00  0.00     0.251 C 
ATOM     40  H   UNL     1       8.802  -2.438   3.604  1.00  0.00     0.163 HD
ATOM     41  O   UNL     1      11.184  -2.918   3.474  1.00  0.00    -0.269 OA
BRANCH  39  42
ATOM     42  C   UNL     1      11.436  -0.867   2.349  1.00  0.00     0.039 A 
ATOM     43  C   UNL     1      12.463  -1.204   1.465  1.00  0.00     0.014 A 
ATOM     44  C   UNL     1      11.150   0.472   2.630  1.00  0.00     0.014 A 
ATOM     45  C   UNL     1      13.175  -0.191   0.820  1.00  0.00     0.010 A 
ATOM     46  C   UNL     1      11.809   1.476   1.932  1.00  0.00     0.010 A 
ATOM     47  C   UNL     1      12.835   1.155   1.029  1.00  0.00    -0.014 A 
BRANCH  47  48
ATOM     48  C   UNL     1      13.562   2.261   0.358  1.00  0.00     0.031 A 
ATOM     49  C   UNL     1      14.327   3.249   1.195  1.00  0.00     0.074 A 
ATOM     50  C   UNL     1      13.455   2.432  -0.973  1.00  0.00     0.049 A 
ATOM     51  N   UNL     1      14.887   4.378   0.845  1.00  0.00    -0.248 NA
ATOM     52  C   UNL     1      14.438   2.940   2.628  1.00  0.00     0.031 C 
ATOM     53  C   UNL     1      12.721   1.551  -1.883  1.00  0.00     0.029 A 
ATOM     54  N   UNL     1      13.946   3.419  -1.790  1.00  0.00    -0.354 N 
ATOM     55  C   UNL     1      15.390   4.928   2.019  1.00  0.00     0.074 A 
ATOM     56  C   UNL     1      15.011   4.037   3.095  1.00  0.00     0.031 C 
ATOM     57  C   UNL     1      12.816   2.033  -3.132  1.00  0.00     0.029 A 
ATOM     58  C   UNL     1      13.569   3.284  -3.106  1.00  0.00     0.049 A 
ATOM     59  H   UNL     1      14.513   4.155  -1.465  1.00  0.00     0.167 HD
ATOM     60  C   UNL     1      16.118   6.061   2.179  1.00  0.00     0.034 A 
ATOM     61  C   UNL     1      13.784   4.090  -4.165  1.00  0.00     0.034 A 
ATOM     62  C   UNL     1      16.493   6.926   1.087  1.00  0.00     0.049 A 
ATOM     63  C   UNL     1      14.571   5.361  -3.965  1.00  0.00     0.074 A 
ATOM     64  C   UNL     1      17.269   8.070   1.120  1.00  0.00     0.029 A 
ATOM     65  N   UNL     1      16.109   6.745  -0.237  1.00  0.00    -0.354 N 
ATOM     66  N   UNL     1      15.071   5.856  -2.856  1.00  0.00    -0.248 NA
ATOM     67  C   UNL     1      14.831   6.176  -5.158  1.00  0.00     0.031 C 
ATOM     68  C   UNL     1      17.293   8.621  -0.166  1.00  0.00     0.029 A 
ATOM     69  C   UNL     1      16.608   7.773  -1.022  1.00  0.00     0.049 A 
ATOM     70  H   UNL     1      15.562   5.996  -0.569  1.00  0.00     0.167 HD
ATOM     71  C   UNL     1      15.739   7.020  -3.226  1.00  0.00     0.074 A 
ATOM     72  C   UNL     1      15.576   7.153  -4.659  1.00  0.00     0.031 C 
ATOM     73  C   UNL     1      16.437   7.891  -2.453  1.00  0.00     0.034 A 
BRANCH  60  74
ATOM     74  C   UNL     1      16.513   6.436   3.589  1.00  0.00     0.023 A 
ATOM     75  C   UNL     1      17.306   5.590   4.386  1.00  0.00     0.031 A 
ATOM     76  C   UNL     1      16.045   7.629   4.168  1.00  0.00     0.131 A 
ATOM     77  C   UNL     1      17.518   5.896   5.739  1.00  0.00     0.055 A 
ATOM     78  C   UNL     1      16.343   7.976   5.488  1.00  0.00     0.041 A 
ATOM     79  F   UNL     1      15.266   8.470   3.469  1.00  0.00    -0.206 F 
ATOM     80  C   UNL     1      17.066   7.096   6.288  1.00  0.00     0.022 A 
BRANCH  77  81
ATOM     81  S   UNL     1      18.229   4.615   6.810  1.00  0.00     0.124 S 
ATOM     82  O   UNL     1      17.283   3.517   6.622  1.00  0.00    -0.237 OA
ATOM     83  O   UNL     1      19.554   4.423   6.234  1.00  0.00    -0.237 OA
ATOM     84  O   UNL     1      18.205   5.227   8.137  1.00  0.00    -0.744 OA
ENDBRANCH  77  81
ENDBRANCH  60  74
BRANCH  61  85
ATOM     85  C   UNL     1      13.236   3.728  -5.503  1.00  0.00     0.023 A 
ATOM     86  C   UNL     1      14.087   3.407  -6.572  1.00  0.00     0.031 A 
ATOM     87  C   UNL     1      11.849   3.708  -5.736  1.00  0.00     0.131 A 
ATOM     88  C   UNL     1      13.546   3.115  -7.834  1.00  0.00     0.055 A 
ATOM     89  C   UNL     1      11.313   3.370  -6.980  1.00  0.00     0.041 A 
ATOM     90  F   UNL     1      10.990   3.997  -4.745  1.00  0.00    -0.206 F 
ATOM     91  C   UNL     1      12.165   3.081  -8.041  1.00  0.00     0.022 A 
BRANCH  88  92
ATOM     92  S   UNL     1      14.678   2.840  -9.224  1.00  0.00     0.124 S 
ATOM     93  O   UNL     1      15.396   4.109  -9.277  1.00  0.00    -0.237 OA
ATOM     94  O   UNL     1      15.444   1.686  -8.766  1.00  0.00    -0.237 OA
ATOM     95  O   UNL     1      13.779   2.583 -10.347  1.00  0.00    -0.744 OA
ENDBRANCH  88  92
ENDBRANCH  61  85
BRANCH  73  96
ATOM     96  C   UNL     1      17.141   9.029  -3.150  1.00  0.00     0.023 A 
ATOM     97  C   UNL     1      16.441  10.082  -3.763  1.00  0.00     0.031 A 
ATOM     98  C   UNL     1      18.548   9.067  -3.173  1.00  0.00     0.131 A 
ATOM     99  C   UNL     1      17.150  11.109  -4.406  1.00  0.00     0.055 A 
ATOM    100  C   UNL     1      19.247  10.120  -3.763  1.00  0.00     0.041 A 
ATOM    101  F   UNL     1      19.267   8.085  -2.605  1.00  0.00    -0.206 F 
ATOM    102  C   UNL     1      18.547  11.145  -4.392  1.00  0.00     0.022 A 
BRANCH  99 103
ATOM    103  S   UNL     1      16.223  12.367  -5.327  1.00  0.00     0.124 S 
ATOM    104  O   UNL     1      15.513  11.560  -6.313  1.00  0.00    -0.237 OA
ATOM    105  O   UNL     1      15.400  12.973  -4.286  1.00  0.00    -0.237 OA
ATOM    106  O   UNL     1      17.268  13.233  -5.872  1.00  0.00    -0.744 OA
ENDBRANCH  99 103
ENDBRANCH  73  96
ENDBRANCH  47  48
ENDBRANCH  39  42
ENDBRANCH  37  38
ENDBRANCH  36  37
ENDBRANCH  35  36
ENDBRANCH  34  35
ENDBRANCH   1  34
TORSDOF 22
