REMARK SMILES CCCCCCNC(=O)Oc1cccc(-c2ccc([C@@H](C)C(=O)NCCCCCCNC(=O)c3ccc(-c4c5nc(c(-c6cc(S(=O)(=O)[O-])ccc6F)c6ccc([nH]6)c(-c6cc(S(=O)(=O)[O-])ccc6F)c6nc(c(-c7cc(S(=O)(=O)[O-])ccc7F)c7ccc4[nH]7)C=C6)C=C5)cc3)cc2)c1
REMARK SMILES IDX 22 1 23 2 24 3 20 5 21 6 19 7 16 8 17 9 98 10 18 11 97 12
REMARK SMILES IDX 15 13 11 14 12 15 99 16 13 17 14 18 10 19 8 20 7 21 9 23
REMARK SMILES IDX 6 24 5 25 4 26 3 27 2 28 1 29 25 30 26 31 27 32 28 33 29 34
REMARK SMILES IDX 30 35 31 36 32 37 33 39 34 40 35 41 96 42 36 43 95 44 37 45
REMARK SMILES IDX 38 46 39 47 89 48 40 49 94 50 88 51 90 52 41 53 93 54 87 55
REMARK SMILES IDX 86 56 42 58 74 59 54 60 73 61 55 62 58 63 72 64 91 65 56 66
REMARK SMILES IDX 57 67 71 69 92 70 59 71 43 72 44 73 52 74 45 75 51 76 53 77
REMARK SMILES IDX 50 78 46 79 47 80 48 81 49 82 75 83 76 84 84 85 77 86 83 87
REMARK SMILES IDX 85 88 82 89 78 90 79 91 80 92 81 93 60 94 61 95 69 96 62 97
REMARK SMILES IDX 68 98 70 99 67 100 63 101 64 102 65 103 66 104
REMARK H PARENT 24 4 7 22 31 38 90 57 58 68
REMARK Flexibility Score: inf
ROOT
ATOM      1  C   UNL     1      -3.739  13.115   5.951  1.00  0.00     0.227 C 
ATOM      2  O   UNL     1      -2.768  13.523   5.299  1.00  0.00    -0.274 OA
ATOM      3  N   UNL     1      -3.617  13.153   7.306  1.00  0.00    -0.356 N 
ATOM      4  H   UNL     1      -2.784  13.570   7.625  1.00  0.00     0.163 HD
ENDROOT
BRANCH   1   5
ATOM      5  C   UNL     1      -5.001  12.631   5.220  1.00  0.00     0.105 C 
ATOM      6  C   UNL     1      -6.249  13.457   5.529  1.00  0.00     0.023 C 
BRANCH   5   7
ATOM      7  C   UNL     1      -5.182  11.121   5.244  1.00  0.00    -0.036 A 
ATOM      8  C   UNL     1      -5.334   8.268   5.315  1.00  0.00    -0.018 A 
ATOM      9  C   UNL     1      -5.923   9.062   6.308  1.00  0.00     0.009 A 
ATOM     10  C   UNL     1      -4.696   8.939   4.260  1.00  0.00     0.009 A 
ATOM     11  C   UNL     1      -5.884  10.458   6.252  1.00  0.00     0.005 A 
ATOM     12  C   UNL     1      -4.602  10.338   4.236  1.00  0.00     0.005 A 
BRANCH   8  13
ATOM     13  C   UNL     1      -5.385   6.791   5.399  1.00  0.00    -0.015 A 
ATOM     14  C   UNL     1      -4.380   4.602   5.079  1.00  0.00     0.133 A 
ATOM     15  C   UNL     1      -5.491   3.970   5.628  1.00  0.00     0.047 A 
ATOM     16  C   UNL     1      -4.318   5.992   4.958  1.00  0.00     0.056 A 
ATOM     17  C   UNL     1      -6.558   4.741   6.070  1.00  0.00     0.004 A 
ATOM     18  C   UNL     1      -6.507   6.133   5.945  1.00  0.00     0.009 A 
BRANCH  14  19
ATOM     19  O   UNL     1      -3.394   3.765   4.532  1.00  0.00    -0.410 OA
BRANCH  19  20
ATOM     20  C   UNL     1      -2.059   3.990   4.822  1.00  0.00     0.412 C 
ATOM     21  N   UNL     1      -1.225   3.146   4.142  1.00  0.00    -0.321 N 
ATOM     22  H   UNL     1      -0.262   3.225   4.330  1.00  0.00     0.167 HD
ATOM     23  O   UNL     1      -1.614   4.832   5.592  1.00  0.00    -0.224 OA
BRANCH  21  24
ATOM     24  C   UNL     1      -1.621   2.145   3.172  1.00  0.00     0.119 C 
BRANCH  24  25
ATOM     25  C   UNL     1      -1.030   2.432   1.792  1.00  0.00     0.021 C 
BRANCH  25  26
ATOM     26  C   UNL     1       0.499   2.349   1.724  1.00  0.00     0.002 C 
BRANCH  26  27
ATOM     27  C   UNL     1       1.101   1.000   2.134  1.00  0.00    -0.000 C 
BRANCH  27  28
ATOM     28  C   UNL     1       0.614  -0.206   1.329  1.00  0.00    -0.003 C 
ATOM     29  C   UNL     1       0.976  -0.129  -0.146  1.00  0.00     0.004 C 
ENDBRANCH  27  28
ENDBRANCH  26  27
ENDBRANCH  25  26
ENDBRANCH  24  25
ENDBRANCH  21  24
ENDBRANCH  19  20
ENDBRANCH  14  19
ENDBRANCH   8  13
ENDBRANCH   5   7
ENDBRANCH   1   5
BRANCH   3  30
ATOM     30  C   UNL     1      -4.493  12.691   8.362  1.00  0.00     0.116 C 
BRANCH  30  31
ATOM     31  C   UNL     1      -4.019  11.360   8.949  1.00  0.00     0.021 C 
BRANCH  31  32
ATOM     32  C   UNL     1      -3.037  11.517  10.114  1.00  0.00     0.002 C 
BRANCH  32  33
ATOM     33  C   UNL     1      -3.605  12.236  11.345  1.00  0.00     0.002 C 
BRANCH  33  34
ATOM     34  C   UNL     1      -4.886  11.627  11.926  1.00  0.00     0.021 C 
BRANCH  34  35
ATOM     35  C   UNL     1      -4.741  10.184  12.402  1.00  0.00     0.116 C 
BRANCH  35  36
ATOM     36  N   UNL     1      -3.768  10.073  13.477  1.00  0.00    -0.352 N 
ATOM     37  C   UNL     1      -3.942   9.658  14.773  1.00  0.00     0.251 C 
ATOM     38  H   UNL     1      -2.849  10.334  13.240  1.00  0.00     0.163 HD
ATOM     39  O   UNL     1      -3.074   9.893  15.608  1.00  0.00    -0.269 OA
BRANCH  37  40
ATOM     40  C   UNL     1      -5.177   8.941  15.160  1.00  0.00     0.039 A 
ATOM     41  C   UNL     1      -5.793   9.254  16.374  1.00  0.00     0.014 A 
ATOM     42  C   UNL     1      -5.708   7.941  14.341  1.00  0.00     0.014 A 
ATOM     43  C   UNL     1      -6.972   8.600  16.741  1.00  0.00     0.010 A 
ATOM     44  C   UNL     1      -6.921   7.343  14.672  1.00  0.00     0.010 A 
ATOM     45  C   UNL     1      -7.562   7.660  15.879  1.00  0.00    -0.014 A 
BRANCH  45  46
ATOM     46  C   UNL     1      -8.841   6.988  16.231  1.00  0.00     0.031 A 
ATOM     47  C   UNL     1      -8.876   5.497  16.435  1.00  0.00     0.074 A 
ATOM     48  C   UNL     1      -9.975   7.711  16.309  1.00  0.00     0.049 A 
ATOM     49  N   UNL     1      -9.900   4.718  16.669  1.00  0.00    -0.248 NA
ATOM     50  C   UNL     1      -7.592   4.787  16.330  1.00  0.00     0.031 C 
ATOM     51  C   UNL     1     -10.070   9.158  16.096  1.00  0.00     0.029 A 
ATOM     52  N   UNL     1     -11.266   7.332  16.579  1.00  0.00    -0.354 N 
ATOM     53  C   UNL     1      -9.388   3.425  16.728  1.00  0.00     0.074 A 
ATOM     54  C   UNL     1      -7.973   3.523  16.440  1.00  0.00     0.031 C 
ATOM     55  C   UNL     1     -11.344   9.544  16.267  1.00  0.00     0.029 A 
ATOM     56  C   UNL     1     -12.166   8.373  16.552  1.00  0.00     0.049 A 
ATOM     57  H   UNL     1     -11.524   6.402  16.774  1.00  0.00     0.167 HD
ATOM     58  C   UNL     1     -10.035   2.268  17.016  1.00  0.00     0.034 A 
ATOM     59  C   UNL     1     -13.504   8.380  16.722  1.00  0.00     0.034 A 
ATOM     60  C   UNL     1     -11.446   2.193  17.311  1.00  0.00     0.049 A 
ATOM     61  C   UNL     1     -14.205   7.077  17.015  1.00  0.00     0.074 A 
ATOM     62  C   UNL     1     -12.193   1.084  17.668  1.00  0.00     0.029 A 
ATOM     63  N   UNL     1     -12.326   3.268  17.274  1.00  0.00    -0.354 N 
ATOM     64  N   UNL     1     -13.699   5.870  17.114  1.00  0.00    -0.248 NA
ATOM     65  C   UNL     1     -15.656   7.141  17.230  1.00  0.00     0.031 C 
ATOM     66  C   UNL     1     -13.533   1.473  17.773  1.00  0.00     0.029 A 
ATOM     67  C   UNL     1     -13.612   2.841  17.568  1.00  0.00     0.049 A 
ATOM     68  H   UNL     1     -12.073   4.197  17.069  1.00  0.00     0.167 HD
ATOM     69  C   UNL     1     -14.766   5.036  17.439  1.00  0.00     0.074 A 
ATOM     70  C   UNL     1     -15.938   5.882  17.531  1.00  0.00     0.031 C 
ATOM     71  C   UNL     1     -14.776   3.695  17.647  1.00  0.00     0.034 A 
BRANCH  58  72
ATOM     72  C   UNL     1      -9.224   0.993  16.997  1.00  0.00     0.023 A 
ATOM     73  C   UNL     1      -8.146   0.786  17.877  1.00  0.00     0.031 A 
ATOM     74  C   UNL     1      -9.518  -0.024  16.071  1.00  0.00     0.131 A 
ATOM     75  C   UNL     1      -7.356  -0.367  17.761  1.00  0.00     0.055 A 
ATOM     76  C   UNL     1      -8.781  -1.209  16.019  1.00  0.00     0.041 A 
ATOM     77  F   UNL     1     -10.521   0.121  15.191  1.00  0.00    -0.206 F 
ATOM     78  C   UNL     1      -7.683  -1.379  16.856  1.00  0.00     0.022 A 
BRANCH  75  79
ATOM     79  S   UNL     1      -5.811  -0.457  18.706  1.00  0.00     0.124 S 
ATOM     80  O   UNL     1      -5.101   0.725  18.223  1.00  0.00    -0.237 OA
ATOM     81  O   UNL     1      -6.280  -0.402  20.085  1.00  0.00    -0.237 OA
ATOM     82  O   UNL     1      -5.231  -1.734  18.294  1.00  0.00    -0.744 OA
ENDBRANCH  75  79
ENDBRANCH  58  72
BRANCH  59  83
ATOM     83  C   UNL     1     -14.273   9.653  16.608  1.00  0.00     0.023 A 
ATOM     84  C   UNL     1     -14.968  10.180  17.708  1.00  0.00     0.031 A 
ATOM     85  C   UNL     1     -14.359  10.341  15.384  1.00  0.00     0.131 A 
ATOM     86  C   UNL     1     -15.759  11.329  17.552  1.00  0.00     0.055 A 
ATOM     87  C   UNL     1     -15.100  11.516  15.248  1.00  0.00     0.041 A 
ATOM     88  F   UNL     1     -13.711   9.884  14.301  1.00  0.00    -0.206 F 
ATOM     89  C   UNL     1     -15.818  12.009  16.333  1.00  0.00     0.022 A 
BRANCH  86  90
ATOM     90  S   UNL     1     -16.787  11.872  18.944  1.00  0.00     0.124 S 
ATOM     91  O   UNL     1     -17.603  10.688  19.189  1.00  0.00    -0.237 OA
ATOM     92  O   UNL     1     -15.784  12.183  19.957  1.00  0.00    -0.237 OA
ATOM     93  O   UNL     1     -17.505  13.026  18.406  1.00  0.00    -0.744 OA
ENDBRANCH  86  90
ENDBRANCH  59  83
BRANCH  71  94
ATOM     94  C   UNL     1     -16.091   3.070  18.047  1.00  0.00     0.023 A 
ATOM     95  C   UNL     1     -17.192   3.032  17.173  1.00  0.00     0.031 A 
ATOM     96  C   UNL     1     -16.246   2.513  19.329  1.00  0.00     0.131 A 
ATOM     97  C   UNL     1     -18.415   2.502  17.612  1.00  0.00     0.055 A 
ATOM     98  C   UNL     1     -17.445   1.927  19.737  1.00  0.00     0.041 A 
ATOM     99  F   UNL     1     -15.230   2.524  20.207  1.00  0.00    -0.206 F 
ATOM    100  C   UNL     1     -18.543   1.932  18.881  1.00  0.00     0.022 A 
BRANCH  97 101
ATOM    101  S   UNL     1     -19.867   2.655  16.537  1.00  0.00     0.124 S 
ATOM    102  O   UNL     1     -19.955   4.100  16.350  1.00  0.00    -0.237 OA
ATOM    103  O   UNL     1     -19.470   1.884  15.363  1.00  0.00    -0.237 OA
ATOM    104  O   UNL     1     -20.945   2.066  17.329  1.00  0.00    -0.744 OA
ENDBRANCH  97 101
ENDBRANCH  71  94
ENDBRANCH  45  46
ENDBRANCH  37  40
ENDBRANCH  35  36
ENDBRANCH  34  35
ENDBRANCH  33  34
ENDBRANCH  32  33
ENDBRANCH  31  32
ENDBRANCH  30  31
ENDBRANCH   3  30
TORSDOF 25
