REMARK SMILES COCC[C@H](NC(=O)N1CC[C@H](C(=O)OC)C1)C(=O)NCCCCCCNC(=O)c1ccc(-c2c3nc(c(-c4cc(S(=O)(=O)[O-])ccc4F)c4ccc([nH]4)c(-c4cc(S(=O)(=O)[O-])ccc4F)c4nc(c(-c5cc(S(=O)(=O)[O-])ccc5F)c5ccc2[nH]5)C=C4)C=C3)cc1
REMARK SMILES IDX 23 1 22 2 21 3 20 4 18 5 19 6 5 8 4 9 3 10 2 11 1 12 6 13
REMARK SMILES IDX 7 14 8 16 9 17 10 18 17 19 11 20 12 21 13 22 14 23 15 24
REMARK SMILES IDX 16 25 24 26 25 27 26 28 27 29 28 30 29 32 30 33 31 34 92 35
REMARK SMILES IDX 32 36 91 37 33 38 34 39 35 40 85 41 36 42 90 43 84 44 86 45
REMARK SMILES IDX 37 46 89 47 83 48 82 49 38 51 70 52 50 53 69 54 51 55 54 56
REMARK SMILES IDX 68 57 87 58 52 59 53 60 67 62 88 63 55 64 39 65 40 66 48 67
REMARK SMILES IDX 41 68 47 69 49 70 46 71 42 72 43 73 44 74 45 75 71 76 72 77
REMARK SMILES IDX 80 78 73 79 79 80 81 81 78 82 74 83 75 84 76 85 77 86 56 87
REMARK SMILES IDX 57 88 65 89 58 90 64 91 66 92 63 93 59 94 60 95 61 96 62 97
REMARK H PARENT 20 7 6 15 27 31 86 50 54 61
REMARK Flexibility Score: inf
ROOT
ATOM      1  C   UNL     1       0.448  -6.276   4.165  1.00  0.00     0.002 C 
ENDROOT
BRANCH   1   2
ATOM      2  C   UNL     1       0.721  -4.767   4.207  1.00  0.00     0.021 C 
BRANCH   2   3
ATOM      3  C   UNL     1       1.459  -4.239   2.982  1.00  0.00     0.116 C 
BRANCH   3   4
ATOM      4  N   UNL     1       0.647  -4.431   1.799  1.00  0.00    -0.354 N 
ATOM      5  C   UNL     1       0.281  -3.552   0.835  1.00  0.00     0.242 C 
ATOM      6  O   UNL     1      -0.617  -3.901   0.062  1.00  0.00    -0.273 OA
ATOM      7  H   UNL     1       0.307  -5.346   1.675  1.00  0.00     0.163 HD
BRANCH   5   8
ATOM      8  C   UNL     1       0.944  -2.175   0.714  1.00  0.00     0.175 C 
BRANCH   8   9
ATOM      9  C   UNL     1       2.481  -2.207   0.646  1.00  0.00     0.063 C 
BRANCH   9  10
ATOM     10  C   UNL     1       3.083  -3.304  -0.233  1.00  0.00     0.162 C 
BRANCH  10  11
ATOM     11  O   UNL     1       2.805  -3.122  -1.618  1.00  0.00    -0.385 OA
ATOM     12  C   UNL     1       1.663  -3.824  -2.091  1.00  0.00     0.194 C 
ENDBRANCH  10  11
ENDBRANCH   9  10
ENDBRANCH   8   9
BRANCH   8  13
ATOM     13  N   UNL     1       0.433  -1.303   1.778  1.00  0.00    -0.326 N 
ATOM     14  C   UNL     1       0.693   0.010   1.978  1.00  0.00     0.318 C 
ATOM     15  H   UNL     1      -0.176  -1.726   2.426  1.00  0.00     0.166 HD
ATOM     16  O   UNL     1       0.712   0.431   3.133  1.00  0.00    -0.249 OA
BRANCH  14  17
ATOM     17  N   UNL     1       1.018   0.784   0.913  1.00  0.00    -0.324 N 
ATOM     18  C   UNL     1       0.387   0.819  -0.390  1.00  0.00     0.122 C 
ATOM     19  C   UNL     1       1.917   1.916   1.050  1.00  0.00     0.136 C 
ATOM     20  C   UNL     1       1.516   1.307  -1.273  1.00  0.00     0.039 C 
ATOM     21  C   UNL     1       2.174   2.376  -0.388  1.00  0.00     0.120 C 
BRANCH  21  22
ATOM     22  C   UNL     1       3.635   2.565  -0.700  1.00  0.00     0.310 C 
ATOM     23  O   UNL     1       4.072   3.561  -1.265  1.00  0.00    -0.252 OA
BRANCH  22  24
ATOM     24  O   UNL     1       4.382   1.494  -0.323  1.00  0.00    -0.469 OA
ATOM     25  C   UNL     1       5.779   1.635  -0.587  1.00  0.00     0.282 C 
ENDBRANCH  22  24
ENDBRANCH  21  22
ENDBRANCH  14  17
ENDBRANCH   8  13
ENDBRANCH   5   8
ENDBRANCH   3   4
ENDBRANCH   2   3
ENDBRANCH   1   2
BRANCH   1  26
ATOM     26  C   UNL     1       1.696  -7.146   3.996  1.00  0.00     0.002 C 
BRANCH  26  27
ATOM     27  C   UNL     1       2.789  -6.898   5.037  1.00  0.00     0.021 C 
BRANCH  27  28
ATOM     28  C   UNL     1       2.310  -6.993   6.480  1.00  0.00     0.116 C 
BRANCH  28  29
ATOM     29  N   UNL     1       1.770  -8.306   6.787  1.00  0.00    -0.352 N 
ATOM     30  C   UNL     1       2.029  -9.104   7.869  1.00  0.00     0.251 C 
ATOM     31  H   UNL     1       1.133  -8.669   6.130  1.00  0.00     0.163 HD
ATOM     32  O   UNL     1       1.650 -10.275   7.869  1.00  0.00    -0.269 OA
BRANCH  30  33
ATOM     33  C   UNL     1       2.784  -8.557   9.014  1.00  0.00     0.039 A 
ATOM     34  C   UNL     1       3.788  -9.334   9.594  1.00  0.00     0.014 A 
ATOM     35  C   UNL     1       2.504  -7.280   9.513  1.00  0.00     0.014 A 
ATOM     36  C   UNL     1       4.533  -8.816  10.654  1.00  0.00     0.010 A 
ATOM     37  C   UNL     1       3.305  -6.734  10.510  1.00  0.00     0.010 A 
ATOM     38  C   UNL     1       4.313  -7.505  11.107  1.00  0.00    -0.014 A 
BRANCH  38  39
ATOM     39  C   UNL     1       5.102  -6.947  12.235  1.00  0.00     0.031 A 
ATOM     40  C   UNL     1       4.412  -6.568  13.519  1.00  0.00     0.074 A 
ATOM     41  C   UNL     1       6.429  -6.757  12.095  1.00  0.00     0.049 A 
ATOM     42  N   UNL     1       4.916  -6.046  14.608  1.00  0.00    -0.248 NA
ATOM     43  C   UNL     1       2.956  -6.776  13.573  1.00  0.00     0.031 C 
ATOM     44  C   UNL     1       7.200  -7.048  10.883  1.00  0.00     0.029 A 
ATOM     45  N   UNL     1       7.366  -6.278  12.975  1.00  0.00    -0.354 N 
ATOM     46  C   UNL     1       3.841  -5.857  15.470  1.00  0.00     0.074 A 
ATOM     47  C   UNL     1       2.650  -6.248  14.747  1.00  0.00     0.031 C 
ATOM     48  C   UNL     1       8.495  -6.778  11.111  1.00  0.00     0.029 A 
ATOM     49  C   UNL     1       8.643  -6.251  12.464  1.00  0.00     0.049 A 
ATOM     50  H   UNL     1       7.145  -5.982  13.887  1.00  0.00     0.167 HD
ATOM     51  C   UNL     1       3.848  -5.425  16.756  1.00  0.00     0.034 A 
ATOM     52  C   UNL     1       9.800  -5.843  13.022  1.00  0.00     0.034 A 
ATOM     53  C   UNL     1       5.048  -5.048  17.463  1.00  0.00     0.049 A 
ATOM     54  C   UNL     1       9.781  -5.344  14.445  1.00  0.00     0.074 A 
ATOM     55  C   UNL     1       5.181  -4.638  18.778  1.00  0.00     0.029 A 
ATOM     56  N   UNL     1       6.324  -5.027  16.911  1.00  0.00    -0.354 N 
ATOM     57  N   UNL     1       8.762  -5.219  15.266  1.00  0.00    -0.248 NA
ATOM     58  C   UNL     1      11.071  -4.948  15.023  1.00  0.00     0.031 C 
ATOM     59  C   UNL     1       6.520  -4.297  18.998  1.00  0.00     0.029 A 
ATOM     60  C   UNL     1       7.242  -4.582  17.851  1.00  0.00     0.049 A 
ATOM     61  H   UNL     1       6.544  -5.290  15.989  1.00  0.00     0.167 HD
ATOM     62  C   UNL     1       9.298  -4.766  16.469  1.00  0.00     0.074 A 
ATOM     63  C   UNL     1      10.729  -4.659  16.269  1.00  0.00     0.031 C 
ATOM     64  C   UNL     1       8.667  -4.471  17.635  1.00  0.00     0.034 A 
BRANCH  51  65
ATOM     65  C   UNL     1       2.516  -5.317  17.461  1.00  0.00     0.023 A 
ATOM     66  C   UNL     1       1.694  -6.439  17.669  1.00  0.00     0.031 A 
ATOM     67  C   UNL     1       2.043  -4.069  17.906  1.00  0.00     0.131 A 
ATOM     68  C   UNL     1       0.416  -6.281  18.225  1.00  0.00     0.055 A 
ATOM     69  C   UNL     1       0.807  -3.932  18.542  1.00  0.00     0.041 A 
ATOM     70  F   UNL     1       2.769  -2.956  17.717  1.00  0.00    -0.206 F 
ATOM     71  C   UNL     1      -0.022  -5.040  18.689  1.00  0.00     0.022 A 
BRANCH  68  72
ATOM     72  S   UNL     1      -0.726  -7.691  18.186  1.00  0.00     0.124 S 
ATOM     73  O   UNL     1      -0.797  -7.973  16.754  1.00  0.00    -0.237 OA
ATOM     74  O   UNL     1      -0.030  -8.683  18.998  1.00  0.00    -0.237 OA
ATOM     75  O   UNL     1      -1.953  -7.154  18.770  1.00  0.00    -0.744 OA
ENDBRANCH  68  72
ENDBRANCH  51  65
BRANCH  52  76
ATOM     76  C   UNL     1      11.073  -5.886  12.244  1.00  0.00     0.023 A 
ATOM     77  C   UNL     1      12.144  -6.698  12.649  1.00  0.00     0.031 A 
ATOM     78  C   UNL     1      11.255  -5.074  11.110  1.00  0.00     0.131 A 
ATOM     79  C   UNL     1      13.366  -6.642  11.960  1.00  0.00     0.055 A 
ATOM     80  C   UNL     1      12.452  -5.067  10.392  1.00  0.00     0.041 A 
ATOM     81  F   UNL     1      10.263  -4.281  10.675  1.00  0.00    -0.206 F 
ATOM     82  C   UNL     1      13.522  -5.843  10.825  1.00  0.00     0.022 A 
BRANCH  79  83
ATOM     83  S   UNL     1      14.783  -7.556  12.628  1.00  0.00     0.124 S 
ATOM     84  O   UNL     1      14.893  -6.993  13.969  1.00  0.00    -0.237 OA
ATOM     85  O   UNL     1      14.318  -8.936  12.548  1.00  0.00    -0.237 OA
ATOM     86  O   UNL     1      15.870  -7.212  11.714  1.00  0.00    -0.744 OA
ENDBRANCH  79  83
ENDBRANCH  52  76
BRANCH  64  87
ATOM     87  C   UNL     1       9.536  -4.059  18.801  1.00  0.00     0.023 A 
ATOM     88  C   UNL     1      10.300  -2.879  18.779  1.00  0.00     0.031 A 
ATOM     89  C   UNL     1       9.617  -4.876  19.943  1.00  0.00     0.131 A 
ATOM     90  C   UNL     1      11.166  -2.587  19.844  1.00  0.00     0.055 A 
ATOM     91  C   UNL     1      10.423  -4.542  21.032  1.00  0.00     0.041 A 
ATOM     92  F   UNL     1       8.913  -6.017  20.020  1.00  0.00    -0.206 F 
ATOM     93  C   UNL     1      11.217  -3.401  20.979  1.00  0.00     0.022 A 
BRANCH  90  94
ATOM     94  S   UNL     1      12.316  -1.195  19.672  1.00  0.00     0.124 S 
ATOM     95  O   UNL     1      13.029  -1.541  18.447  1.00  0.00    -0.237 OA
ATOM     96  O   UNL     1      11.413  -0.053  19.584  1.00  0.00    -0.237 OA
ATOM     97  O   UNL     1      13.117  -1.259  20.894  1.00  0.00    -0.744 OA
ENDBRANCH  90  94
ENDBRANCH  64  87
ENDBRANCH  38  39
ENDBRANCH  30  33
ENDBRANCH  28  29
ENDBRANCH  27  28
ENDBRANCH  26  27
ENDBRANCH   1  26
TORSDOF 23
