REMARK SMILES O=C(C[C@H](c1ccsc1)n1cccc1)NCCCCCCNC(=O)c1ccc(-c2c3nc(c(-c4cc(S(=O)(=O)[O-])ccc4F)c4ccc([nH]4)c(-c4cc(S(=O)(=O)[O-])ccc4F)c4nc(c(-c5cc(S(=O)(=O)[O-])ccc5F)c5ccc2[nH]5)C=C4)C=C3)cc1
REMARK SMILES IDX 19 1 18 2 17 3 16 4 15 5 1 6 2 7 3 9 4 10 10 11 11 12 14 13
REMARK SMILES IDX 12 14 13 15 5 16 6 17 9 18 7 19 8 20 20 21 21 22 22 23 23 24
REMARK SMILES IDX 24 26 25 27 26 28 87 29 27 30 86 31 28 32 29 33 30 34 80 35
REMARK SMILES IDX 31 36 85 37 79 38 81 39 32 40 84 41 78 42 77 43 33 45 65 46
REMARK SMILES IDX 45 47 64 48 46 49 49 50 63 51 82 52 47 53 48 54 62 56 83 57
REMARK SMILES IDX 50 58 34 59 35 60 43 61 36 62 42 63 44 64 41 65 37 66 38 67
REMARK SMILES IDX 39 68 40 69 66 70 67 71 75 72 68 73 74 74 76 75 73 76 69 77
REMARK SMILES IDX 70 78 71 79 72 80 51 81 52 82 60 83 53 84 59 85 61 86 58 87
REMARK SMILES IDX 54 88 55 89 56 90 57 91
REMARK H PARENT 15 8 22 25 81 44 49 55
REMARK Flexibility Score: inf
ROOT
ATOM      1  C   UNL     1       0.946  -0.910   2.957  1.00  0.00     0.002 C 
ENDROOT
BRANCH   1   2
ATOM      2  C   UNL     1       1.864   0.238   3.385  1.00  0.00     0.002 C 
BRANCH   2   3
ATOM      3  C   UNL     1       3.319  -0.146   3.689  1.00  0.00     0.021 C 
BRANCH   3   4
ATOM      4  C   UNL     1       4.093  -0.768   2.527  1.00  0.00     0.116 C 
BRANCH   4   5
ATOM      5  N   UNL     1       4.151   0.104   1.372  1.00  0.00    -0.356 N 
ATOM      6  O   UNL     1       6.200  -0.612   0.590  1.00  0.00    -0.275 OA
ATOM      7  C   UNL     1       5.173   0.064   0.455  1.00  0.00     0.222 C 
ATOM      8  H   UNL     1       3.425   0.756   1.238  1.00  0.00     0.163 HD
BRANCH   7   9
ATOM      9  C   UNL     1       4.915   0.887  -0.781  1.00  0.00     0.130 C 
BRANCH   9  10
ATOM     10  C   UNL     1       4.046   0.197  -1.855  1.00  0.00     0.127 C 
BRANCH  10  11
ATOM     11  N   UNL     1       4.808  -0.192  -3.065  1.00  0.00    -0.346 N 
ATOM     12  C   UNL     1       5.495   0.712  -3.852  1.00  0.00     0.086 A 
ATOM     13  C   UNL     1       4.860  -1.417  -3.683  1.00  0.00     0.086 A 
ATOM     14  C   UNL     1       6.035   0.037  -4.924  1.00  0.00     0.019 A 
ATOM     15  C   UNL     1       5.632  -1.309  -4.817  1.00  0.00     0.019 A 
ENDBRANCH  10  11
BRANCH  10  16
ATOM     16  C   UNL     1       3.110  -0.900  -1.363  1.00  0.00    -0.014 A 
ATOM     17  C   UNL     1       3.520  -2.173  -0.819  1.00  0.00     0.017 A 
ATOM     18  C   UNL     1       1.727  -0.814  -1.367  1.00  0.00     0.070 A 
ATOM     19  C   UNL     1       2.462  -2.980  -0.471  1.00  0.00     0.065 A 
ATOM     20  S   UNL     1       0.963  -2.240  -0.811  1.00  0.00    -0.152 S 
ENDBRANCH  10  16
ENDBRANCH   9  10
ENDBRANCH   7   9
ENDBRANCH   4   5
ENDBRANCH   3   4
ENDBRANCH   2   3
ENDBRANCH   1   2
BRANCH   1  21
ATOM     21  C   UNL     1       0.823  -2.077   3.944  1.00  0.00     0.021 C 
BRANCH  21  22
ATOM     22  C   UNL     1       0.301  -1.680   5.324  1.00  0.00     0.116 C 
BRANCH  22  23
ATOM     23  N   UNL     1      -1.084  -1.236   5.256  1.00  0.00    -0.352 N 
ATOM     24  C   UNL     1      -1.929  -0.882   6.271  1.00  0.00     0.251 C 
ATOM     25  H   UNL     1      -1.466  -1.184   4.351  1.00  0.00     0.163 HD
ATOM     26  O   UNL     1      -3.151  -0.965   6.079  1.00  0.00    -0.269 OA
BRANCH  24  27
ATOM     27  C   UNL     1      -1.433  -0.397   7.574  1.00  0.00     0.039 A 
ATOM     28  C   UNL     1      -2.181  -0.688   8.724  1.00  0.00     0.014 A 
ATOM     29  C   UNL     1      -0.306   0.429   7.660  1.00  0.00     0.014 A 
ATOM     30  C   UNL     1      -1.774  -0.198   9.960  1.00  0.00     0.010 A 
ATOM     31  C   UNL     1       0.119   0.900   8.895  1.00  0.00     0.010 A 
ATOM     32  C   UNL     1      -0.611   0.577  10.043  1.00  0.00    -0.014 A 
BRANCH  32  33
ATOM     33  C   UNL     1      -0.033   0.868  11.374  1.00  0.00     0.031 A 
ATOM     34  C   UNL     1       0.673  -0.427  11.925  1.00  0.00     0.074 A 
ATOM     35  C   UNL     1      -0.219   2.154  11.832  1.00  0.00     0.049 A 
ATOM     36  N   UNL     1       0.822  -0.880  13.135  1.00  0.00    -0.248 NA
ATOM     37  C   UNL     1       1.209  -1.428  10.946  1.00  0.00     0.031 C 
ATOM     38  C   UNL     1      -0.920   3.248  11.099  1.00  0.00     0.029 A 
ATOM     39  N   UNL     1       0.132   2.828  12.982  1.00  0.00    -0.354 N 
ATOM     40  C   UNL     1       1.663  -2.031  13.079  1.00  0.00     0.074 A 
ATOM     41  C   UNL     1       1.736  -2.397  11.701  1.00  0.00     0.031 C 
ATOM     42  C   UNL     1      -1.024   4.373  11.850  1.00  0.00     0.029 A 
ATOM     43  C   UNL     1      -0.406   4.149  13.140  1.00  0.00     0.049 A 
ATOM     44  H   UNL     1       0.721   2.424  13.659  1.00  0.00     0.167 HD
ATOM     45  C   UNL     1       2.374  -2.504  14.152  1.00  0.00     0.034 A 
ATOM     46  C   UNL     1      -0.407   4.943  14.266  1.00  0.00     0.034 A 
ATOM     47  C   UNL     1       2.104  -1.675  15.274  1.00  0.00     0.049 A 
ATOM     48  C   UNL     1       0.357   4.127  15.223  1.00  0.00     0.074 A 
ATOM     49  C   UNL     1       1.040  -1.559  16.122  1.00  0.00     0.029 A 
ATOM     50  N   UNL     1       2.941  -0.600  15.447  1.00  0.00    -0.354 N 
ATOM     51  N   UNL     1       1.639   3.926  15.190  1.00  0.00    -0.248 NA
ATOM     52  C   UNL     1      -0.407   3.349  16.206  1.00  0.00     0.031 C 
ATOM     53  C   UNL     1       0.988  -0.168  16.345  1.00  0.00     0.029 A 
ATOM     54  C   UNL     1       2.151   0.443  15.852  1.00  0.00     0.049 A 
ATOM     55  H   UNL     1       3.915  -0.582  15.308  1.00  0.00     0.167 HD
ATOM     56  C   UNL     1       1.786   2.792  15.946  1.00  0.00     0.074 A 
ATOM     57  C   UNL     1       0.595   2.680  16.763  1.00  0.00     0.031 C 
ATOM     58  C   UNL     1       2.594   1.783  15.535  1.00  0.00     0.034 A 
BRANCH  45  59
ATOM     59  C   UNL     1       3.529  -3.469  14.350  1.00  0.00     0.023 A 
ATOM     60  C   UNL     1       3.876  -3.740  15.704  1.00  0.00     0.031 A 
ATOM     61  C   UNL     1       4.492  -3.804  13.393  1.00  0.00     0.131 A 
ATOM     62  C   UNL     1       5.177  -4.095  16.078  1.00  0.00     0.055 A 
ATOM     63  C   UNL     1       5.772  -4.257  13.766  1.00  0.00     0.041 A 
ATOM     64  F   UNL     1       4.269  -3.626  12.085  1.00  0.00    -0.206 F 
ATOM     65  C   UNL     1       6.138  -4.352  15.111  1.00  0.00     0.022 A 
BRANCH  62  66
ATOM     66  S   UNL     1       5.619  -3.978  17.840  1.00  0.00     0.124 S 
ATOM     67  O   UNL     1       5.304  -2.587  18.142  1.00  0.00    -0.237 OA
ATOM     68  O   UNL     1       4.740  -4.976  18.443  1.00  0.00    -0.237 OA
ATOM     69  O   UNL     1       7.041  -4.314  17.856  1.00  0.00    -0.744 OA
ENDBRANCH  62  66
ENDBRANCH  45  59
BRANCH  46  70
ATOM     70  C   UNL     1      -1.061   6.204  14.854  1.00  0.00     0.023 A 
ATOM     71  C   UNL     1      -1.785   7.207  14.182  1.00  0.00     0.031 A 
ATOM     72  C   UNL     1      -1.020   6.383  16.279  1.00  0.00     0.131 A 
ATOM     73  C   UNL     1      -2.497   8.205  14.928  1.00  0.00     0.055 A 
ATOM     74  C   UNL     1      -1.810   7.277  17.001  1.00  0.00     0.041 A 
ATOM     75  F   UNL     1      -0.187   5.684  17.063  1.00  0.00    -0.206 F 
ATOM     76  C   UNL     1      -2.579   8.186  16.323  1.00  0.00     0.022 A 
BRANCH  73  77
ATOM     77  S   UNL     1      -3.344   9.601  14.115  1.00  0.00     0.124 S 
ATOM     78  O   UNL     1      -2.260  10.563  13.962  1.00  0.00    -0.237 OA
ATOM     79  O   UNL     1      -3.851   9.000  12.884  1.00  0.00    -0.237 OA
ATOM     80  O   UNL     1      -4.376   9.982  15.079  1.00  0.00    -0.744 OA
ENDBRANCH  73  77
ENDBRANCH  46  70
BRANCH  58  81
ATOM     81  C   UNL     1       3.646   2.166  14.490  1.00  0.00     0.023 A 
ATOM     82  C   UNL     1       4.640   3.112  14.793  1.00  0.00     0.031 A 
ATOM     83  C   UNL     1       3.646   1.690  13.164  1.00  0.00     0.131 A 
ATOM     84  C   UNL     1       5.558   3.543  13.809  1.00  0.00     0.055 A 
ATOM     85  C   UNL     1       4.556   2.110  12.184  1.00  0.00     0.041 A 
ATOM     86  F   UNL     1       2.745   0.801  12.759  1.00  0.00    -0.206 F 
ATOM     87  C   UNL     1       5.522   3.045  12.505  1.00  0.00     0.022 A 
BRANCH  84  88
ATOM     88  S   UNL     1       6.832   4.755  14.249  1.00  0.00     0.124 S 
ATOM     89  O   UNL     1       6.056   5.973  14.453  1.00  0.00    -0.237 OA
ATOM     90  O   UNL     1       7.429   4.166  15.443  1.00  0.00    -0.237 OA
ATOM     91  O   UNL     1       7.707   4.774  13.076  1.00  0.00    -0.744 OA
ENDBRANCH  84  88
ENDBRANCH  58  81
ENDBRANCH  32  33
ENDBRANCH  24  27
ENDBRANCH  22  23
ENDBRANCH  21  22
ENDBRANCH   1  21
TORSDOF 19
