REMARK SMILES O=C(C[N@@H+]1CCC[C@@H]1C(=O)NCCCCCCNC(=O)c1ccc(-c2c3nc(c(-c4cc(S(=O)(=O)[O-])ccc4F)c4ccc([nH]4)c(-c4cc(S(=O)(=O)[O-])ccc4F)c4nc(c(-c5cc(S(=O)(=O)[O-])ccc5F)c5ccc2[nH]5)C=C4)C=C3)cc1)NCc1ccc(Cl)cc1
REMARK SMILES IDX 14 1 13 2 12 3 11 4 9 5 10 6 8 8 4 9 5 10 6 12 7 13 3 14
REMARK SMILES IDX 2 15 1 16 84 17 85 19 86 20 87 21 92 22 88 23 91 24 89 25
REMARK SMILES IDX 90 26 15 27 16 28 17 29 18 30 19 31 20 33 21 34 22 35 83 36
REMARK SMILES IDX 23 37 82 38 24 39 25 40 26 41 76 42 27 43 81 44 75 45 77 46
REMARK SMILES IDX 28 47 80 48 74 49 73 50 29 52 61 53 41 54 60 55 42 56 45 57
REMARK SMILES IDX 59 58 78 59 43 60 44 61 58 63 79 64 46 65 30 66 31 67 39 68
REMARK SMILES IDX 32 69 38 70 40 71 37 72 33 73 34 74 35 75 36 76 62 77 63 78
REMARK SMILES IDX 71 79 64 80 70 81 72 82 69 83 65 84 66 85 67 86 68 87 47 88
REMARK SMILES IDX 48 89 56 90 49 91 55 92 57 93 54 94 50 95 51 96 52 97 53 98
REMARK H PARENT 11 7 4 11 84 18 18 32 77 51 45 62
REMARK Flexibility Score: inf
ROOT
ATOM      1  C   UNL     1      -0.158  -2.450   5.106  1.00  0.00     0.002 C 
ENDROOT
BRANCH   1   2
ATOM      2  C   UNL     1       0.949  -3.047   4.233  1.00  0.00     0.021 C 
BRANCH   2   3
ATOM      3  C   UNL     1       1.580  -2.054   3.266  1.00  0.00     0.116 C 
BRANCH   3   4
ATOM      4  N   UNL     1       2.489  -1.149   3.940  1.00  0.00    -0.351 N 
ATOM      5  C   UNL     1       3.766  -0.790   3.634  1.00  0.00     0.278 C 
ATOM      6  O   UNL     1       4.271   0.108   4.319  1.00  0.00    -0.268 OA
ATOM      7  H   UNL     1       2.124  -0.724   4.750  1.00  0.00     0.163 HD
BRANCH   5   8
ATOM      8  C   UNL     1       4.584  -1.442   2.496  1.00  0.00     0.274 C 
ATOM      9  N   UNL     1       4.089  -1.249   1.119  1.00  0.00    -0.317 N 
ATOM     10  C   UNL     1       3.742  -2.527   0.518  1.00  0.00     0.263 C 
ATOM     11  H   UNL     1       4.863  -0.907   0.549  1.00  0.00     0.349 HD
ATOM     12  C   UNL     1       4.241  -3.621   1.453  1.00  0.00     0.068 C 
ATOM     13  C   UNL     1       4.804  -2.936   2.686  1.00  0.00     0.081 C 
BRANCH   9  14
ATOM     14  C   UNL     1       3.221  -0.090   0.891  1.00  0.00     0.364 C 
BRANCH  14  15
ATOM     15  C   UNL     1       2.394  -0.165  -0.390  1.00  0.00     0.275 C 
ATOM     16  O   UNL     1       1.188  -0.402  -0.368  1.00  0.00    -0.268 OA
ATOM     17  N   UNL     1       3.097   0.078  -1.542  1.00  0.00    -0.347 N 
ATOM     18  H   UNL     1       4.078   0.155  -1.494  1.00  0.00     0.164 HD
BRANCH  17  19
ATOM     19  C   UNL     1       2.445   0.225  -2.820  1.00  0.00     0.151 C 
BRANCH  19  20
ATOM     20  C   UNL     1       2.659   1.627  -3.331  1.00  0.00    -0.029 A 
ATOM     21  C   UNL     1       3.729   1.916  -4.189  1.00  0.00     0.007 A 
ATOM     22  C   UNL     1       1.831   2.673  -2.894  1.00  0.00     0.007 A 
ATOM     23  C   UNL     1       3.963   3.227  -4.610  1.00  0.00     0.021 A 
ATOM     24  C   UNL     1       2.064   3.984  -3.316  1.00  0.00     0.021 A 
ATOM     25  C   UNL     1       3.131   4.255  -4.170  1.00  0.00     0.041 A 
ATOM     26  Cl  UNL     1       3.431   5.871  -4.679  1.00  0.00    -0.084 Cl
ENDBRANCH  19  20
ENDBRANCH  17  19
ENDBRANCH  14  15
ENDBRANCH   9  14
ENDBRANCH   5   8
ENDBRANCH   3   4
ENDBRANCH   2   3
ENDBRANCH   1   2
BRANCH   1  27
ATOM     27  C   UNL     1      -1.366  -1.897   4.340  1.00  0.00     0.002 C 
BRANCH  27  28
ATOM     28  C   UNL     1      -2.025  -2.870   3.358  1.00  0.00     0.021 C 
BRANCH  28  29
ATOM     29  C   UNL     1      -2.505  -4.178   3.979  1.00  0.00     0.116 C 
BRANCH  29  30
ATOM     30  N   UNL     1      -3.545  -3.968   4.973  1.00  0.00    -0.352 N 
ATOM     31  C   UNL     1      -4.742  -4.627   5.113  1.00  0.00     0.251 C 
ATOM     32  H   UNL     1      -3.368  -3.260   5.634  1.00  0.00     0.163 HD
ATOM     33  O   UNL     1      -5.588  -4.214   5.900  1.00  0.00    -0.269 OA
BRANCH  31  34
ATOM     34  C   UNL     1      -5.006  -5.822   4.285  1.00  0.00     0.039 A 
ATOM     35  C   UNL     1      -6.200  -5.903   3.563  1.00  0.00     0.014 A 
ATOM     36  C   UNL     1      -4.056  -6.844   4.200  1.00  0.00     0.014 A 
ATOM     37  C   UNL     1      -6.412  -6.981   2.700  1.00  0.00     0.010 A 
ATOM     38  C   UNL     1      -4.244  -7.884   3.296  1.00  0.00     0.010 A 
ATOM     39  C   UNL     1      -5.420  -7.960   2.533  1.00  0.00    -0.014 A 
BRANCH  39  40
ATOM     40  C   UNL     1      -5.581  -9.082   1.572  1.00  0.00     0.031 A 
ATOM     41  C   UNL     1      -5.638 -10.495   2.081  1.00  0.00     0.074 A 
ATOM     42  C   UNL     1      -5.578  -8.836   0.247  1.00  0.00     0.049 A 
ATOM     43  N   UNL     1      -5.605 -11.620   1.415  1.00  0.00    -0.248 NA
ATOM     44  C   UNL     1      -5.702 -10.658   3.541  1.00  0.00     0.031 C 
ATOM     45  C   UNL     1      -5.498  -7.509  -0.367  1.00  0.00     0.029 A 
ATOM     46  N   UNL     1      -5.618  -9.695  -0.823  1.00  0.00    -0.354 N 
ATOM     47  C   UNL     1      -5.626 -12.627   2.374  1.00  0.00     0.074 A 
ATOM     48  C   UNL     1      -5.614 -11.973   3.667  1.00  0.00     0.031 C 
ATOM     49  C   UNL     1      -5.498  -7.643  -1.703  1.00  0.00     0.029 A 
ATOM     50  C   UNL     1      -5.529  -9.062  -2.042  1.00  0.00     0.049 A 
ATOM     51  H   UNL     1      -5.703 -10.671  -0.728  1.00  0.00     0.167 HD
ATOM     52  C   UNL     1      -5.669 -13.971   2.193  1.00  0.00     0.034 A 
ATOM     53  C   UNL     1      -5.453  -9.569  -3.288  1.00  0.00     0.034 A 
ATOM     54  C   UNL     1      -5.688 -14.603   0.895  1.00  0.00     0.049 A 
ATOM     55  C   UNL     1      -5.483 -11.066  -3.469  1.00  0.00     0.074 A 
ATOM     56  C   UNL     1      -5.766 -15.951   0.591  1.00  0.00     0.029 A 
ATOM     57  N   UNL     1      -5.626 -13.927  -0.318  1.00  0.00    -0.354 N 
ATOM     58  N   UNL     1      -5.526 -12.007  -2.554  1.00  0.00    -0.248 NA
ATOM     59  C   UNL     1      -5.464 -11.568  -4.848  1.00  0.00     0.031 C 
ATOM     60  C   UNL     1      -5.694 -16.093  -0.799  1.00  0.00     0.029 A 
ATOM     61  C   UNL     1      -5.643 -14.832  -1.369  1.00  0.00     0.049 A 
ATOM     62  H   UNL     1      -5.576 -12.949  -0.416  1.00  0.00     0.167 HD
ATOM     63  C   UNL     1      -5.571 -13.211  -3.250  1.00  0.00     0.074 A 
ATOM     64  C   UNL     1      -5.559 -12.876  -4.660  1.00  0.00     0.031 C 
ATOM     65  C   UNL     1      -5.624 -14.480  -2.770  1.00  0.00     0.034 A 
BRANCH  52  66
ATOM     66  C   UNL     1      -5.668 -14.835   3.432  1.00  0.00     0.023 A 
ATOM     67  C   UNL     1      -6.707 -14.767   4.377  1.00  0.00     0.031 A 
ATOM     68  C   UNL     1      -4.594 -15.703   3.699  1.00  0.00     0.131 A 
ATOM     69  C   UNL     1      -6.608 -15.480   5.581  1.00  0.00     0.055 A 
ATOM     70  C   UNL     1      -4.545 -16.478   4.859  1.00  0.00     0.041 A 
ATOM     71  F   UNL     1      -3.563 -15.797   2.845  1.00  0.00    -0.206 F 
ATOM     72  C   UNL     1      -5.546 -16.356   5.818  1.00  0.00     0.022 A 
BRANCH  69  73
ATOM     73  S   UNL     1      -7.804 -15.123   6.897  1.00  0.00     0.124 S 
ATOM     74  O   UNL     1      -7.585 -13.695   7.113  1.00  0.00    -0.237 OA
ATOM     75  O   UNL     1      -9.073 -15.489   6.279  1.00  0.00    -0.237 OA
ATOM     76  O   UNL     1      -7.372 -15.985   7.996  1.00  0.00    -0.744 OA
ENDBRANCH  69  73
ENDBRANCH  52  66
BRANCH  53  77
ATOM     77  C   UNL     1      -5.322  -8.662  -4.463  1.00  0.00     0.023 A 
ATOM     78  C   UNL     1      -6.344  -8.566  -5.420  1.00  0.00     0.031 A 
ATOM     79  C   UNL     1      -4.156  -7.902  -4.663  1.00  0.00     0.131 A 
ATOM     80  C   UNL     1      -6.164  -7.762  -6.557  1.00  0.00     0.055 A 
ATOM     81  C   UNL     1      -4.002  -7.065  -5.770  1.00  0.00     0.041 A 
ATOM     82  F   UNL     1      -3.151  -7.953  -3.774  1.00  0.00    -0.206 F 
ATOM     83  C   UNL     1      -5.006  -7.002  -6.732  1.00  0.00     0.022 A 
BRANCH  80  84
ATOM     84  S   UNL     1      -7.439  -7.785  -7.846  1.00  0.00     0.124 S 
ATOM     85  O   UNL     1      -7.474  -9.198  -8.205  1.00  0.00    -0.237 OA
ATOM     86  O   UNL     1      -8.603  -7.276  -7.129  1.00  0.00    -0.237 OA
ATOM     87  O   UNL     1      -6.902  -6.893  -8.871  1.00  0.00    -0.744 OA
ENDBRANCH  80  84
ENDBRANCH  53  77
BRANCH  65  88
ATOM     88  C   UNL     1      -5.730 -15.592  -3.783  1.00  0.00     0.023 A 
ATOM     89  C   UNL     1      -4.668 -15.913  -4.647  1.00  0.00     0.031 A 
ATOM     90  C   UNL     1      -6.918 -16.336  -3.888  1.00  0.00     0.131 A 
ATOM     91  C   UNL     1      -4.833 -16.919  -5.611  1.00  0.00     0.055 A 
ATOM     92  C   UNL     1      -7.058 -17.371  -4.812  1.00  0.00     0.041 A 
ATOM     93  F   UNL     1      -7.964 -16.069  -3.089  1.00  0.00    -0.206 F 
ATOM     94  C   UNL     1      -6.016 -17.660  -5.689  1.00  0.00     0.022 A 
BRANCH  91  95
ATOM     95  S   UNL     1      -3.509 -17.195  -6.820  1.00  0.00     0.124 S 
ATOM     96  O   UNL     1      -3.409 -15.889  -7.464  1.00  0.00    -0.237 OA
ATOM     97  O   UNL     1      -2.385 -17.575  -5.970  1.00  0.00    -0.237 OA
ATOM     98  O   UNL     1      -4.034 -18.265  -7.666  1.00  0.00    -0.744 OA
ENDBRANCH  91  95
ENDBRANCH  65  88
ENDBRANCH  39  40
ENDBRANCH  31  34
ENDBRANCH  29  30
ENDBRANCH  28  29
ENDBRANCH  27  28
ENDBRANCH   1  27
TORSDOF 20
