REMARK SMILES O=C(NCCCCCCNC(=O)c1ccc(S(=O)(=O)NC[C@H]2CCS(=O)(=O)C2)cc1)c1ccc(-c2c3nc(c(-c4cc(S(=O)(=O)[O-])ccc4F)c4ccc([nH]4)c(-c4cc(S(=O)(=O)[O-])ccc4F)c4nc(c(-c5cc(S(=O)(=O)[O-])ccc5F)c5ccc2[nH]5)C=C4)C=C3)cc1
REMARK SMILES IDX 7 1 6 2 5 3 4 4 3 5 1 6 2 7 31 9 32 10 93 11 33 12 92 13
REMARK SMILES IDX 34 14 35 15 36 16 86 17 37 18 91 19 85 20 87 21 38 22 90 23
REMARK SMILES IDX 84 24 83 25 39 27 71 28 51 29 70 30 52 31 55 32 69 33 88 34
REMARK SMILES IDX 53 35 54 36 68 38 89 39 56 40 40 41 41 42 49 43 42 44 48 45
REMARK SMILES IDX 50 46 47 47 43 48 44 49 45 50 46 51 72 52 73 53 81 54 74 55
REMARK SMILES IDX 80 56 82 57 79 58 75 59 76 60 77 61 78 62 57 63 58 64 66 65
REMARK SMILES IDX 59 66 65 67 67 68 64 69 60 70 61 71 62 72 63 73 8 74 9 75
REMARK SMILES IDX 10 76 11 77 12 79 13 80 14 81 30 82 15 83 29 84 16 85 17 86
REMARK SMILES IDX 18 87 19 88 20 89 21 91 22 92 23 93 28 94 24 95 25 96 26 97
REMARK SMILES IDX 27 98
REMARK H PARENT 3 8 87 26 55 37 10 78 20 90
REMARK Flexibility Score: inf
ROOT
ATOM      1  C   UNL     1      20.789  -1.201  -0.655  1.00  0.00     0.002 C 
ENDROOT
BRANCH   1   2
ATOM      2  C   UNL     1      21.931  -0.906  -1.630  1.00  0.00     0.002 C 
BRANCH   2   3
ATOM      3  C   UNL     1      22.657   0.425  -1.429  1.00  0.00     0.021 C 
BRANCH   3   4
ATOM      4  C   UNL     1      23.186   0.676  -0.024  1.00  0.00     0.116 C 
BRANCH   4   5
ATOM      5  N   UNL     1      24.195  -0.288   0.380  1.00  0.00    -0.352 N 
ATOM      6  O   UNL     1      26.219  -0.989   1.083  1.00  0.00    -0.269 OA
ATOM      7  C   UNL     1      25.434  -0.058   0.930  1.00  0.00     0.251 C 
ATOM      8  H   UNL     1      23.961  -1.234   0.239  1.00  0.00     0.163 HD
BRANCH   7   9
ATOM      9  C   UNL     1      25.822   1.318   1.316  1.00  0.00     0.039 A 
ATOM     10  C   UNL     1      24.936   2.138   2.018  1.00  0.00     0.014 A 
ATOM     11  C   UNL     1      27.094   1.789   0.975  1.00  0.00     0.014 A 
ATOM     12  C   UNL     1      25.271   3.464   2.268  1.00  0.00     0.010 A 
ATOM     13  C   UNL     1      27.461   3.099   1.302  1.00  0.00     0.010 A 
ATOM     14  C   UNL     1      26.545   3.954   1.932  1.00  0.00    -0.014 A 
BRANCH  14  15
ATOM     15  C   UNL     1      26.914   5.338   2.328  1.00  0.00     0.031 A 
ATOM     16  C   UNL     1      27.186   6.400   1.300  1.00  0.00     0.074 A 
ATOM     17  C   UNL     1      26.967   5.633   3.643  1.00  0.00     0.049 A 
ATOM     18  N   UNL     1      27.495   7.659   1.480  1.00  0.00    -0.248 NA
ATOM     19  C   UNL     1      27.107   5.997  -0.112  1.00  0.00     0.031 C 
ATOM     20  C   UNL     1      26.730   4.675   4.727  1.00  0.00     0.029 A 
ATOM     21  N   UNL     1      27.214   6.813   4.294  1.00  0.00    -0.354 N 
ATOM     22  C   UNL     1      27.658   8.200   0.209  1.00  0.00     0.074 A 
ATOM     23  C   UNL     1      27.444   7.120  -0.733  1.00  0.00     0.031 C 
ATOM     24  C   UNL     1      26.797   5.315   5.903  1.00  0.00     0.029 A 
ATOM     25  C   UNL     1      27.149   6.709   5.664  1.00  0.00     0.049 A 
ATOM     26  H   UNL     1      27.419   7.655   3.826  1.00  0.00     0.167 HD
ATOM     27  C   UNL     1      27.950   9.480  -0.136  1.00  0.00     0.034 A 
ATOM     28  C   UNL     1      27.369   7.626   6.625  1.00  0.00     0.034 A 
ATOM     29  C   UNL     1      28.166  10.542   0.820  1.00  0.00     0.049 A 
ATOM     30  C   UNL     1      27.730   9.027   6.214  1.00  0.00     0.074 A 
ATOM     31  C   UNL     1      28.447  11.877   0.579  1.00  0.00     0.029 A 
ATOM     32  N   UNL     1      28.136  10.391   2.201  1.00  0.00    -0.354 N 
ATOM     33  N   UNL     1      27.861   9.524   5.005  1.00  0.00    -0.248 NA
ATOM     34  C   UNL     1      27.970   9.990   7.294  1.00  0.00     0.031 C 
ATOM     35  C   UNL     1      28.647  12.516   1.808  1.00  0.00     0.029 A 
ATOM     36  C   UNL     1      28.421  11.600   2.822  1.00  0.00     0.049 A 
ATOM     37  H   UNL     1      27.940   9.549   2.672  1.00  0.00     0.167 HD
ATOM     38  C   UNL     1      28.186  10.864   5.182  1.00  0.00     0.074 A 
ATOM     39  C   UNL     1      28.198  11.102   6.612  1.00  0.00     0.031 C 
ATOM     40  C   UNL     1      28.454  11.813   4.250  1.00  0.00     0.034 A 
BRANCH  27  41
ATOM     41  C   UNL     1      28.093   9.793  -1.606  1.00  0.00     0.023 A 
ATOM     42  C   UNL     1      27.002   9.712  -2.490  1.00  0.00     0.031 A 
ATOM     43  C   UNL     1      29.339  10.178  -2.133  1.00  0.00     0.131 A 
ATOM     44  C   UNL     1      27.189   9.957  -3.860  1.00  0.00     0.055 A 
ATOM     45  C   UNL     1      29.504  10.488  -3.485  1.00  0.00     0.041 A 
ATOM     46  F   UNL     1      30.421  10.254  -1.342  1.00  0.00    -0.206 F 
ATOM     47  C   UNL     1      28.427  10.368  -4.359  1.00  0.00     0.022 A 
BRANCH  44  48
ATOM     48  S   UNL     1      25.817   9.621  -4.998  1.00  0.00     0.124 S 
ATOM     49  O   UNL     1      25.575   8.200  -4.761  1.00  0.00    -0.237 OA
ATOM     50  O   UNL     1      24.780  10.530  -4.522  1.00  0.00    -0.237 OA
ATOM     51  O   UNL     1      26.372   9.941  -6.311  1.00  0.00    -0.744 OA
ENDBRANCH  44  48
ENDBRANCH  27  41
BRANCH  28  52
ATOM     52  C   UNL     1      27.293   7.242   8.063  1.00  0.00     0.023 A 
ATOM     53  C   UNL     1      26.341   7.817   8.918  1.00  0.00     0.031 A 
ATOM     54  C   UNL     1      28.200   6.316   8.611  1.00  0.00     0.131 A 
ATOM     55  C   UNL     1      26.345   7.495  10.284  1.00  0.00     0.055 A 
ATOM     56  C   UNL     1      28.162   5.955   9.958  1.00  0.00     0.041 A 
ATOM     57  F   UNL     1      29.128   5.734   7.836  1.00  0.00    -0.206 F 
ATOM     58  C   UNL     1      27.239   6.558  10.807  1.00  0.00     0.022 A 
BRANCH  55  59
ATOM     59  S   UNL     1      25.221   8.391  11.389  1.00  0.00     0.124 S 
ATOM     60  O   UNL     1      25.586   9.778  11.126  1.00  0.00    -0.237 OA
ATOM     61  O   UNL     1      23.914   7.967  10.896  1.00  0.00    -0.237 OA
ATOM     62  O   UNL     1      25.577   7.891  12.715  1.00  0.00    -0.744 OA
ENDBRANCH  55  59
ENDBRANCH  28  52
BRANCH  40  63
ATOM     63  C   UNL     1      28.756  13.197   4.767  1.00  0.00     0.023 A 
ATOM     64  C   UNL     1      29.918  13.465   5.512  1.00  0.00     0.031 A 
ATOM     65  C   UNL     1      27.850  14.250   4.552  1.00  0.00     0.131 A 
ATOM     66  C   UNL     1      30.111  14.736   6.072  1.00  0.00     0.055 A 
ATOM     67  C   UNL     1      28.077  15.529   5.060  1.00  0.00     0.041 A 
ATOM     68  F   UNL     1      26.723  14.048   3.850  1.00  0.00    -0.206 F 
ATOM     69  C   UNL     1      29.205  15.774   5.838  1.00  0.00     0.022 A 
BRANCH  66  70
ATOM     70  S   UNL     1      31.509  14.986   7.201  1.00  0.00     0.124 S 
ATOM     71  O   UNL     1      31.245  13.991   8.235  1.00  0.00    -0.237 OA
ATOM     72  O   UNL     1      32.656  14.721   6.339  1.00  0.00    -0.237 OA
ATOM     73  O   UNL     1      31.362  16.377   7.626  1.00  0.00    -0.744 OA
ENDBRANCH  66  70
ENDBRANCH  40  63
ENDBRANCH  14  15
ENDBRANCH   7   9
ENDBRANCH   4   5
ENDBRANCH   3   4
ENDBRANCH   2   3
ENDBRANCH   1   2
BRANCH   1  74
ATOM     74  C   UNL     1      19.729  -0.107  -0.516  1.00  0.00     0.021 C 
BRANCH  74  75
ATOM     75  C   UNL     1      19.097   0.362  -1.819  1.00  0.00     0.116 C 
BRANCH  75  76
ATOM     76  N   UNL     1      18.365  -0.689  -2.506  1.00  0.00    -0.352 N 
ATOM     77  C   UNL     1      17.100  -0.655  -3.040  1.00  0.00     0.251 C 
ATOM     78  H   UNL     1      18.842  -1.545  -2.601  1.00  0.00     0.163 HD
ATOM     79  O   UNL     1      16.581  -1.678  -3.475  1.00  0.00    -0.269 OA
BRANCH  77  80
ATOM     80  C   UNL     1      16.347   0.620  -3.068  1.00  0.00     0.039 A 
ATOM     81  C   UNL     1      15.010   0.624  -2.658  1.00  0.00     0.015 A 
ATOM     82  C   UNL     1      16.957   1.806  -3.491  1.00  0.00     0.015 A 
ATOM     83  C   UNL     1      14.298   1.826  -2.629  1.00  0.00     0.022 A 
ATOM     84  C   UNL     1      16.273   3.015  -3.392  1.00  0.00     0.022 A 
ATOM     85  C   UNL     1      14.938   3.021  -2.985  1.00  0.00     0.082 A 
BRANCH  85  86
ATOM     86  S   UNL     1      13.993   4.524  -2.939  1.00  0.00     0.240 S 
ATOM     87  O   UNL     1      12.718   4.249  -3.562  1.00  0.00    -0.207 OA
ATOM     88  O   UNL     1      14.085   5.032  -1.590  1.00  0.00    -0.207 OA
BRANCH  86  89
ATOM     89  N   UNL     1      14.810   5.625  -3.905  1.00  0.00    -0.211 NA
ATOM     90  H   UNL     1      15.708   5.779  -3.446  1.00  0.00     0.141 HD
BRANCH  89  91
ATOM     91  C   UNL     1      15.121   5.419  -5.317  1.00  0.00     0.103 C 
BRANCH  91  92
ATOM     92  C   UNL     1      13.897   5.447  -6.215  1.00  0.00     0.020 C 
ATOM     93  C   UNL     1      13.254   6.834  -6.336  1.00  0.00     0.022 C 
ATOM     94  C   UNL     1      14.262   5.049  -7.647  1.00  0.00     0.142 C 
ATOM     95  C   UNL     1      12.191   6.708  -7.424  1.00  0.00     0.137 C 
ATOM     96  S   UNL     1      12.865   5.567  -8.625  1.00  0.00     0.150 S 
ATOM     97  O   UNL     1      11.959   4.446  -8.765  1.00  0.00    -0.229 OA
ATOM     98  O   UNL     1      13.353   6.311  -9.768  1.00  0.00    -0.229 OA
ENDBRANCH  91  92
ENDBRANCH  89  91
ENDBRANCH  86  89
ENDBRANCH  85  86
ENDBRANCH  77  80
ENDBRANCH  75  76
ENDBRANCH  74  75
ENDBRANCH   1  74
TORSDOF 20
