REMARK SMILES CO[C@@H]1C[NH2+][C@@H](O[C@@H]2C[C@@H](C(=O)NCCCCCCNC(=O)c3ccc(-c4c5nc(c(-c6cc(S(=O)(=O)[O-])ccc6F)c6ccc([nH]6)c(-c6cc(S(=O)(=O)[O-])ccc6F)c6nc(c(-c7cc(S(=O)(=O)[O-])ccc7F)c7ccc4[nH]7)C=C6)C=C5)cc3)N(C(=O)OC(C)(C)C)C2)c2cc(Cl)ccc21
REMARK SMILES IDX 16 1 15 2 14 3 13 4 11 5 12 6 10 8 8 9 9 10 94 11 86 12 7 13
REMARK SMILES IDX 6 14 3 15 4 16 101 17 5 18 95 19 100 20 96 23 99 24 97 25
REMARK SMILES IDX 98 26 2 27 1 28 87 29 88 30 89 31 90 32 91 33 92 34 93 35
REMARK SMILES IDX 17 36 18 37 19 38 20 39 21 40 22 42 23 43 24 44 85 45 25 46
REMARK SMILES IDX 84 47 26 48 27 49 28 50 78 51 29 52 83 53 77 54 79 55 30 56
REMARK SMILES IDX 82 57 76 58 75 59 31 61 63 62 43 63 62 64 44 65 47 66 61 67
REMARK SMILES IDX 80 68 45 69 46 70 60 72 81 73 48 74 32 75 33 76 41 77 34 78
REMARK SMILES IDX 40 79 42 80 39 81 35 82 36 83 37 84 38 85 64 86 65 87 73 88
REMARK SMILES IDX 66 89 72 90 74 91 71 92 67 93 68 94 69 95 70 96 49 97 50 98
REMARK SMILES IDX 58 99 51 100 57 101 59 102 56 103 52 104 53 105 54 106
REMARK SMILES IDX 55 107
REMARK H PARENT 13 7 5 21 5 22 20 41 79 60 47 71
REMARK Flexibility Score: inf
ROOT
ATOM      1  C   UNL     1       5.118  -1.641  -0.008  1.00  0.00     0.002 C 
ENDROOT
BRANCH   1   2
ATOM      2  C   UNL     1       4.236  -0.397  -0.279  1.00  0.00     0.021 C 
BRANCH   2   3
ATOM      3  C   UNL     1       4.030   0.697   0.767  1.00  0.00     0.116 C 
BRANCH   3   4
ATOM      4  N   UNL     1       4.570   1.991   0.447  1.00  0.00    -0.354 N 
ATOM      5  C   UNL     1       4.064   3.227   0.744  1.00  0.00     0.243 C 
ATOM      6  O   UNL     1       4.781   4.172   0.386  1.00  0.00    -0.273 OA
ATOM      7  H   UNL     1       5.418   1.987  -0.053  1.00  0.00     0.163 HD
BRANCH   5   8
ATOM      8  C   UNL     1       2.590   3.471   1.269  1.00  0.00     0.180 C 
ATOM      9  C   UNL     1       1.164   5.325   2.035  1.00  0.00     0.147 C 
ATOM     10  C   UNL     1       2.398   5.016   1.218  1.00  0.00     0.069 C 
ATOM     11  C   UNL     1       1.213   4.258   3.116  1.00  0.00     0.156 C 
ATOM     12  N   UNL     1       1.965   3.125   2.580  1.00  0.00    -0.293 N 
BRANCH   9  13
ATOM     13  O   UNL     1      -0.093   5.552   1.418  1.00  0.00    -0.320 OA
BRANCH  13  14
ATOM     14  C   UNL     1      -0.693   4.888   0.318  1.00  0.00     0.354 C 
ATOM     15  C   UNL     1      -0.088   2.144  -0.640  1.00  0.00     0.203 C 
ATOM     16  C   UNL     1      -0.945   2.466   0.617  1.00  0.00     0.300 C 
ATOM     17  C   UNL     1       0.407   3.366  -1.396  1.00  0.00    -0.002 A 
ATOM     18  N   UNL     1      -1.552   3.787   0.702  1.00  0.00    -0.315 N 
ATOM     19  C   UNL     1       0.122   4.664  -0.933  1.00  0.00     0.046 A 
ATOM     20  C   UNL     1       1.232   3.207  -2.523  1.00  0.00     0.009 A 
ATOM     21  H   UNL     1      -1.845   3.937   1.667  1.00  0.00     0.349 HD
ATOM     22  H   UNL     1      -2.324   3.786   0.036  1.00  0.00     0.349 HD
ATOM     23  C   UNL     1       0.602   5.777  -1.651  1.00  0.00     0.033 A 
ATOM     24  C   UNL     1       1.738   4.318  -3.202  1.00  0.00     0.021 A 
ATOM     25  C   UNL     1       1.408   5.599  -2.773  1.00  0.00     0.041 A 
ATOM     26  Cl  UNL     1       2.015   6.970  -3.616  1.00  0.00    -0.084 Cl
BRANCH  15  27
ATOM     27  O   UNL     1      -0.786   1.273  -1.538  1.00  0.00    -0.371 OA
ATOM     28  C   UNL     1      -0.465  -0.093  -1.282  1.00  0.00     0.196 C 
ENDBRANCH  15  27
ENDBRANCH  13  14
ENDBRANCH   9  13
BRANCH  12  29
ATOM     29  C   UNL     1       1.651   1.940   3.222  1.00  0.00     0.411 C 
ATOM     30  O   UNL     1       1.257   1.935   4.386  1.00  0.00    -0.224 OA
BRANCH  29  31
ATOM     31  O   UNL     1       1.722   0.817   2.470  1.00  0.00    -0.444 OA
BRANCH  31  32
ATOM     32  C   UNL     1       1.598  -0.484   3.124  1.00  0.00     0.106 C 
ATOM     33  C   UNL     1       2.715  -0.630   4.164  1.00  0.00     0.056 C 
ATOM     34  C   UNL     1       0.221  -0.755   3.737  1.00  0.00     0.056 C 
ATOM     35  C   UNL     1       1.786  -1.534   2.019  1.00  0.00     0.056 C 
ENDBRANCH  31  32
ENDBRANCH  29  31
ENDBRANCH  12  29
ENDBRANCH   5   8
ENDBRANCH   3   4
ENDBRANCH   2   3
ENDBRANCH   1   2
BRANCH   1  36
ATOM     36  C   UNL     1       5.939  -1.849   1.273  1.00  0.00     0.002 C 
BRANCH  36  37
ATOM     37  C   UNL     1       5.359  -2.562   2.513  1.00  0.00     0.021 C 
BRANCH  37  38
ATOM     38  C   UNL     1       4.383  -3.739   2.380  1.00  0.00     0.116 C 
BRANCH  38  39
ATOM     39  N   UNL     1       5.014  -5.040   2.248  1.00  0.00    -0.352 N 
ATOM     40  C   UNL     1       4.982  -6.143   3.077  1.00  0.00     0.251 C 
ATOM     41  H   UNL     1       5.552  -5.155   1.432  1.00  0.00     0.163 HD
ATOM     42  O   UNL     1       5.638  -7.135   2.768  1.00  0.00    -0.269 OA
BRANCH  40  43
ATOM     43  C   UNL     1       4.217  -6.149   4.353  1.00  0.00     0.039 A 
ATOM     44  C   UNL     1       2.856  -5.835   4.414  1.00  0.00     0.014 A 
ATOM     45  C   UNL     1       4.876  -6.551   5.521  1.00  0.00     0.014 A 
ATOM     46  C   UNL     1       2.194  -5.804   5.653  1.00  0.00     0.010 A 
ATOM     47  C   UNL     1       4.203  -6.560   6.751  1.00  0.00     0.010 A 
ATOM     48  C   UNL     1       2.864  -6.147   6.841  1.00  0.00    -0.014 A 
BRANCH  48  49
ATOM     49  C   UNL     1       2.191  -6.067   8.175  1.00  0.00     0.031 A 
ATOM     50  C   UNL     1       2.669  -5.077   9.211  1.00  0.00     0.074 A 
ATOM     51  C   UNL     1       1.161  -6.885   8.477  1.00  0.00     0.049 A 
ATOM     52  N   UNL     1       2.274  -4.916  10.449  1.00  0.00    -0.248 NA
ATOM     53  C   UNL     1       3.733  -4.145   8.801  1.00  0.00     0.031 C 
ATOM     54  C   UNL     1       0.582  -7.870   7.567  1.00  0.00     0.029 A 
ATOM     55  N   UNL     1       0.421  -7.023   9.630  1.00  0.00    -0.354 N 
ATOM     56  C   UNL     1       3.044  -3.878  10.969  1.00  0.00     0.074 A 
ATOM     57  C   UNL     1       3.954  -3.470   9.921  1.00  0.00     0.031 C 
ATOM     58  C   UNL     1      -0.433  -8.494   8.184  1.00  0.00     0.029 A 
ATOM     59  C   UNL     1      -0.539  -8.009   9.559  1.00  0.00     0.049 A 
ATOM     60  H   UNL     1       0.566  -6.469  10.431  1.00  0.00     0.167 HD
ATOM     61  C   UNL     1       2.985  -3.308  12.197  1.00  0.00     0.034 A 
ATOM     62  C   UNL     1      -1.389  -8.490  10.493  1.00  0.00     0.034 A 
ATOM     63  C   UNL     1       2.060  -3.705  13.229  1.00  0.00     0.049 A 
ATOM     64  C   UNL     1      -1.382  -7.890  11.880  1.00  0.00     0.074 A 
ATOM     65  C   UNL     1       1.911  -3.160  14.493  1.00  0.00     0.029 A 
ATOM     66  N   UNL     1       1.130  -4.728  13.125  1.00  0.00    -0.354 N 
ATOM     67  N   UNL     1      -0.676  -6.884  12.338  1.00  0.00    -0.248 NA
ATOM     68  C   UNL     1      -2.280  -8.489  12.880  1.00  0.00     0.031 C 
ATOM     69  C   UNL     1       0.945  -3.896  15.177  1.00  0.00     0.029 A 
ATOM     70  C   UNL     1       0.428  -4.849  14.314  1.00  0.00     0.049 A 
ATOM     71  H   UNL     1       0.988  -5.285  12.326  1.00  0.00     0.167 HD
ATOM     72  C   UNL     1      -1.067  -6.711  13.665  1.00  0.00     0.074 A 
ATOM     73  C   UNL     1      -2.085  -7.703  13.932  1.00  0.00     0.031 C 
ATOM     74  C   UNL     1      -0.613  -5.814  14.575  1.00  0.00     0.034 A 
BRANCH  61  75
ATOM     75  C   UNL     1       3.919  -2.165  12.523  1.00  0.00     0.023 A 
ATOM     76  C   UNL     1       4.846  -2.290  13.577  1.00  0.00     0.031 A 
ATOM     77  C   UNL     1       3.768  -0.905  11.918  1.00  0.00     0.131 A 
ATOM     78  C   UNL     1       5.547  -1.163  14.027  1.00  0.00     0.055 A 
ATOM     79  C   UNL     1       4.503   0.205  12.341  1.00  0.00     0.041 A 
ATOM     80  F   UNL     1       2.895  -0.732  10.913  1.00  0.00    -0.206 F 
ATOM     81  C   UNL     1       5.385   0.082  13.411  1.00  0.00     0.022 A 
BRANCH  78  82
ATOM     82  S   UNL     1       6.631  -1.248  15.480  1.00  0.00     0.124 S 
ATOM     83  O   UNL     1       7.907  -0.799  14.928  1.00  0.00    -0.237 OA
ATOM     84  O   UNL     1       5.986  -0.313  16.397  1.00  0.00    -0.237 OA
ATOM     85  O   UNL     1       6.584  -2.652  15.871  1.00  0.00    -0.744 OA
ENDBRANCH  78  82
ENDBRANCH  61  75
BRANCH  62  86
ATOM     86  C   UNL     1      -2.341  -9.584  10.126  1.00  0.00     0.023 A 
ATOM     87  C   UNL     1      -1.877 -10.831   9.669  1.00  0.00     0.031 A 
ATOM     88  C   UNL     1      -3.730  -9.366  10.144  1.00  0.00     0.131 A 
ATOM     89  C   UNL     1      -2.786 -11.778   9.177  1.00  0.00     0.055 A 
ATOM     90  C   UNL     1      -4.637 -10.342   9.727  1.00  0.00     0.041 A 
ATOM     91  F   UNL     1      -4.224  -8.192  10.566  1.00  0.00    -0.206 F 
ATOM     92  C   UNL     1      -4.164 -11.549   9.221  1.00  0.00     0.022 A 
BRANCH  89  93
ATOM     93  S   UNL     1      -2.203 -13.275   8.333  1.00  0.00     0.124 S 
ATOM     94  O   UNL     1      -2.767 -14.333   9.164  1.00  0.00    -0.237 OA
ATOM     95  O   UNL     1      -2.804 -13.123   7.010  1.00  0.00    -0.237 OA
ATOM     96  O   UNL     1      -0.750 -13.147   8.370  1.00  0.00    -0.744 OA
ENDBRANCH  89  93
ENDBRANCH  62  86
BRANCH  74  97
ATOM     97  C   UNL     1      -1.203  -5.810  15.967  1.00  0.00     0.023 A 
ATOM     98  C   UNL     1      -1.867  -4.661  16.444  1.00  0.00     0.031 A 
ATOM     99  C   UNL     1      -0.939  -6.848  16.876  1.00  0.00     0.131 A 
ATOM    100  C   UNL     1      -2.185  -4.552  17.803  1.00  0.00     0.055 A 
ATOM    101  C   UNL     1      -1.309  -6.757  18.220  1.00  0.00     0.041 A 
ATOM    102  F   UNL     1      -0.300  -7.959  16.476  1.00  0.00    -0.206 F 
ATOM    103  C   UNL     1      -1.917  -5.597  18.692  1.00  0.00     0.022 A 
BRANCH 100 104
ATOM    104  S   UNL     1      -2.861  -3.012  18.486  1.00  0.00     0.124 S 
ATOM    105  O   UNL     1      -4.107  -3.472  19.096  1.00  0.00    -0.237 OA
ATOM    106  O   UNL     1      -1.818  -2.611  19.426  1.00  0.00    -0.237 OA
ATOM    107  O   UNL     1      -3.024  -2.151  17.320  1.00  0.00    -0.744 OA
ENDBRANCH 100 104
ENDBRANCH  74  97
ENDBRANCH  48  49
ENDBRANCH  40  43
ENDBRANCH  38  39
ENDBRANCH  37  38
ENDBRANCH  36  37
ENDBRANCH   1  36
TORSDOF 22
