REMARK SMILES CC[C@@H](C)S(=O)(=O)c1cc(C(=O)NCCCCCCNC(=O)c2ccc(-c3c4nc(c(-c5cc(S(=O)(=O)[O-])ccc5F)c5ccc([nH]5)c(-c5cc(S(=O)(=O)[O-])ccc5F)c5nc(c(-c6cc(S(=O)(=O)[O-])ccc6F)c6ccc3[nH]6)C=C5)C=C4)cc2)c(C)cc1C
REMARK SMILES IDX 16 1 15 2 14 3 13 4 11 5 12 6 10 8 8 9 9 10 89 11 88 12
REMARK SMILES IDX 90 13 86 14 87 15 5 16 6 17 7 18 3 19 4 20 2 21 1 22 17 23
REMARK SMILES IDX 18 24 19 25 20 26 21 27 22 29 23 30 24 31 85 32 25 33 84 34
REMARK SMILES IDX 26 35 27 36 28 37 78 38 29 39 83 40 77 41 79 42 30 43 82 44
REMARK SMILES IDX 76 45 75 46 31 48 63 49 43 50 62 51 44 52 47 53 61 54 80 55
REMARK SMILES IDX 45 56 46 57 60 59 81 60 48 61 32 62 33 63 41 64 34 65 40 66
REMARK SMILES IDX 42 67 39 68 35 69 36 70 37 71 38 72 64 73 65 74 73 75 66 76
REMARK SMILES IDX 72 77 74 78 71 79 67 80 68 81 69 82 70 83 49 84 50 85 58 86
REMARK SMILES IDX 51 87 57 88 59 89 56 90 52 91 53 92 54 93 55 94
REMARK H PARENT 13 7 20 28 79 47 47 58
REMARK Flexibility Score: inf
ROOT
ATOM      1  C   UNL     1      -8.323   3.599  -3.099  1.00  0.00     0.002 C 
ENDROOT
BRANCH   1   2
ATOM      2  C   UNL     1      -7.250   2.514  -3.202  1.00  0.00     0.021 C 
BRANCH   2   3
ATOM      3  C   UNL     1      -6.319   2.665  -4.413  1.00  0.00     0.116 C 
BRANCH   3   4
ATOM      4  N   UNL     1      -5.115   3.349  -3.998  1.00  0.00    -0.352 N 
ATOM      5  C   UNL     1      -3.874   2.944  -3.593  1.00  0.00     0.251 C 
ATOM      6  O   UNL     1      -3.152   3.838  -3.140  1.00  0.00    -0.269 OA
ATOM      7  H   UNL     1      -5.212   4.329  -4.008  1.00  0.00     0.163 HD
BRANCH   5   8
ATOM      8  C   UNL     1      -3.284   1.570  -3.750  1.00  0.00     0.044 A 
ATOM      9  C   UNL     1      -1.111   0.418  -4.080  1.00  0.00     0.071 A 
ATOM     10  C   UNL     1      -1.879   1.588  -3.924  1.00  0.00     0.034 A 
ATOM     11  C   UNL     1      -1.760  -0.806  -4.250  1.00  0.00    -0.032 A 
ATOM     12  C   UNL     1      -3.142  -0.836  -4.005  1.00  0.00     0.009 A 
ATOM     13  C   UNL     1      -1.139  -2.120  -4.623  1.00  0.00     0.046 C 
ATOM     14  C   UNL     1      -3.891   0.310  -3.655  1.00  0.00    -0.038 A 
ATOM     15  C   UNL     1      -5.255   0.016  -3.114  1.00  0.00     0.045 C 
BRANCH   9  16
ATOM     16  S   UNL     1       0.671   0.607  -4.011  1.00  0.00     0.181 S 
ATOM     17  O   UNL     1       0.956   2.030  -4.015  1.00  0.00    -0.223 OA
ATOM     18  O   UNL     1       1.251  -0.214  -5.059  1.00  0.00    -0.223 OA
BRANCH  16  19
ATOM     19  C   UNL     1       1.204  -0.025  -2.403  1.00  0.00     0.110 C 
ATOM     20  C   UNL     1       1.007  -1.528  -2.254  1.00  0.00     0.025 C 
BRANCH  19  21
ATOM     21  C   UNL     1       0.589   0.767  -1.235  1.00  0.00     0.016 C 
ATOM     22  C   UNL     1       1.059   0.288   0.135  1.00  0.00     0.005 C 
ENDBRANCH  19  21
ENDBRANCH  16  19
ENDBRANCH   9  16
ENDBRANCH   5   8
ENDBRANCH   3   4
ENDBRANCH   2   3
ENDBRANCH   1   2
BRANCH   1  23
ATOM     23  C   UNL     1      -9.399   3.519  -4.184  1.00  0.00     0.002 C 
BRANCH  23  24
ATOM     24  C   UNL     1     -10.133   2.177  -4.268  1.00  0.00     0.021 C 
BRANCH  24  25
ATOM     25  C   UNL     1     -10.833   1.759  -2.977  1.00  0.00     0.116 C 
BRANCH  25  26
ATOM     26  N   UNL     1     -11.853   2.722  -2.593  1.00  0.00    -0.352 N 
ATOM     27  C   UNL     1     -13.217   2.574  -2.562  1.00  0.00     0.251 C 
ATOM     28  H   UNL     1     -11.518   3.605  -2.317  1.00  0.00     0.163 HD
ATOM     29  O   UNL     1     -13.938   3.566  -2.525  1.00  0.00    -0.269 OA
BRANCH  27  30
ATOM     30  C   UNL     1     -13.807   1.218  -2.580  1.00  0.00     0.039 A 
ATOM     31  C   UNL     1     -14.932   0.973  -3.370  1.00  0.00     0.014 A 
ATOM     32  C   UNL     1     -13.261   0.196  -1.797  1.00  0.00     0.014 A 
ATOM     33  C   UNL     1     -15.476  -0.312  -3.416  1.00  0.00     0.010 A 
ATOM     34  C   UNL     1     -13.755  -1.100  -1.905  1.00  0.00     0.010 A 
ATOM     35  C   UNL     1     -14.873  -1.367  -2.709  1.00  0.00    -0.014 A 
BRANCH  35  36
ATOM     36  C   UNL     1     -15.404  -2.752  -2.794  1.00  0.00     0.031 A 
ATOM     37  C   UNL     1     -15.941  -3.432  -1.563  1.00  0.00     0.074 A 
ATOM     38  C   UNL     1     -15.354  -3.413  -3.968  1.00  0.00     0.049 A 
ATOM     39  N   UNL     1     -16.387  -4.653  -1.420  1.00  0.00    -0.248 NA
ATOM     40  C   UNL     1     -15.950  -2.641  -0.323  1.00  0.00     0.031 C 
ATOM     41  C   UNL     1     -14.823  -2.869  -5.220  1.00  0.00     0.029 A 
ATOM     42  N   UNL     1     -15.748  -4.685  -4.301  1.00  0.00    -0.354 N 
ATOM     43  C   UNL     1     -16.722  -4.780  -0.076  1.00  0.00     0.074 A 
ATOM     44  C   UNL     1     -16.362  -3.533   0.564  1.00  0.00     0.031 C 
ATOM     45  C   UNL     1     -14.954  -3.788  -6.189  1.00  0.00     0.029 A 
ATOM     46  C   UNL     1     -15.525  -5.005  -5.621  1.00  0.00     0.049 A 
ATOM     47  H   UNL     1     -16.152  -5.309  -3.657  1.00  0.00     0.167 HD
ATOM     48  C   UNL     1     -17.299  -5.831   0.559  1.00  0.00     0.034 A 
ATOM     49  C   UNL     1     -15.741  -6.153  -6.294  1.00  0.00     0.034 A 
ATOM     50  C   UNL     1     -17.656  -7.064  -0.100  1.00  0.00     0.049 A 
ATOM     51  C   UNL     1     -16.342  -7.323  -5.556  1.00  0.00     0.074 A 
ATOM     52  C   UNL     1     -18.289  -8.173   0.434  1.00  0.00     0.029 A 
ATOM     53  N   UNL     1     -17.399  -7.359  -1.433  1.00  0.00    -0.354 N 
ATOM     54  N   UNL     1     -16.701  -7.409  -4.295  1.00  0.00    -0.248 NA
ATOM     55  C   UNL     1     -16.576  -8.546  -6.333  1.00  0.00     0.031 C 
ATOM     56  C   UNL     1     -18.339  -9.166  -0.550  1.00  0.00     0.029 A 
ATOM     57  C   UNL     1     -17.824  -8.646  -1.727  1.00  0.00     0.049 A 
ATOM     58  H   UNL     1     -16.978  -6.744  -2.076  1.00  0.00     0.167 HD
ATOM     59  C   UNL     1     -17.233  -8.686  -4.139  1.00  0.00     0.074 A 
ATOM     60  C   UNL     1     -17.164  -9.325  -5.437  1.00  0.00     0.031 C 
ATOM     61  C   UNL     1     -17.737  -9.277  -3.025  1.00  0.00     0.034 A 
BRANCH  48  62
ATOM     62  C   UNL     1     -17.551  -5.697   2.043  1.00  0.00     0.023 A 
ATOM     63  C   UNL     1     -18.406  -4.709   2.563  1.00  0.00     0.031 A 
ATOM     64  C   UNL     1     -16.911  -6.554   2.955  1.00  0.00     0.131 A 
ATOM     65  C   UNL     1     -18.536  -4.552   3.951  1.00  0.00     0.055 A 
ATOM     66  C   UNL     1     -17.114  -6.451   4.333  1.00  0.00     0.041 A 
ATOM     67  F   UNL     1     -16.064  -7.503   2.524  1.00  0.00    -0.206 F 
ATOM     68  C   UNL     1     -17.919  -5.435   4.839  1.00  0.00     0.022 A 
BRANCH  65  69
ATOM     69  S   UNL     1     -19.396  -3.084   4.579  1.00  0.00     0.124 S 
ATOM     70  O   UNL     1     -18.611  -2.006   3.982  1.00  0.00    -0.237 OA
ATOM     71  O   UNL     1     -20.745  -3.259   4.054  1.00  0.00    -0.237 OA
ATOM     72  O   UNL     1     -19.268  -3.207   6.030  1.00  0.00    -0.744 OA
ENDBRANCH  65  69
ENDBRANCH  48  62
BRANCH  49  73
ATOM     73  C   UNL     1     -15.377  -6.265  -7.737  1.00  0.00     0.023 A 
ATOM     74  C   UNL     1     -16.356  -6.506  -8.714  1.00  0.00     0.031 A 
ATOM     75  C   UNL     1     -14.037  -6.180  -8.155  1.00  0.00     0.131 A 
ATOM     76  C   UNL     1     -15.977  -6.706 -10.050  1.00  0.00     0.055 A 
ATOM     77  C   UNL     1     -13.671  -6.317  -9.496  1.00  0.00     0.041 A 
ATOM     78  F   UNL     1     -13.059  -5.950  -7.264  1.00  0.00    -0.206 F 
ATOM     79  C   UNL     1     -14.643  -6.597 -10.450  1.00  0.00     0.022 A 
BRANCH  76  80
ATOM     80  S   UNL     1     -17.244  -7.214 -11.245  1.00  0.00     0.124 S 
ATOM     81  O   UNL     1     -17.749  -8.440 -10.637  1.00  0.00    -0.237 OA
ATOM     82  O   UNL     1     -18.148  -6.070 -11.231  1.00  0.00    -0.237 OA
ATOM     83  O   UNL     1     -16.489  -7.396 -12.483  1.00  0.00    -0.744 OA
ENDBRANCH  76  80
ENDBRANCH  49  73
BRANCH  61  84
ATOM     84  C   UNL     1     -18.293 -10.673  -3.178  1.00  0.00     0.023 A 
ATOM     85  C   UNL     1     -17.474 -11.765  -3.514  1.00  0.00     0.031 A 
ATOM     86  C   UNL     1     -19.667 -10.911  -2.994  1.00  0.00     0.131 A 
ATOM     87  C   UNL     1     -18.045 -13.031  -3.716  1.00  0.00     0.055 A 
ATOM     88  C   UNL     1     -20.218 -12.186  -3.126  1.00  0.00     0.041 A 
ATOM     89  F   UNL     1     -20.499  -9.905  -2.677  1.00  0.00    -0.206 F 
ATOM     90  C   UNL     1     -19.408 -13.253  -3.503  1.00  0.00     0.022 A 
BRANCH  87  91
ATOM     91  S   UNL     1     -16.999 -14.364  -4.364  1.00  0.00     0.124 S 
ATOM     92  O   UNL     1     -16.523 -13.791  -5.619  1.00  0.00    -0.237 OA
ATOM     93  O   UNL     1     -15.998 -14.515  -3.313  1.00  0.00    -0.237 OA
ATOM     94  O   UNL     1     -17.923 -15.487  -4.506  1.00  0.00    -0.744 OA
ENDBRANCH  87  91
ENDBRANCH  61  84
ENDBRANCH  35  36
ENDBRANCH  27  30
ENDBRANCH  25  26
ENDBRANCH  24  25
ENDBRANCH  23  24
ENDBRANCH   1  23
TORSDOF 19
