REMARK SMILES C[C@H](Sc1ccnc(C(=O)NCCCCCCNC(=O)c2ccc(-c3c4nc(c(-c5cc(S(=O)(=O)[O-])ccc5F)c5ccc([nH]5)c(-c5cc(S(=O)(=O)[O-])ccc5F)c5nc(c(-c6cc(S(=O)(=O)[O-])ccc6F)c6ccc3[nH]6)C=C5)C=C4)cc2)c1)[C@@H](C)O
REMARK SMILES IDX 14 1 13 2 12 3 11 4 9 5 10 6 8 8 4 9 5 10 84 11 6 12 7 13
REMARK SMILES IDX 3 14 2 15 1 16 85 17 86 18 87 19 15 21 16 22 17 23 18 24
REMARK SMILES IDX 19 25 20 27 21 28 22 29 83 30 23 31 82 32 24 33 25 34 26 35
REMARK SMILES IDX 76 36 27 37 81 38 75 39 77 40 28 41 80 42 74 43 73 44 29 46
REMARK SMILES IDX 61 47 41 48 60 49 42 50 45 51 59 52 78 53 43 54 44 55 58 57
REMARK SMILES IDX 79 58 46 59 30 60 31 61 39 62 32 63 38 64 40 65 37 66 33 67
REMARK SMILES IDX 34 68 35 69 36 70 62 71 63 72 71 73 64 74 70 75 72 76 69 77
REMARK SMILES IDX 65 78 66 79 67 80 68 81 47 82 48 83 56 84 49 85 55 86 57 87
REMARK SMILES IDX 54 88 50 89 51 90 52 91 53 92
REMARK H PARENT 11 7 87 20 18 26 77 45 45 56
REMARK Flexibility Score: inf
ROOT
ATOM      1  C   UNL     1       3.729   5.124  -4.066  1.00  0.00     0.002 C 
ENDROOT
BRANCH   1   2
ATOM      2  C   UNL     1       3.319   3.912  -3.216  1.00  0.00     0.021 C 
BRANCH   2   3
ATOM      3  C   UNL     1       2.343   2.974  -3.933  1.00  0.00     0.116 C 
BRANCH   3   4
ATOM      4  N   UNL     1       3.058   1.996  -4.730  1.00  0.00    -0.351 N 
ATOM      5  C   UNL     1       3.329   0.652  -4.613  1.00  0.00     0.269 C 
ATOM      6  O   UNL     1       3.951   0.160  -5.561  1.00  0.00    -0.268 OA
ATOM      7  H   UNL     1       3.440   2.386  -5.549  1.00  0.00     0.163 HD
BRANCH   5   8
ATOM      8  C   UNL     1       2.921  -0.231  -3.458  1.00  0.00     0.129 A 
ATOM      9  C   UNL     1       2.036  -0.694  -1.257  1.00  0.00     0.011 A 
ATOM     10  C   UNL     1       2.261  -2.045  -1.479  1.00  0.00     0.035 A 
ATOM     11  C   UNL     1       2.425   0.220  -2.247  1.00  0.00     0.049 A 
ATOM     12  C   UNL     1       2.809  -2.422  -2.692  1.00  0.00     0.113 A 
ATOM     13  N   UNL     1       3.115  -1.559  -3.680  1.00  0.00    -0.251 NA
BRANCH   9  14
ATOM     14  S   UNL     1       1.360   0.045   0.222  1.00  0.00    -0.120 SA
BRANCH  14  15
ATOM     15  C   UNL     1       0.468  -1.292   1.121  1.00  0.00     0.077 C 
ATOM     16  C   UNL     1       0.865  -1.123   2.594  1.00  0.00     0.022 C 
BRANCH  15  17
ATOM     17  C   UNL     1      -1.071  -1.210   0.964  1.00  0.00     0.124 C 
ATOM     18  C   UNL     1      -1.575  -1.384  -0.465  1.00  0.00     0.039 C 
BRANCH  17  19
ATOM     19  O   UNL     1      -1.685  -2.235   1.761  1.00  0.00    -0.392 OA
ATOM     20  H   UNL     1      -1.414  -3.106   1.433  1.00  0.00     0.210 HD
ENDBRANCH  17  19
ENDBRANCH  15  17
ENDBRANCH  14  15
ENDBRANCH   9  14
ENDBRANCH   5   8
ENDBRANCH   3   4
ENDBRANCH   2   3
ENDBRANCH   1   2
BRANCH   1  21
ATOM     21  C   UNL     1       2.566   6.016  -4.526  1.00  0.00     0.002 C 
BRANCH  21  22
ATOM     22  C   UNL     1       1.634   6.492  -3.407  1.00  0.00     0.021 C 
BRANCH  22  23
ATOM     23  C   UNL     1       2.315   7.358  -2.352  1.00  0.00     0.116 C 
BRANCH  23  24
ATOM     24  N   UNL     1       2.840   8.585  -2.930  1.00  0.00    -0.352 N 
ATOM     25  C   UNL     1       2.545   9.889  -2.621  1.00  0.00     0.251 C 
ATOM     26  H   UNL     1       3.504   8.462  -3.646  1.00  0.00     0.163 HD
ATOM     27  O   UNL     1       2.878  10.785  -3.389  1.00  0.00    -0.269 OA
BRANCH  25  28
ATOM     28  C   UNL     1       1.817  10.203  -1.373  1.00  0.00     0.039 A 
ATOM     29  C   UNL     1       0.805  11.165  -1.401  1.00  0.00     0.014 A 
ATOM     30  C   UNL     1       2.149   9.566  -0.174  1.00  0.00     0.014 A 
ATOM     31  C   UNL     1       0.090  11.449  -0.236  1.00  0.00     0.010 A 
ATOM     32  C   UNL     1       1.387   9.796   0.968  1.00  0.00     0.010 A 
ATOM     33  C   UNL     1       0.355  10.746   0.951  1.00  0.00    -0.014 A 
BRANCH  33  34
ATOM     34  C   UNL     1      -0.432  10.998   2.186  1.00  0.00     0.031 A 
ATOM     35  C   UNL     1       0.244  11.550   3.411  1.00  0.00     0.074 A 
ATOM     36  C   UNL     1      -1.739  10.672   2.220  1.00  0.00     0.049 A 
ATOM     37  N   UNL     1      -0.252  11.777   4.600  1.00  0.00    -0.248 NA
ATOM     38  C   UNL     1       1.676  11.860   3.288  1.00  0.00     0.031 C 
ATOM     39  C   UNL     1      -2.494  10.096   1.105  1.00  0.00     0.029 A 
ATOM     40  N   UNL     1      -2.663  10.774   3.228  1.00  0.00    -0.354 N 
ATOM     41  C   UNL     1       0.808  12.242   5.372  1.00  0.00     0.074 A 
ATOM     42  C   UNL     1       1.986  12.200   4.530  1.00  0.00     0.031 C 
ATOM     43  C   UNL     1      -3.770   9.923   1.482  1.00  0.00     0.029 A 
ATOM     44  C   UNL     1      -3.916  10.328   2.876  1.00  0.00     0.049 A 
ATOM     45  H   UNL     1      -2.450  11.132   4.120  1.00  0.00     0.167 HD
ATOM     46  C   UNL     1       0.795  12.683   6.654  1.00  0.00     0.034 A 
ATOM     47  C   UNL     1      -5.051  10.243   3.599  1.00  0.00     0.034 A 
ATOM     48  C   UNL     1      -0.393  12.722   7.474  1.00  0.00     0.049 A 
ATOM     49  C   UNL     1      -5.035  10.706   5.033  1.00  0.00     0.074 A 
ATOM     50  C   UNL     1      -0.535  13.203   8.764  1.00  0.00     0.029 A 
ATOM     51  N   UNL     1      -1.642  12.249   7.088  1.00  0.00    -0.354 N 
ATOM     52  N   UNL     1      -4.037  11.195   5.733  1.00  0.00    -0.248 NA
ATOM     53  C   UNL     1      -6.301  10.614   5.771  1.00  0.00     0.031 C 
ATOM     54  C   UNL     1      -1.845  12.950   9.184  1.00  0.00     0.029 A 
ATOM     55  C   UNL     1      -2.549  12.392   8.129  1.00  0.00     0.049 A 
ATOM     56  H   UNL     1      -1.853  11.869   6.205  1.00  0.00     0.167 HD
ATOM     57  C   UNL     1      -4.565  11.499   6.985  1.00  0.00     0.074 A 
ATOM     58  C   UNL     1      -5.970  11.151   6.936  1.00  0.00     0.031 C 
ATOM     59  C   UNL     1      -3.946  12.025   8.073  1.00  0.00     0.034 A 
BRANCH  46  60
ATOM     60  C   UNL     1       2.113  13.124   7.251  1.00  0.00     0.023 A 
ATOM     61  C   UNL     1       2.850  14.193   6.712  1.00  0.00     0.031 A 
ATOM     62  C   UNL     1       2.660  12.442   8.353  1.00  0.00     0.131 A 
ATOM     63  C   UNL     1       4.127  14.490   7.213  1.00  0.00     0.055 A 
ATOM     64  C   UNL     1       3.891  12.802   8.906  1.00  0.00     0.041 A 
ATOM     65  F   UNL     1       2.017  11.399   8.901  1.00  0.00    -0.206 F 
ATOM     66  C   UNL     1       4.641  13.820   8.324  1.00  0.00     0.022 A 
BRANCH  63  67
ATOM     67  S   UNL     1       5.171  15.649   6.287  1.00  0.00     0.124 S 
ATOM     68  O   UNL     1       5.225  15.011   4.973  1.00  0.00    -0.237 OA
ATOM     69  O   UNL     1       4.411  16.890   6.365  1.00  0.00    -0.237 OA
ATOM     70  O   UNL     1       6.432  15.639   7.026  1.00  0.00    -0.744 OA
ENDBRANCH  63  67
ENDBRANCH  46  60
BRANCH  47  71
ATOM     71  C   UNL     1      -6.295   9.696   2.985  1.00  0.00     0.023 A 
ATOM     72  C   UNL     1      -7.430  10.504   2.812  1.00  0.00     0.031 A 
ATOM     73  C   UNL     1      -6.378   8.349   2.590  1.00  0.00     0.131 A 
ATOM     74  C   UNL     1      -8.612   9.949   2.299  1.00  0.00     0.055 A 
ATOM     75  C   UNL     1      -7.540   7.814   2.030  1.00  0.00     0.041 A 
ATOM     76  F   UNL     1      -5.320   7.534   2.729  1.00  0.00    -0.206 F 
ATOM     77  C   UNL     1      -8.671   8.613   1.894  1.00  0.00     0.022 A 
BRANCH  74  78
ATOM     78  S   UNL     1     -10.103  10.980   2.243  1.00  0.00     0.124 S 
ATOM     79  O   UNL     1     -10.269  11.338   3.647  1.00  0.00    -0.237 OA
ATOM     80  O   UNL     1      -9.691  12.058   1.349  1.00  0.00    -0.237 OA
ATOM     81  O   UNL     1     -11.119  10.080   1.702  1.00  0.00    -0.744 OA
ENDBRANCH  74  78
ENDBRANCH  47  71
BRANCH  59  82
ATOM     82  C   UNL     1      -4.804  12.296   9.286  1.00  0.00     0.023 A 
ATOM     83  C   UNL     1      -5.406  11.257  10.017  1.00  0.00     0.031 A 
ATOM     84  C   UNL     1      -5.030  13.618   9.710  1.00  0.00     0.131 A 
ATOM     85  C   UNL     1      -6.251  11.560  11.096  1.00  0.00     0.055 A 
ATOM     86  C   UNL     1      -5.818  13.910  10.823  1.00  0.00     0.041 A 
ATOM     87  F   UNL     1      -4.484  14.651   9.047  1.00  0.00    -0.206 F 
ATOM     88  C   UNL     1      -6.446  12.878  11.515  1.00  0.00     0.022 A 
BRANCH  85  89
ATOM     89  S   UNL     1      -7.175  10.212  11.884  1.00  0.00     0.124 S 
ATOM     90  O   UNL     1      -7.931   9.666  10.762  1.00  0.00    -0.237 OA
ATOM     91  O   UNL     1      -6.107   9.365  12.405  1.00  0.00    -0.237 OA
ATOM     92  O   UNL     1      -7.976  10.893  12.899  1.00  0.00    -0.744 OA
ENDBRANCH  85  89
ENDBRANCH  59  82
ENDBRANCH  33  34
ENDBRANCH  25  28
ENDBRANCH  23  24
ENDBRANCH  22  23
ENDBRANCH  21  22
ENDBRANCH   1  21
TORSDOF 20
