REMARK SMILES CC(C)(O)CC[NH2+]CC(=O)NCCCCCCNC(=O)c1ccc(-c2c3nc(c(-c4cc(S(=O)(=O)[O-])ccc4F)c4ccc([nH]4)c(-c4cc(S(=O)(=O)[O-])ccc4F)c4nc(c(-c5cc(S(=O)(=O)[O-])ccc5F)c5ccc2[nH]5)C=C4)C=C3)cc1
REMARK SMILES IDX 13 1 12 2 11 3 9 4 10 5 8 7 7 8 6 11 5 12 2 13 1 14 3 15
REMARK SMILES IDX 4 16 14 18 15 19 16 20 17 21 18 22 19 23 20 25 21 26 22 27
REMARK SMILES IDX 83 28 23 29 82 30 24 31 25 32 26 33 76 34 27 35 81 36 75 37
REMARK SMILES IDX 77 38 28 39 80 40 74 41 73 42 29 44 61 45 41 46 60 47 42 48
REMARK SMILES IDX 45 49 59 50 78 51 43 52 44 53 58 55 79 56 46 57 30 58 31 59
REMARK SMILES IDX 39 60 32 61 38 62 40 63 37 64 33 65 34 66 35 67 36 68 62 69
REMARK SMILES IDX 63 70 71 71 64 72 70 73 72 74 69 75 65 76 66 77 67 78 68 79
REMARK SMILES IDX 47 80 48 81 56 82 49 83 55 84 57 85 54 86 50 87 51 88 52 89
REMARK SMILES IDX 53 90
REMARK H PARENT 11 6 7 9 7 10 4 17 18 24 77 43 45 54
REMARK Flexibility Score: inf
ROOT
ATOM      1  C   UNL     1      -1.962  -3.775  -1.065  1.00  0.00     0.021 C 
ENDROOT
BRANCH   1   2
ATOM      2  C   UNL     1      -1.488  -3.805  -2.524  1.00  0.00     0.116 C 
BRANCH   2   3
ATOM      3  N   UNL     1      -1.686  -2.512  -3.157  1.00  0.00    -0.351 N 
ATOM      4  C   UNL     1      -0.771  -1.562  -3.514  1.00  0.00     0.275 C 
ATOM      5  O   UNL     1      -1.191  -0.451  -3.850  1.00  0.00    -0.269 OA
ATOM      6  H   UNL     1      -2.622  -2.285  -3.359  1.00  0.00     0.163 HD
BRANCH   4   7
ATOM      7  C   UNL     1       0.738  -1.860  -3.496  1.00  0.00     0.361 C 
BRANCH   7   8
ATOM      8  N   UNL     1       1.400  -1.316  -2.288  1.00  0.00    -0.338 N 
ATOM      9  H   UNL     1       2.396  -1.199  -2.476  1.00  0.00     0.346 HD
ATOM     10  H   UNL     1       0.974  -0.418  -2.058  1.00  0.00     0.346 HD
BRANCH   8  11
ATOM     11  C   UNL     1       1.232  -2.217  -1.152  1.00  0.00     0.263 C 
BRANCH  11  12
ATOM     12  C   UNL     1       1.803  -1.757   0.192  1.00  0.00     0.096 C 
BRANCH  12  13
ATOM     13  C   UNL     1       1.010  -0.671   0.952  1.00  0.00     0.064 C 
ATOM     14  C   UNL     1       1.249   0.731   0.389  1.00  0.00     0.042 C 
ATOM     15  C   UNL     1       1.400  -0.708   2.436  1.00  0.00     0.042 C 
BRANCH  13  16
ATOM     16  O   UNL     1      -0.389  -0.957   0.879  1.00  0.00    -0.390 OA
ATOM     17  H   UNL     1      -0.884  -0.274   1.357  1.00  0.00     0.211 HD
ENDBRANCH  13  16
ENDBRANCH  12  13
ENDBRANCH  11  12
ENDBRANCH   8  11
ENDBRANCH   7   8
ENDBRANCH   4   7
ENDBRANCH   2   3
ENDBRANCH   1   2
BRANCH   1  18
ATOM     18  C   UNL     1      -3.435  -4.124  -0.862  1.00  0.00     0.002 C 
BRANCH  18  19
ATOM     19  C   UNL     1      -3.798  -5.585  -1.139  1.00  0.00     0.002 C 
BRANCH  19  20
ATOM     20  C   UNL     1      -2.975  -6.630  -0.378  1.00  0.00     0.021 C 
BRANCH  20  21
ATOM     21  C   UNL     1      -2.938  -6.459   1.141  1.00  0.00     0.116 C 
BRANCH  21  22
ATOM     22  N   UNL     1      -4.264  -6.518   1.730  1.00  0.00    -0.352 N 
ATOM     23  C   UNL     1      -4.797  -7.420   2.618  1.00  0.00     0.251 C 
ATOM     24  H   UNL     1      -4.877  -5.800   1.449  1.00  0.00     0.163 HD
ATOM     25  O   UNL     1      -6.008  -7.424   2.817  1.00  0.00    -0.269 OA
BRANCH  23  26
ATOM     26  C   UNL     1      -3.926  -8.391   3.318  1.00  0.00     0.039 A 
ATOM     27  C   UNL     1      -4.359  -9.715   3.439  1.00  0.00     0.014 A 
ATOM     28  C   UNL     1      -2.711  -8.000   3.887  1.00  0.00     0.014 A 
ATOM     29  C   UNL     1      -3.547 -10.655   4.078  1.00  0.00     0.010 A 
ATOM     30  C   UNL     1      -1.874  -8.952   4.468  1.00  0.00     0.010 A 
ATOM     31  C   UNL     1      -2.284 -10.290   4.572  1.00  0.00    -0.014 A 
BRANCH  31  32
ATOM     32  C   UNL     1      -1.386 -11.305   5.182  1.00  0.00     0.031 A 
ATOM     33  C   UNL     1      -1.027 -11.235   6.642  1.00  0.00     0.074 A 
ATOM     34  C   UNL     1      -0.859 -12.271   4.404  1.00  0.00     0.049 A 
ATOM     35  N   UNL     1      -0.264 -12.031   7.346  1.00  0.00    -0.248 NA
ATOM     36  C   UNL     1      -1.577 -10.103   7.401  1.00  0.00     0.031 C 
ATOM     37  C   UNL     1      -1.089 -12.412   2.964  1.00  0.00     0.029 A 
ATOM     38  N   UNL     1      -0.024 -13.316   4.710  1.00  0.00    -0.354 N 
ATOM     39  C   UNL     1      -0.232 -11.493   8.629  1.00  0.00     0.074 A 
ATOM     40  C   UNL     1      -1.004 -10.269   8.584  1.00  0.00     0.031 C 
ATOM     41  C   UNL     1      -0.443 -13.501   2.520  1.00  0.00     0.029 A 
ATOM     42  C   UNL     1       0.276 -14.116   3.632  1.00  0.00     0.049 A 
ATOM     43  H   UNL     1       0.327 -13.478   5.615  1.00  0.00     0.167 HD
ATOM     44  C   UNL     1       0.366 -11.986   9.743  1.00  0.00     0.034 A 
ATOM     45  C   UNL     1       1.041 -15.221   3.548  1.00  0.00     0.034 A 
ATOM     46  C   UNL     1       1.127 -13.214   9.770  1.00  0.00     0.049 A 
ATOM     47  C   UNL     1       1.702 -15.745   4.795  1.00  0.00     0.074 A 
ATOM     48  C   UNL     1       1.709 -13.847  10.856  1.00  0.00     0.029 A 
ATOM     49  N   UNL     1       1.425 -13.991   8.657  1.00  0.00    -0.354 N 
ATOM     50  N   UNL     1       1.661 -15.267   6.017  1.00  0.00    -0.248 NA
ATOM     51  C   UNL     1       2.503 -16.967   4.650  1.00  0.00     0.031 C 
ATOM     52  C   UNL     1       2.416 -14.962  10.390  1.00  0.00     0.029 A 
ATOM     53  C   UNL     1       2.215 -15.072   9.023  1.00  0.00     0.049 A 
ATOM     54  H   UNL     1       1.120 -13.802   7.740  1.00  0.00     0.167 HD
ATOM     55  C   UNL     1       2.415 -16.144   6.792  1.00  0.00     0.074 A 
ATOM     56  C   UNL     1       2.876 -17.190   5.901  1.00  0.00     0.031 C 
ATOM     57  C   UNL     1       2.699 -16.091   8.119  1.00  0.00     0.034 A 
BRANCH  44  58
ATOM     58  C   UNL     1       0.244 -11.172  11.013  1.00  0.00     0.023 A 
ATOM     59  C   UNL     1      -1.004 -10.904  11.604  1.00  0.00     0.031 A 
ATOM     60  C   UNL     1       1.387 -10.621  11.619  1.00  0.00     0.131 A 
ATOM     61  C   UNL     1      -1.088 -10.038  12.705  1.00  0.00     0.055 A 
ATOM     62  C   UNL     1       1.305  -9.830  12.767  1.00  0.00     0.041 A 
ATOM     63  F   UNL     1       2.606 -10.825  11.094  1.00  0.00    -0.206 F 
ATOM     64  C   UNL     1       0.060  -9.519  13.306  1.00  0.00     0.022 A 
BRANCH  61  65
ATOM     65  S   UNL     1      -2.727  -9.471  13.238  1.00  0.00     0.124 S 
ATOM     66  O   UNL     1      -3.244  -8.870  12.010  1.00  0.00    -0.237 OA
ATOM     67  O   UNL     1      -3.367 -10.711  13.662  1.00  0.00    -0.237 OA
ATOM     68  O   UNL     1      -2.430  -8.522  14.309  1.00  0.00    -0.744 OA
ENDBRANCH  61  65
ENDBRANCH  44  58
BRANCH  45  69
ATOM     69  C   UNL     1       1.217 -15.916   2.242  1.00  0.00     0.023 A 
ATOM     70  C   UNL     1       0.697 -17.204   2.037  1.00  0.00     0.031 A 
ATOM     71  C   UNL     1       1.929 -15.314   1.190  1.00  0.00     0.131 A 
ATOM     72  C   UNL     1       0.928 -17.865   0.821  1.00  0.00     0.055 A 
ATOM     73  C   UNL     1       2.118 -15.957  -0.034  1.00  0.00     0.041 A 
ATOM     74  F   UNL     1       2.438 -14.080   1.334  1.00  0.00    -0.206 F 
ATOM     75  C   UNL     1       1.625 -17.246  -0.220  1.00  0.00     0.022 A 
BRANCH  72  76
ATOM     76  S   UNL     1       0.355 -19.576   0.640  1.00  0.00     0.124 S 
ATOM     77  O   UNL     1       1.079 -20.248   1.712  1.00  0.00    -0.237 OA
ATOM     78  O   UNL     1      -1.085 -19.434   0.828  1.00  0.00    -0.237 OA
ATOM     79  O   UNL     1       0.771 -19.932  -0.715  1.00  0.00    -0.744 OA
ENDBRANCH  72  76
ENDBRANCH  45  69
BRANCH  57  80
ATOM     80  C   UNL     1       3.535 -17.218   8.677  1.00  0.00     0.023 A 
ATOM     81  C   UNL     1       4.872 -17.406   8.283  1.00  0.00     0.031 A 
ATOM     82  C   UNL     1       2.976 -18.142   9.576  1.00  0.00     0.131 A 
ATOM     83  C   UNL     1       5.582 -18.530   8.730  1.00  0.00     0.055 A 
ATOM     84  C   UNL     1       3.708 -19.223  10.069  1.00  0.00     0.041 A 
ATOM     85  F   UNL     1       1.703 -18.016   9.984  1.00  0.00    -0.206 F 
ATOM     86  C   UNL     1       5.014 -19.432   9.633  1.00  0.00     0.022 A 
BRANCH  83  87
ATOM     87  S   UNL     1       7.219 -18.863   8.022  1.00  0.00     0.124 S 
ATOM     88  O   UNL     1       6.925 -18.929   6.594  1.00  0.00    -0.237 OA
ATOM     89  O   UNL     1       7.990 -17.704   8.461  1.00  0.00    -0.237 OA
ATOM     90  O   UNL     1       7.606 -20.133   8.635  1.00  0.00    -0.744 OA
ENDBRANCH  83  87
ENDBRANCH  57  80
ENDBRANCH  31  32
ENDBRANCH  23  26
ENDBRANCH  21  22
ENDBRANCH  20  21
ENDBRANCH  19  20
ENDBRANCH  18  19
ENDBRANCH   1  18
TORSDOF 21
