REMARK SMILES CS(=O)(=O)c1ccc(/C=C(/C(=O)NCCCCCCNC(=O)c2ccc(-c3c4nc(c(-c5cc(S(=O)(=O)[O-])ccc5F)c5ccc([nH]5)c(-c5cc(S(=O)(=O)[O-])ccc5F)c5nc(c(-c6cc(S(=O)(=O)[O-])ccc6F)c6ccc3[nH]6)C=C5)C=C4)cc2)c2ccc(F)cc2)cc1
REMARK SMILES IDX 17 1 16 2 15 3 14 4 13 5 11 6 12 7 10 9 9 10 8 11 5 12 6 13
REMARK SMILES IDX 94 14 7 15 93 16 2 17 1 18 3 19 4 20 86 21 87 22 92 23 88 24
REMARK SMILES IDX 91 25 89 26 90 27 18 28 19 29 20 30 21 31 22 33 23 34 24 35
REMARK SMILES IDX 85 36 25 37 84 38 26 39 27 40 28 41 78 42 29 43 83 44 77 45
REMARK SMILES IDX 79 46 30 47 82 48 76 49 75 50 31 52 63 53 43 54 62 55 44 56
REMARK SMILES IDX 47 57 61 58 80 59 45 60 46 61 60 63 81 64 48 65 32 66 33 67
REMARK SMILES IDX 41 68 34 69 40 70 42 71 39 72 35 73 36 74 37 75 38 76 64 77
REMARK SMILES IDX 65 78 73 79 66 80 72 81 74 82 71 83 67 84 68 85 69 86 70 87
REMARK SMILES IDX 49 88 50 89 58 90 51 91 57 92 59 93 56 94 52 95 53 96 54 97
REMARK SMILES IDX 55 98
REMARK H PARENT 13 8 20 32 79 51 47 62
REMARK Flexibility Score: inf
ROOT
ATOM      1  C   UNL     1       1.102  11.968  -2.592  1.00  0.00     0.002 C 
ENDROOT
BRANCH   1   2
ATOM      2  C   UNL     1       1.533  11.194  -1.340  1.00  0.00     0.002 C 
BRANCH   2   3
ATOM      3  C   UNL     1       1.265   9.680  -1.386  1.00  0.00     0.021 C 
BRANCH   3   4
ATOM      4  C   UNL     1       2.020   8.959  -2.507  1.00  0.00     0.116 C 
BRANCH   4   5
ATOM      5  N   UNL     1       3.434   8.910  -2.187  1.00  0.00    -0.352 N 
ATOM      6  C   UNL     1       4.268   7.951  -1.712  1.00  0.00     0.251 C 
ATOM      7  O   UNL     1       5.421   8.312  -1.461  1.00  0.00    -0.269 OA
ATOM      8  H   UNL     1       3.892   9.766  -2.352  1.00  0.00     0.163 HD
BRANCH   6   9
ATOM      9  C   UNL     1       3.885   6.494  -1.581  1.00  0.00     0.047 C 
ATOM     10  C   UNL     1       2.641   6.091  -1.233  1.00  0.00     0.022 C 
BRANCH  10  11
ATOM     11  C   UNL     1       2.076   4.721  -1.200  1.00  0.00    -0.025 A 
ATOM     12  C   UNL     1       0.964   2.147  -1.399  1.00  0.00     0.067 A 
ATOM     13  C   UNL     1       2.218   2.320  -0.815  1.00  0.00     0.021 A 
ATOM     14  C   UNL     1       0.234   3.251  -1.840  1.00  0.00     0.021 A 
ATOM     15  C   UNL     1       2.749   3.607  -0.684  1.00  0.00     0.009 A 
ATOM     16  C   UNL     1       0.795   4.529  -1.746  1.00  0.00     0.009 A 
BRANCH  12  17
ATOM     17  S   UNL     1       0.288   0.516  -1.590  1.00  0.00     0.175 S 
ATOM     18  C   UNL     1       0.633  -0.316  -0.063  1.00  0.00     0.163 C 
ATOM     19  O   UNL     1       1.054  -0.131  -2.639  1.00  0.00    -0.224 OA
ATOM     20  O   UNL     1      -1.152   0.650  -1.684  1.00  0.00    -0.224 OA
ENDBRANCH  12  17
ENDBRANCH  10  11
BRANCH   9  21
ATOM     21  C   UNL     1       4.999   5.517  -1.687  1.00  0.00    -0.013 A 
ATOM     22  C   UNL     1       5.949   5.475  -0.648  1.00  0.00     0.012 A 
ATOM     23  C   UNL     1       5.092   4.590  -2.735  1.00  0.00     0.012 A 
ATOM     24  C   UNL     1       6.953   4.508  -0.638  1.00  0.00     0.040 A 
ATOM     25  C   UNL     1       6.094   3.614  -2.716  1.00  0.00     0.040 A 
ATOM     26  C   UNL     1       7.008   3.579  -1.667  1.00  0.00     0.123 A 
ATOM     27  F   UNL     1       7.950   2.627  -1.641  1.00  0.00    -0.207 F 
ENDBRANCH   9  21
ENDBRANCH   6   9
ENDBRANCH   4   5
ENDBRANCH   3   4
ENDBRANCH   2   3
ENDBRANCH   1   2
BRANCH   1  28
ATOM     28  C   UNL     1      -0.359  11.772  -3.002  1.00  0.00     0.021 C 
BRANCH  28  29
ATOM     29  C   UNL     1      -1.374  12.202  -1.947  1.00  0.00     0.116 C 
BRANCH  29  30
ATOM     30  N   UNL     1      -1.343  13.637  -1.720  1.00  0.00    -0.352 N 
ATOM     31  C   UNL     1      -2.374  14.543  -1.768  1.00  0.00     0.251 C 
ATOM     32  H   UNL     1      -0.459  14.012  -1.502  1.00  0.00     0.163 HD
ATOM     33  O   UNL     1      -2.130  15.746  -1.770  1.00  0.00    -0.269 OA
BRANCH  31  34
ATOM     34  C   UNL     1      -3.772  14.063  -1.837  1.00  0.00     0.039 A 
ATOM     35  C   UNL     1      -4.653  14.665  -2.739  1.00  0.00     0.014 A 
ATOM     36  C   UNL     1      -4.214  13.028  -1.006  1.00  0.00     0.014 A 
ATOM     37  C   UNL     1      -5.964  14.194  -2.845  1.00  0.00     0.010 A 
ATOM     38  C   UNL     1      -5.500  12.518  -1.160  1.00  0.00     0.010 A 
ATOM     39  C   UNL     1      -6.390  13.099  -2.076  1.00  0.00    -0.014 A 
BRANCH  39  40
ATOM     40  C   UNL     1      -7.767  12.556  -2.205  1.00  0.00     0.031 A 
ATOM     41  C   UNL     1      -8.721  12.639  -1.045  1.00  0.00     0.074 A 
ATOM     42  C   UNL     1      -8.135  11.932  -3.340  1.00  0.00     0.049 A 
ATOM     43  N   UNL     1      -9.934  12.161  -0.931  1.00  0.00    -0.248 NA
ATOM     44  C   UNL     1      -8.227  13.321   0.159  1.00  0.00     0.031 C 
ATOM     45  C   UNL     1      -7.286  11.754  -4.520  1.00  0.00     0.029 A 
ATOM     46  N   UNL     1      -9.315  11.324  -3.686  1.00  0.00    -0.354 N 
ATOM     47  C   UNL     1     -10.344  12.472   0.362  1.00  0.00     0.074 A 
ATOM     48  C   UNL     1      -9.221  13.119   1.009  1.00  0.00     0.031 C 
ATOM     49  C   UNL     1      -7.981  11.104  -5.467  1.00  0.00     0.029 A 
ATOM     50  C   UNL     1      -9.307  10.782  -4.950  1.00  0.00     0.049 A 
ATOM     51  H   UNL     1     -10.094  11.279  -3.086  1.00  0.00     0.167 HD
ATOM     52  C   UNL     1     -11.550  12.259   0.945  1.00  0.00     0.034 A 
ATOM     53  C   UNL     1     -10.258  10.096  -5.614  1.00  0.00     0.034 A 
ATOM     54  C   UNL     1     -12.660  11.620   0.279  1.00  0.00     0.049 A 
ATOM     55  C   UNL     1     -11.582   9.847  -4.941  1.00  0.00     0.074 A 
ATOM     56  C   UNL     1     -13.945  11.408   0.749  1.00  0.00     0.029 A 
ATOM     57  N   UNL     1     -12.614  11.077  -1.000  1.00  0.00    -0.354 N 
ATOM     58  N   UNL     1     -11.975  10.192  -3.736  1.00  0.00    -0.248 NA
ATOM     59  C   UNL     1     -12.594   9.124  -5.722  1.00  0.00     0.031 C 
ATOM     60  C   UNL     1     -14.652  10.681  -0.217  1.00  0.00     0.029 A 
ATOM     61  C   UNL     1     -13.834  10.502  -1.321  1.00  0.00     0.049 A 
ATOM     62  H   UNL     1     -11.828  11.098  -1.593  1.00  0.00     0.167 HD
ATOM     63  C   UNL     1     -13.291   9.751  -3.626  1.00  0.00     0.074 A 
ATOM     64  C   UNL     1     -13.625   9.126  -4.890  1.00  0.00     0.031 C 
ATOM     65  C   UNL     1     -14.147   9.861  -2.578  1.00  0.00     0.034 A 
BRANCH  52  66
ATOM     66  C   UNL     1     -11.706  12.697   2.384  1.00  0.00     0.023 A 
ATOM     67  C   UNL     1     -11.557  14.042   2.767  1.00  0.00     0.031 A 
ATOM     68  C   UNL     1     -11.949  11.751   3.397  1.00  0.00     0.131 A 
ATOM     69  C   UNL     1     -11.549  14.389   4.127  1.00  0.00     0.055 A 
ATOM     70  C   UNL     1     -12.033  12.117   4.742  1.00  0.00     0.041 A 
ATOM     71  F   UNL     1     -12.083  10.449   3.099  1.00  0.00    -0.206 F 
ATOM     72  C   UNL     1     -11.811  13.440   5.116  1.00  0.00     0.022 A 
BRANCH  69  73
ATOM     73  S   UNL     1     -11.009  16.058   4.588  1.00  0.00     0.124 S 
ATOM     74  O   UNL     1      -9.683  16.119   3.978  1.00  0.00    -0.237 OA
ATOM     75  O   UNL     1     -12.033  16.899   3.979  1.00  0.00    -0.237 OA
ATOM     76  O   UNL     1     -11.012  16.028   6.049  1.00  0.00    -0.744 OA
ENDBRANCH  69  73
ENDBRANCH  52  66
BRANCH  53  77
ATOM     77  C   UNL     1      -9.996   9.598  -6.992  1.00  0.00     0.023 A 
ATOM     78  C   UNL     1     -10.683  10.132  -8.093  1.00  0.00     0.031 A 
ATOM     79  C   UNL     1      -9.064   8.572  -7.227  1.00  0.00     0.131 A 
ATOM     80  C   UNL     1     -10.453   9.616  -9.377  1.00  0.00     0.055 A 
ATOM     81  C   UNL     1      -8.807   8.091  -8.512  1.00  0.00     0.041 A 
ATOM     82  F   UNL     1      -8.373   8.036  -6.208  1.00  0.00    -0.206 F 
ATOM     83  C   UNL     1      -9.511   8.607  -9.596  1.00  0.00     0.022 A 
BRANCH  80  84
ATOM     84  S   UNL     1     -11.443  10.250 -10.758  1.00  0.00     0.124 S 
ATOM     85  O   UNL     1     -12.795   9.900 -10.341  1.00  0.00    -0.237 OA
ATOM     86  O   UNL     1     -11.112  11.672 -10.740  1.00  0.00    -0.237 OA
ATOM     87  O   UNL     1     -10.932   9.510 -11.911  1.00  0.00    -0.744 OA
ENDBRANCH  80  84
ENDBRANCH  53  77
BRANCH  65  88
ATOM     88  C   UNL     1     -15.542   9.322  -2.779  1.00  0.00     0.023 A 
ATOM     89  C   UNL     1     -15.790   7.946  -2.922  1.00  0.00     0.031 A 
ATOM     90  C   UNL     1     -16.637  10.202  -2.845  1.00  0.00     0.131 A 
ATOM     91  C   UNL     1     -17.094   7.494  -3.177  1.00  0.00     0.055 A 
ATOM     92  C   UNL     1     -17.939   9.742  -3.041  1.00  0.00     0.041 A 
ATOM     93  F   UNL     1     -16.457  11.527  -2.718  1.00  0.00    -0.206 F 
ATOM     94  C   UNL     1     -18.172   8.382  -3.221  1.00  0.00     0.022 A 
BRANCH  91  95
ATOM     95  S   UNL     1     -17.352   5.735  -3.538  1.00  0.00     0.124 S 
ATOM     96  O   UNL     1     -16.506   5.539  -4.710  1.00  0.00    -0.237 OA
ATOM     97  O   UNL     1     -16.898   5.093  -2.309  1.00  0.00    -0.237 OA
ATOM     98  O   UNL     1     -18.790   5.643  -3.790  1.00  0.00    -0.744 OA
ENDBRANCH  91  95
ENDBRANCH  65  88
ENDBRANCH  39  40
ENDBRANCH  31  34
ENDBRANCH  29  30
ENDBRANCH  28  29
ENDBRANCH   1  28
TORSDOF 19
