REMARK SMILES Cc1cc(C(=O)N2C[C@@H](C(=O)NCCCCCCNC(=O)c3ccc(-c4c5nc(c(-c6cc(S(=O)(=O)[O-])ccc6F)c6ccc([nH]6)c(-c6cc(S(=O)(=O)[O-])ccc6F)c6nc(c(-c7cc(S(=O)(=O)[O-])ccc7F)c7ccc4[nH]7)C=C6)C=C5)cc3)[C@H](C3CC3)C2)sc1C
REMARK SMILES IDX 16 1 15 2 14 3 13 4 12 5 10 6 11 7 9 9 7 10 8 11 89 12 85 13
REMARK SMILES IDX 5 14 6 15 4 16 1 17 2 18 3 19 91 20 90 21 92 22 86 23 87 24
REMARK SMILES IDX 88 25 17 26 18 27 19 28 20 29 21 31 22 32 23 33 84 34 24 35
REMARK SMILES IDX 83 36 25 37 26 38 27 39 77 40 28 41 82 42 76 43 78 44 29 45
REMARK SMILES IDX 81 46 75 47 74 48 30 50 62 51 42 52 61 53 43 54 46 55 60 56
REMARK SMILES IDX 79 57 44 58 45 59 59 61 80 62 47 63 31 64 32 65 40 66 33 67
REMARK SMILES IDX 39 68 41 69 38 70 34 71 35 72 36 73 37 74 63 75 64 76 72 77
REMARK SMILES IDX 65 78 71 79 73 80 70 81 66 82 67 83 68 84 69 85 48 86 49 87
REMARK SMILES IDX 57 88 50 89 56 90 58 91 55 92 51 93 52 94 53 95 54 96
REMARK H PARENT 12 8 19 30 78 49 46 60
REMARK Flexibility Score: inf
ROOT
ATOM      1  C   UNL     1       8.964   4.095  -0.438  1.00  0.00     0.002 C 
ENDROOT
BRANCH   1   2
ATOM      2  C   UNL     1       7.808   4.264   0.553  1.00  0.00     0.002 C 
BRANCH   2   3
ATOM      3  C   UNL     1       6.455   3.701   0.114  1.00  0.00     0.021 C 
BRANCH   3   4
ATOM      4  C   UNL     1       6.464   2.247  -0.337  1.00  0.00     0.116 C 
BRANCH   4   5
ATOM      5  N   UNL     1       6.768   1.307   0.724  1.00  0.00    -0.356 N 
ATOM      6  C   UNL     1       6.319   0.030   0.899  1.00  0.00     0.225 C 
ATOM      7  O   UNL     1       6.809  -0.635   1.815  1.00  0.00    -0.275 OA
ATOM      8  H   UNL     1       7.386   1.636   1.416  1.00  0.00     0.163 HD
BRANCH   6   9
ATOM      9  C   UNL     1       5.236  -0.532  -0.003  1.00  0.00     0.103 C 
ATOM     10  N   UNL     1       3.501  -2.071  -0.088  1.00  0.00    -0.337 N 
ATOM     11  C   UNL     1       4.165  -1.200   0.859  1.00  0.00     0.133 C 
ATOM     12  C   UNL     1       4.472  -2.620  -1.007  1.00  0.00     0.124 C 
ATOM     13  C   UNL     1       5.712  -1.698  -0.907  1.00  0.00     0.026 C 
BRANCH  10  14
ATOM     14  C   UNL     1       2.161  -2.381  -0.242  1.00  0.00     0.263 C 
ATOM     15  O   UNL     1       1.857  -3.496  -0.676  1.00  0.00    -0.268 OA
BRANCH  14  16
ATOM     16  C   UNL     1       1.133  -1.368  -0.008  1.00  0.00     0.093 A 
ATOM     17  C   UNL     1      -2.522  -0.446   0.095  1.00  0.00     0.045 C 
ATOM     18  C   UNL     1      -1.029  -0.424   0.088  1.00  0.00    -0.037 A 
ATOM     19  C   UNL     1      -0.225  -1.612   0.103  1.00  0.00     0.029 A 
ATOM     20  C   UNL     1      -0.233   0.706   0.020  1.00  0.00     0.005 A 
ATOM     21  S   UNL     1       1.423   0.312  -0.112  1.00  0.00    -0.135 S 
ATOM     22  C   UNL     1      -0.649   2.140  -0.013  1.00  0.00     0.056 C 
ENDBRANCH  14  16
ENDBRANCH  10  14
BRANCH  13  23
ATOM     23  C   UNL     1       6.210  -1.369  -2.299  1.00  0.00    -0.005 C 
ATOM     24  C   UNL     1       5.979  -0.060  -3.014  1.00  0.00     0.004 C 
ATOM     25  C   UNL     1       7.356  -0.420  -2.523  1.00  0.00     0.004 C 
ENDBRANCH  13  23
ENDBRANCH   6   9
ENDBRANCH   4   5
ENDBRANCH   3   4
ENDBRANCH   2   3
ENDBRANCH   1   2
BRANCH   1  26
ATOM     26  C   UNL     1       8.712   4.595  -1.862  1.00  0.00     0.021 C 
BRANCH  26  27
ATOM     27  C   UNL     1       8.232   6.038  -1.978  1.00  0.00     0.116 C 
BRANCH  27  28
ATOM     28  N   UNL     1       9.158   6.983  -1.379  1.00  0.00    -0.352 N 
ATOM     29  C   UNL     1       9.711   8.122  -1.910  1.00  0.00     0.251 C 
ATOM     30  H   UNL     1       9.429   6.776  -0.456  1.00  0.00     0.163 HD
ATOM     31  O   UNL     1      10.611   8.695  -1.305  1.00  0.00    -0.269 OA
BRANCH  29  32
ATOM     32  C   UNL     1       9.243   8.637  -3.216  1.00  0.00     0.039 A 
ATOM     33  C   UNL     1      10.190   9.082  -4.142  1.00  0.00     0.014 A 
ATOM     34  C   UNL     1       7.881   8.693  -3.527  1.00  0.00     0.014 A 
ATOM     35  C   UNL     1       9.775   9.526  -5.400  1.00  0.00     0.010 A 
ATOM     36  C   UNL     1       7.476   9.063  -4.808  1.00  0.00     0.010 A 
ATOM     37  C   UNL     1       8.418   9.487  -5.758  1.00  0.00    -0.014 A 
BRANCH  37  38
ATOM     38  C   UNL     1       7.967   9.896  -7.115  1.00  0.00     0.031 A 
ATOM     39  C   UNL     1       7.050  11.078  -7.282  1.00  0.00     0.074 A 
ATOM     40  C   UNL     1       8.340   9.172  -8.189  1.00  0.00     0.049 A 
ATOM     41  N   UNL     1       6.491  11.546  -8.368  1.00  0.00    -0.248 NA
ATOM     42  C   UNL     1       6.694  11.814  -6.059  1.00  0.00     0.031 C 
ATOM     43  C   UNL     1       9.201   7.988  -8.151  1.00  0.00     0.029 A 
ATOM     44  N   UNL     1       8.040   9.319  -9.521  1.00  0.00    -0.354 N 
ATOM     45  C   UNL     1       5.710  12.623  -7.960  1.00  0.00     0.074 A 
ATOM     46  C   UNL     1       5.818  12.694  -6.519  1.00  0.00     0.031 C 
ATOM     47  C   UNL     1       9.382   7.535  -9.401  1.00  0.00     0.029 A 
ATOM     48  C   UNL     1       8.609   8.358 -10.326  1.00  0.00     0.049 A 
ATOM     49  H   UNL     1       7.472  10.044  -9.867  1.00  0.00     0.167 HD
ATOM     50  C   UNL     1       4.991  13.486  -8.720  1.00  0.00     0.034 A 
ATOM     51  C   UNL     1       8.506   8.153 -11.654  1.00  0.00     0.034 A 
ATOM     52  C   UNL     1       4.899  13.403 -10.158  1.00  0.00     0.049 A 
ATOM     53  C   UNL     1       7.662   9.098 -12.473  1.00  0.00     0.074 A 
ATOM     54  C   UNL     1       4.239  14.251 -11.030  1.00  0.00     0.029 A 
ATOM     55  N   UNL     1       5.476  12.407 -10.937  1.00  0.00    -0.354 N 
ATOM     56  N   UNL     1       6.968  10.141 -12.077  1.00  0.00    -0.248 NA
ATOM     57  C   UNL     1       7.595   8.844 -13.917  1.00  0.00     0.031 C 
ATOM     58  C   UNL     1       4.347  13.725 -12.321  1.00  0.00     0.029 A 
ATOM     59  C   UNL     1       5.152  12.599 -12.273  1.00  0.00     0.049 A 
ATOM     60  H   UNL     1       6.032  11.672 -10.592  1.00  0.00     0.167 HD
ATOM     61  C   UNL     1       6.410  10.685 -13.231  1.00  0.00     0.074 A 
ATOM     62  C   UNL     1       6.863   9.866 -14.336  1.00  0.00     0.031 C 
ATOM     63  C   UNL     1       5.600  11.767 -13.366  1.00  0.00     0.034 A 
BRANCH  50  64
ATOM     64  C   UNL     1       4.223  14.573  -8.003  1.00  0.00     0.023 A 
ATOM     65  C   UNL     1       4.873  15.550  -7.228  1.00  0.00     0.031 A 
ATOM     66  C   UNL     1       2.819  14.621  -8.074  1.00  0.00     0.131 A 
ATOM     67  C   UNL     1       4.120  16.479  -6.494  1.00  0.00     0.055 A 
ATOM     68  C   UNL     1       2.080  15.604  -7.413  1.00  0.00     0.041 A 
ATOM     69  F   UNL     1       2.139  13.703  -8.778  1.00  0.00    -0.206 F 
ATOM     70  C   UNL     1       2.729  16.531  -6.603  1.00  0.00     0.022 A 
BRANCH  67  71
ATOM     71  S   UNL     1       4.975  17.514  -5.274  1.00  0.00     0.124 S 
ATOM     72  O   UNL     1       5.585  16.506  -4.410  1.00  0.00    -0.237 OA
ATOM     73  O   UNL     1       5.893  18.286  -6.103  1.00  0.00    -0.237 OA
ATOM     74  O   UNL     1       3.894  18.280  -4.657  1.00  0.00    -0.744 OA
ENDBRANCH  67  71
ENDBRANCH  50  64
BRANCH  51  75
ATOM     75  C   UNL     1       9.202   7.001 -12.299  1.00  0.00     0.023 A 
ATOM     76  C   UNL     1      10.198   7.205 -13.267  1.00  0.00     0.031 A 
ATOM     77  C   UNL     1       8.845   5.675 -11.992  1.00  0.00     0.131 A 
ATOM     78  C   UNL     1      10.765   6.106 -13.931  1.00  0.00     0.055 A 
ATOM     79  C   UNL     1       9.457   4.583 -12.611  1.00  0.00     0.041 A 
ATOM     80  F   UNL     1       7.900   5.420 -11.073  1.00  0.00    -0.206 F 
ATOM     81  C   UNL     1      10.414   4.796 -13.598  1.00  0.00     0.022 A 
BRANCH  78  82
ATOM     82  S   UNL     1      11.902   6.418 -15.309  1.00  0.00     0.124 S 
ATOM     83  O   UNL     1      11.070   7.213 -16.205  1.00  0.00    -0.237 OA
ATOM     84  O   UNL     1      12.994   7.125 -14.648  1.00  0.00    -0.237 OA
ATOM     85  O   UNL     1      12.231   5.077 -15.788  1.00  0.00    -0.744 OA
ENDBRANCH  78  82
ENDBRANCH  51  75
BRANCH  63  86
ATOM     86  C   UNL     1       5.192  12.151 -14.769  1.00  0.00     0.023 A 
ATOM     87  C   UNL     1       4.380  11.319 -15.560  1.00  0.00     0.031 A 
ATOM     88  C   UNL     1       5.632  13.366 -15.325  1.00  0.00     0.131 A 
ATOM     89  C   UNL     1       4.085  11.684 -16.883  1.00  0.00     0.055 A 
ATOM     90  C   UNL     1       5.277  13.756 -16.617  1.00  0.00     0.041 A 
ATOM     91  F   UNL     1       6.413  14.198 -14.618  1.00  0.00    -0.206 F 
ATOM     92  C   UNL     1       4.510  12.907 -17.409  1.00  0.00     0.022 A 
BRANCH  89  93
ATOM     93  S   UNL     1       3.222  10.492 -17.943  1.00  0.00     0.124 S 
ATOM     94  O   UNL     1       4.120   9.343 -17.899  1.00  0.00    -0.237 OA
ATOM     95  O   UNL     1       1.945  10.329 -17.255  1.00  0.00    -0.237 OA
ATOM     96  O   UNL     1       3.147  11.172 -19.234  1.00  0.00    -0.744 OA
ENDBRANCH  89  93
ENDBRANCH  63  86
ENDBRANCH  37  38
ENDBRANCH  29  32
ENDBRANCH  27  28
ENDBRANCH  26  27
ENDBRANCH   1  26
TORSDOF 19
