REMARK SMILES C[NH2+][C@]1(C(=O)NCCCCCCNC(=O)c2ccc(-c3c4nc(c(-c5cc(S(=O)(=O)[O-])ccc5F)c5ccc([nH]5)c(-c5cc(S(=O)(=O)[O-])ccc5F)c5nc(c(-c6cc(S(=O)(=O)[O-])ccc6F)c6ccc3[nH]6)C=C5)C=C4)cc2)CCC[C@@H]1CCOC[C@@H]1CCCO1
REMARK SMILES IDX 8 1 7 2 6 3 4 4 5 5 3 7 79 8 82 9 80 10 81 11 2 12 1 13
REMARK SMILES IDX 83 16 84 17 85 18 86 19 87 20 88 21 91 22 89 23 90 24 9 25
REMARK SMILES IDX 10 26 11 27 12 28 13 29 14 30 15 32 16 33 17 34 78 35 18 36
REMARK SMILES IDX 77 37 19 38 20 39 21 40 71 41 22 42 76 43 70 44 72 45 23 46
REMARK SMILES IDX 75 47 69 48 68 49 24 51 56 52 36 53 55 54 37 55 40 56 54 57
REMARK SMILES IDX 73 58 38 59 39 60 53 62 74 63 41 64 25 65 26 66 34 67 27 68
REMARK SMILES IDX 33 69 35 70 32 71 28 72 29 73 30 74 31 75 57 76 58 77 66 78
REMARK SMILES IDX 59 79 65 80 67 81 64 82 60 83 61 84 62 85 63 86 42 87 43 88
REMARK SMILES IDX 51 89 44 90 50 91 52 92 49 93 45 94 46 95 47 96 48 97
REMARK H PARENT 6 6 2 14 2 15 13 31 72 50 40 61
REMARK Flexibility Score: inf
ROOT
ATOM      1  C   UNL     1       0.990   3.771  -1.953  1.00  0.00     0.021 C 
ENDROOT
BRANCH   1   2
ATOM      2  C   UNL     1       0.671   2.277  -1.883  1.00  0.00     0.116 C 
BRANCH   2   3
ATOM      3  N   UNL     1       1.044   1.755  -0.585  1.00  0.00    -0.351 N 
ATOM      4  C   UNL     1       0.365   1.657   0.587  1.00  0.00     0.281 C 
ATOM      5  O   UNL     1       1.058   1.411   1.586  1.00  0.00    -0.268 OA
ATOM      6  H   UNL     1       1.964   1.404  -0.544  1.00  0.00     0.163 HD
BRANCH   4   7
ATOM      7  C   UNL     1      -1.197   1.702   0.713  1.00  0.00     0.178 C 
ATOM      8  C   UNL     1      -1.949   2.876   0.052  1.00  0.00     0.079 C 
ATOM      9  C   UNL     1      -1.825   0.494  -0.047  1.00  0.00     0.063 C 
ATOM     10  C   UNL     1      -3.365   2.360  -0.231  1.00  0.00     0.008 C 
ATOM     11  C   UNL     1      -3.323   0.845  -0.009  1.00  0.00     0.011 C 
BRANCH   7  12
ATOM     12  N   UNL     1      -1.546   1.534   2.166  1.00  0.00    -0.336 N 
ATOM     13  C   UNL     1      -1.693   2.770   2.917  1.00  0.00     0.331 C 
ATOM     14  H   UNL     1      -2.428   1.025   2.221  1.00  0.00     0.346 HD
ATOM     15  H   UNL     1      -0.760   1.040   2.588  1.00  0.00     0.346 HD
ENDBRANCH   7  12
BRANCH   9  16
ATOM     16  C   UNL     1      -1.477  -0.895   0.521  1.00  0.00     0.039 C 
BRANCH  16  17
ATOM     17  C   UNL     1      -1.678  -2.082  -0.428  1.00  0.00     0.161 C 
BRANCH  17  18
ATOM     18  O   UNL     1      -0.586  -2.325  -1.303  1.00  0.00    -0.379 OA
BRANCH  18  19
ATOM     19  C   UNL     1      -0.442  -1.582  -2.512  1.00  0.00     0.192 C 
BRANCH  19  20
ATOM     20  C   UNL     1      -1.571  -1.657  -3.556  1.00  0.00     0.144 C 
ATOM     21  C   UNL     1      -2.742  -0.718  -3.335  1.00  0.00     0.037 C 
ATOM     22  O   UNL     1      -2.110  -2.984  -3.674  1.00  0.00    -0.376 OA
ATOM     23  C   UNL     1      -3.893  -1.448  -3.972  1.00  0.00     0.031 C 
ATOM     24  C   UNL     1      -3.539  -2.896  -3.712  1.00  0.00     0.160 C 
ENDBRANCH  19  20
ENDBRANCH  18  19
ENDBRANCH  17  18
ENDBRANCH  16  17
ENDBRANCH   9  16
ENDBRANCH   4   7
ENDBRANCH   2   3
ENDBRANCH   1   2
BRANCH   1  25
ATOM     25  C   UNL     1       2.489   4.061  -2.114  1.00  0.00     0.002 C 
BRANCH  25  26
ATOM     26  C   UNL     1       3.102   3.561  -3.427  1.00  0.00     0.002 C 
BRANCH  26  27
ATOM     27  C   UNL     1       2.413   4.075  -4.695  1.00  0.00     0.021 C 
BRANCH  27  28
ATOM     28  C   UNL     1       2.434   5.593  -4.848  1.00  0.00     0.116 C 
BRANCH  28  29
ATOM     29  N   UNL     1       3.788   6.095  -5.019  1.00  0.00    -0.352 N 
ATOM     30  C   UNL     1       4.311   6.835  -6.047  1.00  0.00     0.251 C 
ATOM     31  H   UNL     1       4.418   5.871  -4.296  1.00  0.00     0.163 HD
ATOM     32  O   UNL     1       5.533   6.955  -6.154  1.00  0.00    -0.269 OA
BRANCH  30  33
ATOM     33  C   UNL     1       3.410   7.471  -7.031  1.00  0.00     0.039 A 
ATOM     34  C   UNL     1       3.728   7.405  -8.389  1.00  0.00     0.014 A 
ATOM     35  C   UNL     1       2.255   8.139  -6.611  1.00  0.00     0.014 A 
ATOM     36  C   UNL     1       2.858   7.960  -9.331  1.00  0.00     0.010 A 
ATOM     37  C   UNL     1       1.354   8.626  -7.554  1.00  0.00     0.010 A 
ATOM     38  C   UNL     1       1.648   8.546  -8.924  1.00  0.00    -0.014 A 
BRANCH  38  39
ATOM     39  C   UNL     1       0.682   9.088  -9.916  1.00  0.00     0.031 A 
ATOM     40  C   UNL     1       0.358  10.557  -9.928  1.00  0.00     0.074 A 
ATOM     41  C   UNL     1       0.057   8.249 -10.765  1.00  0.00     0.049 A 
ATOM     42  N   UNL     1      -0.509  11.209 -10.660  1.00  0.00    -0.248 NA
ATOM     43  C   UNL     1       1.085  11.400  -8.967  1.00  0.00     0.031 C 
ATOM     44  C   UNL     1       0.265   6.800 -10.826  1.00  0.00     0.029 A 
ATOM     45  N   UNL     1      -0.884   8.488 -11.736  1.00  0.00    -0.354 N 
ATOM     46  C   UNL     1      -0.440  12.534 -10.243  1.00  0.00     0.074 A 
ATOM     47  C   UNL     1       0.507  12.578  -9.149  1.00  0.00     0.031 C 
ATOM     48  C   UNL     1      -0.503   6.286 -11.800  1.00  0.00     0.029 A 
ATOM     49  C   UNL     1      -1.296   7.354 -12.399  1.00  0.00     0.049 A 
ATOM     50  H   UNL     1      -1.232   9.386 -11.938  1.00  0.00     0.167 HD
ATOM     51  C   UNL     1      -1.087  13.616 -10.743  1.00  0.00     0.034 A 
ATOM     52  C   UNL     1      -2.216   7.193 -13.371  1.00  0.00     0.034 A 
ATOM     53  C   UNL     1      -2.021  13.554 -11.841  1.00  0.00     0.049 A 
ATOM     54  C   UNL     1      -2.950   8.406 -13.885  1.00  0.00     0.074 A 
ATOM     55  C   UNL     1      -2.696  14.593 -12.459  1.00  0.00     0.029 A 
ATOM     56  N   UNL     1      -2.420  12.387 -12.483  1.00  0.00    -0.354 N 
ATOM     57  N   UNL     1      -2.839   9.660 -13.510  1.00  0.00    -0.248 NA
ATOM     58  C   UNL     1      -3.925   8.183 -14.960  1.00  0.00     0.031 C 
ATOM     59  C   UNL     1      -3.556  14.049 -13.419  1.00  0.00     0.029 A 
ATOM     60  C   UNL     1      -3.357  12.679 -13.463  1.00  0.00     0.049 A 
ATOM     61  H   UNL     1      -2.087  11.486 -12.271  1.00  0.00     0.167 HD
ATOM     62  C   UNL     1      -3.706  10.378 -14.329  1.00  0.00     0.074 A 
ATOM     63  C   UNL     1      -4.319   9.420 -15.226  1.00  0.00     0.031 C 
ATOM     64  C   UNL     1      -3.968  11.711 -14.344  1.00  0.00     0.034 A 
BRANCH  51  65
ATOM     65  C   UNL     1      -0.823  14.951 -10.085  1.00  0.00     0.023 A 
ATOM     66  C   UNL     1       0.459  15.530 -10.077  1.00  0.00     0.031 A 
ATOM     67  C   UNL     1      -1.860  15.645  -9.437  1.00  0.00     0.131 A 
ATOM     68  C   UNL     1       0.686  16.721  -9.370  1.00  0.00     0.055 A 
ATOM     69  C   UNL     1      -1.645  16.873  -8.809  1.00  0.00     0.041 A 
ATOM     70  F   UNL     1      -3.100  15.133  -9.391  1.00  0.00    -0.206 F 
ATOM     71  C   UNL     1      -0.362  17.411  -8.759  1.00  0.00     0.022 A 
BRANCH  68  72
ATOM     72  S   UNL     1       2.398  17.273  -9.134  1.00  0.00     0.124 S 
ATOM     73  O   UNL     1       2.985  16.125  -8.446  1.00  0.00    -0.237 OA
ATOM     74  O   UNL     1       2.849  17.497 -10.502  1.00  0.00    -0.237 OA
ATOM     75  O   UNL     1       2.260  18.476  -8.316  1.00  0.00    -0.744 OA
ENDBRANCH  68  72
ENDBRANCH  51  65
BRANCH  52  76
ATOM     76  C   UNL     1      -2.508   5.837 -13.919  1.00  0.00     0.023 A 
ATOM     77  C   UNL     1      -2.255   5.532 -15.266  1.00  0.00     0.031 A 
ATOM     78  C   UNL     1      -3.089   4.838 -13.116  1.00  0.00     0.131 A 
ATOM     79  C   UNL     1      -2.628   4.281 -15.783  1.00  0.00     0.055 A 
ATOM     80  C   UNL     1      -3.404   3.576 -13.621  1.00  0.00     0.041 A 
ATOM     81  F   UNL     1      -3.350   5.074 -11.820  1.00  0.00    -0.206 F 
ATOM     82  C   UNL     1      -3.187   3.296 -14.966  1.00  0.00     0.022 A 
BRANCH  79  83
ATOM     83  S   UNL     1      -2.457   3.994 -17.565  1.00  0.00     0.124 S 
ATOM     84  O   UNL     1      -3.273   5.068 -18.118  1.00  0.00    -0.237 OA
ATOM     85  O   UNL     1      -1.016   4.119 -17.755  1.00  0.00    -0.237 OA
ATOM     86  O   UNL     1      -2.993   2.646 -17.744  1.00  0.00    -0.744 OA
ENDBRANCH  79  83
ENDBRANCH  52  76
BRANCH  64  87
ATOM     87  C   UNL     1      -4.927  12.211 -15.398  1.00  0.00     0.023 A 
ATOM     88  C   UNL     1      -6.287  11.853 -15.395  1.00  0.00     0.031 A 
ATOM     89  C   UNL     1      -4.468  13.051 -16.428  1.00  0.00     0.131 A 
ATOM     90  C   UNL     1      -7.126  12.286 -16.433  1.00  0.00     0.055 A 
ATOM     91  C   UNL     1      -5.321  13.533 -17.421  1.00  0.00     0.041 A 
ATOM     92  F   UNL     1      -3.178  13.423 -16.483  1.00  0.00    -0.206 F 
ATOM     93  C   UNL     1      -6.656  13.139 -17.436  1.00  0.00     0.022 A 
BRANCH  90  94
ATOM     94  S   UNL     1      -8.819  11.640 -16.511  1.00  0.00     0.124 S 
ATOM     95  O   UNL     1      -8.591  10.201 -16.587  1.00  0.00    -0.237 OA
ATOM     96  O   UNL     1      -9.397  12.128 -15.264  1.00  0.00    -0.237 OA
ATOM     97  O   UNL     1      -9.362  12.247 -17.725  1.00  0.00    -0.744 OA
ENDBRANCH  90  94
ENDBRANCH  64  87
ENDBRANCH  38  39
ENDBRANCH  30  33
ENDBRANCH  28  29
ENDBRANCH  27  28
ENDBRANCH  26  27
ENDBRANCH  25  26
ENDBRANCH   1  25
TORSDOF 22
