REMARK SMILES C[C@@H]1C[N@@H+]([C@@H](C)CC(=O)NCCCCCCNC(=O)c2ccc(-c3c4nc(c(-c5cc(S(=O)(=O)[O-])ccc5F)c5ccc([nH]5)c(-c5cc(S(=O)(=O)[O-])ccc5F)c5nc(c(-c6cc(S(=O)(=O)[O-])ccc6F)c6ccc3[nH]6)C=C5)C=C4)cc2)C[C@H](C)O1
REMARK SMILES IDX 14 1 13 2 12 3 11 4 10 5 8 6 9 7 7 9 5 10 6 11 4 12 1 13
REMARK SMILES IDX 2 14 3 15 86 16 84 17 83 18 85 20 15 21 16 22 17 23 18 24
REMARK SMILES IDX 19 26 20 27 21 28 82 29 22 30 81 31 23 32 24 33 25 34 75 35
REMARK SMILES IDX 26 36 80 37 74 38 76 39 27 40 79 41 73 42 72 43 28 45 60 46
REMARK SMILES IDX 40 47 59 48 41 49 44 50 58 51 77 52 42 53 43 54 57 56 78 57
REMARK SMILES IDX 45 58 29 59 30 60 38 61 31 62 37 63 39 64 36 65 32 66 33 67
REMARK SMILES IDX 34 68 35 69 61 70 62 71 70 72 63 73 69 74 71 75 68 76 64 77
REMARK SMILES IDX 65 78 66 79 67 80 46 81 47 82 55 83 48 84 54 85 56 86 53 87
REMARK SMILES IDX 49 88 50 89 51 90 52 91
REMARK H PARENT 10 8 4 19 17 25 76 44 44 55
REMARK Flexibility Score: inf
ROOT
ATOM      1  C   UNL     1      -0.360   1.342  -3.724  1.00  0.00     0.002 C 
ENDROOT
BRANCH   1   2
ATOM      2  C   UNL     1       0.589   0.176  -3.412  1.00  0.00     0.002 C 
BRANCH   2   3
ATOM      3  C   UNL     1       0.111  -0.826  -2.358  1.00  0.00     0.021 C 
BRANCH   3   4
ATOM      4  C   UNL     1      -1.161  -1.597  -2.713  1.00  0.00     0.116 C 
BRANCH   4   5
ATOM      5  N   UNL     1      -0.857  -2.981  -3.032  1.00  0.00    -0.356 N 
ATOM      6  C   UNL     1      -1.029  -4.097  -2.271  1.00  0.00     0.225 C 
ATOM      7  O   UNL     1      -0.586  -5.170  -2.687  1.00  0.00    -0.275 OA
ATOM      8  H   UNL     1      -0.472  -3.134  -3.925  1.00  0.00     0.163 HD
BRANCH   6   9
ATOM      9  C   UNL     1      -1.775  -4.024  -0.954  1.00  0.00     0.164 C 
BRANCH   9  10
ATOM     10  C   UNL     1      -0.838  -3.781   0.252  1.00  0.00     0.190 C 
ATOM     11  C   UNL     1      -1.204  -4.772   1.376  1.00  0.00     0.076 C 
BRANCH  10  12
ATOM     12  N   UNL     1      -0.800  -2.352   0.677  1.00  0.00    -0.328 N 
ATOM     13  C   UNL     1       1.141   0.290   1.034  1.00  0.00     0.045 C 
ATOM     14  C   UNL     1       0.456  -0.623   2.047  1.00  0.00     0.170 C 
ATOM     15  C   UNL     1       0.333  -2.095   1.596  1.00  0.00     0.294 C 
ATOM     16  O   UNL     1      -0.779  -0.075   2.529  1.00  0.00    -0.364 OA
ATOM     17  C   UNL     1      -1.958  -0.397   1.779  1.00  0.00     0.170 C 
ATOM     18  C   UNL     1      -2.026  -1.885   1.361  1.00  0.00     0.294 C 
ATOM     19  H   UNL     1      -0.703  -1.837  -0.198  1.00  0.00     0.348 HD
ATOM     20  C   UNL     1      -2.171   0.560   0.616  1.00  0.00     0.045 C 
ENDBRANCH  10  12
ENDBRANCH   9  10
ENDBRANCH   6   9
ENDBRANCH   4   5
ENDBRANCH   3   4
ENDBRANCH   2   3
ENDBRANCH   1   2
BRANCH   1  21
ATOM     21  C   UNL     1      -0.747   2.270  -2.565  1.00  0.00     0.021 C 
BRANCH  21  22
ATOM     22  C   UNL     1       0.402   2.927  -1.798  1.00  0.00     0.116 C 
BRANCH  22  23
ATOM     23  N   UNL     1       1.160   3.838  -2.634  1.00  0.00    -0.352 N 
ATOM     24  C   UNL     1       1.398   5.186  -2.515  1.00  0.00     0.251 C 
ATOM     25  H   UNL     1       1.576   3.419  -3.422  1.00  0.00     0.163 HD
ATOM     26  O   UNL     1       1.877   5.777  -3.481  1.00  0.00    -0.269 OA
BRANCH  24  27
ATOM     27  C   UNL     1       1.091   5.942  -1.273  1.00  0.00     0.039 A 
ATOM     28  C   UNL     1       0.652   7.266  -1.401  1.00  0.00     0.014 A 
ATOM     29  C   UNL     1       1.324   5.424   0.005  1.00  0.00     0.014 A 
ATOM     30  C   UNL     1       0.430   8.054  -0.266  1.00  0.00     0.010 A 
ATOM     31  C   UNL     1       1.048   6.196   1.143  1.00  0.00     0.010 A 
ATOM     32  C   UNL     1       0.614   7.525   1.022  1.00  0.00    -0.014 A 
BRANCH  32  33
ATOM     33  C   UNL     1       0.376   8.375   2.225  1.00  0.00     0.031 A 
ATOM     34  C   UNL     1       1.518   8.774   3.126  1.00  0.00     0.074 A 
ATOM     35  C   UNL     1      -0.873   8.796   2.512  1.00  0.00     0.049 A 
ATOM     36  N   UNL     1       1.507   9.530   4.196  1.00  0.00    -0.248 NA
ATOM     37  C   UNL     1       2.843   8.233   2.790  1.00  0.00     0.031 C 
ATOM     38  C   UNL     1      -2.072   8.456   1.744  1.00  0.00     0.029 A 
ATOM     39  N   UNL     1      -1.344   9.603   3.519  1.00  0.00    -0.354 N 
ATOM     40  C   UNL     1       2.818   9.555   4.663  1.00  0.00     0.074 A 
ATOM     41  C   UNL     1       3.583   8.686   3.792  1.00  0.00     0.031 C 
ATOM     42  C   UNL     1      -3.133   9.073   2.288  1.00  0.00     0.029 A 
ATOM     43  C   UNL     1      -2.701   9.825   3.463  1.00  0.00     0.049 A 
ATOM     44  H   UNL     1      -0.764   9.987   4.216  1.00  0.00     0.167 HD
ATOM     45  C   UNL     1       3.341  10.252   5.705  1.00  0.00     0.034 A 
ATOM     46  C   UNL     1      -3.509  10.552   4.262  1.00  0.00     0.034 A 
ATOM     47  C   UNL     1       2.570  11.118   6.567  1.00  0.00     0.049 A 
ATOM     48  C   UNL     1      -2.908  11.309   5.420  1.00  0.00     0.074 A 
ATOM     49  C   UNL     1       3.010  11.899   7.624  1.00  0.00     0.029 A 
ATOM     50  N   UNL     1       1.197  11.315   6.479  1.00  0.00    -0.354 N 
ATOM     51  N   UNL     1      -1.657  11.361   5.814  1.00  0.00    -0.248 NA
ATOM     52  C   UNL     1      -3.827  12.123   6.225  1.00  0.00     0.031 C 
ATOM     53  C   UNL     1       1.898  12.512   8.214  1.00  0.00     0.029 A 
ATOM     54  C   UNL     1       0.773  12.182   7.477  1.00  0.00     0.049 A 
ATOM     55  H   UNL     1       0.610  10.900   5.806  1.00  0.00     0.167 HD
ATOM     56  C   UNL     1      -1.636  12.244   6.892  1.00  0.00     0.074 A 
ATOM     57  C   UNL     1      -2.995  12.710   7.072  1.00  0.00     0.031 C 
ATOM     58  C   UNL     1      -0.587  12.637   7.659  1.00  0.00     0.034 A 
BRANCH  45  59
ATOM     59  C   UNL     1       4.818  10.080   5.985  1.00  0.00     0.023 A 
ATOM     60  C   UNL     1       5.798  10.461   5.051  1.00  0.00     0.031 A 
ATOM     61  C   UNL     1       5.254   9.510   7.195  1.00  0.00     0.131 A 
ATOM     62  C   UNL     1       7.153  10.197   5.306  1.00  0.00     0.055 A 
ATOM     63  C   UNL     1       6.610   9.327   7.479  1.00  0.00     0.041 A 
ATOM     64  F   UNL     1       4.369   9.109   8.121  1.00  0.00    -0.206 F 
ATOM     65  C   UNL     1       7.568   9.656   6.524  1.00  0.00     0.022 A 
BRANCH  62  66
ATOM     66  S   UNL     1       8.350  10.435   3.964  1.00  0.00     0.124 S 
ATOM     67  O   UNL     1       7.820   9.545   2.934  1.00  0.00    -0.237 OA
ATOM     68  O   UNL     1       8.242  11.863   3.694  1.00  0.00    -0.237 OA
ATOM     69  O   UNL     1       9.617  10.005   4.555  1.00  0.00    -0.744 OA
ENDBRANCH  62  66
ENDBRANCH  45  59
BRANCH  46  70
ATOM     70  C   UNL     1      -4.977  10.607   4.001  1.00  0.00     0.023 A 
ATOM     71  C   UNL     1      -5.608  11.810   3.646  1.00  0.00     0.031 A 
ATOM     72  C   UNL     1      -5.779   9.461   4.147  1.00  0.00     0.131 A 
ATOM     73  C   UNL     1      -7.003  11.852   3.497  1.00  0.00     0.055 A 
ATOM     74  C   UNL     1      -7.160   9.496   3.945  1.00  0.00     0.041 A 
ATOM     75  F   UNL     1      -5.226   8.284   4.481  1.00  0.00    -0.206 F 
ATOM     76  C   UNL     1      -7.781  10.700   3.631  1.00  0.00     0.022 A 
BRANCH  73  77
ATOM     77  S   UNL     1      -7.800  13.456   3.209  1.00  0.00     0.124 S 
ATOM     78  O   UNL     1      -7.368  14.217   4.376  1.00  0.00    -0.237 OA
ATOM     79  O   UNL     1      -7.220  13.857   1.931  1.00  0.00    -0.237 OA
ATOM     80  O   UNL     1      -9.223  13.127   3.169  1.00  0.00    -0.744 OA
ENDBRANCH  73  77
ENDBRANCH  46  70
BRANCH  58  81
ATOM     81  C   UNL     1      -0.867  13.666   8.730  1.00  0.00     0.023 A 
ATOM     82  C   UNL     1      -1.702  13.391   9.828  1.00  0.00     0.031 A 
ATOM     83  C   UNL     1      -0.313  14.955   8.631  1.00  0.00     0.131 A 
ATOM     84  C   UNL     1      -2.016  14.409  10.742  1.00  0.00     0.055 A 
ATOM     85  C   UNL     1      -0.576  15.945   9.580  1.00  0.00     0.041 A 
ATOM     86  F   UNL     1       0.490  15.278   7.605  1.00  0.00    -0.206 F 
ATOM     87  C   UNL     1      -1.446  15.680  10.633  1.00  0.00     0.022 A 
BRANCH  84  88
ATOM     88  S   UNL     1      -3.272  14.085  12.010  1.00  0.00     0.124 S 
ATOM     89  O   UNL     1      -4.417  13.671  11.206  1.00  0.00    -0.237 OA
ATOM     90  O   UNL     1      -2.644  13.039  12.811  1.00  0.00    -0.237 OA
ATOM     91  O   UNL     1      -3.422  15.374  12.683  1.00  0.00    -0.744 OA
ENDBRANCH  84  88
ENDBRANCH  58  81
ENDBRANCH  32  33
ENDBRANCH  24  27
ENDBRANCH  22  23
ENDBRANCH  21  22
ENDBRANCH   1  21
TORSDOF 18
