REMARK SMILES CC(C)[C@@H](NC(=O)N[C@H]1CCS(=O)(=O)C1)C(=O)NCCCCCCNC(=O)c1ccc(-c2c3nc(c(-c4cc(S(=O)(=O)[O-])ccc4F)c4ccc([nH]4)c(-c4cc(S(=O)(=O)[O-])ccc4F)c4nc(c(-c5cc(S(=O)(=O)[O-])ccc5F)c5ccc2[nH]5)C=C4)C=C3)cc1
REMARK SMILES IDX 22 1 21 2 20 3 19 4 18 5 16 6 17 7 4 9 2 10 1 11 3 12 5 13
REMARK SMILES IDX 6 14 7 16 8 17 9 19 10 20 15 21 11 22 12 23 13 24 14 25
REMARK SMILES IDX 23 26 24 27 25 28 26 29 27 31 28 32 29 33 90 34 30 35 89 36
REMARK SMILES IDX 31 37 32 38 33 39 83 40 34 41 88 42 82 43 84 44 35 45 87 46
REMARK SMILES IDX 81 47 80 48 36 50 68 51 48 52 67 53 49 54 52 55 66 56 85 57
REMARK SMILES IDX 50 58 51 59 65 61 86 62 53 63 37 64 38 65 46 66 39 67 45 68
REMARK SMILES IDX 47 69 44 70 40 71 41 72 42 73 43 74 69 75 70 76 78 77 71 78
REMARK SMILES IDX 77 79 79 80 76 81 72 82 73 83 74 84 75 85 54 86 55 87 63 88
REMARK SMILES IDX 56 89 62 90 64 91 61 92 57 93 58 94 59 95 60 96
REMARK H PARENT 18 8 5 15 8 18 25 30 84 49 52 60
REMARK Flexibility Score: inf
ROOT
ATOM      1  C   UNL     1      -1.593   2.461   4.153  1.00  0.00     0.002 C 
ENDROOT
BRANCH   1   2
ATOM      2  C   UNL     1      -3.002   3.061   4.205  1.00  0.00     0.002 C 
BRANCH   2   3
ATOM      3  C   UNL     1      -3.032   4.583   4.035  1.00  0.00     0.021 C 
BRANCH   3   4
ATOM      4  C   UNL     1      -2.563   5.009   2.657  1.00  0.00     0.116 C 
BRANCH   4   5
ATOM      5  N   UNL     1      -3.592   4.659   1.700  1.00  0.00    -0.354 N 
ATOM      6  C   UNL     1      -3.986   5.305   0.577  1.00  0.00     0.242 C 
ATOM      7  O   UNL     1      -4.992   4.885  -0.004  1.00  0.00    -0.273 OA
ATOM      8  H   UNL     1      -4.079   3.826   1.895  1.00  0.00     0.163 HD
BRANCH   6   9
ATOM      9  C   UNL     1      -3.284   6.579   0.114  1.00  0.00     0.175 C 
BRANCH   9  10
ATOM     10  C   UNL     1      -3.844   7.750   0.990  1.00  0.00     0.015 C 
ATOM     11  C   UNL     1      -3.365   9.126   0.529  1.00  0.00     0.010 C 
ATOM     12  C   UNL     1      -5.383   7.753   1.038  1.00  0.00     0.010 C 
ENDBRANCH   9  10
BRANCH   9  13
ATOM     13  N   UNL     1      -1.815   6.458   0.181  1.00  0.00    -0.326 N 
ATOM     14  C   UNL     1      -0.880   5.699  -0.400  1.00  0.00     0.315 C 
ATOM     15  H   UNL     1      -1.423   7.100   0.817  1.00  0.00     0.166 HD
ATOM     16  O   UNL     1       0.284   6.104  -0.336  1.00  0.00    -0.249 OA
ATOM     17  N   UNL     1      -1.067   4.521  -1.007  1.00  0.00    -0.334 N 
ATOM     18  H   UNL     1      -0.251   4.205  -1.458  1.00  0.00     0.165 HD
BRANCH  17  19
ATOM     19  C   UNL     1      -2.174   3.591  -1.165  1.00  0.00     0.099 C 
ATOM     20  C   UNL     1      -3.134   3.971  -2.294  1.00  0.00     0.042 C 
ATOM     21  C   UNL     1      -1.746   2.160  -1.515  1.00  0.00     0.161 C 
ATOM     22  C   UNL     1      -4.189   2.869  -2.322  1.00  0.00     0.139 C 
ATOM     23  S   UNL     1      -3.295   1.369  -1.946  1.00  0.00     0.152 S 
ATOM     24  O   UNL     1      -3.856   0.777  -0.752  1.00  0.00    -0.229 OA
ATOM     25  O   UNL     1      -3.111   0.615  -3.171  1.00  0.00    -0.229 OA
ENDBRANCH  17  19
ENDBRANCH   9  13
ENDBRANCH   6   9
ENDBRANCH   4   5
ENDBRANCH   3   4
ENDBRANCH   2   3
ENDBRANCH   1   2
BRANCH   1  26
ATOM     26  C   UNL     1      -0.614   3.086   5.147  1.00  0.00     0.021 C 
BRANCH  26  27
ATOM     27  C   UNL     1      -1.155   3.170   6.569  1.00  0.00     0.116 C 
BRANCH  27  28
ATOM     28  N   UNL     1      -1.540   1.864   7.075  1.00  0.00    -0.352 N 
ATOM     29  C   UNL     1      -1.316   1.343   8.321  1.00  0.00     0.251 C 
ATOM     30  H   UNL     1      -2.023   1.283   6.445  1.00  0.00     0.163 HD
ATOM     31  O   UNL     1      -1.521   0.155   8.544  1.00  0.00    -0.269 OA
BRANCH  29  32
ATOM     32  C   UNL     1      -0.792   2.236   9.371  1.00  0.00     0.039 A 
ATOM     33  C   UNL     1       0.317   1.826  10.108  1.00  0.00     0.014 A 
ATOM     34  C   UNL     1      -1.370   3.493   9.582  1.00  0.00     0.014 A 
ATOM     35  C   UNL     1       0.873   2.699  11.040  1.00  0.00     0.010 A 
ATOM     36  C   UNL     1      -0.761   4.392  10.450  1.00  0.00     0.010 A 
ATOM     37  C   UNL     1       0.357   3.998  11.198  1.00  0.00    -0.014 A 
BRANCH  37  38
ATOM     38  C   UNL     1       0.976   4.942  12.161  1.00  0.00     0.031 A 
ATOM     39  C   UNL     1       0.186   5.436  13.342  1.00  0.00     0.074 A 
ATOM     40  C   UNL     1       2.237   5.368  11.954  1.00  0.00     0.049 A 
ATOM     41  N   UNL     1       0.546   6.265  14.287  1.00  0.00    -0.248 NA
ATOM     42  C   UNL     1      -1.200   4.955  13.462  1.00  0.00     0.031 C 
ATOM     43  C   UNL     1       3.080   4.987  10.817  1.00  0.00     0.029 A 
ATOM     44  N   UNL     1       3.035   6.206  12.690  1.00  0.00    -0.354 N 
ATOM     45  C   UNL     1      -0.567   6.408  15.110  1.00  0.00     0.074 A 
ATOM     46  C   UNL     1      -1.634   5.637  14.511  1.00  0.00     0.031 C 
ATOM     47  C   UNL     1       4.287   5.557  10.954  1.00  0.00     0.029 A 
ATOM     48  C   UNL     1       4.291   6.384  12.156  1.00  0.00     0.049 A 
ATOM     49  H   UNL     1       2.737   6.640  13.522  1.00  0.00     0.167 HD
ATOM     50  C   UNL     1      -0.677   7.099  16.271  1.00  0.00     0.034 A 
ATOM     51  C   UNL     1       5.325   7.136  12.584  1.00  0.00     0.034 A 
ATOM     52  C   UNL     1       0.404   7.855  16.853  1.00  0.00     0.049 A 
ATOM     53  C   UNL     1       5.165   7.920  13.863  1.00  0.00     0.074 A 
ATOM     54  C   UNL     1       0.421   8.550  18.050  1.00  0.00     0.029 A 
ATOM     55  N   UNL     1       1.657   8.028  16.278  1.00  0.00    -0.354 N 
ATOM     56  N   UNL     1       4.125   7.997  14.661  1.00  0.00    -0.248 NA
ATOM     57  C   UNL     1       6.323   8.705  14.305  1.00  0.00     0.031 C 
ATOM     58  C   UNL     1       1.649   9.209  18.157  1.00  0.00     0.029 A 
ATOM     59  C   UNL     1       2.438   8.850  17.076  1.00  0.00     0.049 A 
ATOM     60  H   UNL     1       1.948   7.625  15.428  1.00  0.00     0.167 HD
ATOM     61  C   UNL     1       4.518   8.814  15.718  1.00  0.00     0.074 A 
ATOM     62  C   UNL     1       5.895   9.184  15.463  1.00  0.00     0.031 C 
ATOM     63  C   UNL     1       3.808   9.221  16.802  1.00  0.00     0.034 A 
BRANCH  50  64
ATOM     64  C   UNL     1      -2.018   7.088  16.966  1.00  0.00     0.023 A 
ATOM     65  C   UNL     1      -2.596   5.900  17.447  1.00  0.00     0.031 A 
ATOM     66  C   UNL     1      -2.737   8.284  17.140  1.00  0.00     0.131 A 
ATOM     67  C   UNL     1      -3.879   5.923  18.014  1.00  0.00     0.055 A 
ATOM     68  C   UNL     1      -3.977   8.312  17.782  1.00  0.00     0.041 A 
ATOM     69  F   UNL     1      -2.251   9.447  16.679  1.00  0.00    -0.206 F 
ATOM     70  C   UNL     1      -4.561   7.125  18.211  1.00  0.00     0.022 A 
BRANCH  67  71
ATOM     71  S   UNL     1      -4.705   4.344  18.356  1.00  0.00     0.124 S 
ATOM     72  O   UNL     1      -4.719   3.727  17.031  1.00  0.00    -0.237 OA
ATOM     73  O   UNL     1      -3.818   3.731  19.337  1.00  0.00    -0.237 OA
ATOM     74  O   UNL     1      -6.016   4.745  18.862  1.00  0.00    -0.744 OA
ENDBRANCH  67  71
ENDBRANCH  50  64
BRANCH  51  75
ATOM     75  C   UNL     1       6.592   7.201  11.799  1.00  0.00     0.023 A 
ATOM     76  C   UNL     1       7.810   6.766  12.347  1.00  0.00     0.031 A 
ATOM     77  C   UNL     1       6.614   7.752  10.505  1.00  0.00     0.131 A 
ATOM     78  C   UNL     1       9.003   6.943  11.629  1.00  0.00     0.055 A 
ATOM     79  C   UNL     1       7.794   7.865   9.769  1.00  0.00     0.041 A 
ATOM     80  F   UNL     1       5.479   8.184   9.931  1.00  0.00    -0.206 F 
ATOM     81  C   UNL     1       9.002   7.475  10.338  1.00  0.00     0.022 A 
BRANCH  78  82
ATOM     82  S   UNL     1      10.576   6.571  12.454  1.00  0.00     0.124 S 
ATOM     83  O   UNL     1      10.503   7.429  13.630  1.00  0.00    -0.237 OA
ATOM     84  O   UNL     1      10.458   5.137  12.696  1.00  0.00    -0.237 OA
ATOM     85  O   UNL     1      11.578   6.953  11.462  1.00  0.00    -0.744 OA
ENDBRANCH  78  82
ENDBRANCH  51  75
BRANCH  63  86
ATOM     86  C   UNL     1       4.532  10.076  17.815  1.00  0.00     0.023 A 
ATOM     87  C   UNL     1       5.011  11.359  17.497  1.00  0.00     0.031 A 
ATOM     88  C   UNL     1       4.763   9.590  19.115  1.00  0.00     0.131 A 
ATOM     89  C   UNL     1       5.757  12.081  18.440  1.00  0.00     0.055 A 
ATOM     90  C   UNL     1       5.439  10.344  20.073  1.00  0.00     0.041 A 
ATOM     91  F   UNL     1       4.333   8.370  19.475  1.00  0.00    -0.206 F 
ATOM     92  C   UNL     1       5.956  11.591  19.733  1.00  0.00     0.022 A 
BRANCH  89  93
ATOM     93  S   UNL     1       6.567  13.616  17.916  1.00  0.00     0.124 S 
ATOM     94  O   UNL     1       7.390  13.159  16.801  1.00  0.00    -0.237 OA
ATOM     95  O   UNL     1       5.433  14.464  17.565  1.00  0.00    -0.237 OA
ATOM     96  O   UNL     1       7.310  14.035  19.104  1.00  0.00    -0.744 OA
ENDBRANCH  89  93
ENDBRANCH  63  86
ENDBRANCH  37  38
ENDBRANCH  29  32
ENDBRANCH  27  28
ENDBRANCH  26  27
ENDBRANCH   1  26
TORSDOF 19
