REMARK SMILES C[C@H](CSc1ccc(C(=O)N(C)C)cn1)C(=O)NCCCCCCNC(=O)c1ccc(-c2c3nc(c(-c4cc(S(=O)(=O)[O-])ccc4F)c4ccc([nH]4)c(-c4cc(S(=O)(=O)[O-])ccc4F)c4nc(c(-c5cc(S(=O)(=O)[O-])ccc5F)c5ccc2[nH]5)C=C4)C=C3)cc1
REMARK SMILES IDX 21 1 20 2 19 3 18 4 16 5 17 6 2 8 1 9 3 10 4 11 5 12 6 13
REMARK SMILES IDX 15 14 7 15 14 16 8 17 9 18 10 19 11 20 12 21 13 22 22 23
REMARK SMILES IDX 23 24 24 25 25 26 26 27 27 29 28 30 29 31 90 32 30 33 89 34
REMARK SMILES IDX 31 35 32 36 33 37 83 38 34 39 88 40 82 41 84 42 35 43 87 44
REMARK SMILES IDX 81 45 80 46 36 48 68 49 48 50 67 51 49 52 52 53 66 54 85 55
REMARK SMILES IDX 50 56 51 57 65 59 86 60 53 61 37 62 38 63 46 64 39 65 45 66
REMARK SMILES IDX 47 67 44 68 40 69 41 70 42 71 43 72 69 73 70 74 78 75 71 76
REMARK SMILES IDX 77 77 79 78 76 79 72 80 73 81 74 82 75 83 54 84 55 85 63 86
REMARK SMILES IDX 56 87 62 88 64 89 61 90 57 91 58 92 59 93 60 94
REMARK H PARENT 18 7 25 28 84 47 52 58
REMARK Flexibility Score: inf
ROOT
ATOM      1  C   UNL     1      -3.087   1.728   2.330  1.00  0.00     0.002 C 
ENDROOT
BRANCH   1   2
ATOM      2  C   UNL     1      -1.594   1.510   2.061  1.00  0.00     0.021 C 
BRANCH   2   3
ATOM      3  C   UNL     1      -1.247   0.031   1.918  1.00  0.00     0.116 C 
BRANCH   3   4
ATOM      4  N   UNL     1      -1.671  -0.442   0.609  1.00  0.00    -0.356 N 
ATOM      5  C   UNL     1      -0.992  -1.093  -0.371  1.00  0.00     0.223 C 
ATOM      6  O   UNL     1      -1.573  -1.295  -1.440  1.00  0.00    -0.275 OA
ATOM      7  H   UNL     1      -2.614  -0.258   0.397  1.00  0.00     0.163 HD
BRANCH   5   8
ATOM      8  C   UNL     1       0.405  -1.643  -0.133  1.00  0.00     0.085 C 
ATOM      9  C   UNL     1       0.262  -2.756   0.908  1.00  0.00     0.019 C 
BRANCH   8  10
ATOM     10  C   UNL     1       1.436  -0.509   0.043  1.00  0.00     0.089 C 
BRANCH  10  11
ATOM     11  S   UNL     1       3.194  -1.003   0.224  1.00  0.00    -0.106 SA
BRANCH  11  12
ATOM     12  C   UNL     1       3.162  -1.746   1.842  1.00  0.00     0.096 A 
ATOM     13  C   UNL     1       3.699  -3.020   1.995  1.00  0.00     0.036 A 
ATOM     14  N   UNL     1       2.484  -1.123   2.824  1.00  0.00    -0.249 NA
ATOM     15  C   UNL     1       3.452  -3.730   3.177  1.00  0.00     0.018 A 
ATOM     16  C   UNL     1       2.283  -1.829   3.972  1.00  0.00     0.126 A 
ATOM     17  C   UNL     1       2.676  -3.155   4.180  1.00  0.00     0.058 A 
BRANCH  17  18
ATOM     18  C   UNL     1       2.257  -3.789   5.463  1.00  0.00     0.254 C 
ATOM     19  O   UNL     1       1.888  -3.014   6.350  1.00  0.00    -0.269 OA
ATOM     20  N   UNL     1       2.240  -5.170   5.694  1.00  0.00    -0.345 N 
ATOM     21  C   UNL     1       2.402  -6.256   4.741  1.00  0.00     0.146 C 
ATOM     22  C   UNL     1       1.928  -5.574   7.059  1.00  0.00     0.146 C 
ENDBRANCH  17  18
ENDBRANCH  11  12
ENDBRANCH  10  11
ENDBRANCH   8  10
ENDBRANCH   5   8
ENDBRANCH   3   4
ENDBRANCH   2   3
ENDBRANCH   1   2
BRANCH   1  23
ATOM     23  C   UNL     1      -3.578   1.117   3.648  1.00  0.00     0.002 C 
BRANCH  23  24
ATOM     24  C   UNL     1      -2.831   1.612   4.889  1.00  0.00     0.021 C 
BRANCH  24  25
ATOM     25  C   UNL     1      -2.870   3.125   5.067  1.00  0.00     0.116 C 
BRANCH  25  26
ATOM     26  N   UNL     1      -4.236   3.609   5.191  1.00  0.00    -0.352 N 
ATOM     27  C   UNL     1      -4.772   4.425   6.149  1.00  0.00     0.251 C 
ATOM     28  H   UNL     1      -4.859   3.309   4.490  1.00  0.00     0.163 HD
ATOM     29  O   UNL     1      -5.996   4.533   6.247  1.00  0.00    -0.269 OA
BRANCH  27  30
ATOM     30  C   UNL     1      -3.876   5.155   7.066  1.00  0.00     0.039 A 
ATOM     31  C   UNL     1      -4.197   5.217   8.422  1.00  0.00     0.014 A 
ATOM     32  C   UNL     1      -2.723   5.783   6.582  1.00  0.00     0.014 A 
ATOM     33  C   UNL     1      -3.341   5.881   9.301  1.00  0.00     0.010 A 
ATOM     34  C   UNL     1      -1.831   6.371   7.472  1.00  0.00     0.010 A 
ATOM     35  C   UNL     1      -2.140   6.445   8.838  1.00  0.00    -0.014 A 
BRANCH  35  36
ATOM     36  C   UNL     1      -1.224   7.159   9.763  1.00  0.00     0.031 A 
ATOM     37  C   UNL     1      -0.963   8.629   9.569  1.00  0.00     0.074 A 
ATOM     38  C   UNL     1      -0.610   6.483  10.754  1.00  0.00     0.049 A 
ATOM     39  N   UNL     1      -0.156   9.421  10.226  1.00  0.00    -0.248 NA
ATOM     40  C   UNL     1      -1.687   9.289   8.470  1.00  0.00     0.031 C 
ATOM     41  C   UNL     1      -0.759   5.049  11.018  1.00  0.00     0.029 A 
ATOM     42  N   UNL     1       0.264   6.907  11.723  1.00  0.00    -0.354 N 
ATOM     43  C   UNL     1      -0.279  10.670   9.626  1.00  0.00     0.074 A 
ATOM     44  C   UNL     1      -1.172  10.508   8.499  1.00  0.00     0.031 C 
ATOM     45  C   UNL     1      -0.023   4.721  12.092  1.00  0.00     0.029 A 
ATOM     46  C   UNL     1       0.687   5.905  12.566  1.00  0.00     0.049 A 
ATOM     47  H   UNL     1       0.560   7.843  11.808  1.00  0.00     0.167 HD
ATOM     48  C   UNL     1       0.272  11.851  10.001  1.00  0.00     0.034 A 
ATOM     49  C   UNL     1       1.560   5.936  13.593  1.00  0.00     0.034 A 
ATOM     50  C   UNL     1       1.160  11.996  11.127  1.00  0.00     0.049 A 
ATOM     51  C   UNL     1       2.192   7.256  13.965  1.00  0.00     0.074 A 
ATOM     52  C   UNL     1       1.776  13.143  11.599  1.00  0.00     0.029 A 
ATOM     53  N   UNL     1       1.559  10.960  11.963  1.00  0.00    -0.354 N 
ATOM     54  N   UNL     1       2.044   8.434  13.402  1.00  0.00    -0.248 NA
ATOM     55  C   UNL     1       3.092   7.255  15.125  1.00  0.00     0.031 C 
ATOM     56  C   UNL     1       2.592  12.791  12.679  1.00  0.00     0.029 A 
ATOM     57  C   UNL     1       2.420  11.441  12.938  1.00  0.00     0.049 A 
ATOM     58  H   UNL     1       1.273  10.023  11.876  1.00  0.00     0.167 HD
ATOM     59  C   UNL     1       2.795   9.319  14.171  1.00  0.00     0.074 A 
ATOM     60  C   UNL     1       3.378   8.542  15.244  1.00  0.00     0.031 C 
ATOM     61  C   UNL     1       2.986  10.654  14.009  1.00  0.00     0.034 A 
BRANCH  48  62
ATOM     62  C   UNL     1      -0.072  13.069   9.177  1.00  0.00     0.023 A 
ATOM     63  C   UNL     1      -1.394  13.540   9.083  1.00  0.00     0.031 A 
ATOM     64  C   UNL     1       0.923  13.761   8.466  1.00  0.00     0.131 A 
ATOM     65  C   UNL     1      -1.696  14.621   8.242  1.00  0.00     0.055 A 
ATOM     66  C   UNL     1       0.629  14.889   7.698  1.00  0.00     0.041 A 
ATOM     67  F   UNL     1       2.200  13.346   8.496  1.00  0.00    -0.206 F 
ATOM     68  C   UNL     1      -0.690  15.318   7.572  1.00  0.00     0.022 A 
BRANCH  65  69
ATOM     69  S   UNL     1      -3.439  15.016   7.933  1.00  0.00     0.124 S 
ATOM     70  O   UNL     1      -3.920  13.774   7.334  1.00  0.00    -0.237 OA
ATOM     71  O   UNL     1      -3.938  15.317   9.270  1.00  0.00    -0.237 OA
ATOM     72  O   UNL     1      -3.374  16.156   7.020  1.00  0.00    -0.744 OA
ENDBRANCH  65  69
ENDBRANCH  48  62
BRANCH  49  73
ATOM     73  C   UNL     1       1.907   4.690  14.339  1.00  0.00     0.023 A 
ATOM     74  C   UNL     1       1.659   4.574  15.716  1.00  0.00     0.031 A 
ATOM     75  C   UNL     1       2.571   3.627  13.700  1.00  0.00     0.131 A 
ATOM     76  C   UNL     1       2.140   3.460  16.423  1.00  0.00     0.055 A 
ATOM     77  C   UNL     1       2.982   2.488  14.395  1.00  0.00     0.041 A 
ATOM     78  F   UNL     1       2.833   3.681  12.384  1.00  0.00    -0.206 F 
ATOM     79  C   UNL     1       2.787   2.410  15.770  1.00  0.00     0.022 A 
BRANCH  76  80
ATOM     80  S   UNL     1       2.032   3.472  18.235  1.00  0.00     0.124 S 
ATOM     81  O   UNL     1       2.708   4.721  18.563  1.00  0.00    -0.237 OA
ATOM     82  O   UNL     1       0.589   3.446  18.451  1.00  0.00    -0.237 OA
ATOM     83  O   UNL     1       2.742   2.256  18.625  1.00  0.00    -0.744 OA
ENDBRANCH  76  80
ENDBRANCH  49  73
BRANCH  61  84
ATOM     84  C   UNL     1       3.797  11.367  15.066  1.00  0.00     0.023 A 
ATOM     85  C   UNL     1       5.157  11.083  15.281  1.00  0.00     0.031 A 
ATOM     86  C   UNL     1       3.186  12.330  15.889  1.00  0.00     0.131 A 
ATOM     87  C   UNL     1       5.840  11.698  16.342  1.00  0.00     0.055 A 
ATOM     88  C   UNL     1       3.889  12.993  16.895  1.00  0.00     0.041 A 
ATOM     89  F   UNL     1       1.889  12.641  15.731  1.00  0.00    -0.206 F 
ATOM     90  C   UNL     1       5.220  12.665  17.138  1.00  0.00     0.022 A 
BRANCH  87  91
ATOM     91  S   UNL     1       7.513  11.128  16.746  1.00  0.00     0.124 S 
ATOM     92  O   UNL     1       7.305   9.700  16.958  1.00  0.00    -0.237 OA
ATOM     93  O   UNL     1       8.264  11.492  15.549  1.00  0.00    -0.237 OA
ATOM     94  O   UNL     1       7.855  11.890  17.946  1.00  0.00    -0.744 OA
ENDBRANCH  87  91
ENDBRANCH  61  84
ENDBRANCH  35  36
ENDBRANCH  27  30
ENDBRANCH  25  26
ENDBRANCH  24  25
ENDBRANCH  23  24
ENDBRANCH   1  23
TORSDOF 20
