REMARK SMILES Cc1ccccc1OCC(=O)N[C@@H](Cc1c[nH]c2ccccc12)C(=O)NCCCCCCNC(=O)c1ccc(-c2c3nc(c(-c4cc(S(=O)(=O)[O-])ccc4F)c4ccc([nH]4)c(-c4cc(S(=O)(=O)[O-])ccc4F)c4nc(c(-c5cc(S(=O)(=O)[O-])ccc5F)c5ccc2[nH]5)C=C4)C=C3)cc1
REMARK SMILES IDX 29 1 28 2 27 3 26 4 24 5 25 6 13 8 12 9 10 10 11 11 9 13
REMARK SMILES IDX 8 14 7 15 1 16 2 17 3 18 4 19 6 20 5 21 14 22 15 23 16 24
REMARK SMILES IDX 23 25 17 26 18 27 22 28 19 30 21 31 20 32 30 33 31 34 32 35
REMARK SMILES IDX 33 36 34 37 35 39 36 40 37 41 98 42 38 43 97 44 39 45 40 46
REMARK SMILES IDX 41 47 91 48 42 49 96 50 90 51 92 52 43 53 95 54 89 55 88 56
REMARK SMILES IDX 44 58 76 59 56 60 75 61 57 62 60 63 74 64 93 65 58 66 59 67
REMARK SMILES IDX 73 69 94 70 61 71 45 72 46 73 54 74 47 75 53 76 55 77 52 78
REMARK SMILES IDX 48 79 49 80 50 81 51 82 77 83 78 84 86 85 79 86 85 87 87 88
REMARK SMILES IDX 84 89 80 90 81 91 82 92 83 93 62 94 63 95 71 96 64 97 70 98
REMARK SMILES IDX 72 99 69 100 65 101 66 102 67 103 68 104
REMARK H PARENT 26 7 12 12 17 29 33 38 92 57 60 68
REMARK Flexibility Score: inf
ROOT
ATOM      1  C   UNL     1       5.010   3.617   7.049  1.00  0.00     0.002 C 
ENDROOT
BRANCH   1   2
ATOM      2  C   UNL     1       4.587   2.635   5.953  1.00  0.00     0.021 C 
BRANCH   2   3
ATOM      3  C   UNL     1       3.240   2.920   5.301  1.00  0.00     0.116 C 
BRANCH   3   4
ATOM      4  N   UNL     1       3.205   4.070   4.419  1.00  0.00    -0.354 N 
ATOM      5  C   UNL     1       2.304   4.384   3.440  1.00  0.00     0.242 C 
ATOM      6  O   UNL     1       2.153   5.583   3.168  1.00  0.00    -0.273 OA
ATOM      7  H   UNL     1       3.935   4.719   4.544  1.00  0.00     0.163 HD
BRANCH   5   8
ATOM      8  C   UNL     1       1.417   3.332   2.717  1.00  0.00     0.175 C 
BRANCH   8   9
ATOM      9  N   UNL     1       2.150   2.111   2.392  1.00  0.00    -0.341 N 
ATOM     10  C   UNL     1       2.865   1.879   1.255  1.00  0.00     0.258 C 
ATOM     11  O   UNL     1       3.868   1.168   1.322  1.00  0.00    -0.271 OA
ATOM     12  H   UNL     1       2.125   1.386   3.057  1.00  0.00     0.164 HD
BRANCH  10  13
ATOM     13  C   UNL     1       2.396   2.483  -0.072  1.00  0.00     0.329 C 
BRANCH  13  14
ATOM     14  O   UNL     1       1.058   2.279  -0.495  1.00  0.00    -0.484 OA
BRANCH  14  15
ATOM     15  C   UNL     1       0.433   1.075  -0.321  1.00  0.00     0.122 A 
ATOM     16  C   UNL     1       2.390  -0.587  -0.682  1.00  0.00     0.048 C 
ATOM     17  C   UNL     1       0.966  -0.221  -0.378  1.00  0.00    -0.009 A 
ATOM     18  C   UNL     1       0.105  -1.314  -0.129  1.00  0.00     0.007 A 
ATOM     19  C   UNL     1      -1.258  -1.139   0.099  1.00  0.00     0.001 A 
ATOM     20  C   UNL     1      -0.950   1.233  -0.118  1.00  0.00     0.047 A 
ATOM     21  C   UNL     1      -1.792   0.140   0.090  1.00  0.00     0.004 A 
ENDBRANCH  14  15
ENDBRANCH  13  14
ENDBRANCH  10  13
ENDBRANCH   8   9
BRANCH   8  22
ATOM     22  C   UNL     1       0.039   3.109   3.358  1.00  0.00     0.072 C 
BRANCH  22  23
ATOM     23  C   UNL     1       0.012   2.548   4.745  1.00  0.00    -0.020 A 
ATOM     24  C   UNL     1      -0.135   3.280   5.909  1.00  0.00     0.087 A 
ATOM     25  C   UNL     1       0.120   1.173   5.132  1.00  0.00     0.003 A 
ATOM     26  N   UNL     1      -0.046   2.423   6.973  1.00  0.00    -0.361 N 
ATOM     27  C   UNL     1       0.129   1.133   6.528  1.00  0.00     0.046 A 
ATOM     28  C   UNL     1       0.251  -0.040   4.426  1.00  0.00     0.010 A 
ATOM     29  H   UNL     1      -0.099   2.690   7.918  1.00  0.00     0.166 HD
ATOM     30  C   UNL     1       0.304  -0.051   7.253  1.00  0.00     0.026 A 
ATOM     31  C   UNL     1       0.411  -1.236   5.136  1.00  0.00     0.001 A 
ATOM     32  C   UNL     1       0.448  -1.238   6.528  1.00  0.00     0.002 A 
ENDBRANCH  22  23
ENDBRANCH   8  22
ENDBRANCH   5   8
ENDBRANCH   3   4
ENDBRANCH   2   3
ENDBRANCH   1   2
BRANCH   1  33
ATOM     33  C   UNL     1       3.953   3.992   8.102  1.00  0.00     0.002 C 
BRANCH  33  34
ATOM     34  C   UNL     1       3.212   2.843   8.786  1.00  0.00     0.021 C 
BRANCH  34  35
ATOM     35  C   UNL     1       4.091   1.885   9.576  1.00  0.00     0.116 C 
BRANCH  35  36
ATOM     36  N   UNL     1       4.029   2.056  11.022  1.00  0.00    -0.352 N 
ATOM     37  C   UNL     1       4.634   1.276  12.001  1.00  0.00     0.251 C 
ATOM     38  H   UNL     1       3.493   2.816  11.345  1.00  0.00     0.163 HD
ATOM     39  O   UNL     1       4.495   1.500  13.185  1.00  0.00    -0.269 OA
BRANCH  37  40
ATOM     40  C   UNL     1       5.577   0.221  11.547  1.00  0.00     0.039 A 
ATOM     41  C   UNL     1       6.914   0.361  11.930  1.00  0.00     0.014 A 
ATOM     42  C   UNL     1       5.210  -0.683  10.553  1.00  0.00     0.014 A 
ATOM     43  C   UNL     1       7.905  -0.221  11.146  1.00  0.00     0.010 A 
ATOM     44  C   UNL     1       6.194  -1.186   9.721  1.00  0.00     0.010 A 
ATOM     45  C   UNL     1       7.537  -0.894   9.976  1.00  0.00    -0.014 A 
BRANCH  45  46
ATOM     46  C   UNL     1       8.495  -1.156   8.905  1.00  0.00     0.031 A 
ATOM     47  C   UNL     1       9.047  -2.507   8.690  1.00  0.00     0.074 A 
ATOM     48  C   UNL     1       8.956  -0.139   8.143  1.00  0.00     0.049 A 
ATOM     49  N   UNL     1      10.269  -2.742   8.342  1.00  0.00    -0.248 NA
ATOM     50  C   UNL     1       8.256  -3.714   8.889  1.00  0.00     0.031 C 
ATOM     51  C   UNL     1       9.815  -0.235   6.965  1.00  0.00     0.029 A 
ATOM     52  N   UNL     1       8.922   1.217   8.424  1.00  0.00    -0.354 N 
ATOM     53  C   UNL     1      10.357  -4.074   8.013  1.00  0.00     0.074 A 
ATOM     54  C   UNL     1       9.098  -4.649   8.437  1.00  0.00     0.031 C 
ATOM     55  C   UNL     1      10.418   0.950   6.772  1.00  0.00     0.029 A 
ATOM     56  C   UNL     1      10.062   1.815   7.885  1.00  0.00     0.049 A 
ATOM     57  H   UNL     1       8.212   1.683   8.921  1.00  0.00     0.167 HD
ATOM     58  C   UNL     1      11.414  -4.536   7.286  1.00  0.00     0.034 A 
ATOM     59  C   UNL     1      10.951   2.491   8.668  1.00  0.00     0.034 A 
ATOM     60  C   UNL     1      12.336  -3.465   6.917  1.00  0.00     0.049 A 
ATOM     61  C   UNL     1      12.338   1.885   8.669  1.00  0.00     0.074 A 
ATOM     62  C   UNL     1      12.487  -2.737   5.748  1.00  0.00     0.029 A 
ATOM     63  N   UNL     1      13.089  -2.813   7.887  1.00  0.00    -0.354 N 
ATOM     64  N   UNL     1      12.617   0.679   8.258  1.00  0.00    -0.248 NA
ATOM     65  C   UNL     1      13.513   2.591   9.170  1.00  0.00     0.031 C 
ATOM     66  C   UNL     1      13.297  -1.611   6.032  1.00  0.00     0.029 A 
ATOM     67  C   UNL     1      13.663  -1.667   7.366  1.00  0.00     0.049 A 
ATOM     68  H   UNL     1      13.198  -3.123   8.815  1.00  0.00     0.167 HD
ATOM     69  C   UNL     1      13.951   0.422   8.463  1.00  0.00     0.074 A 
ATOM     70  C   UNL     1      14.473   1.666   9.003  1.00  0.00     0.031 C 
ATOM     71  C   UNL     1      14.503  -0.799   8.182  1.00  0.00     0.034 A 
BRANCH  58  72
ATOM     72  C   UNL     1      11.425  -5.898   6.626  1.00  0.00     0.023 A 
ATOM     73  C   UNL     1      12.058  -6.065   5.377  1.00  0.00     0.031 A 
ATOM     74  C   UNL     1      10.806  -7.048   7.151  1.00  0.00     0.131 A 
ATOM     75  C   UNL     1      11.956  -7.269   4.657  1.00  0.00     0.055 A 
ATOM     76  C   UNL     1      10.648  -8.228   6.410  1.00  0.00     0.041 A 
ATOM     77  F   UNL     1      10.362  -7.087   8.416  1.00  0.00    -0.206 F 
ATOM     78  C   UNL     1      11.209  -8.337   5.146  1.00  0.00     0.022 A 
BRANCH  75  79
ATOM     79  S   UNL     1      12.822  -7.424   3.070  1.00  0.00     0.124 S 
ATOM     80  O   UNL     1      12.260  -6.320   2.299  1.00  0.00    -0.237 OA
ATOM     81  O   UNL     1      14.219  -7.290   3.468  1.00  0.00    -0.237 OA
ATOM     82  O   UNL     1      12.440  -8.757   2.604  1.00  0.00    -0.744 OA
ENDBRANCH  75  79
ENDBRANCH  58  72
BRANCH  59  83
ATOM     83  C   UNL     1      10.334   3.181   9.835  1.00  0.00     0.023 A 
ATOM     84  C   UNL     1       9.407   4.213   9.581  1.00  0.00     0.031 A 
ATOM     85  C   UNL     1      10.373   2.633  11.124  1.00  0.00     0.131 A 
ATOM     86  C   UNL     1       8.478   4.585  10.563  1.00  0.00     0.055 A 
ATOM     87  C   UNL     1       9.463   3.030  12.111  1.00  0.00     0.041 A 
ATOM     88  F   UNL     1      11.210   1.627  11.415  1.00  0.00    -0.206 F 
ATOM     89  C   UNL     1       8.486   3.981  11.822  1.00  0.00     0.022 A 
BRANCH  86  90
ATOM     90  S   UNL     1       7.115   5.705  10.133  1.00  0.00     0.124 S 
ATOM     91  O   UNL     1       7.601   6.987  10.630  1.00  0.00    -0.237 OA
ATOM     92  O   UNL     1       7.029   5.582   8.681  1.00  0.00    -0.237 OA
ATOM     93  O   UNL     1       5.981   5.134  10.858  1.00  0.00    -0.744 OA
ENDBRANCH  86  90
ENDBRANCH  59  83
BRANCH  71  94
ATOM     94  C   UNL     1      15.908  -1.248   8.541  1.00  0.00     0.023 A 
ATOM     95  C   UNL     1      16.722  -0.584   9.471  1.00  0.00     0.031 A 
ATOM     96  C   UNL     1      16.464  -2.426   7.984  1.00  0.00     0.131 A 
ATOM     97  C   UNL     1      18.037  -1.013   9.734  1.00  0.00     0.055 A 
ATOM     98  C   UNL     1      17.742  -2.898   8.307  1.00  0.00     0.041 A 
ATOM     99  F   UNL     1      15.789  -3.181   7.104  1.00  0.00    -0.206 F 
ATOM    100  C   UNL     1      18.548  -2.178   9.173  1.00  0.00     0.022 A 
BRANCH  97 101
ATOM    101  S   UNL     1      19.088   0.034  10.777  1.00  0.00     0.124 S 
ATOM    102  O   UNL     1      19.158   1.264   9.992  1.00  0.00    -0.237 OA
ATOM    103  O   UNL     1      18.320   0.116  12.015  1.00  0.00    -0.237 OA
ATOM    104  O   UNL     1      20.340  -0.715  10.869  1.00  0.00    -0.744 OA
ENDBRANCH  97 101
ENDBRANCH  71  94
ENDBRANCH  45  46
ENDBRANCH  37  40
ENDBRANCH  35  36
ENDBRANCH  34  35
ENDBRANCH  33  34
ENDBRANCH   1  33
TORSDOF 22
