REMARK SMILES CC(C)(C)C[N@H+]1[C@@H](C(=O)NCCCCCCNC(=O)c2ccc(-c3c4nc(c(-c5cc(S(=O)(=O)[O-])ccc5F)c5ccc([nH]5)c(-c5cc(S(=O)(=O)[O-])ccc5F)c5nc(c(-c6cc(S(=O)(=O)[O-])ccc6F)c6ccc3[nH]6)C=C5)C=C4)cc2)CC[C@H]2CCCC[C@@H]21
REMARK SMILES IDX 14 1 13 2 12 3 11 4 10 5 8 6 9 7 7 9 6 10 90 11 83 13 85 14
REMARK SMILES IDX 89 15 84 16 86 17 88 18 87 19 5 20 2 21 1 22 3 23 4 24 15 25
REMARK SMILES IDX 16 26 17 27 18 28 19 30 20 31 21 32 82 33 22 34 81 35 23 36
REMARK SMILES IDX 24 37 25 38 75 39 26 40 80 41 74 42 76 43 27 44 79 45 73 46
REMARK SMILES IDX 72 47 28 49 60 50 40 51 59 52 41 53 44 54 58 55 77 56 42 57
REMARK SMILES IDX 43 58 57 60 78 61 45 62 29 63 30 64 38 65 31 66 37 67 39 68
REMARK SMILES IDX 36 69 32 70 33 71 34 72 35 73 61 74 62 75 70 76 63 77 69 78
REMARK SMILES IDX 71 79 68 80 64 81 65 82 66 83 67 84 46 85 47 86 55 87 48 88
REMARK SMILES IDX 54 89 56 90 53 91 49 92 50 93 51 94 52 95
REMARK H PARENT 10 8 6 12 17 29 76 48 44 59
REMARK Flexibility Score: inf
ROOT
ATOM      1  C   UNL     1       5.988  -2.312  -0.709  1.00  0.00     0.002 C 
ENDROOT
BRANCH   1   2
ATOM      2  C   UNL     1       5.123  -3.460  -1.236  1.00  0.00     0.002 C 
BRANCH   2   3
ATOM      3  C   UNL     1       3.640  -3.125  -1.395  1.00  0.00     0.021 C 
BRANCH   3   4
ATOM      4  C   UNL     1       3.309  -2.081  -2.471  1.00  0.00     0.116 C 
BRANCH   4   5
ATOM      5  N   UNL     1       2.634  -2.732  -3.575  1.00  0.00    -0.351 N 
ATOM      6  C   UNL     1       1.327  -2.947  -3.855  1.00  0.00     0.278 C 
ATOM      7  O   UNL     1       1.142  -3.841  -4.700  1.00  0.00    -0.268 OA
ATOM      8  H   UNL     1       3.247  -3.090  -4.256  1.00  0.00     0.163 HD
BRANCH   6   9
ATOM      9  C   UNL     1       0.115  -2.098  -3.392  1.00  0.00     0.274 C 
ATOM     10  N   UNL     1       0.179  -1.290  -2.132  1.00  0.00    -0.322 N 
ATOM     11  C   UNL     1      -0.986  -0.364  -2.121  1.00  0.00     0.187 C 
ATOM     12  H   UNL     1       1.044  -0.750  -2.115  1.00  0.00     0.349 HD
ATOM     13  C   UNL     1      -1.166  -2.982  -3.455  1.00  0.00     0.076 C 
ATOM     14  C   UNL     1      -2.229  -0.804  -2.935  1.00  0.00     0.048 C 
ATOM     15  C   UNL     1      -0.651   1.068  -2.578  1.00  0.00     0.065 C 
ATOM     16  C   UNL     1      -2.411  -2.309  -2.861  1.00  0.00     0.016 C 
ATOM     17  C   UNL     1      -3.433   0.001  -2.442  1.00  0.00     0.010 C 
ATOM     18  C   UNL     1      -1.821   1.997  -2.206  1.00  0.00     0.006 C 
ATOM     19  C   UNL     1      -3.193   1.497  -2.680  1.00  0.00     0.001 C 
BRANCH  10  20
ATOM     20  C   UNL     1       0.229  -2.151  -0.912  1.00  0.00     0.269 C 
BRANCH  20  21
ATOM     21  C   UNL     1       0.212  -1.534   0.547  1.00  0.00     0.011 C 
ATOM     22  C   UNL     1       0.883  -0.154   0.641  1.00  0.00     0.017 C 
ATOM     23  C   UNL     1       0.997  -2.484   1.486  1.00  0.00     0.017 C 
ATOM     24  C   UNL     1      -1.220  -1.478   1.131  1.00  0.00     0.017 C 
ENDBRANCH  20  21
ENDBRANCH  10  20
ENDBRANCH   6   9
ENDBRANCH   4   5
ENDBRANCH   3   4
ENDBRANCH   2   3
ENDBRANCH   1   2
BRANCH   1  25
ATOM     25  C   UNL     1       5.499  -1.643   0.583  1.00  0.00     0.021 C 
BRANCH  25  26
ATOM     26  C   UNL     1       5.279  -2.583   1.769  1.00  0.00     0.116 C 
BRANCH  26  27
ATOM     27  N   UNL     1       6.497  -3.277   2.143  1.00  0.00    -0.352 N 
ATOM     28  C   UNL     1       7.278  -3.158   3.266  1.00  0.00     0.251 C 
ATOM     29  H   UNL     1       6.813  -3.940   1.488  1.00  0.00     0.163 HD
ATOM     30  O   UNL     1       8.403  -3.650   3.264  1.00  0.00    -0.269 OA
BRANCH  28  31
ATOM     31  C   UNL     1       6.786  -2.443   4.467  1.00  0.00     0.039 A 
ATOM     32  C   UNL     1       7.675  -1.625   5.171  1.00  0.00     0.014 A 
ATOM     33  C   UNL     1       5.487  -2.631   4.947  1.00  0.00     0.014 A 
ATOM     34  C   UNL     1       7.252  -0.965   6.329  1.00  0.00     0.010 A 
ATOM     35  C   UNL     1       5.047  -1.927   6.069  1.00  0.00     0.010 A 
ATOM     36  C   UNL     1       5.928  -1.095   6.778  1.00  0.00    -0.014 A 
BRANCH  36  37
ATOM     37  C   UNL     1       5.458  -0.384   7.997  1.00  0.00     0.031 A 
ATOM     38  C   UNL     1       5.057  -1.164   9.220  1.00  0.00     0.074 A 
ATOM     39  C   UNL     1       5.332   0.957   7.981  1.00  0.00     0.049 A 
ATOM     40  N   UNL     1       4.552  -0.736  10.349  1.00  0.00    -0.248 NA
ATOM     41  C   UNL     1       5.219  -2.624   9.149  1.00  0.00     0.031 C 
ATOM     42  C   UNL     1       5.646   1.819   6.839  1.00  0.00     0.029 A 
ATOM     43  N   UNL     1       4.892   1.829   8.944  1.00  0.00    -0.354 N 
ATOM     44  C   UNL     1       4.316  -1.873  11.116  1.00  0.00     0.074 A 
ATOM     45  C   UNL     1       4.687  -3.010  10.299  1.00  0.00     0.031 C 
ATOM     46  C   UNL     1       5.392   3.095   7.171  1.00  0.00     0.029 A 
ATOM     47  C   UNL     1       4.866   3.140   8.532  1.00  0.00     0.049 A 
ATOM     48  H   UNL     1       4.620   1.542   9.846  1.00  0.00     0.167 HD
ATOM     49  C   UNL     1       3.850  -1.958  12.388  1.00  0.00     0.034 A 
ATOM     50  C   UNL     1       4.451   4.252   9.170  1.00  0.00     0.034 A 
ATOM     51  C   UNL     1       3.502  -0.812  13.194  1.00  0.00     0.049 A 
ATOM     52  C   UNL     1       3.945   4.137  10.585  1.00  0.00     0.074 A 
ATOM     53  C   UNL     1       3.091  -0.779  14.516  1.00  0.00     0.029 A 
ATOM     54  N   UNL     1       3.514   0.505  12.752  1.00  0.00    -0.354 N 
ATOM     55  N   UNL     1       3.786   3.060  11.319  1.00  0.00    -0.248 NA
ATOM     56  C   UNL     1       3.579   5.388  11.260  1.00  0.00     0.031 C 
ATOM     57  C   UNL     1       2.796   0.548  14.852  1.00  0.00     0.029 A 
ATOM     58  C   UNL     1       3.088   1.353  13.764  1.00  0.00     0.049 A 
ATOM     59  H   UNL     1       3.785   0.794  11.851  1.00  0.00     0.167 HD
ATOM     60  C   UNL     1       3.322   3.508  12.552  1.00  0.00     0.074 A 
ATOM     61  C   UNL     1       3.243   4.953  12.466  1.00  0.00     0.031 C 
ATOM     62  C   UNL     1       2.996   2.791  13.658  1.00  0.00     0.034 A 
BRANCH  49  63
ATOM     63  C   UNL     1       3.661  -3.342  12.966  1.00  0.00     0.023 A 
ATOM     64  C   UNL     1       4.742  -4.223  13.148  1.00  0.00     0.031 A 
ATOM     65  C   UNL     1       2.376  -3.802  13.307  1.00  0.00     0.131 A 
ATOM     66  C   UNL     1       4.510  -5.541  13.572  1.00  0.00     0.055 A 
ATOM     67  C   UNL     1       2.162  -5.088  13.809  1.00  0.00     0.041 A 
ATOM     68  F   UNL     1       1.302  -3.015  13.140  1.00  0.00    -0.206 F 
ATOM     69  C   UNL     1       3.230  -5.972  13.927  1.00  0.00     0.022 A 
BRANCH  66  70
ATOM     70  S   UNL     1       5.881  -6.726  13.503  1.00  0.00     0.124 S 
ATOM     71  O   UNL     1       6.251  -6.667  12.091  1.00  0.00    -0.237 OA
ATOM     72  O   UNL     1       6.840  -6.153  14.440  1.00  0.00    -0.237 OA
ATOM     73  O   UNL     1       5.269  -7.984  13.927  1.00  0.00    -0.744 OA
ENDBRANCH  66  70
ENDBRANCH  49  63
BRANCH  50  74
ATOM     74  C   UNL     1       4.481   5.569   8.474  1.00  0.00     0.023 A 
ATOM     75  C   UNL     1       5.354   6.588   8.884  1.00  0.00     0.031 A 
ATOM     76  C   UNL     1       3.617   5.831   7.396  1.00  0.00     0.131 A 
ATOM     77  C   UNL     1       5.318   7.837   8.244  1.00  0.00     0.055 A 
ATOM     78  C   UNL     1       3.617   7.060   6.734  1.00  0.00     0.041 A 
ATOM     79  F   UNL     1       2.770   4.885   6.960  1.00  0.00    -0.206 F 
ATOM     80  C   UNL     1       4.464   8.075   7.165  1.00  0.00     0.022 A 
BRANCH  77  81
ATOM     81  S   UNL     1       6.366   9.171   8.885  1.00  0.00     0.124 S 
ATOM     82  O   UNL     1       5.893   9.289  10.259  1.00  0.00    -0.237 OA
ATOM     83  O   UNL     1       7.704   8.615   8.712  1.00  0.00    -0.237 OA
ATOM     84  O   UNL     1       6.047  10.302   8.015  1.00  0.00    -0.744 OA
ENDBRANCH  77  81
ENDBRANCH  50  74
BRANCH  62  85
ATOM     85  C   UNL     1       2.558   3.572  14.872  1.00  0.00     0.023 A 
ATOM     86  C   UNL     1       1.343   4.279  14.897  1.00  0.00     0.031 A 
ATOM     87  C   UNL     1       3.378   3.623  16.013  1.00  0.00     0.131 A 
ATOM     88  C   UNL     1       1.007   5.051  16.020  1.00  0.00     0.055 A 
ATOM     89  C   UNL     1       3.012   4.348  17.148  1.00  0.00     0.041 A 
ATOM     90  F   UNL     1       4.550   2.968  16.042  1.00  0.00    -0.206 F 
ATOM     91  C   UNL     1       1.827   5.077  17.151  1.00  0.00     0.022 A 
BRANCH  88  92
ATOM     92  S   UNL     1      -0.477   6.092  15.950  1.00  0.00     0.124 S 
ATOM     93  O   UNL     1      -0.194   6.948  14.803  1.00  0.00    -0.237 OA
ATOM     94  O   UNL     1      -1.540   5.109  15.765  1.00  0.00    -0.237 OA
ATOM     95  O   UNL     1      -0.481   6.771  17.245  1.00  0.00    -0.744 OA
ENDBRANCH  88  92
ENDBRANCH  62  85
ENDBRANCH  36  37
ENDBRANCH  28  31
ENDBRANCH  26  27
ENDBRANCH  25  26
ENDBRANCH   1  25
TORSDOF 18
