REMARK SMILES CC(C)(C)c1ccc(NS(=O)(=O)c2cccc(C(=O)NCCCCCCNC(=O)c3ccc(-c4c5nc(c(-c6cc(S(=O)(=O)[O-])ccc6F)c6ccc([nH]6)c(-c6cc(S(=O)(=O)[O-])ccc6F)c6nc(c(-c7cc(S(=O)(=O)[O-])ccc7F)c7ccc4[nH]7)C=C6)C=C5)cc3)c2)cc1
REMARK SMILES IDX 23 1 22 2 21 3 20 4 18 5 19 6 17 8 13 9 14 10 93 11 15 12
REMARK SMILES IDX 16 13 10 14 11 15 12 16 9 17 8 19 5 20 6 21 95 22 7 23 94 24
REMARK SMILES IDX 2 25 1 26 3 27 4 28 24 29 25 30 26 31 27 32 28 33 29 35
REMARK SMILES IDX 30 36 31 37 92 38 32 39 91 40 33 41 34 42 35 43 85 44 36 45
REMARK SMILES IDX 90 46 84 47 86 48 37 49 89 50 83 51 82 52 38 54 70 55 50 56
REMARK SMILES IDX 69 57 51 58 54 59 68 60 87 61 52 62 53 63 67 65 88 66 55 67
REMARK SMILES IDX 39 68 40 69 48 70 41 71 47 72 49 73 46 74 42 75 43 76 44 77
REMARK SMILES IDX 45 78 71 79 72 80 80 81 73 82 79 83 81 84 78 85 74 86 75 87
REMARK SMILES IDX 76 88 77 89 56 90 57 91 65 92 58 93 64 94 66 95 63 96 59 97
REMARK SMILES IDX 60 98 61 99 62 100
REMARK H PARENT 20 7 9 18 27 34 86 53 54 64
REMARK Flexibility Score: inf
ROOT
ATOM      1  C   UNL     1       5.483  -4.983  10.045  1.00  0.00     0.002 C 
ENDROOT
BRANCH   1   2
ATOM      2  C   UNL     1       4.323  -4.088   9.620  1.00  0.00     0.021 C 
BRANCH   2   3
ATOM      3  C   UNL     1       4.414  -3.471   8.232  1.00  0.00     0.116 C 
BRANCH   3   4
ATOM      4  N   UNL     1       4.325  -4.426   7.135  1.00  0.00    -0.352 N 
ATOM      5  C   UNL     1       3.563  -4.388   5.986  1.00  0.00     0.251 C 
ATOM      6  O   UNL     1       3.607  -5.320   5.186  1.00  0.00    -0.269 OA
ATOM      7  H   UNL     1       4.899  -5.221   7.228  1.00  0.00     0.163 HD
BRANCH   5   8
ATOM      8  C   UNL     1       2.640  -3.253   5.730  1.00  0.00     0.041 A 
ATOM      9  C   UNL     1       2.040  -0.939   6.063  1.00  0.00     0.088 A 
ATOM     10  C   UNL     1       0.745  -1.187   5.607  1.00  0.00     0.022 A 
ATOM     11  C   UNL     1       3.005  -1.947   6.038  1.00  0.00     0.036 A 
ATOM     12  C   UNL     1       0.425  -2.466   5.135  1.00  0.00     0.002 A 
ATOM     13  C   UNL     1       1.363  -3.503   5.215  1.00  0.00     0.014 A 
BRANCH   9  14
ATOM     14  S   UNL     1       2.548   0.636   6.718  1.00  0.00     0.261 S 
ATOM     15  O   UNL     1       3.987   0.718   6.564  1.00  0.00    -0.201 OA
ATOM     16  O   UNL     1       1.924   0.747   8.016  1.00  0.00    -0.201 OA
BRANCH  14  17
ATOM     17  N   UNL     1       1.861   1.808   5.763  1.00  0.00    -0.280 N 
ATOM     18  H   UNL     1       1.414   2.554   6.224  1.00  0.00     0.180 HD
BRANCH  17  19
ATOM     19  C   UNL     1       1.860   1.833   4.347  1.00  0.00     0.049 A 
ATOM     20  C   UNL     1       1.209   1.650   1.612  1.00  0.00    -0.042 A 
ATOM     21  C   UNL     1       2.133   0.772   2.194  1.00  0.00     0.006 A 
ATOM     22  C   UNL     1       0.768   2.733   2.393  1.00  0.00     0.006 A 
ATOM     23  C   UNL     1       2.484   0.886   3.542  1.00  0.00     0.027 A 
ATOM     24  C   UNL     1       1.080   2.817   3.748  1.00  0.00     0.027 A 
BRANCH  20  25
ATOM     25  C   UNL     1       0.633   1.436   0.206  1.00  0.00    -0.013 C 
ATOM     26  C   UNL     1       1.062   0.102  -0.445  1.00  0.00     0.016 C 
ATOM     27  C   UNL     1       1.076   2.584  -0.717  1.00  0.00     0.016 C 
ATOM     28  C   UNL     1      -0.912   1.407   0.295  1.00  0.00     0.016 C 
ENDBRANCH  20  25
ENDBRANCH  17  19
ENDBRANCH  14  17
ENDBRANCH   9  14
ENDBRANCH   5   8
ENDBRANCH   3   4
ENDBRANCH   2   3
ENDBRANCH   1   2
BRANCH   1  29
ATOM     29  C   UNL     1       6.890  -4.399   9.897  1.00  0.00     0.002 C 
BRANCH  29  30
ATOM     30  C   UNL     1       7.134  -3.011  10.496  1.00  0.00     0.021 C 
BRANCH  30  31
ATOM     31  C   UNL     1       6.743  -2.823  11.959  1.00  0.00     0.116 C 
BRANCH  31  32
ATOM     32  N   UNL     1       7.439  -3.732  12.851  1.00  0.00    -0.352 N 
ATOM     33  C   UNL     1       8.162  -3.469  13.989  1.00  0.00     0.251 C 
ATOM     34  H   UNL     1       7.384  -4.683  12.603  1.00  0.00     0.163 HD
ATOM     35  O   UNL     1       8.792  -4.379  14.522  1.00  0.00    -0.269 OA
BRANCH  33  36
ATOM     36  C   UNL     1       8.214  -2.100  14.557  1.00  0.00     0.039 A 
ATOM     37  C   UNL     1       9.444  -1.614  15.012  1.00  0.00     0.014 A 
ATOM     38  C   UNL     1       7.069  -1.307  14.673  1.00  0.00     0.014 A 
ATOM     39  C   UNL     1       9.536  -0.317  15.525  1.00  0.00     0.010 A 
ATOM     40  C   UNL     1       7.174   0.009  15.125  1.00  0.00     0.010 A 
ATOM     41  C   UNL     1       8.408   0.518  15.557  1.00  0.00    -0.014 A 
BRANCH  41  42
ATOM     42  C   UNL     1       8.507   1.921  16.043  1.00  0.00     0.031 A 
ATOM     43  C   UNL     1       7.785   2.346  17.293  1.00  0.00     0.074 A 
ATOM     44  C   UNL     1       9.204   2.826  15.328  1.00  0.00     0.049 A 
ATOM     45  N   UNL     1       7.705   3.531  17.843  1.00  0.00    -0.248 NA
ATOM     46  C   UNL     1       7.028   1.303  18.000  1.00  0.00     0.031 C 
ATOM     47  C   UNL     1       9.910   2.548  14.075  1.00  0.00     0.029 A 
ATOM     48  N   UNL     1       9.426   4.163  15.543  1.00  0.00    -0.354 N 
ATOM     49  C   UNL     1       6.881   3.381  18.954  1.00  0.00     0.074 A 
ATOM     50  C   UNL     1       6.440   2.001  18.960  1.00  0.00     0.031 C 
ATOM     51  C   UNL     1      10.501   3.674  13.644  1.00  0.00     0.029 A 
ATOM     52  C   UNL     1      10.187   4.762  14.565  1.00  0.00     0.049 A 
ATOM     53  H   UNL     1       9.075   4.649  16.324  1.00  0.00     0.167 HD
ATOM     54  C   UNL     1       6.540   4.301  19.891  1.00  0.00     0.034 A 
ATOM     55  C   UNL     1      10.577   6.043  14.419  1.00  0.00     0.034 A 
ATOM     56  C   UNL     1       6.995   5.671  19.875  1.00  0.00     0.049 A 
ATOM     57  C   UNL     1      10.178   7.052  15.465  1.00  0.00     0.074 A 
ATOM     58  C   UNL     1       6.765   6.669  20.807  1.00  0.00     0.029 A 
ATOM     59  N   UNL     1       7.767   6.242  18.870  1.00  0.00    -0.354 N 
ATOM     60  N   UNL     1       9.445   6.881  16.541  1.00  0.00    -0.248 NA
ATOM     61  C   UNL     1      10.669   8.423  15.281  1.00  0.00     0.031 C 
ATOM     62  C   UNL     1       7.339   7.855  20.334  1.00  0.00     0.029 A 
ATOM     63  C   UNL     1       7.992   7.584  19.142  1.00  0.00     0.049 A 
ATOM     64  H   UNL     1       8.105   5.764  18.079  1.00  0.00     0.167 HD
ATOM     65  C   UNL     1       9.406   8.120  17.174  1.00  0.00     0.074 A 
ATOM     66  C   UNL     1      10.206   9.021  16.369  1.00  0.00     0.031 C 
ATOM     67  C   UNL     1       8.771   8.480  18.318  1.00  0.00     0.034 A 
BRANCH  54  68
ATOM     68  C   UNL     1       5.605   3.854  20.992  1.00  0.00     0.023 A 
ATOM     69  C   UNL     1       5.962   2.838  21.897  1.00  0.00     0.031 A 
ATOM     70  C   UNL     1       4.325   4.422  21.116  1.00  0.00     0.131 A 
ATOM     71  C   UNL     1       5.023   2.363  22.825  1.00  0.00     0.055 A 
ATOM     72  C   UNL     1       3.425   4.003  22.099  1.00  0.00     0.041 A 
ATOM     73  F   UNL     1       3.919   5.384  20.272  1.00  0.00    -0.206 F 
ATOM     74  C   UNL     1       3.765   2.955  22.949  1.00  0.00     0.022 A 
BRANCH  71  75
ATOM     75  S   UNL     1       5.415   0.858  23.760  1.00  0.00     0.124 S 
ATOM     76  O   UNL     1       5.647  -0.104  22.686  1.00  0.00    -0.237 OA
ATOM     77  O   UNL     1       6.590   1.259  24.525  1.00  0.00    -0.237 OA
ATOM     78  O   UNL     1       4.207   0.621  24.549  1.00  0.00    -0.744 OA
ENDBRANCH  71  75
ENDBRANCH  54  68
BRANCH  55  79
ATOM     79  C   UNL     1      11.383   6.453  13.234  1.00  0.00     0.023 A 
ATOM     80  C   UNL     1      12.710   6.887  13.376  1.00  0.00     0.031 A 
ATOM     81  C   UNL     1      10.824   6.444  11.944  1.00  0.00     0.131 A 
ATOM     82  C   UNL     1      13.424   7.332  12.252  1.00  0.00     0.055 A 
ATOM     83  C   UNL     1      11.553   6.842  10.822  1.00  0.00     0.041 A 
ATOM     84  F   UNL     1       9.561   6.032  11.754  1.00  0.00    -0.206 F 
ATOM     85  C   UNL     1      12.858   7.300  10.975  1.00  0.00     0.022 A 
BRANCH  82  86
ATOM     86  S   UNL     1      15.086   8.017  12.493  1.00  0.00     0.124 S 
ATOM     87  O   UNL     1      14.821   9.131  13.396  1.00  0.00    -0.237 OA
ATOM     88  O   UNL     1      15.801   6.881  13.066  1.00  0.00    -0.237 OA
ATOM     89  O   UNL     1      15.498   8.392  11.142  1.00  0.00    -0.744 OA
ENDBRANCH  82  86
ENDBRANCH  55  79
BRANCH  67  90
ATOM     90  C   UNL     1       8.946   9.908  18.774  1.00  0.00     0.023 A 
ATOM     91  C   UNL     1       8.416  10.987  18.043  1.00  0.00     0.031 A 
ATOM     92  C   UNL     1       9.676  10.195  19.941  1.00  0.00     0.131 A 
ATOM     93  C   UNL     1       8.675  12.303  18.454  1.00  0.00     0.055 A 
ATOM     94  C   UNL     1       9.879  11.505  20.377  1.00  0.00     0.041 A 
ATOM     95  F   UNL     1      10.207   9.204  20.676  1.00  0.00    -0.206 F 
ATOM     96  C   UNL     1       9.389  12.569  19.625  1.00  0.00     0.022 A 
BRANCH  93  97
ATOM     97  S   UNL     1       8.146  13.670  17.384  1.00  0.00     0.124 S 
ATOM     98  O   UNL     1       8.838  13.364  16.136  1.00  0.00    -0.237 OA
ATOM     99  O   UNL     1       6.696  13.508  17.364  1.00  0.00    -0.237 OA
ATOM    100  O   UNL     1       8.627  14.860  18.084  1.00  0.00    -0.744 OA
ENDBRANCH  93  97
ENDBRANCH  67  90
ENDBRANCH  41  42
ENDBRANCH  33  36
ENDBRANCH  31  32
ENDBRANCH  30  31
ENDBRANCH  29  30
ENDBRANCH   1  29
TORSDOF 20
