REMARK SMILES O=C(CC1(NC(=O)c2cc([N+](=O)[O-])ccc2F)CCC1)NCCCCCCNC(=O)c1ccc(-c2c3nc(c(-c4cc(S(=O)(=O)[O-])ccc4F)c4ccc([nH]4)c(-c4cc(S(=O)(=O)[O-])ccc4F)c4nc(c(-c5cc(S(=O)(=O)[O-])ccc5F)c5ccc2[nH]5)C=C4)C=C3)cc1
REMARK SMILES IDX 24 1 23 2 22 3 21 4 1 5 2 6 3 8 4 9 18 10 20 11 19 12 5 13
REMARK SMILES IDX 6 14 7 16 8 17 9 18 16 19 10 20 15 21 17 22 14 23 11 24
REMARK SMILES IDX 12 25 13 26 25 27 26 28 27 29 28 30 29 31 30 33 31 34 32 35
REMARK SMILES IDX 93 36 33 37 92 38 34 39 35 40 36 41 86 42 37 43 91 44 85 45
REMARK SMILES IDX 87 46 38 47 90 48 84 49 83 50 39 52 71 53 51 54 70 55 52 56
REMARK SMILES IDX 55 57 69 58 88 59 53 60 54 61 68 63 89 64 56 65 40 66 41 67
REMARK SMILES IDX 49 68 42 69 48 70 50 71 47 72 43 73 44 74 45 75 46 76 72 77
REMARK SMILES IDX 73 78 81 79 74 80 80 81 82 82 79 83 75 84 76 85 77 86 78 87
REMARK SMILES IDX 57 88 58 89 66 90 59 91 65 92 67 93 64 94 60 95 61 96 62 97
REMARK SMILES IDX 63 98
REMARK H PARENT 21 7 5 15 28 32 87 51 55 62
REMARK Flexibility Score: inf
ROOT
ATOM      1  C   UNL     1       5.415   3.339  -2.007  1.00  0.00     0.002 C 
ENDROOT
BRANCH   1   2
ATOM      2  C   UNL     1       4.140   2.813  -1.358  1.00  0.00     0.021 C 
BRANCH   2   3
ATOM      3  C   UNL     1       4.077   1.296  -1.367  1.00  0.00     0.116 C 
BRANCH   3   4
ATOM      4  N   UNL     1       4.940   0.662  -0.388  1.00  0.00    -0.356 N 
ATOM      5  O   UNL     1       4.570   1.307   1.763  1.00  0.00    -0.275 OA
ATOM      6  C   UNL     1       4.515   0.436   0.896  1.00  0.00     0.222 C 
ATOM      7  H   UNL     1       5.849   0.388  -0.651  1.00  0.00     0.163 HD
BRANCH   6   8
ATOM      8  C   UNL     1       4.035  -0.964   1.235  1.00  0.00     0.128 C 
BRANCH   8   9
ATOM      9  C   UNL     1       3.583  -1.889   0.108  1.00  0.00     0.049 C 
ATOM     10  C   UNL     1       4.790  -2.405  -0.769  1.00  0.00     0.029 C 
ATOM     11  C   UNL     1       3.370  -3.386   0.514  1.00  0.00     0.029 C 
ATOM     12  C   UNL     1       4.766  -3.735  -0.020  1.00  0.00     0.005 C 
BRANCH   9  13
ATOM     13  N   UNL     1       2.474  -1.413  -0.767  1.00  0.00    -0.346 N 
ATOM     14  C   UNL     1       1.242  -0.808  -0.672  1.00  0.00     0.254 C 
ATOM     15  H   UNL     1       2.693  -1.585  -1.712  1.00  0.00     0.164 HD
ATOM     16  O   UNL     1       0.575  -0.793  -1.713  1.00  0.00    -0.269 OA
BRANCH  14  17
ATOM     17  C   UNL     1       0.602  -0.180   0.499  1.00  0.00     0.082 A 
ATOM     18  C   UNL     1      -0.750  -0.494   0.726  1.00  0.00     0.102 A 
ATOM     19  C   UNL     1       1.102   0.967   1.115  1.00  0.00     0.136 A 
ATOM     20  C   UNL     1      -1.526   0.300   1.591  1.00  0.00     0.270 A 
ATOM     21  C   UNL     1       0.362   1.706   2.041  1.00  0.00     0.047 A 
ATOM     22  F   UNL     1       2.245   1.516   0.722  1.00  0.00    -0.206 F 
ATOM     23  C   UNL     1      -0.964   1.377   2.286  1.00  0.00     0.088 A 
BRANCH  20  24
ATOM     24  N   UNL     1      -2.970   0.073   1.688  1.00  0.00     0.062 N 
ATOM     25  O   UNL     1      -3.512  -0.569   0.780  1.00  0.00    -0.258 OA
ATOM     26  O   UNL     1      -3.557   0.543   2.673  1.00  0.00    -0.258 OA
ENDBRANCH  20  24
ENDBRANCH  14  17
ENDBRANCH   9  13
ENDBRANCH   8   9
ENDBRANCH   6   8
ENDBRANCH   3   4
ENDBRANCH   2   3
ENDBRANCH   1   2
BRANCH   1  27
ATOM     27  C   UNL     1       5.528   3.029  -3.506  1.00  0.00     0.002 C 
BRANCH  27  28
ATOM     28  C   UNL     1       4.455   3.676  -4.389  1.00  0.00     0.021 C 
BRANCH  28  29
ATOM     29  C   UNL     1       4.328   5.191  -4.233  1.00  0.00     0.116 C 
BRANCH  29  30
ATOM     30  N   UNL     1       5.624   5.849  -4.308  1.00  0.00    -0.352 N 
ATOM     31  C   UNL     1       6.095   6.774  -5.200  1.00  0.00     0.251 C 
ATOM     32  H   UNL     1       6.263   5.587  -3.606  1.00  0.00     0.163 HD
ATOM     33  O   UNL     1       7.295   7.019  -5.249  1.00  0.00    -0.269 OA
BRANCH  31  34
ATOM     34  C   UNL     1       5.153   7.467  -6.099  1.00  0.00     0.039 A 
ATOM     35  C   UNL     1       5.481   7.599  -7.449  1.00  0.00     0.014 A 
ATOM     36  C   UNL     1       3.962   8.005  -5.601  1.00  0.00     0.014 A 
ATOM     37  C   UNL     1       4.582   8.220  -8.317  1.00  0.00     0.010 A 
ATOM     38  C   UNL     1       3.045   8.577  -6.476  1.00  0.00     0.010 A 
ATOM     39  C   UNL     1       3.345   8.684  -7.842  1.00  0.00    -0.014 A 
BRANCH  39  40
ATOM     40  C   UNL     1       2.341   9.269  -8.762  1.00  0.00     0.031 A 
ATOM     41  C   UNL     1       1.981  10.723  -8.657  1.00  0.00     0.074 A 
ATOM     42  C   UNL     1       1.720   8.472  -9.653  1.00  0.00     0.049 A 
ATOM     43  N   UNL     1       1.050  11.388  -9.289  1.00  0.00    -0.248 NA
ATOM     44  C   UNL     1       2.757  11.532  -7.703  1.00  0.00     0.031 C 
ATOM     45  C   UNL     1       1.983   7.042  -9.837  1.00  0.00     0.029 A 
ATOM     46  N   UNL     1       0.737   8.747 -10.570  1.00  0.00    -0.354 N 
ATOM     47  C   UNL     1       1.121  12.690  -8.809  1.00  0.00     0.074 A 
ATOM     48  C   UNL     1       2.163  12.713  -7.803  1.00  0.00     0.031 C 
ATOM     49  C   UNL     1       1.202   6.574 -10.823  1.00  0.00     0.029 A 
ATOM     50  C   UNL     1       0.349   7.654 -11.309  1.00  0.00     0.049 A 
ATOM     51  H   UNL     1       0.347   9.643 -10.688  1.00  0.00     0.167 HD
ATOM     52  C   UNL     1       0.392  13.768  -9.184  1.00  0.00     0.034 A 
ATOM     53  C   UNL     1      -0.598   7.533 -12.260  1.00  0.00     0.034 A 
ATOM     54  C   UNL     1      -0.631  13.736 -10.197  1.00  0.00     0.049 A 
ATOM     55  C   UNL     1      -1.410   8.742 -12.638  1.00  0.00     0.074 A 
ATOM     56  C   UNL     1      -1.419  14.777 -10.656  1.00  0.00     0.029 A 
ATOM     57  N   UNL     1      -1.002  12.608 -10.915  1.00  0.00    -0.354 N 
ATOM     58  N   UNL     1      -1.350   9.959 -12.150  1.00  0.00    -0.248 NA
ATOM     59  C   UNL     1      -2.418   8.563 -13.691  1.00  0.00     0.031 C 
ATOM     60  C   UNL     1      -2.295  14.271 -11.622  1.00  0.00     0.029 A 
ATOM     61  C   UNL     1      -2.013  12.927 -11.807  1.00  0.00     0.049 A 
ATOM     62  H   UNL     1      -0.606  11.714 -10.807  1.00  0.00     0.167 HD
ATOM     63  C   UNL     1      -2.292  10.697 -12.859  1.00  0.00     0.074 A 
ATOM     64  C   UNL     1      -2.907   9.790 -13.806  1.00  0.00     0.031 C 
ATOM     65  C   UNL     1      -2.614  12.008 -12.741  1.00  0.00     0.034 A 
BRANCH  52  66
ATOM     66  C   UNL     1       0.664  15.073  -8.487  1.00  0.00     0.023 A 
ATOM     67  C   UNL     1       1.850  15.791  -8.716  1.00  0.00     0.031 A 
ATOM     68  C   UNL     1      -0.290  15.624  -7.614  1.00  0.00     0.131 A 
ATOM     69  C   UNL     1       2.065  17.009  -8.055  1.00  0.00     0.055 A 
ATOM     70  C   UNL     1      -0.094  16.863  -7.002  1.00  0.00     0.041 A 
ATOM     71  F   UNL     1      -1.431  14.968  -7.349  1.00  0.00    -0.206 F 
ATOM     72  C   UNL     1       1.091  17.561  -7.219  1.00  0.00     0.022 A 
BRANCH  69  73
ATOM     73  S   UNL     1       3.659  17.846  -8.264  1.00  0.00     0.124 S 
ATOM     74  O   UNL     1       4.560  16.942  -7.553  1.00  0.00    -0.237 OA
ATOM     75  O   UNL     1       3.811  17.890  -9.713  1.00  0.00    -0.237 OA
ATOM     76  O   UNL     1       3.450  19.143  -7.622  1.00  0.00    -0.744 OA
ENDBRANCH  69  73
ENDBRANCH  52  66
BRANCH  53  77
ATOM     77  C   UNL     1      -0.836   6.220 -12.918  1.00  0.00     0.023 A 
ATOM     78  C   UNL     1      -0.514   6.026 -14.270  1.00  0.00     0.031 A 
ATOM     79  C   UNL     1      -1.403   5.146 -12.210  1.00  0.00     0.131 A 
ATOM     80  C   UNL     1      -0.793   4.795 -14.884  1.00  0.00     0.055 A 
ATOM     81  C   UNL     1      -1.642   3.911 -12.814  1.00  0.00     0.041 A 
ATOM     82  F   UNL     1      -1.718   5.281 -10.912  1.00  0.00    -0.206 F 
ATOM     83  C   UNL     1      -1.344   3.733 -14.162  1.00  0.00     0.022 A 
BRANCH  80  84
ATOM     84  S   UNL     1      -0.466   4.615 -16.658  1.00  0.00     0.124 S 
ATOM     85  O   UNL     1      -1.369   5.609 -17.228  1.00  0.00    -0.237 OA
ATOM     86  O   UNL     1       0.959   4.921 -16.738  1.00  0.00    -0.237 OA
ATOM     87  O   UNL     1      -0.817   3.223 -16.929  1.00  0.00    -0.744 OA
ENDBRANCH  80  84
ENDBRANCH  53  77
BRANCH  65  88
ATOM     88  C   UNL     1      -3.643  12.552 -13.693  1.00  0.00     0.023 A 
ATOM     89  C   UNL     1      -5.006  12.237 -13.564  1.00  0.00     0.031 A 
ATOM     90  C   UNL     1      -3.252  13.423 -14.726  1.00  0.00     0.131 A 
ATOM     91  C   UNL     1      -5.930  12.766 -14.477  1.00  0.00     0.055 A 
ATOM     92  C   UNL     1      -4.182  13.980 -15.603  1.00  0.00     0.041 A 
ATOM     93  F   UNL     1      -1.961  13.754 -14.886  1.00  0.00    -0.206 F 
ATOM     94  C   UNL     1      -5.528  13.648 -15.485  1.00  0.00     0.022 A 
BRANCH  91  95
ATOM     95  S   UNL     1      -7.667  12.261 -14.351  1.00  0.00     0.124 S 
ATOM     96  O   UNL     1      -7.590  10.836 -14.658  1.00  0.00    -0.237 OA
ATOM     97  O   UNL     1      -7.995  12.598 -12.970  1.00  0.00    -0.237 OA
ATOM     98  O   UNL     1      -8.336  13.078 -15.362  1.00  0.00    -0.744 OA
ENDBRANCH  91  95
ENDBRANCH  65  88
ENDBRANCH  39  40
ENDBRANCH  31  34
ENDBRANCH  29  30
ENDBRANCH  28  29
ENDBRANCH  27  28
ENDBRANCH   1  27
TORSDOF 20
