REMARK SMILES O=C(NCCCCCCNC(=O)c1cc(Br)ccc1OC(=O)c1ccc(F)cc1)c1ccc(-c2c3nc(c(-c4cc(S(=O)(=O)[O-])ccc4F)c4ccc([nH]4)c(-c4cc(S(=O)(=O)[O-])ccc4F)c4nc(c(-c5cc(S(=O)(=O)[O-])ccc5F)c5ccc2[nH]5)C=C4)C=C3)cc1
REMARK SMILES IDX 6 1 5 2 4 3 3 4 1 5 2 6 30 8 31 9 92 10 32 11 91 12 33 13
REMARK SMILES IDX 34 14 35 15 85 16 36 17 90 18 84 19 86 20 37 21 89 22 83 23
REMARK SMILES IDX 82 24 38 26 70 27 50 28 69 29 51 30 54 31 68 32 87 33 52 34
REMARK SMILES IDX 53 35 67 37 88 38 55 39 39 40 40 41 48 42 41 43 47 44 49 45
REMARK SMILES IDX 46 46 42 47 43 48 44 49 45 50 71 51 72 52 80 53 73 54 79 55
REMARK SMILES IDX 81 56 78 57 74 58 75 59 76 60 77 61 56 62 57 63 65 64 58 65
REMARK SMILES IDX 64 66 66 67 63 68 59 69 60 70 61 71 62 72 7 73 8 74 9 75
REMARK SMILES IDX 10 76 11 77 12 79 13 80 14 81 19 82 15 83 18 84 16 85 17 86
REMARK SMILES IDX 20 87 21 88 22 89 23 90 24 91 29 92 25 93 28 94 26 95 27 96
REMARK H PARENT 3 7 86 25 54 36 10 78
REMARK Flexibility Score: inf
ROOT
ATOM      1  C   UNL     1       4.218   0.527  -4.030  1.00  0.00     0.002 C 
ENDROOT
BRANCH   1   2
ATOM      2  C   UNL     1       4.684  -0.347  -2.866  1.00  0.00     0.021 C 
BRANCH   2   3
ATOM      3  C   UNL     1       4.481   0.243  -1.477  1.00  0.00     0.116 C 
BRANCH   3   4
ATOM      4  N   UNL     1       3.079   0.382  -1.118  1.00  0.00    -0.352 N 
ATOM      5  O   UNL     1       1.202   0.035   0.082  1.00  0.00    -0.269 OA
ATOM      6  C   UNL     1       2.425  -0.057   0.009  1.00  0.00     0.251 C 
ATOM      7  H   UNL     1       2.520   0.858  -1.774  1.00  0.00     0.163 HD
BRANCH   6   8
ATOM      8  C   UNL     1       3.191  -0.665   1.122  1.00  0.00     0.039 A 
ATOM      9  C   UNL     1       4.383  -0.091   1.567  1.00  0.00     0.014 A 
ATOM     10  C   UNL     1       2.706  -1.827   1.733  1.00  0.00     0.014 A 
ATOM     11  C   UNL     1       5.159  -0.753   2.513  1.00  0.00     0.010 A 
ATOM     12  C   UNL     1       3.446  -2.446   2.747  1.00  0.00     0.010 A 
ATOM     13  C   UNL     1       4.695  -1.931   3.124  1.00  0.00    -0.014 A 
BRANCH  13  14
ATOM     14  C   UNL     1       5.519  -2.554   4.193  1.00  0.00     0.031 A 
ATOM     15  C   UNL     1       6.152  -3.905   4.010  1.00  0.00     0.074 A 
ATOM     16  C   UNL     1       5.746  -1.848   5.318  1.00  0.00     0.049 A 
ATOM     17  N   UNL     1       6.969  -4.544   4.809  1.00  0.00    -0.248 NA
ATOM     18  C   UNL     1       5.822  -4.640   2.780  1.00  0.00     0.031 C 
ATOM     19  C   UNL     1       5.173  -0.532   5.611  1.00  0.00     0.029 A 
ATOM     20  N   UNL     1       6.547  -2.109   6.400  1.00  0.00    -0.354 N 
ATOM     21  C   UNL     1       7.238  -5.760   4.192  1.00  0.00     0.074 A 
ATOM     22  C   UNL     1       6.476  -5.780   2.960  1.00  0.00     0.031 C 
ATOM     23  C   UNL     1       5.702  -0.066   6.750  1.00  0.00     0.029 A 
ATOM     24  C   UNL     1       6.601  -1.073   7.302  1.00  0.00     0.049 A 
ATOM     25  H   UNL     1       7.035  -2.956   6.519  1.00  0.00     0.167 HD
ATOM     26  C   UNL     1       8.049  -6.762   4.613  1.00  0.00     0.034 A 
ATOM     27  C   UNL     1       7.295  -0.941   8.448  1.00  0.00     0.034 A 
ATOM     28  C   UNL     1       8.818  -6.720   5.833  1.00  0.00     0.049 A 
ATOM     29  C   UNL     1       8.175  -2.067   8.901  1.00  0.00     0.074 A 
ATOM     30  C   UNL     1       9.709  -7.661   6.323  1.00  0.00     0.029 A 
ATOM     31  N   UNL     1       8.783  -5.688   6.761  1.00  0.00    -0.354 N 
ATOM     32  N   UNL     1       8.414  -3.211   8.305  1.00  0.00    -0.248 NA
ATOM     33  C   UNL     1       8.867  -1.895  10.185  1.00  0.00     0.031 C 
ATOM     34  C   UNL     1      10.167  -7.224   7.571  1.00  0.00     0.029 A 
ATOM     35  C   UNL     1       9.610  -5.984   7.834  1.00  0.00     0.049 A 
ATOM     36  H   UNL     1       8.249  -4.865   6.671  1.00  0.00     0.167 HD
ATOM     37  C   UNL     1       9.282  -3.899   9.143  1.00  0.00     0.074 A 
ATOM     38  C   UNL     1       9.535  -3.037  10.281  1.00  0.00     0.031 C 
ATOM     39  C   UNL     1       9.824  -5.131   8.979  1.00  0.00     0.034 A 
BRANCH  26  40
ATOM     40  C   UNL     1       8.117  -8.009   3.768  1.00  0.00     0.023 A 
ATOM     41  C   UNL     1       8.715  -8.012   2.497  1.00  0.00     0.031 A 
ATOM     42  C   UNL     1       7.584  -9.217   4.251  1.00  0.00     0.131 A 
ATOM     43  C   UNL     1       8.722  -9.189   1.731  1.00  0.00     0.055 A 
ATOM     44  C   UNL     1       7.649 -10.399   3.511  1.00  0.00     0.041 A 
ATOM     45  F   UNL     1       6.987  -9.267   5.453  1.00  0.00    -0.206 F 
ATOM     46  C   UNL     1       8.212 -10.387   2.238  1.00  0.00     0.022 A 
BRANCH  43  47
ATOM     47  S   UNL     1       9.326  -9.112   0.023  1.00  0.00     0.124 S 
ATOM     48  O   UNL     1       8.377  -8.182  -0.585  1.00  0.00    -0.237 OA
ATOM     49  O   UNL     1      10.687  -8.616   0.190  1.00  0.00    -0.237 OA
ATOM     50  O   UNL     1       9.219 -10.493  -0.442  1.00  0.00    -0.744 OA
ENDBRANCH  43  47
ENDBRANCH  26  40
BRANCH  27  51
ATOM     51  C   UNL     1       7.154   0.308   9.241  1.00  0.00     0.023 A 
ATOM     52  C   UNL     1       8.177   1.267   9.268  1.00  0.00     0.031 A 
ATOM     53  C   UNL     1       5.957   0.587   9.923  1.00  0.00     0.131 A 
ATOM     54  C   UNL     1       7.982   2.468   9.968  1.00  0.00     0.055 A 
ATOM     55  C   UNL     1       5.757   1.795  10.591  1.00  0.00     0.041 A 
ATOM     56  F   UNL     1       4.946  -0.295   9.905  1.00  0.00    -0.206 F 
ATOM     57  C   UNL     1       6.774   2.744  10.616  1.00  0.00     0.022 A 
BRANCH  54  58
ATOM     58  S   UNL     1       9.324   3.688  10.003  1.00  0.00     0.124 S 
ATOM     59  O   UNL     1      10.316   3.015  10.834  1.00  0.00    -0.237 OA
ATOM     60  O   UNL     1       9.656   3.824   8.588  1.00  0.00    -0.237 OA
ATOM     61  O   UNL     1       8.698   4.864  10.604  1.00  0.00    -0.744 OA
ENDBRANCH  54  58
ENDBRANCH  27  51
BRANCH  39  62
ATOM     62  C   UNL     1      10.749  -5.622  10.057  1.00  0.00     0.023 A 
ATOM     63  C   UNL     1      10.256  -6.073  11.292  1.00  0.00     0.031 A 
ATOM     64  C   UNL     1      12.135  -5.670   9.830  1.00  0.00     0.131 A 
ATOM     65  C   UNL     1      11.150  -6.535  12.269  1.00  0.00     0.055 A 
ATOM     66  C   UNL     1      13.016  -6.167  10.791  1.00  0.00     0.041 A 
ATOM     67  F   UNL     1      12.650  -5.250   8.664  1.00  0.00    -0.206 F 
ATOM     68  C   UNL     1      12.525  -6.600  12.020  1.00  0.00     0.022 A 
BRANCH  65  69
ATOM     69  S   UNL     1      10.500  -7.043  13.884  1.00  0.00     0.124 S 
ATOM     70  O   UNL     1      10.068  -5.768  14.448  1.00  0.00    -0.237 OA
ATOM     71  O   UNL     1       9.435  -7.973  13.522  1.00  0.00    -0.237 OA
ATOM     72  O   UNL     1      11.654  -7.654  14.541  1.00  0.00    -0.744 OA
ENDBRANCH  65  69
ENDBRANCH  39  62
ENDBRANCH  13  14
ENDBRANCH   6   8
ENDBRANCH   3   4
ENDBRANCH   2   3
ENDBRANCH   1   2
BRANCH   1  73
ATOM     73  C   UNL     1       4.807   1.939  -4.092  1.00  0.00     0.002 C 
BRANCH  73  74
ATOM     74  C   UNL     1       6.332   2.045  -4.009  1.00  0.00     0.021 C 
BRANCH  74  75
ATOM     75  C   UNL     1       7.121   1.163  -4.976  1.00  0.00     0.116 C 
BRANCH  75  76
ATOM     76  N   UNL     1       6.793   1.410  -6.371  1.00  0.00    -0.352 N 
ATOM     77  C   UNL     1       7.611   1.827  -7.391  1.00  0.00     0.255 C 
ATOM     78  H   UNL     1       5.853   1.258  -6.618  1.00  0.00     0.163 HD
ATOM     79  O   UNL     1       7.146   2.107  -8.492  1.00  0.00    -0.269 OA
BRANCH  77  80
ATOM     80  C   UNL     1       9.064   1.946  -7.158  1.00  0.00     0.083 A 
ATOM     81  C   UNL     1       9.787   0.825  -6.730  1.00  0.00     0.033 A 
ATOM     82  C   UNL     1       9.736   3.150  -7.401  1.00  0.00     0.144 A 
ATOM     83  C   UNL     1      11.156   0.938  -6.494  1.00  0.00     0.019 A 
ATOM     84  C   UNL     1      11.111   3.253  -7.180  1.00  0.00     0.049 A 
ATOM     85  Br  UNL     1      12.126  -0.564  -5.881  1.00  0.00    -0.051 Br
ATOM     86  C   UNL     1      11.819   2.148  -6.707  1.00  0.00     0.019 A 
BRANCH  82  87
ATOM     87  O   UNL     1       9.111   4.268  -7.969  1.00  0.00    -0.422 OA
BRANCH  87  88
ATOM     88  C   UNL     1       8.185   4.908  -7.169  1.00  0.00     0.343 C 
ATOM     89  O   UNL     1       7.904   4.643  -6.009  1.00  0.00    -0.246 OA
BRANCH  88  90
ATOM     90  C   UNL     1       7.554   6.016  -7.936  1.00  0.00     0.060 A 
ATOM     91  C   UNL     1       8.139   6.551  -9.095  1.00  0.00     0.019 A 
ATOM     92  C   UNL     1       6.351   6.556  -7.455  1.00  0.00     0.019 A 
ATOM     93  C   UNL     1       7.527   7.616  -9.761  1.00  0.00     0.040 A 
ATOM     94  C   UNL     1       5.740   7.618  -8.128  1.00  0.00     0.040 A 
ATOM     95  C   UNL     1       6.335   8.139  -9.271  1.00  0.00     0.123 A 
ATOM     96  F   UNL     1       5.755   9.164  -9.910  1.00  0.00    -0.207 F 
ENDBRANCH  88  90
ENDBRANCH  87  88
ENDBRANCH  82  87
ENDBRANCH  77  80
ENDBRANCH  75  76
ENDBRANCH  74  75
ENDBRANCH  73  74
ENDBRANCH   1  73
TORSDOF 19
