REMARK SMILES Cc1cc(Cl)cc2c1O[C@H](C(F)(F)F)C(C(=O)NCCCCCCNC(=O)c1ccc(-c3c4nc(c(-c5cc(S(=O)(=O)[O-])ccc5F)c5ccc([nH]5)c(-c5cc(S(=O)(=O)[O-])ccc5F)c5nc(c(-c6cc(S(=O)(=O)[O-])ccc6F)c6ccc3[nH]6)C=C5)C=C4)cc1)=C2
REMARK SMILES IDX 22 1 21 2 20 3 19 4 18 5 16 6 17 7 15 9 1 10 2 11 3 12 8 13
REMARK SMILES IDX 4 14 7 15 9 16 5 17 6 18 91 19 10 20 11 21 12 22 13 23 14 24
REMARK SMILES IDX 23 25 24 26 25 27 26 28 27 30 28 31 29 32 90 33 30 34 89 35
REMARK SMILES IDX 31 36 32 37 33 38 83 39 34 40 88 41 82 42 84 43 35 44 87 45
REMARK SMILES IDX 81 46 80 47 36 49 68 50 48 51 67 52 49 53 52 54 66 55 85 56
REMARK SMILES IDX 50 57 51 58 65 60 86 61 53 62 37 63 38 64 46 65 39 66 45 67
REMARK SMILES IDX 47 68 44 69 40 70 41 71 42 72 43 73 69 74 70 75 78 76 71 77
REMARK SMILES IDX 77 78 79 79 76 80 72 81 73 82 74 83 75 84 54 85 55 86 63 87
REMARK SMILES IDX 56 88 62 89 64 90 61 91 57 92 58 93 59 94 60 95
REMARK H PARENT 18 8 25 29 84 48 52 59
REMARK Flexibility Score: inf
ROOT
ATOM      1  C   UNL     1      -1.763  -8.548  -3.761  1.00  0.00     0.002 C 
ENDROOT
BRANCH   1   2
ATOM      2  C   UNL     1      -2.862  -7.478  -3.713  1.00  0.00     0.002 C 
BRANCH   2   3
ATOM      3  C   UNL     1      -2.494  -6.207  -2.943  1.00  0.00     0.021 C 
BRANCH   3   4
ATOM      4  C   UNL     1      -1.225  -5.533  -3.452  1.00  0.00     0.116 C 
BRANCH   4   5
ATOM      5  N   UNL     1      -1.497  -4.646  -4.570  1.00  0.00    -0.352 N 
ATOM      6  C   UNL     1      -1.339  -3.332  -4.853  1.00  0.00     0.251 C 
ATOM      7  O   UNL     1      -1.695  -2.989  -5.986  1.00  0.00    -0.270 OA
ATOM      8  H   UNL     1      -1.905  -5.131  -5.324  1.00  0.00     0.163 HD
BRANCH   6   9
ATOM      9  C   UNL     1      -0.784  -2.310  -3.914  1.00  0.00     0.067 C 
ATOM     10  C   UNL     1       0.994   0.381   0.101  1.00  0.00     0.048 C 
ATOM     11  C   UNL     1       0.517   0.712  -1.286  1.00  0.00    -0.007 A 
ATOM     12  C   UNL     1       0.582   2.032  -1.747  1.00  0.00     0.027 A 
ATOM     13  C   UNL     1       0.062  -0.285  -2.161  1.00  0.00     0.131 A 
ATOM     14  C   UNL     1       0.169   2.343  -3.043  1.00  0.00     0.042 A 
ATOM     15  C   UNL     1      -0.361   0.025  -3.457  1.00  0.00     0.019 A 
ATOM     16  O   UNL     1       0.009  -1.554  -1.668  1.00  0.00    -0.475 OA
ATOM     17  Cl  UNL     1       0.242   3.974  -3.589  1.00  0.00    -0.084 Cl
ATOM     18  C   UNL     1      -0.307   1.350  -3.898  1.00  0.00     0.032 A 
ATOM     19  C   UNL     1      -0.890  -1.030  -4.314  1.00  0.00     0.025 C 
ATOM     20  C   UNL     1      -0.109  -2.642  -2.615  1.00  0.00     0.314 C 
BRANCH  20  21
ATOM     21  C   UNL     1       1.275  -3.286  -2.811  1.00  0.00     0.429 C 
ATOM     22  F   UNL     1       1.683  -3.893  -1.669  1.00  0.00    -0.167 F 
ATOM     23  F   UNL     1       1.278  -4.238  -3.773  1.00  0.00    -0.167 F 
ATOM     24  F   UNL     1       2.220  -2.380  -3.152  1.00  0.00    -0.167 F 
ENDBRANCH  20  21
ENDBRANCH   6   9
ENDBRANCH   4   5
ENDBRANCH   3   4
ENDBRANCH   2   3
ENDBRANCH   1   2
BRANCH   1  25
ATOM     25  C   UNL     1      -1.145  -8.912  -2.408  1.00  0.00     0.021 C 
BRANCH  25  26
ATOM     26  C   UNL     1      -2.146  -9.407  -1.371  1.00  0.00     0.116 C 
BRANCH  26  27
ATOM     27  N   UNL     1      -2.840 -10.600  -1.823  1.00  0.00    -0.352 N 
ATOM     28  C   UNL     1      -2.879 -11.846  -1.252  1.00  0.00     0.251 C 
ATOM     29  H   UNL     1      -3.354 -10.501  -2.657  1.00  0.00     0.163 HD
ATOM     30  O   UNL     1      -3.312 -12.800  -1.893  1.00  0.00    -0.269 OA
BRANCH  28  31
ATOM     31  C   UNL     1      -2.383 -12.030   0.127  1.00  0.00     0.039 A 
ATOM     32  C   UNL     1      -1.548 -13.112   0.408  1.00  0.00     0.014 A 
ATOM     33  C   UNL     1      -2.747 -11.133   1.137  1.00  0.00     0.014 A 
ATOM     34  C   UNL     1      -1.037 -13.267   1.697  1.00  0.00     0.010 A 
ATOM     35  C   UNL     1      -2.180 -11.249   2.402  1.00  0.00     0.010 A 
ATOM     36  C   UNL     1      -1.327 -12.323   2.697  1.00  0.00    -0.014 A 
BRANCH  36  37
ATOM     37  C   UNL     1      -0.768 -12.464   4.064  1.00  0.00     0.031 A 
ATOM     38  C   UNL     1      -1.687 -12.728   5.224  1.00  0.00     0.074 A 
ATOM     39  C   UNL     1       0.559 -12.335   4.259  1.00  0.00     0.049 A 
ATOM     40  N   UNL     1      -1.399 -12.846   6.494  1.00  0.00    -0.248 NA
ATOM     41  C   UNL     1      -3.122 -12.855   4.920  1.00  0.00     0.031 C 
ATOM     42  C   UNL     1       1.544 -12.062   3.210  1.00  0.00     0.029 A 
ATOM     43  N   UNL     1       1.311 -12.428   5.403  1.00  0.00    -0.354 N 
ATOM     44  C   UNL     1      -2.610 -13.066   7.138  1.00  0.00     0.074 A 
ATOM     45  C   UNL     1      -3.645 -12.998   6.129  1.00  0.00     0.031 C 
ATOM     46  C   UNL     1       2.772 -12.053   3.752  1.00  0.00     0.029 A 
ATOM     47  C   UNL     1       2.662 -12.274   5.191  1.00  0.00     0.049 A 
ATOM     48  H   UNL     1       0.921 -12.588   6.292  1.00  0.00     0.167 HD
ATOM     49  C   UNL     1      -2.836 -13.334   8.446  1.00  0.00     0.034 A 
ATOM     50  C   UNL     1       3.693 -12.308   6.058  1.00  0.00     0.034 A 
ATOM     51  C   UNL     1      -1.796 -13.418   9.438  1.00  0.00     0.049 A 
ATOM     52  C   UNL     1       3.411 -12.551   7.518  1.00  0.00     0.074 A 
ATOM     53  C   UNL     1      -1.914 -13.714  10.784  1.00  0.00     0.029 A 
ATOM     54  N   UNL     1      -0.446 -13.209   9.192  1.00  0.00    -0.354 N 
ATOM     55  N   UNL     1       2.258 -12.765   8.108  1.00  0.00    -0.248 NA
ATOM     56  C   UNL     1       4.564 -12.555   8.428  1.00  0.00     0.031 C 
ATOM     57  C   UNL     1      -0.646 -13.624  11.364  1.00  0.00     0.029 A 
ATOM     58  C   UNL     1       0.275 -13.339  10.368  1.00  0.00     0.049 A 
ATOM     59  H   UNL     1      -0.057 -12.998   8.312  1.00  0.00     0.167 HD
ATOM     60  C   UNL     1       2.550 -12.950   9.455  1.00  0.00     0.074 A 
ATOM     61  C   UNL     1       3.988 -12.829   9.590  1.00  0.00     0.031 C 
ATOM     62  C   UNL     1       1.706 -13.202  10.486  1.00  0.00     0.034 A 
BRANCH  49  63
ATOM     63  C   UNL     1      -4.262 -13.551   8.879  1.00  0.00     0.023 A 
ATOM     64  C   UNL     1      -4.992 -14.673   8.452  1.00  0.00     0.031 A 
ATOM     65  C   UNL     1      -4.891 -12.641   9.745  1.00  0.00     0.131 A 
ATOM     66  C   UNL     1      -6.325 -14.834   8.857  1.00  0.00     0.055 A 
ATOM     67  C   UNL     1      -6.197 -12.841  10.197  1.00  0.00     0.041 A 
ATOM     68  F   UNL     1      -4.246 -11.542  10.168  1.00  0.00    -0.206 F 
ATOM     69  C   UNL     1      -6.924 -13.939   9.747  1.00  0.00     0.022 A 
BRANCH  66  70
ATOM     70  S   UNL     1      -7.292 -16.188   8.138  1.00  0.00     0.124 S 
ATOM     71  O   UNL     1      -7.328 -15.807   6.729  1.00  0.00    -0.237 OA
ATOM     72  O   UNL     1      -6.488 -17.360   8.463  1.00  0.00    -0.237 OA
ATOM     73  O   UNL     1      -8.574 -16.100   8.835  1.00  0.00    -0.744 OA
ENDBRANCH  66  70
ENDBRANCH  49  63
BRANCH  50  74
ATOM     74  C   UNL     1       5.086 -12.109   5.570  1.00  0.00     0.023 A 
ATOM     75  C   UNL     1       6.014 -13.161   5.595  1.00  0.00     0.031 A 
ATOM     76  C   UNL     1       5.508 -10.865   5.068  1.00  0.00     0.131 A 
ATOM     77  C   UNL     1       7.327 -12.944   5.147  1.00  0.00     0.055 A 
ATOM     78  C   UNL     1       6.803 -10.665   4.587  1.00  0.00     0.041 A 
ATOM     79  F   UNL     1       4.655  -9.829   5.016  1.00  0.00    -0.206 F 
ATOM     80  C   UNL     1       7.723 -11.708   4.631  1.00  0.00     0.022 A 
BRANCH  77  81
ATOM     81  S   UNL     1       8.527 -14.298   5.279  1.00  0.00     0.124 S 
ATOM     82  O   UNL     1       8.599 -14.491   6.723  1.00  0.00    -0.237 OA
ATOM     83  O   UNL     1       7.872 -15.360   4.521  1.00  0.00    -0.237 OA
ATOM     84  O   UNL     1       9.730 -13.747   4.660  1.00  0.00    -0.744 OA
ENDBRANCH  77  81
ENDBRANCH  50  74
BRANCH  62  85
ATOM     85  C   UNL     1       2.310 -13.383  11.853  1.00  0.00     0.023 A 
ATOM     86  C   UNL     1       2.840 -12.297  12.568  1.00  0.00     0.031 A 
ATOM     87  C   UNL     1       2.295 -14.646  12.471  1.00  0.00     0.131 A 
ATOM     88  C   UNL     1       3.355 -12.498  13.856  1.00  0.00     0.055 A 
ATOM     89  C   UNL     1       2.766 -14.831  13.770  1.00  0.00     0.041 A 
ATOM     90  F   UNL     1       1.794 -15.714  11.829  1.00  0.00    -0.206 F 
ATOM     91  C   UNL     1       3.304 -13.754  14.469  1.00  0.00     0.022 A 
BRANCH  88  92
ATOM     92  S   UNL     1       4.120 -11.098  14.716  1.00  0.00     0.124 S 
ATOM     93  O   UNL     1       5.272 -10.815  13.867  1.00  0.00    -0.237 OA
ATOM     94  O   UNL     1       3.056 -10.098  14.701  1.00  0.00    -0.237 OA
ATOM     95  O   UNL     1       4.439 -11.639  16.037  1.00  0.00    -0.744 OA
ENDBRANCH  88  92
ENDBRANCH  62  85
ENDBRANCH  36  37
ENDBRANCH  28  31
ENDBRANCH  26  27
ENDBRANCH  25  26
ENDBRANCH   1  25
TORSDOF 17
