REMARK SMILES COc1ccc(Cl)cc1C(=O)NC(=S)Nc1cc(C)c(O)c(C(=O)NCCCCCCNC(=O)c2ccc(-c3c4nc(c(-c5cc(S(=O)(=O)[O-])ccc5F)c5ccc([nH]5)c(-c5cc(S(=O)(=O)[O-])ccc5F)c5nc(c(-c6cc(S(=O)(=O)[O-])ccc6F)c6ccc3[nH]6)C=C5)C=C4)cc2)c1
REMARK SMILES IDX 27 1 26 2 25 3 23 4 24 5 22 7 16 8 17 9 98 10 18 11 19 12
REMARK SMILES IDX 20 13 15 14 13 16 14 17 12 18 10 19 11 20 9 22 3 23 4 24
REMARK SMILES IDX 5 25 8 26 6 27 7 28 2 29 1 30 21 31 28 33 29 34 30 35 31 36
REMARK SMILES IDX 32 37 33 38 34 40 35 41 36 42 97 43 37 44 96 45 38 46 39 47
REMARK SMILES IDX 40 48 90 49 41 50 95 51 89 52 91 53 42 54 94 55 88 56 87 57
REMARK SMILES IDX 43 59 75 60 55 61 74 62 56 63 59 64 73 65 92 66 57 67 58 68
REMARK SMILES IDX 72 70 93 71 60 72 44 73 45 74 53 75 46 76 52 77 54 78 51 79
REMARK SMILES IDX 47 80 48 81 49 82 50 83 76 84 77 85 85 86 78 87 84 88 86 89
REMARK SMILES IDX 83 90 79 91 80 92 81 93 82 94 61 95 62 96 70 97 63 98 69 99
REMARK SMILES IDX 71 100 68 101 64 102 65 103 66 104 67 105
REMARK H PARENT 25 6 15 15 12 21 21 32 32 39 91 58 59 69
REMARK Flexibility Score: inf
ROOT
ATOM      1  C   UNL     1       4.560  -1.067   4.745  1.00  0.00     0.021 C 
ENDROOT
BRANCH   1   2
ATOM      2  C   UNL     1       4.922  -1.762   3.435  1.00  0.00     0.116 C 
BRANCH   2   3
ATOM      3  N   UNL     1       4.564  -3.155   3.555  1.00  0.00    -0.352 N 
ATOM      4  C   UNL     1       3.320  -3.720   3.698  1.00  0.00     0.255 C 
ATOM      5  O   UNL     1       3.248  -4.848   4.186  1.00  0.00    -0.269 OA
ATOM      6  H   UNL     1       5.317  -3.789   3.531  1.00  0.00     0.163 HD
BRANCH   4   7
ATOM      7  C   UNL     1       2.082  -3.116   3.067  1.00  0.00     0.083 A 
ATOM      8  C   UNL     1       1.772  -1.172   0.776  1.00  0.00     0.042 A 
ATOM      9  C   UNL     1       1.282  -2.424  -0.462  1.00  0.00     0.033 A 
ATOM     10  C   UNL     1       2.265  -1.610   2.378  1.00  0.00     0.043 A 
ATOM     11  C   UNL     1       0.738  -4.083   0.196  1.00  0.00    -0.006 A 
ATOM     12  C   UNL     1       0.003  -4.799  -0.977  1.00  0.00     0.048 C 
ATOM     13  C   UNL     1       1.228  -4.356   2.146  1.00  0.00     0.131 A 
BRANCH   8  14
ATOM     14  N   UNL     1       0.703  -0.153   1.246  1.00  0.00    -0.332 N 
ATOM     15  H   UNL     1       0.819   0.732   0.831  1.00  0.00     0.169 HD
BRANCH  14  16
ATOM     16  C   UNL     1      -0.409  -0.192   2.137  1.00  0.00     0.177 C 
ATOM     17  S   UNL     1      -0.881   1.300   2.766  1.00  0.00    -0.040 S 
BRANCH  16  18
ATOM     18  N   UNL     1      -1.288  -1.295   2.504  1.00  0.00    -0.299 N 
ATOM     19  C   UNL     1      -1.728  -2.758   2.442  1.00  0.00     0.261 C 
ATOM     20  O   UNL     1      -2.820  -3.111   2.874  1.00  0.00    -0.269 OA
ATOM     21  H   UNL     1      -1.944  -0.880   3.110  1.00  0.00     0.172 HD
BRANCH  19  22
ATOM     22  C   UNL     1      -0.800  -3.731   1.823  1.00  0.00     0.083 A 
ATOM     23  C   UNL     1       0.519  -2.703   1.448  1.00  0.00     0.131 A 
ATOM     24  C   UNL     1       2.333  -3.445   0.913  1.00  0.00     0.049 A 
ATOM     25  C   UNL     1       2.451  -5.237   0.669  1.00  0.00     0.024 A 
ATOM     26  C   UNL     1      -0.608  -5.441   1.517  1.00  0.00     0.038 A 
ATOM     27  C   UNL     1       0.958  -6.177   0.958  1.00  0.00     0.042 A 
ATOM     28  Cl  UNL     1       1.074  -7.903   0.897  1.00  0.00    -0.084 Cl
BRANCH  23  29
ATOM     29  O   UNL     1      -0.719  -2.234   0.244  1.00  0.00    -0.496 OA
ATOM     30  C   UNL     1      -0.870  -1.040  -0.601  1.00  0.00     0.278 C 
ENDBRANCH  23  29
ENDBRANCH  19  22
ENDBRANCH  16  18
ENDBRANCH  14  16
ENDBRANCH   8  14
BRANCH  13  31
ATOM     31  O   UNL     1       1.061  -5.428   3.085  1.00  0.00    -0.507 OA
ATOM     32  H   UNL     1       0.625  -6.216   2.824  1.00  0.00     0.293 HD
ENDBRANCH  13  31
ENDBRANCH   4   7
ENDBRANCH   2   3
ENDBRANCH   1   2
BRANCH   1  33
ATOM     33  C   UNL     1       5.752  -1.087   5.697  1.00  0.00     0.002 C 
BRANCH  33  34
ATOM     34  C   UNL     1       6.946  -0.299   5.146  1.00  0.00     0.002 C 
BRANCH  34  35
ATOM     35  C   UNL     1       6.585   1.132   4.736  1.00  0.00     0.021 C 
BRANCH  35  36
ATOM     36  C   UNL     1       6.020   1.936   5.899  1.00  0.00     0.116 C 
BRANCH  36  37
ATOM     37  N   UNL     1       6.986   1.974   6.986  1.00  0.00    -0.352 N 
ATOM     38  C   UNL     1       7.729   3.042   7.410  1.00  0.00     0.251 C 
ATOM     39  H   UNL     1       7.122   1.130   7.475  1.00  0.00     0.163 HD
ATOM     40  O   UNL     1       8.793   2.865   7.991  1.00  0.00    -0.269 OA
BRANCH  38  41
ATOM     41  C   UNL     1       7.211   4.397   7.152  1.00  0.00     0.039 A 
ATOM     42  C   UNL     1       8.091   5.401   6.757  1.00  0.00     0.014 A 
ATOM     43  C   UNL     1       5.842   4.654   7.289  1.00  0.00     0.014 A 
ATOM     44  C   UNL     1       7.585   6.661   6.453  1.00  0.00     0.010 A 
ATOM     45  C   UNL     1       5.329   5.879   6.890  1.00  0.00     0.010 A 
ATOM     46  C   UNL     1       6.198   6.897   6.476  1.00  0.00    -0.014 A 
BRANCH  46  47
ATOM     47  C   UNL     1       5.643   8.201   6.048  1.00  0.00     0.031 A 
ATOM     48  C   UNL     1       4.872   9.051   7.016  1.00  0.00     0.074 A 
ATOM     49  C   UNL     1       5.807   8.592   4.769  1.00  0.00     0.049 A 
ATOM     50  N   UNL     1       4.290  10.204   6.814  1.00  0.00    -0.248 NA
ATOM     51  C   UNL     1       4.714   8.528   8.381  1.00  0.00     0.031 C 
ATOM     52  C   UNL     1       6.510   7.825   3.738  1.00  0.00     0.029 A 
ATOM     53  N   UNL     1       5.402   9.727   4.119  1.00  0.00    -0.354 N 
ATOM     54  C   UNL     1       3.697  10.545   8.024  1.00  0.00     0.074 A 
ATOM     55  C   UNL     1       3.931   9.443   8.931  1.00  0.00     0.031 C 
ATOM     56  C   UNL     1       6.530   8.534   2.601  1.00  0.00     0.029 A 
ATOM     57  C   UNL     1       5.780   9.770   2.797  1.00  0.00     0.049 A 
ATOM     58  H   UNL     1       4.888  10.445   4.556  1.00  0.00     0.167 HD
ATOM     59  C   UNL     1       3.040  11.685   8.350  1.00  0.00     0.034 A 
ATOM     60  C   UNL     1       5.535  10.691   1.846  1.00  0.00     0.034 A 
ATOM     61  C   UNL     1       2.809  12.765   7.423  1.00  0.00     0.049 A 
ATOM     62  C   UNL     1       4.736  11.913   2.215  1.00  0.00     0.074 A 
ATOM     63  C   UNL     1       2.192  13.980   7.657  1.00  0.00     0.029 A 
ATOM     64  N   UNL     1       3.164  12.753   6.079  1.00  0.00    -0.354 N 
ATOM     65  N   UNL     1       4.231  12.249   3.380  1.00  0.00    -0.248 NA
ATOM     66  C   UNL     1       4.476  12.881   1.143  1.00  0.00     0.031 C 
ATOM     67  C   UNL     1       2.081  14.656   6.439  1.00  0.00     0.029 A 
ATOM     68  C   UNL     1       2.728  13.916   5.462  1.00  0.00     0.049 A 
ATOM     69  H   UNL     1       3.654  12.026   5.631  1.00  0.00     0.167 HD
ATOM     70  C   UNL     1       3.617  13.483   3.185  1.00  0.00     0.074 A 
ATOM     71  C   UNL     1       3.837  13.838   1.798  1.00  0.00     0.031 C 
ATOM     72  C   UNL     1       2.934  14.252   4.072  1.00  0.00     0.034 A 
BRANCH  59  73
ATOM     73  C   UNL     1       2.491  11.797   9.752  1.00  0.00     0.023 A 
ATOM     74  C   UNL     1       3.329  11.757  10.880  1.00  0.00     0.031 A 
ATOM     75  C   UNL     1       1.107  11.924   9.967  1.00  0.00     0.131 A 
ATOM     76  C   UNL     1       2.772  11.758  12.166  1.00  0.00     0.055 A 
ATOM     77  C   UNL     1       0.567  12.026  11.250  1.00  0.00     0.041 A 
ATOM     78  F   UNL     1       0.253  11.940   8.932  1.00  0.00    -0.206 F 
ATOM     79  C   UNL     1       1.399  11.925  12.360  1.00  0.00     0.022 A 
BRANCH  76  80
ATOM     80  S   UNL     1       3.847  11.360  13.572  1.00  0.00     0.124 S 
ATOM     81  O   UNL     1       4.373  10.054  13.179  1.00  0.00    -0.237 OA
ATOM     82  O   UNL     1       4.801  12.462  13.562  1.00  0.00    -0.237 OA
ATOM     83  O   UNL     1       2.929  11.336  14.709  1.00  0.00    -0.744 OA
ENDBRANCH  76  80
ENDBRANCH  59  73
BRANCH  60  84
ATOM     84  C   UNL     1       6.023  10.482   0.453  1.00  0.00     0.023 A 
ATOM     85  C   UNL     1       6.922  11.381  -0.142  1.00  0.00     0.031 A 
ATOM     86  C   UNL     1       5.564   9.400  -0.322  1.00  0.00     0.131 A 
ATOM     87  C   UNL     1       7.292  11.212  -1.484  1.00  0.00     0.055 A 
ATOM     88  C   UNL     1       5.992   9.196  -1.633  1.00  0.00     0.041 A 
ATOM     89  F   UNL     1       4.699   8.512   0.195  1.00  0.00    -0.206 F 
ATOM     90  C   UNL     1       6.851  10.114  -2.227  1.00  0.00     0.022 A 
BRANCH  87  91
ATOM     91  S   UNL     1       8.268  12.514  -2.284  1.00  0.00     0.124 S 
ATOM     92  O   UNL     1       7.410  13.678  -2.102  1.00  0.00    -0.237 OA
ATOM     93  O   UNL     1       9.500  12.494  -1.502  1.00  0.00    -0.237 OA
ATOM     94  O   UNL     1       8.398  12.042  -3.661  1.00  0.00    -0.744 OA
ENDBRANCH  87  91
ENDBRANCH  60  84
BRANCH  72  95
ATOM     95  C   UNL     1       2.402  15.573   3.572  1.00  0.00     0.023 A 
ATOM     96  C   UNL     1       1.428  15.642   2.562  1.00  0.00     0.031 A 
ATOM     97  C   UNL     1       2.884  16.782   4.107  1.00  0.00     0.131 A 
ATOM     98  C   UNL     1       1.016  16.890   2.072  1.00  0.00     0.055 A 
ATOM     99  C   UNL     1       2.407  18.020   3.675  1.00  0.00     0.041 A 
ATOM    100  F   UNL     1       3.823  16.780   5.067  1.00  0.00    -0.206 F 
ATOM    101  C   UNL     1       1.480  18.079   2.640  1.00  0.00     0.022 A 
BRANCH  98 102
ATOM    102  S   UNL     1      -0.034  16.936   0.594  1.00  0.00     0.124 S 
ATOM    103  O   UNL     1       0.783  16.217  -0.378  1.00  0.00    -0.237 OA
ATOM    104  O   UNL     1      -1.240  16.250   1.046  1.00  0.00    -0.237 OA
ATOM    105  O   UNL     1      -0.194  18.366   0.333  1.00  0.00    -0.744 OA
ENDBRANCH  98 102
ENDBRANCH  72  95
ENDBRANCH  46  47
ENDBRANCH  38  41
ENDBRANCH  36  37
ENDBRANCH  35  36
ENDBRANCH  34  35
ENDBRANCH  33  34
ENDBRANCH   1  33
TORSDOF 22
