REMARK SMILES O=C(NCCCCCCNC(=O)c1ccc(-n2cc(CSc3nc4ccccc4c(=O)n3-c3ccc(Br)cc3)nn2)cc1)c1ccc(-c2c3nc(c(-c4cc(S(=O)(=O)[O-])ccc4F)c4ccc([nH]4)c(-c4cc(S(=O)(=O)[O-])ccc4F)c4nc(c(-c5cc(S(=O)(=O)[O-])ccc5F)c5ccc2[nH]5)C=C4)C=C3)cc1
REMARK SMILES IDX 7 1 6 2 5 3 4 4 3 5 1 6 2 7 44 9 45 10 106 11 46 12 105 13
REMARK SMILES IDX 47 14 48 15 49 16 99 17 50 18 104 19 98 20 100 21 51 22
REMARK SMILES IDX 103 23 97 24 96 25 52 27 84 28 64 29 83 30 65 31 68 32 82 33
REMARK SMILES IDX 101 34 66 35 67 36 81 38 102 39 69 40 53 41 54 42 62 43
REMARK SMILES IDX 55 44 61 45 63 46 60 47 56 48 57 49 58 50 59 51 85 52 86 53
REMARK SMILES IDX 94 54 87 55 93 56 95 57 92 58 88 59 89 60 90 61 91 62 70 63
REMARK SMILES IDX 71 64 79 65 72 66 78 67 80 68 77 69 73 70 74 71 75 72 76 73
REMARK SMILES IDX 8 74 9 75 10 76 11 77 12 79 13 80 14 81 43 82 15 83 42 84
REMARK SMILES IDX 16 85 17 86 18 87 41 88 19 89 40 90 20 91 21 92 22 93 23 94
REMARK SMILES IDX 32 95 24 96 30 97 25 98 29 99 31 100 26 101 28 102 27 103
REMARK SMILES IDX 33 104 34 105 39 106 35 107 38 108 36 109 37 110
REMARK H PARENT 3 8 100 26 68 37 10 78
REMARK Flexibility Score: inf
ROOT
ATOM      1  C   UNL     1       4.861   3.474   2.327  1.00  0.00     0.002 C 
ENDROOT
BRANCH   1   2
ATOM      2  C   UNL     1       4.315   3.461   0.893  1.00  0.00     0.002 C 
BRANCH   2   3
ATOM      3  C   UNL     1       4.832   2.338  -0.017  1.00  0.00     0.021 C 
BRANCH   3   4
ATOM      4  C   UNL     1       4.653   0.927   0.539  1.00  0.00     0.116 C 
BRANCH   4   5
ATOM      5  N   UNL     1       3.274   0.550   0.764  1.00  0.00    -0.352 N 
ATOM      6  O   UNL     1       1.231  -0.259   0.580  1.00  0.00    -0.269 OA
ATOM      7  C   UNL     1       2.271   0.040  -0.014  1.00  0.00     0.251 C 
ATOM      8  H   UNL     1       2.991   0.694   1.696  1.00  0.00     0.163 HD
BRANCH   7   9
ATOM      9  C   UNL     1       2.325  -0.129  -1.494  1.00  0.00     0.039 A 
ATOM     10  C   UNL     1       3.479  -0.141  -2.279  1.00  0.00     0.014 A 
ATOM     11  C   UNL     1       1.082  -0.298  -2.136  1.00  0.00     0.014 A 
ATOM     12  C   UNL     1       3.388  -0.252  -3.668  1.00  0.00     0.010 A 
ATOM     13  C   UNL     1       0.987  -0.421  -3.520  1.00  0.00     0.010 A 
ATOM     14  C   UNL     1       2.143  -0.371  -4.294  1.00  0.00    -0.014 A 
BRANCH  14  15
ATOM     15  C   UNL     1       2.106  -0.614  -5.740  1.00  0.00     0.031 A 
ATOM     16  C   UNL     1       2.749  -1.892  -6.177  1.00  0.00     0.074 A 
ATOM     17  C   UNL     1       1.425   0.142  -6.627  1.00  0.00     0.049 A 
ATOM     18  N   UNL     1       3.732  -2.059  -7.001  1.00  0.00    -0.248 NA
ATOM     19  C   UNL     1       2.298  -3.139  -5.537  1.00  0.00     0.031 C 
ATOM     20  C   UNL     1       0.518   1.259  -6.353  1.00  0.00     0.029 A 
ATOM     21  N   UNL     1       1.331   0.000  -7.983  1.00  0.00    -0.354 N 
ATOM     22  C   UNL     1       3.911  -3.436  -7.130  1.00  0.00     0.074 A 
ATOM     23  C   UNL     1       3.094  -4.042  -6.112  1.00  0.00     0.031 C 
ATOM     24  C   UNL     1      -0.190   1.548  -7.471  1.00  0.00     0.029 A 
ATOM     25  C   UNL     1       0.305   0.736  -8.571  1.00  0.00     0.049 A 
ATOM     26  H   UNL     1       1.940  -0.575  -8.501  1.00  0.00     0.167 HD
ATOM     27  C   UNL     1       4.597  -3.986  -8.173  1.00  0.00     0.034 A 
ATOM     28  C   UNL     1      -0.141   0.655  -9.856  1.00  0.00     0.034 A 
ATOM     29  C   UNL     1       5.457  -3.017  -8.804  1.00  0.00     0.049 A 
ATOM     30  C   UNL     1       0.954   0.066 -10.662  1.00  0.00     0.074 A 
ATOM     31  C   UNL     1       6.526  -2.254  -8.373  1.00  0.00     0.029 A 
ATOM     32  N   UNL     1       5.043  -2.429  -9.976  1.00  0.00    -0.354 N 
ATOM     33  N   UNL     1       2.094   0.664 -10.867  1.00  0.00    -0.248 NA
ATOM     34  C   UNL     1       0.970  -1.376 -10.847  1.00  0.00     0.031 C 
ATOM     35  C   UNL     1       6.339  -0.983  -8.993  1.00  0.00     0.029 A 
ATOM     36  C   UNL     1       5.219  -1.074  -9.822  1.00  0.00     0.049 A 
ATOM     37  H   UNL     1       4.689  -2.889 -10.771  1.00  0.00     0.167 HD
ATOM     38  C   UNL     1       3.046  -0.337 -10.772  1.00  0.00     0.074 A 
ATOM     39  C   UNL     1       2.289  -1.585 -10.855  1.00  0.00     0.031 C 
ATOM     40  C   UNL     1       4.322  -0.069 -10.362  1.00  0.00     0.034 A 
BRANCH  27  41
ATOM     41  C   UNL     1       4.293  -5.330  -8.798  1.00  0.00     0.023 A 
ATOM     42  C   UNL     1       5.135  -5.798  -9.829  1.00  0.00     0.031 A 
ATOM     43  C   UNL     1       3.083  -6.040  -8.628  1.00  0.00     0.131 A 
ATOM     44  C   UNL     1       4.740  -6.862 -10.662  1.00  0.00     0.055 A 
ATOM     45  C   UNL     1       2.723  -7.137  -9.416  1.00  0.00     0.041 A 
ATOM     46  F   UNL     1       2.140  -5.656  -7.758  1.00  0.00    -0.206 F 
ATOM     47  C   UNL     1       3.540  -7.538 -10.458  1.00  0.00     0.022 A 
BRANCH  44  48
ATOM     48  S   UNL     1       5.739  -7.242 -12.128  1.00  0.00     0.124 S 
ATOM     49  O   UNL     1       5.837  -5.937 -12.771  1.00  0.00    -0.237 OA
ATOM     50  O   UNL     1       6.965  -7.760 -11.530  1.00  0.00    -0.237 OA
ATOM     51  O   UNL     1       4.931  -8.228 -12.843  1.00  0.00    -0.744 OA
ENDBRANCH  44  48
ENDBRANCH  27  41
BRANCH  28  52
ATOM     52  C   UNL     1      -1.554   0.726 -10.329  1.00  0.00     0.023 A 
ATOM     53  C   UNL     1      -1.914   1.010 -11.666  1.00  0.00     0.031 A 
ATOM     54  C   UNL     1      -2.584   0.254  -9.485  1.00  0.00     0.131 A 
ATOM     55  C   UNL     1      -3.251   0.823 -12.101  1.00  0.00     0.055 A 
ATOM     56  C   UNL     1      -3.899   0.072  -9.918  1.00  0.00     0.041 A 
ATOM     57  F   UNL     1      -2.325  -0.134  -8.226  1.00  0.00    -0.206 F 
ATOM     58  C   UNL     1      -4.237   0.350 -11.232  1.00  0.00     0.022 A 
BRANCH  55  59
ATOM     59  S   UNL     1      -3.717   1.114 -13.841  1.00  0.00     0.124 S 
ATOM     60  O   UNL     1      -3.565   2.559 -13.968  1.00  0.00    -0.237 OA
ATOM     61  O   UNL     1      -2.755   0.293 -14.567  1.00  0.00    -0.237 OA
ATOM     62  O   UNL     1      -5.100   0.637 -13.910  1.00  0.00    -0.744 OA
ENDBRANCH  55  59
ENDBRANCH  28  52
BRANCH  40  63
ATOM     63  C   UNL     1       4.757   1.382 -10.251  1.00  0.00     0.023 A 
ATOM     64  C   UNL     1       4.111   2.362  -9.460  1.00  0.00     0.031 A 
ATOM     65  C   UNL     1       5.956   1.751 -10.886  1.00  0.00     0.131 A 
ATOM     66  C   UNL     1       4.662   3.654  -9.343  1.00  0.00     0.055 A 
ATOM     67  C   UNL     1       6.511   3.023 -10.750  1.00  0.00     0.041 A 
ATOM     68  F   UNL     1       6.636   0.860 -11.628  1.00  0.00    -0.206 F 
ATOM     69  C   UNL     1       5.862   3.983  -9.982  1.00  0.00     0.022 A 
BRANCH  66  70
ATOM     70  S   UNL     1       3.823   4.943  -8.363  1.00  0.00     0.124 S 
ATOM     71  O   UNL     1       2.443   4.885  -8.829  1.00  0.00    -0.237 OA
ATOM     72  O   UNL     1       4.057   4.500  -6.991  1.00  0.00    -0.237 OA
ATOM     73  O   UNL     1       4.538   6.168  -8.730  1.00  0.00    -0.744 OA
ENDBRANCH  66  70
ENDBRANCH  40  63
ENDBRANCH  14  15
ENDBRANCH   7   9
ENDBRANCH   4   5
ENDBRANCH   3   4
ENDBRANCH   2   3
ENDBRANCH   1   2
BRANCH   1  74
ATOM     74  C   UNL     1       6.386   3.480   2.459  1.00  0.00     0.021 C 
BRANCH  74  75
ATOM     75  C   UNL     1       7.085   4.665   1.796  1.00  0.00     0.116 C 
BRANCH  75  76
ATOM     76  N   UNL     1       6.789   5.921   2.465  1.00  0.00    -0.352 N 
ATOM     77  C   UNL     1       7.625   6.748   3.174  1.00  0.00     0.251 C 
ATOM     78  H   UNL     1       5.854   6.223   2.401  1.00  0.00     0.163 HD
ATOM     79  O   UNL     1       7.186   7.698   3.808  1.00  0.00    -0.269 OA
BRANCH  77  80
ATOM     80  C   UNL     1       9.075   6.469   3.192  1.00  0.00     0.039 A 
ATOM     81  C   UNL     1       9.712   6.312   4.426  1.00  0.00     0.016 A 
ATOM     82  C   UNL     1       9.803   6.386   2.002  1.00  0.00     0.016 A 
ATOM     83  C   UNL     1      11.074   6.005   4.473  1.00  0.00     0.029 A 
ATOM     84  C   UNL     1      11.168   6.100   2.045  1.00  0.00     0.029 A 
ATOM     85  C   UNL     1      11.807   5.913   3.283  1.00  0.00     0.066 A 
BRANCH  85  86
ATOM     86  N   UNL     1      13.203   5.694   3.342  1.00  0.00    -0.220 N 
ATOM     87  C   UNL     1      14.124   5.957   2.364  1.00  0.00     0.141 A 
ATOM     88  N   UNL     1      13.841   5.202   4.431  1.00  0.00    -0.062 NA
ATOM     89  C   UNL     1      15.351   5.683   2.924  1.00  0.00     0.093 A 
ATOM     90  N   UNL     1      15.146   5.165   4.173  1.00  0.00    -0.134 NA
BRANCH  89  91
ATOM     91  C   UNL     1      16.679   5.703   2.277  1.00  0.00     0.138 C 
BRANCH  91  92
ATOM     92  S   UNL     1      17.825   7.070   2.474  1.00  0.00    -0.081 SA
BRANCH  92  93
ATOM     93  C   UNL     1      17.059   8.495   3.131  1.00  0.00     0.176 A 
ATOM     94  N   UNL     1      17.820   9.067   4.018  1.00  0.00    -0.223 NA
ATOM     95  N   UNL     1      15.822   9.021   2.770  1.00  0.00    -0.255 N 
ATOM     96  C   UNL     1      17.336  10.174   4.716  1.00  0.00     0.079 A 
ATOM     97  C   UNL     1      15.142   9.673   3.815  1.00  0.00     0.266 A 
ATOM     98  C   UNL     1      18.198  10.981   5.459  1.00  0.00     0.029 A 
ATOM     99  C   UNL     1      15.974  10.417   4.774  1.00  0.00     0.066 A 
ATOM    100  O   UNL     1      13.928   9.661   4.014  1.00  0.00    -0.268 OA
ATOM    101  C   UNL     1      17.686  11.968   6.309  1.00  0.00     0.002 A 
ATOM    102  C   UNL     1      15.442  11.365   5.656  1.00  0.00     0.016 A 
ATOM    103  C   UNL     1      16.306  12.134   6.436  1.00  0.00     0.001 A 
BRANCH  95 104
ATOM    104  C   UNL     1      15.166   8.930   1.471  1.00  0.00     0.051 A 
ATOM    105  C   UNL     1      13.960   9.620   1.226  1.00  0.00     0.028 A 
ATOM    106  C   UNL     1      15.667   8.208   0.379  1.00  0.00     0.028 A 
ATOM    107  C   UNL     1      13.187   9.406   0.077  1.00  0.00     0.018 A 
ATOM    108  C   UNL     1      14.879   7.934  -0.751  1.00  0.00     0.018 A 
ATOM    109  C   UNL     1      13.620   8.501  -0.875  1.00  0.00     0.018 A 
ATOM    110  Br  UNL     1      12.500   8.030  -2.315  1.00  0.00    -0.051 Br
ENDBRANCH  95 104
ENDBRANCH  92  93
ENDBRANCH  91  92
ENDBRANCH  89  91
ENDBRANCH  85  86
ENDBRANCH  77  80
ENDBRANCH  75  76
ENDBRANCH  74  75
ENDBRANCH   1  74
TORSDOF 21
