REMARK SMILES Cc1ccc(-c2c(C(=O)NCCCCCCNC(=O)c3ccc(-c4c5nc(c(-c6cc(S(=O)(=O)[O-])ccc6F)c6ccc([nH]6)c(-c6cc(S(=O)(=O)[O-])ccc6F)c6nc(c(-c7cc(S(=O)(=O)[O-])ccc7F)c7ccc4[nH]7)C=C6)C=C5)cc3)nnn2Cc2c(F)cccc2Cl)cc1
REMARK SMILES IDX 14 1 13 2 12 3 11 4 10 5 8 6 9 7 7 9 6 10 85 11 83 12 84 13
REMARK SMILES IDX 5 14 1 15 2 16 3 17 96 18 4 19 95 20 86 21 87 22 88 23 93 24
REMARK SMILES IDX 89 25 90 26 92 27 94 28 91 29 15 30 16 31 17 32 18 33 19 35
REMARK SMILES IDX 20 36 21 37 82 38 22 39 81 40 23 41 24 42 25 43 75 44 26 45
REMARK SMILES IDX 80 46 74 47 76 48 27 49 79 50 73 51 72 52 28 54 60 55 40 56
REMARK SMILES IDX 59 57 41 58 44 59 58 60 77 61 42 62 43 63 57 65 78 66 45 67
REMARK SMILES IDX 29 68 30 69 38 70 31 71 37 72 39 73 36 74 32 75 33 76 34 77
REMARK SMILES IDX 35 78 61 79 62 80 70 81 63 82 69 83 71 84 68 85 64 86 65 87
REMARK SMILES IDX 66 88 67 89 46 90 47 91 55 92 48 93 54 94 56 95 53 96 49 97
REMARK SMILES IDX 50 98 51 99 52 100
REMARK H PARENT 10 8 17 34 76 53 44 64
REMARK Flexibility Score: inf
ROOT
ATOM      1  C   UNL     1       0.141  -2.745   4.060  1.00  0.00     0.002 C 
ENDROOT
BRANCH   1   2
ATOM      2  C   UNL     1      -0.433  -1.505   4.758  1.00  0.00     0.002 C 
BRANCH   2   3
ATOM      3  C   UNL     1      -0.837  -0.301   3.905  1.00  0.00     0.021 C 
BRANCH   3   4
ATOM      4  C   UNL     1      -1.700  -0.556   2.677  1.00  0.00     0.116 C 
BRANCH   4   5
ATOM      5  N   UNL     1      -3.010  -1.091   2.922  1.00  0.00    -0.351 N 
ATOM      6  C   UNL     1      -4.146  -1.077   2.145  1.00  0.00     0.274 C 
ATOM      7  O   UNL     1      -5.117  -1.665   2.636  1.00  0.00    -0.267 OA
ATOM      8  H   UNL     1      -3.113  -1.544   3.791  1.00  0.00     0.163 HD
BRANCH   6   9
ATOM      9  C   UNL     1      -4.276  -0.415   0.832  1.00  0.00     0.178 A 
ATOM     10  C   UNL     1      -3.404   0.029  -0.170  1.00  0.00     0.102 A 
ATOM     11  N   UNL     1      -4.257   0.430  -1.183  1.00  0.00    -0.239 N 
ATOM     12  N   UNL     1      -5.573  -0.165   0.397  1.00  0.00    -0.124 NA
ATOM     13  N   UNL     1      -5.541   0.382  -0.801  1.00  0.00    -0.066 NA
BRANCH  10  14
ATOM     14  C   UNL     1      -1.958   0.062  -0.337  1.00  0.00     0.002 A 
ATOM     15  C   UNL     1       2.347   0.162  -0.566  1.00  0.00     0.044 C 
ATOM     16  C   UNL     1       0.847   0.142  -0.529  1.00  0.00    -0.051 A 
ATOM     17  C   UNL     1       0.161  -1.071  -0.658  1.00  0.00     0.004 A 
ATOM     18  C   UNL     1       0.118   1.322  -0.351  1.00  0.00     0.004 A 
ATOM     19  C   UNL     1      -1.233  -1.113  -0.561  1.00  0.00     0.011 A 
ATOM     20  C   UNL     1      -1.275   1.284  -0.265  1.00  0.00     0.011 A 
ENDBRANCH  10  14
BRANCH  11  21
ATOM     21  C   UNL     1      -3.967   0.921  -2.528  1.00  0.00     0.187 C 
BRANCH  21  22
ATOM     22  C   UNL     1      -3.048   0.068  -3.369  1.00  0.00     0.028 A 
ATOM     23  C   UNL     1      -2.100   0.735  -4.160  1.00  0.00     0.129 A 
ATOM     24  C   UNL     1      -3.095  -1.330  -3.477  1.00  0.00     0.049 A 
ATOM     25  F   UNL     1      -2.074   2.076  -4.173  1.00  0.00    -0.207 F 
ATOM     26  C   UNL     1      -1.184   0.056  -4.961  1.00  0.00     0.040 A 
ATOM     27  C   UNL     1      -2.154  -2.022  -4.253  1.00  0.00     0.021 A 
ATOM     28  Cl  UNL     1      -4.305  -2.293  -2.709  1.00  0.00    -0.084 Cl
ATOM     29  C   UNL     1      -1.194  -1.332  -4.989  1.00  0.00     0.005 A 
ENDBRANCH  21  22
ENDBRANCH  11  21
ENDBRANCH   6   9
ENDBRANCH   4   5
ENDBRANCH   3   4
ENDBRANCH   2   3
ENDBRANCH   1   2
BRANCH   1  30
ATOM     30  C   UNL     1       1.267  -2.532   3.049  1.00  0.00     0.021 C 
BRANCH  30  31
ATOM     31  C   UNL     1       2.507  -1.821   3.584  1.00  0.00     0.116 C 
BRANCH  31  32
ATOM     32  N   UNL     1       3.688  -2.683   3.649  1.00  0.00    -0.352 N 
ATOM     33  C   UNL     1       5.020  -2.316   3.804  1.00  0.00     0.251 C 
ATOM     34  H   UNL     1       3.517  -3.649   3.574  1.00  0.00     0.163 HD
ATOM     35  O   UNL     1       5.914  -3.125   3.900  1.00  0.00    -0.269 OA
BRANCH  33  36
ATOM     36  C   UNL     1       5.308  -0.870   3.955  1.00  0.00     0.039 A 
ATOM     37  C   UNL     1       5.786  -0.439   5.196  1.00  0.00     0.014 A 
ATOM     38  C   UNL     1       4.846   0.036   3.005  1.00  0.00     0.014 A 
ATOM     39  C   UNL     1       5.569   0.881   5.578  1.00  0.00     0.010 A 
ATOM     40  C   UNL     1       4.554   1.324   3.415  1.00  0.00     0.010 A 
ATOM     41  C   UNL     1       4.846   1.720   4.727  1.00  0.00    -0.014 A 
BRANCH  41  42
ATOM     42  C   UNL     1       4.213   2.946   5.205  1.00  0.00     0.031 A 
ATOM     43  C   UNL     1       4.775   4.270   4.879  1.00  0.00     0.074 A 
ATOM     44  C   UNL     1       3.106   2.872   5.977  1.00  0.00     0.049 A 
ATOM     45  N   UNL     1       4.643   5.321   5.617  1.00  0.00    -0.248 NA
ATOM     46  C   UNL     1       5.592   4.495   3.696  1.00  0.00     0.031 C 
ATOM     47  C   UNL     1       2.230   3.969   6.381  1.00  0.00     0.029 A 
ATOM     48  N   UNL     1       2.709   1.800   6.770  1.00  0.00    -0.354 N 
ATOM     49  C   UNL     1       5.093   6.402   4.894  1.00  0.00     0.074 A 
ATOM     50  C   UNL     1       5.746   5.822   3.742  1.00  0.00     0.031 C 
ATOM     51  C   UNL     1       1.581   3.612   7.500  1.00  0.00     0.029 A 
ATOM     52  C   UNL     1       2.112   2.329   7.925  1.00  0.00     0.049 A 
ATOM     53  H   UNL     1       2.825   0.845   6.560  1.00  0.00     0.167 HD
ATOM     54  C   UNL     1       4.737   7.664   5.276  1.00  0.00     0.034 A 
ATOM     55  C   UNL     1       2.609   2.056   9.165  1.00  0.00     0.034 A 
ATOM     56  C   UNL     1       3.976   7.658   6.528  1.00  0.00     0.049 A 
ATOM     57  C   UNL     1       3.056   3.283   9.929  1.00  0.00     0.074 A 
ATOM     58  C   UNL     1       2.624   7.777   6.808  1.00  0.00     0.029 A 
ATOM     59  N   UNL     1       4.585   7.249   7.710  1.00  0.00    -0.354 N 
ATOM     60  N   UNL     1       3.255   4.455   9.391  1.00  0.00    -0.248 NA
ATOM     61  C   UNL     1       3.340   3.273  11.360  1.00  0.00     0.031 C 
ATOM     62  C   UNL     1       2.416   7.383   8.155  1.00  0.00     0.029 A 
ATOM     63  C   UNL     1       3.643   7.054   8.704  1.00  0.00     0.049 A 
ATOM     64  H   UNL     1       5.554   7.117   7.824  1.00  0.00     0.167 HD
ATOM     65  C   UNL     1       3.705   5.333  10.349  1.00  0.00     0.074 A 
ATOM     66  C   UNL     1       3.709   4.548  11.571  1.00  0.00     0.031 C 
ATOM     67  C   UNL     1       4.043   6.624  10.040  1.00  0.00     0.034 A 
BRANCH  54  68
ATOM     68  C   UNL     1       4.793   8.867   4.351  1.00  0.00     0.023 A 
ATOM     69  C   UNL     1       3.856   9.911   4.514  1.00  0.00     0.031 A 
ATOM     70  C   UNL     1       5.679   9.027   3.268  1.00  0.00     0.131 A 
ATOM     71  C   UNL     1       3.740  10.953   3.574  1.00  0.00     0.055 A 
ATOM     72  C   UNL     1       5.524  10.026   2.296  1.00  0.00     0.041 A 
ATOM     73  F   UNL     1       6.770   8.264   3.133  1.00  0.00    -0.206 F 
ATOM     74  C   UNL     1       4.537  10.988   2.436  1.00  0.00     0.022 A 
BRANCH  71  75
ATOM     75  S   UNL     1       2.528  12.273   3.859  1.00  0.00     0.124 S 
ATOM     76  O   UNL     1       1.272  11.534   3.921  1.00  0.00    -0.237 OA
ATOM     77  O   UNL     1       2.998  12.858   5.110  1.00  0.00    -0.237 OA
ATOM     78  O   UNL     1       2.680  13.132   2.685  1.00  0.00    -0.744 OA
ENDBRANCH  71  75
ENDBRANCH  54  68
BRANCH  55  79
ATOM     79  C   UNL     1       3.223   0.703   9.276  1.00  0.00     0.023 A 
ATOM     80  C   UNL     1       2.393  -0.415   9.037  1.00  0.00     0.031 A 
ATOM     81  C   UNL     1       4.610   0.514   9.233  1.00  0.00     0.131 A 
ATOM     82  C   UNL     1       2.951  -1.634   8.629  1.00  0.00     0.055 A 
ATOM     83  C   UNL     1       5.165  -0.721   8.872  1.00  0.00     0.041 A 
ATOM     84  F   UNL     1       5.447   1.546   9.415  1.00  0.00    -0.206 F 
ATOM     85  C   UNL     1       4.335  -1.788   8.528  1.00  0.00     0.022 A 
BRANCH  82  86
ATOM     86  S   UNL     1       1.876  -2.962   8.008  1.00  0.00     0.124 S 
ATOM     87  O   UNL     1       1.937  -3.937   9.091  1.00  0.00    -0.237 OA
ATOM     88  O   UNL     1       0.588  -2.299   7.829  1.00  0.00    -0.237 OA
ATOM     89  O   UNL     1       2.534  -3.352   6.763  1.00  0.00    -0.744 OA
ENDBRANCH  82  86
ENDBRANCH  55  79
BRANCH  67  90
ATOM     90  C   UNL     1       4.695   7.636  10.970  1.00  0.00     0.023 A 
ATOM     91  C   UNL     1       5.303   7.303  12.191  1.00  0.00     0.031 A 
ATOM     92  C   UNL     1       4.777   9.006  10.610  1.00  0.00     0.131 A 
ATOM     93  C   UNL     1       5.870   8.290  13.022  1.00  0.00     0.055 A 
ATOM     94  C   UNL     1       5.407   9.973  11.401  1.00  0.00     0.041 A 
ATOM     95  F   UNL     1       4.256   9.470   9.464  1.00  0.00    -0.206 F 
ATOM     96  C   UNL     1       5.945   9.622  12.627  1.00  0.00     0.022 A 
BRANCH  93  97
ATOM     97  S   UNL     1       6.463   7.798  14.663  1.00  0.00     0.124 S 
ATOM     98  O   UNL     1       5.229   7.359  15.309  1.00  0.00    -0.237 OA
ATOM     99  O   UNL     1       7.422   6.744  14.347  1.00  0.00    -0.237 OA
ATOM    100  O   UNL     1       7.045   9.024  15.204  1.00  0.00    -0.744 OA
ENDBRANCH  93  97
ENDBRANCH  67  90
ENDBRANCH  41  42
ENDBRANCH  33  36
ENDBRANCH  31  32
ENDBRANCH  30  31
ENDBRANCH   1  30
TORSDOF 19
