REMARK SMILES COc1cc(Cl)ccc1S(=O)(=O)Nc1cccc(C(=O)NCCCCCCNC(=O)c2ccc(-c3c4nc(c(-c5cc(S(=O)(=O)[O-])ccc5F)c5ccc([nH]5)c(-c5cc(S(=O)(=O)[O-])ccc5F)c5nc(c(-c6cc(S(=O)(=O)[O-])ccc6F)c6ccc3[nH]6)C=C5)C=C4)cc2)c1
REMARK SMILES IDX 24 1 23 2 22 3 21 4 19 5 20 6 18 8 14 9 15 10 94 11 16 12
REMARK SMILES IDX 17 13 13 14 10 16 11 17 12 18 9 19 3 20 4 21 5 22 8 23 6 24
REMARK SMILES IDX 7 25 2 26 1 27 25 28 26 29 27 30 28 31 29 32 30 34 31 35
REMARK SMILES IDX 32 36 93 37 33 38 92 39 34 40 35 41 36 42 86 43 37 44 91 45
REMARK SMILES IDX 85 46 87 47 38 48 90 49 84 50 83 51 39 53 71 54 51 55 70 56
REMARK SMILES IDX 52 57 55 58 69 59 88 60 53 61 54 62 68 64 89 65 56 66 40 67
REMARK SMILES IDX 41 68 49 69 42 70 48 71 50 72 47 73 43 74 44 75 45 76 46 77
REMARK SMILES IDX 72 78 73 79 81 80 74 81 80 82 82 83 79 84 75 85 76 86 77 87
REMARK SMILES IDX 78 88 57 89 58 90 66 91 59 92 65 93 67 94 64 95 60 96 61 97
REMARK SMILES IDX 62 98 63 99
REMARK H PARENT 21 7 13 15 28 33 87 52 55 63
REMARK Flexibility Score: inf
ROOT
ATOM      1  C   UNL     1       0.263   5.252  -1.476  1.00  0.00     0.002 C 
ENDROOT
BRANCH   1   2
ATOM      2  C   UNL     1      -0.246   3.822  -1.264  1.00  0.00     0.021 C 
BRANCH   2   3
ATOM      3  C   UNL     1       0.900   2.825  -1.094  1.00  0.00     0.116 C 
BRANCH   3   4
ATOM      4  N   UNL     1       1.280   2.738   0.305  1.00  0.00    -0.352 N 
ATOM      5  C   UNL     1       0.955   1.871   1.316  1.00  0.00     0.251 C 
ATOM      6  O   UNL     1       1.413   2.117   2.434  1.00  0.00    -0.269 OA
ATOM      7  H   UNL     1       1.901   3.449   0.585  1.00  0.00     0.163 HD
BRANCH   5   8
ATOM      8  C   UNL     1       0.185   0.609   1.118  1.00  0.00     0.041 A 
ATOM      9  C   UNL     1      -1.117  -0.936  -0.213  1.00  0.00     0.050 A 
ATOM     10  C   UNL     1      -0.883  -1.947   0.724  1.00  0.00     0.027 A 
ATOM     11  C   UNL     1      -0.688   0.364   0.056  1.00  0.00     0.040 A 
ATOM     12  C   UNL     1      -0.130  -1.687   1.865  1.00  0.00     0.003 A 
ATOM     13  C   UNL     1       0.432  -0.424   2.039  1.00  0.00     0.014 A 
BRANCH   9  14
ATOM     14  N   UNL     1      -1.711  -1.334  -1.440  1.00  0.00    -0.279 N 
ATOM     15  H   UNL     1      -2.136  -2.222  -1.452  1.00  0.00     0.180 HD
BRANCH  14  16
ATOM     16  S   UNL     1      -1.769  -0.466  -2.860  1.00  0.00     0.265 S 
ATOM     17  O   UNL     1      -2.362   0.827  -2.567  1.00  0.00    -0.201 OA
ATOM     18  O   UNL     1      -2.381  -1.359  -3.817  1.00  0.00    -0.201 OA
BRANCH  16  19
ATOM     19  C   UNL     1      -0.142  -0.111  -3.507  1.00  0.00     0.129 A 
ATOM     20  C   UNL     1       1.082  -0.533  -2.976  1.00  0.00     0.140 A 
ATOM     21  C   UNL     1       2.269  -0.051  -3.561  1.00  0.00     0.068 A 
ATOM     22  C   UNL     1       2.236   0.816  -4.654  1.00  0.00     0.044 A 
ATOM     23  C   UNL     1      -0.159   0.744  -4.632  1.00  0.00     0.028 A 
ATOM     24  Cl  UNL     1       3.710   1.406  -5.317  1.00  0.00    -0.084 Cl
ATOM     25  C   UNL     1       1.026   1.203  -5.206  1.00  0.00     0.022 A 
BRANCH  20  26
ATOM     26  O   UNL     1       1.108  -1.428  -1.945  1.00  0.00    -0.495 OA
ATOM     27  C   UNL     1       2.278  -1.431  -1.126  1.00  0.00     0.278 C 
ENDBRANCH  20  26
ENDBRANCH  16  19
ENDBRANCH  14  16
ENDBRANCH   9  14
ENDBRANCH   5   8
ENDBRANCH   3   4
ENDBRANCH   2   3
ENDBRANCH   1   2
BRANCH   1  28
ATOM     28  C   UNL     1       0.889   5.495  -2.855  1.00  0.00     0.002 C 
BRANCH  28  29
ATOM     29  C   UNL     1      -0.043   5.249  -4.046  1.00  0.00     0.021 C 
BRANCH  29  30
ATOM     30  C   UNL     1      -1.342   6.049  -4.018  1.00  0.00     0.116 C 
BRANCH  30  31
ATOM     31  N   UNL     1      -1.097   7.482  -4.048  1.00  0.00    -0.352 N 
ATOM     32  C   UNL     1      -1.647   8.437  -4.867  1.00  0.00     0.251 C 
ATOM     33  H   UNL     1      -0.446   7.815  -3.389  1.00  0.00     0.163 HD
ATOM     34  O   UNL     1      -1.176   9.569  -4.890  1.00  0.00    -0.269 OA
BRANCH  32  35
ATOM     35  C   UNL     1      -2.792   8.083  -5.734  1.00  0.00     0.039 A 
ATOM     36  C   UNL     1      -2.777   8.482  -7.074  1.00  0.00     0.014 A 
ATOM     37  C   UNL     1      -3.877   7.364  -5.224  1.00  0.00     0.014 A 
ATOM     38  C   UNL     1      -3.826   8.110  -7.917  1.00  0.00     0.010 A 
ATOM     39  C   UNL     1      -4.891   6.944  -6.080  1.00  0.00     0.010 A 
ATOM     40  C   UNL     1      -4.877   7.315  -7.433  1.00  0.00    -0.014 A 
BRANCH  40  41
ATOM     41  C   UNL     1      -5.985   6.875  -8.318  1.00  0.00     0.031 A 
ATOM     42  C   UNL     1      -7.381   7.379  -8.076  1.00  0.00     0.074 A 
ATOM     43  C   UNL     1      -5.748   5.975  -9.291  1.00  0.00     0.049 A 
ATOM     44  N   UNL     1      -8.499   7.042  -8.664  1.00  0.00    -0.248 NA
ATOM     45  C   UNL     1      -7.537   8.373  -7.005  1.00  0.00     0.031 C 
ATOM     46  C   UNL     1      -4.441   5.395  -9.605  1.00  0.00     0.029 A 
ATOM     47  N   UNL     1      -6.599   5.381 -10.188  1.00  0.00    -0.354 N 
ATOM     48  C   UNL     1      -9.496   7.774  -8.028  1.00  0.00     0.074 A 
ATOM     49  C   UNL     1      -8.852   8.521  -6.968  1.00  0.00     0.031 C 
ATOM     50  C   UNL     1      -4.575   4.544 -10.636  1.00  0.00     0.029 A 
ATOM     51  C   UNL     1      -5.980   4.484 -11.026  1.00  0.00     0.049 A 
ATOM     52  H   UNL     1      -7.562   5.579 -10.228  1.00  0.00     0.167 HD
ATOM     53  C   UNL     1     -10.821   7.834  -8.316  1.00  0.00     0.034 A 
ATOM     54  C   UNL     1      -6.490   3.694 -11.991  1.00  0.00     0.034 A 
ATOM     55  C   UNL     1     -11.445   7.083  -9.378  1.00  0.00     0.049 A 
ATOM     56  C   UNL     1      -7.970   3.743 -12.267  1.00  0.00     0.074 A 
ATOM     57  C   UNL     1     -12.768   7.093  -9.785  1.00  0.00     0.029 A 
ATOM     58  N   UNL     1     -10.787   6.176 -10.201  1.00  0.00    -0.354 N 
ATOM     59  N   UNL     1      -8.898   4.461 -11.677  1.00  0.00    -0.248 NA
ATOM     60  C   UNL     1      -8.470   2.879 -13.344  1.00  0.00     0.031 C 
ATOM     61  C   UNL     1     -12.921   6.154 -10.812  1.00  0.00     0.029 A 
ATOM     62  C   UNL     1     -11.681   5.604 -11.094  1.00  0.00     0.049 A 
ATOM     63  H   UNL     1      -9.825   5.970 -10.156  1.00  0.00     0.167 HD
ATOM     64  C   UNL     1     -10.087   4.157 -12.333  1.00  0.00     0.074 A 
ATOM     65  C   UNL     1      -9.756   3.196 -13.366  1.00  0.00     0.031 C 
ATOM     66  C   UNL     1     -11.337   4.637 -12.110  1.00  0.00     0.034 A 
BRANCH  53  67
ATOM     67  C   UNL     1     -11.673   8.724  -7.441  1.00  0.00     0.023 A 
ATOM     68  C   UNL     1     -11.451  10.111  -7.366  1.00  0.00     0.031 A 
ATOM     69  C   UNL     1     -12.678   8.176  -6.624  1.00  0.00     0.131 A 
ATOM     70  C   UNL     1     -12.151  10.885  -6.429  1.00  0.00     0.055 A 
ATOM     71  C   UNL     1     -13.434   8.968  -5.756  1.00  0.00     0.041 A 
ATOM     72  F   UNL     1     -12.926   6.857  -6.636  1.00  0.00    -0.206 F 
ATOM     73  C   UNL     1     -13.159  10.327  -5.640  1.00  0.00     0.022 A 
BRANCH  70  74
ATOM     74  S   UNL     1     -11.603  12.589  -6.135  1.00  0.00     0.124 S 
ATOM     75  O   UNL     1     -10.209  12.388  -5.748  1.00  0.00    -0.237 OA
ATOM     76  O   UNL     1     -11.822  13.219  -7.432  1.00  0.00    -0.237 OA
ATOM     77  O   UNL     1     -12.480  13.051  -5.061  1.00  0.00    -0.744 OA
ENDBRANCH  70  74
ENDBRANCH  53  67
BRANCH  54  78
ATOM     78  C   UNL     1      -5.600   2.788 -12.767  1.00  0.00     0.023 A 
ATOM     79  C   UNL     1      -5.367   3.008 -14.133  1.00  0.00     0.031 A 
ATOM     80  C   UNL     1      -4.990   1.675 -12.162  1.00  0.00     0.131 A 
ATOM     81  C   UNL     1      -4.573   2.108 -14.861  1.00  0.00     0.055 A 
ATOM     82  C   UNL     1      -4.166   0.807 -12.880  1.00  0.00     0.041 A 
ATOM     83  F   UNL     1      -5.174   1.427 -10.855  1.00  0.00    -0.206 F 
ATOM     84  C   UNL     1      -3.962   1.016 -14.240  1.00  0.00     0.022 A 
BRANCH  81  85
ATOM     85  S   UNL     1      -4.394   2.357 -16.648  1.00  0.00     0.124 S 
ATOM     86  O   UNL     1      -5.778   2.264 -17.101  1.00  0.00    -0.237 OA
ATOM     87  O   UNL     1      -3.785   3.681 -16.711  1.00  0.00    -0.237 OA
ATOM     88  O   UNL     1      -3.527   1.254 -17.059  1.00  0.00    -0.744 OA
ENDBRANCH  81  85
ENDBRANCH  54  78
BRANCH  66  89
ATOM     89  C   UNL     1     -12.425   4.160 -13.038  1.00  0.00     0.023 A 
ATOM     90  C   UNL     1     -12.891   2.834 -13.014  1.00  0.00     0.031 A 
ATOM     91  C   UNL     1     -12.994   5.048 -13.968  1.00  0.00     0.131 A 
ATOM     92  C   UNL     1     -13.863   2.420 -13.938  1.00  0.00     0.055 A 
ATOM     93  C   UNL     1     -13.998   4.644 -14.849  1.00  0.00     0.041 A 
ATOM     94  F   UNL     1     -12.584   6.324 -14.033  1.00  0.00    -0.206 F 
ATOM     95  C   UNL     1     -14.430   3.321 -14.845  1.00  0.00     0.022 A 
BRANCH  92  96
ATOM     96  S   UNL     1     -14.327   0.667 -13.991  1.00  0.00     0.124 S 
ATOM     97  O   UNL     1     -13.055   0.026 -14.305  1.00  0.00    -0.237 OA
ATOM     98  O   UNL     1     -14.842   0.439 -12.645  1.00  0.00    -0.237 OA
ATOM     99  O   UNL     1     -15.329   0.609 -15.055  1.00  0.00    -0.744 OA
ENDBRANCH  92  96
ENDBRANCH  66  89
ENDBRANCH  40  41
ENDBRANCH  32  35
ENDBRANCH  30  31
ENDBRANCH  29  30
ENDBRANCH  28  29
ENDBRANCH   1  28
TORSDOF 20
