REMARK SMILES C[NH+]1CCN(c2nc3c(cc2F)c(=O)c(C(=O)NCCCCCCNC(=O)c2ccc(-c4c5nc(c(-c6cc(S(=O)(=O)[O-])ccc6F)c6ccc([nH]6)c(-c6cc(S(=O)(=O)[O-])ccc6F)c6nc(c(-c7cc(S(=O)(=O)[O-])ccc7F)c7ccc4[nH]7)C=C6)C=C5)cc2)cn3-c2ccc(F)cc2F)CC1
REMARK SMILES IDX 22 1 21 2 20 3 19 4 18 5 16 6 17 7 15 9 6 10 7 11 11 12 8 13
REMARK SMILES IDX 10 14 12 15 9 16 92 17 13 18 91 19 14 20 5 21 1 22 2 23 3 24
REMARK SMILES IDX 102 25 4 27 101 28 93 29 94 30 99 31 95 32 98 33 100 34
REMARK SMILES IDX 96 35 97 36 23 37 24 38 25 39 26 40 27 42 28 43 29 44 90 45
REMARK SMILES IDX 30 46 89 47 31 48 32 49 33 50 83 51 34 52 88 53 82 54 84 55
REMARK SMILES IDX 35 56 87 57 81 58 80 59 36 61 68 62 48 63 67 64 49 65 52 66
REMARK SMILES IDX 66 67 85 68 50 69 51 70 65 72 86 73 53 74 37 75 38 76 46 77
REMARK SMILES IDX 39 78 45 79 47 80 44 81 40 82 41 83 42 84 43 85 69 86 70 87
REMARK SMILES IDX 78 88 71 89 77 90 79 91 76 92 72 93 73 94 74 95 75 96 54 97
REMARK SMILES IDX 55 98 63 99 56 100 62 101 64 102 61 103 57 104 58 105 59 106
REMARK SMILES IDX 60 107
REMARK H PARENT 18 8 2 26 25 41 84 60 52 71
REMARK Flexibility Score: inf
ROOT
ATOM      1  C   UNL     1     -10.167  -1.802   7.241  1.00  0.00     0.002 C 
ENDROOT
BRANCH   1   2
ATOM      2  C   UNL     1      -9.805  -0.390   6.765  1.00  0.00     0.002 C 
BRANCH   2   3
ATOM      3  C   UNL     1      -8.618  -0.321   5.798  1.00  0.00     0.021 C 
BRANCH   3   4
ATOM      4  C   UNL     1      -8.886  -0.985   4.446  1.00  0.00     0.116 C 
BRANCH   4   5
ATOM      5  N   UNL     1      -9.578  -0.069   3.557  1.00  0.00    -0.352 N 
ATOM      6  C   UNL     1      -9.135   0.737   2.557  1.00  0.00     0.256 C 
ATOM      7  O   UNL     1      -9.988   1.425   1.986  1.00  0.00    -0.269 OA
ATOM      8  H   UNL     1     -10.549  -0.022   3.707  1.00  0.00     0.163 HD
BRANCH   6   9
ATOM      9  C   UNL     1      -7.724   0.752   2.082  1.00  0.00     0.104 A 
ATOM     10  C   UNL     1      -2.929  -0.088   0.640  1.00  0.00     0.167 A 
ATOM     11  N   UNL     1      -3.978   0.566   0.080  1.00  0.00    -0.209 NA
ATOM     12  C   UNL     1      -3.034  -0.663   1.910  1.00  0.00     0.166 A 
ATOM     13  C   UNL     1      -5.155   0.646   0.753  1.00  0.00     0.151 A 
ATOM     14  C   UNL     1      -4.200  -0.519   2.642  1.00  0.00     0.059 A 
ATOM     15  F   UNL     1      -1.991  -1.293   2.471  1.00  0.00    -0.203 F 
ATOM     16  C   UNL     1      -5.267   0.156   2.056  1.00  0.00     0.069 A 
ATOM     17  N   UNL     1      -6.307   1.242   0.141  1.00  0.00    -0.297 N 
ATOM     18  C   UNL     1      -6.492   0.423   2.829  1.00  0.00     0.203 A 
ATOM     19  C   UNL     1      -7.519   1.181   0.823  1.00  0.00     0.111 A 
ATOM     20  O   UNL     1      -6.423   0.421   4.051  1.00  0.00    -0.288 OA
BRANCH  10  21
ATOM     21  N   UNL     1      -1.760  -0.119  -0.074  1.00  0.00    -0.343 N 
ATOM     22  C   UNL     1       2.477   0.090   0.142  1.00  0.00     0.332 C 
ATOM     23  N   UNL     1       1.113   0.001  -0.374  1.00  0.00    -0.334 N 
ATOM     24  C   UNL     1       0.323   1.193   0.016  1.00  0.00     0.283 C 
ATOM     25  C   UNL     1       0.447  -1.215   0.160  1.00  0.00     0.283 C 
ATOM     26  H   UNL     1       1.162  -0.049  -1.392  1.00  0.00     0.347 HD
ATOM     27  C   UNL     1      -1.141   1.133  -0.493  1.00  0.00     0.179 C 
ATOM     28  C   UNL     1      -1.015  -1.351  -0.316  1.00  0.00     0.179 C 
ENDBRANCH  10  21
BRANCH  17  29
ATOM     29  C   UNL     1      -6.269   1.809  -1.169  1.00  0.00     0.083 A 
ATOM     30  C   UNL     1      -5.846   1.052  -2.274  1.00  0.00     0.033 A 
ATOM     31  C   UNL     1      -6.663   3.141  -1.393  1.00  0.00     0.150 A 
ATOM     32  C   UNL     1      -5.828   1.611  -3.555  1.00  0.00     0.041 A 
ATOM     33  C   UNL     1      -6.633   3.709  -2.662  1.00  0.00     0.080 A 
ATOM     34  F   UNL     1      -7.060   3.906  -0.364  1.00  0.00    -0.205 F 
ATOM     35  C   UNL     1      -6.217   2.934  -3.734  1.00  0.00     0.126 A 
ATOM     36  F   UNL     1      -6.190   3.469  -4.962  1.00  0.00    -0.207 F 
ENDBRANCH  17  29
ENDBRANCH   6   9
ENDBRANCH   4   5
ENDBRANCH   3   4
ENDBRANCH   2   3
ENDBRANCH   1   2
BRANCH   1  37
ATOM     37  C   UNL     1      -9.014  -2.596   7.862  1.00  0.00     0.021 C 
BRANCH  37  38
ATOM     38  C   UNL     1      -8.384  -1.937   9.086  1.00  0.00     0.116 C 
BRANCH  38  39
ATOM     39  N   UNL     1      -9.321  -1.887  10.199  1.00  0.00    -0.352 N 
ATOM     40  C   UNL     1      -9.239  -2.520  11.413  1.00  0.00     0.251 C 
ATOM     41  H   UNL     1     -10.117  -1.324  10.063  1.00  0.00     0.163 HD
ATOM     42  O   UNL     1     -10.219  -2.587  12.150  1.00  0.00    -0.269 OA
BRANCH  40  43
ATOM     43  C   UNL     1      -7.956  -3.123  11.824  1.00  0.00     0.039 A 
ATOM     44  C   UNL     1      -7.930  -4.448  12.265  1.00  0.00     0.014 A 
ATOM     45  C   UNL     1      -6.781  -2.366  11.772  1.00  0.00     0.014 A 
ATOM     46  C   UNL     1      -6.712  -5.030  12.618  1.00  0.00     0.010 A 
ATOM     47  C   UNL     1      -5.562  -2.962  12.079  1.00  0.00     0.010 A 
ATOM     48  C   UNL     1      -5.519  -4.295  12.515  1.00  0.00    -0.014 A 
BRANCH  48  49
ATOM     49  C   UNL     1      -4.216  -4.896  12.884  1.00  0.00     0.031 A 
ATOM     50  C   UNL     1      -3.503  -4.425  14.119  1.00  0.00     0.074 A 
ATOM     51  C   UNL     1      -3.653  -5.817  12.081  1.00  0.00     0.049 A 
ATOM     52  N   UNL     1      -2.348  -4.806  14.597  1.00  0.00    -0.248 NA
ATOM     53  C   UNL     1      -4.166  -3.376  14.912  1.00  0.00     0.031 C 
ATOM     54  C   UNL     1      -4.235  -6.313  10.834  1.00  0.00     0.029 A 
ATOM     55  N   UNL     1      -2.461  -6.490  12.184  1.00  0.00    -0.354 N 
ATOM     56  C   UNL     1      -2.144  -4.046  15.742  1.00  0.00     0.074 A 
ATOM     57  C   UNL     1      -3.268  -3.144  15.858  1.00  0.00     0.031 C 
ATOM     58  C   UNL     1      -3.405  -7.219  10.293  1.00  0.00     0.029 A 
ATOM     59  C   UNL     1      -2.220  -7.351  11.140  1.00  0.00     0.049 A 
ATOM     60  H   UNL     1      -1.837  -6.368  12.936  1.00  0.00     0.167 HD
ATOM     61  C   UNL     1      -1.125  -4.115  16.629  1.00  0.00     0.034 A 
ATOM     62  C   UNL     1      -1.167  -8.156  10.892  1.00  0.00     0.034 A 
ATOM     63  C   UNL     1      -0.021  -5.030  16.510  1.00  0.00     0.049 A 
ATOM     64  C   UNL     1      -0.042  -8.217  11.895  1.00  0.00     0.074 A 
ATOM     65  C   UNL     1       1.031  -5.217  17.389  1.00  0.00     0.029 A 
ATOM     66  N   UNL     1       0.176  -5.907  15.455  1.00  0.00    -0.354 N 
ATOM     67  N   UNL     1       0.088  -7.564  13.025  1.00  0.00    -0.248 NA
ATOM     68  C   UNL     1       1.071  -9.132  11.602  1.00  0.00     0.031 C 
ATOM     69  C   UNL     1       1.886  -6.176  16.845  1.00  0.00     0.029 A 
ATOM     70  C   UNL     1       1.343  -6.625  15.651  1.00  0.00     0.049 A 
ATOM     71  H   UNL     1      -0.425  -6.005  14.681  1.00  0.00     0.167 HD
ATOM     72  C   UNL     1       1.280  -8.007  13.591  1.00  0.00     0.074 A 
ATOM     73  C   UNL     1       1.827  -8.995  12.684  1.00  0.00     0.031 C 
ATOM     74  C   UNL     1       1.867  -7.626  14.753  1.00  0.00     0.034 A 
BRANCH  61  75
ATOM     75  C   UNL     1      -1.159  -3.208  17.829  1.00  0.00     0.023 A 
ATOM     76  C   UNL     1      -0.180  -2.212  17.992  1.00  0.00     0.031 A 
ATOM     77  C   UNL     1      -2.094  -3.404  18.861  1.00  0.00     0.131 A 
ATOM     78  C   UNL     1      -0.142  -1.466  19.177  1.00  0.00     0.055 A 
ATOM     79  C   UNL     1      -2.073  -2.635  20.024  1.00  0.00     0.041 A 
ATOM     80  F   UNL     1      -3.049  -4.342  18.746  1.00  0.00    -0.206 F 
ATOM     81  C   UNL     1      -1.087  -1.667  20.189  1.00  0.00     0.022 A 
BRANCH  78  82
ATOM     82  S   UNL     1       1.152  -0.229  19.463  1.00  0.00     0.124 S 
ATOM     83  O   UNL     1       0.367   0.958  19.796  1.00  0.00    -0.237 OA
ATOM     84  O   UNL     1       1.895  -0.818  20.573  1.00  0.00    -0.237 OA
ATOM     85  O   UNL     1       1.861  -0.163  18.190  1.00  0.00    -0.744 OA
ENDBRANCH  78  82
ENDBRANCH  61  75
BRANCH  62  86
ATOM     86  C   UNL     1      -1.180  -9.016   9.675  1.00  0.00     0.023 A 
ATOM     87  C   UNL     1      -1.144  -8.454   8.386  1.00  0.00     0.031 A 
ATOM     88  C   UNL     1      -1.331 -10.408   9.789  1.00  0.00     0.131 A 
ATOM     89  C   UNL     1      -1.310  -9.277   7.264  1.00  0.00     0.055 A 
ATOM     90  C   UNL     1      -1.438 -11.231   8.666  1.00  0.00     0.041 A 
ATOM     91  F   UNL     1      -1.383 -10.985  10.999  1.00  0.00    -0.206 F 
ATOM     92  C   UNL     1      -1.440 -10.664   7.396  1.00  0.00     0.022 A 
BRANCH  89  93
ATOM     93  S   UNL     1      -1.456  -8.567   5.601  1.00  0.00     0.124 S 
ATOM     94  O   UNL     1      -0.428  -9.295   4.863  1.00  0.00    -0.237 OA
ATOM     95  O   UNL     1      -2.835  -8.901   5.256  1.00  0.00    -0.237 OA
ATOM     96  O   UNL     1      -1.193  -7.146   5.807  1.00  0.00    -0.744 OA
ENDBRANCH  89  93
ENDBRANCH  62  86
BRANCH  74  97
ATOM     97  C   UNL     1       3.170  -8.271  15.151  1.00  0.00     0.023 A 
ATOM     98  C   UNL     1       3.232  -9.069  16.309  1.00  0.00     0.031 A 
ATOM     99  C   UNL     1       4.369  -7.960  14.488  1.00  0.00     0.131 A 
ATOM    100  C   UNL     1       4.474  -9.494  16.795  1.00  0.00     0.055 A 
ATOM    101  C   UNL     1       5.601  -8.420  14.954  1.00  0.00     0.041 A 
ATOM    102  F   UNL     1       4.358  -7.193  13.386  1.00  0.00    -0.206 F 
ATOM    103  C   UNL     1       5.658  -9.179  16.120  1.00  0.00     0.022 A 
BRANCH 100 104
ATOM    104  S   UNL     1       4.606 -10.405  18.358  1.00  0.00     0.124 S 
ATOM    105  O   UNL     1       5.321 -11.611  17.947  1.00  0.00    -0.237 OA
ATOM    106  O   UNL     1       5.370  -9.479  19.189  1.00  0.00    -0.237 OA
ATOM    107  O   UNL     1       3.219 -10.616  18.761  1.00  0.00    -0.744 OA
ENDBRANCH 100 104
ENDBRANCH  74  97
ENDBRANCH  48  49
ENDBRANCH  40  43
ENDBRANCH  38  39
ENDBRANCH  37  38
ENDBRANCH   1  37
TORSDOF 18
