REMARK SMILES COc1ccc(NS(=O)(=O)c2ccc(Cl)c(C(=O)NCCCCCCNC(=O)c3ccc(-c4c5nc(c(-c6cc(S(=O)(=O)[O-])ccc6F)c6ccc([nH]6)c(-c6cc(S(=O)(=O)[O-])ccc6F)c6nc(c(-c7cc(S(=O)(=O)[O-])ccc7F)c7ccc4[nH]7)C=C6)C=C5)cc3)c2)cc1Cl
REMARK SMILES IDX 22 1 21 2 20 3 19 4 17 5 18 6 16 8 11 9 12 10 92 11 13 12
REMARK SMILES IDX 14 13 15 14 8 15 9 16 10 17 7 18 6 20 3 21 4 22 94 23 5 24
REMARK SMILES IDX 93 25 95 26 2 27 1 28 23 29 24 30 25 31 26 32 27 33 28 35
REMARK SMILES IDX 29 36 30 37 91 38 31 39 90 40 32 41 33 42 34 43 84 44 35 45
REMARK SMILES IDX 89 46 83 47 85 48 36 49 88 50 82 51 81 52 37 54 69 55 49 56
REMARK SMILES IDX 68 57 50 58 53 59 67 60 86 61 51 62 52 63 66 65 87 66 54 67
REMARK SMILES IDX 38 68 39 69 47 70 40 71 46 72 48 73 45 74 41 75 42 76 43 77
REMARK SMILES IDX 44 78 70 79 71 80 79 81 72 82 78 83 80 84 77 85 73 86 74 87
REMARK SMILES IDX 75 88 76 89 55 90 56 91 64 92 57 93 63 94 65 95 62 96 58 97
REMARK SMILES IDX 59 98 60 99 61 100
REMARK H PARENT 19 7 7 19 26 34 85 53 53 64
REMARK Flexibility Score: inf
ROOT
ATOM      1  C   UNL     1      -6.435  -2.847  -5.960  1.00  0.00     0.002 C 
ENDROOT
BRANCH   1   2
ATOM      2  C   UNL     1      -6.138  -1.446  -6.499  1.00  0.00     0.021 C 
BRANCH   2   3
ATOM      3  C   UNL     1      -5.167  -0.603  -5.688  1.00  0.00     0.116 C 
BRANCH   3   4
ATOM      4  N   UNL     1      -3.814  -1.110  -5.662  1.00  0.00    -0.352 N 
ATOM      5  C   UNL     1      -2.612  -0.454  -5.676  1.00  0.00     0.252 C 
ATOM      6  O   UNL     1      -1.591  -1.138  -5.586  1.00  0.00    -0.269 OA
ATOM      7  H   UNL     1      -3.745  -2.091  -5.631  1.00  0.00     0.163 HD
BRANCH   5   8
ATOM      8  C   UNL     1      -2.459   1.016  -5.873  1.00  0.00     0.059 A 
ATOM      9  C   UNL     1      -0.897   2.728  -6.619  1.00  0.00     0.088 A 
ATOM     10  C   UNL     1      -1.768   3.744  -6.235  1.00  0.00     0.024 A 
ATOM     11  C   UNL     1      -1.289   1.386  -6.564  1.00  0.00     0.037 A 
ATOM     12  C   UNL     1      -2.939   3.390  -5.567  1.00  0.00     0.023 A 
ATOM     13  C   UNL     1      -3.217   2.040  -5.282  1.00  0.00     0.053 A 
ATOM     14  Cl  UNL     1      -4.292   1.797  -3.948  1.00  0.00    -0.083 Cl
BRANCH   9  15
ATOM     15  S   UNL     1       0.812   3.103  -6.919  1.00  0.00     0.261 S 
ATOM     16  O   UNL     1       0.875   4.428  -7.495  1.00  0.00    -0.201 OA
ATOM     17  O   UNL     1       1.424   1.978  -7.596  1.00  0.00    -0.201 OA
BRANCH  15  18
ATOM     18  N   UNL     1       1.531   3.227  -5.369  1.00  0.00    -0.280 N 
ATOM     19  H   UNL     1       2.049   4.034  -5.144  1.00  0.00     0.180 HD
BRANCH  18  20
ATOM     20  C   UNL     1       1.398   2.182  -4.386  1.00  0.00     0.051 A 
ATOM     21  C   UNL     1       1.161   0.305  -2.301  1.00  0.00     0.137 A 
ATOM     22  C   UNL     1       0.037   0.981  -2.760  1.00  0.00     0.050 A 
ATOM     23  C   UNL     1       2.406   0.558  -2.887  1.00  0.00     0.085 A 
ATOM     24  C   UNL     1       0.176   1.955  -3.750  1.00  0.00     0.030 A 
ATOM     25  C   UNL     1       2.523   1.487  -3.935  1.00  0.00     0.051 A 
ATOM     26  Cl  UNL     1       3.836  -0.212  -2.300  1.00  0.00    -0.080 Cl
BRANCH  21  27
ATOM     27  O   UNL     1       1.004  -0.625  -1.309  1.00  0.00    -0.495 OA
ATOM     28  C   UNL     1       0.941   0.001  -0.026  1.00  0.00     0.278 C 
ENDBRANCH  21  27
ENDBRANCH  18  20
ENDBRANCH  15  18
ENDBRANCH   9  15
ENDBRANCH   5   8
ENDBRANCH   3   4
ENDBRANCH   2   3
ENDBRANCH   1   2
BRANCH   1  29
ATOM     29  C   UNL     1      -6.854  -2.955  -4.491  1.00  0.00     0.002 C 
BRANCH  29  30
ATOM     30  C   UNL     1      -7.974  -2.025  -4.019  1.00  0.00     0.021 C 
BRANCH  30  31
ATOM     31  C   UNL     1      -9.253  -2.039  -4.849  1.00  0.00     0.116 C 
BRANCH  31  32
ATOM     32  N   UNL     1      -9.865  -3.353  -4.915  1.00  0.00    -0.352 N 
ATOM     33  C   UNL     1     -11.154  -3.736  -4.635  1.00  0.00     0.251 C 
ATOM     34  H   UNL     1      -9.266  -4.080  -5.204  1.00  0.00     0.163 HD
ATOM     35  O   UNL     1     -11.433  -4.931  -4.597  1.00  0.00    -0.269 OA
BRANCH  33  36
ATOM     36  C   UNL     1     -12.193  -2.720  -4.349  1.00  0.00     0.039 A 
ATOM     37  C   UNL     1     -13.077  -2.946  -3.290  1.00  0.00     0.014 A 
ATOM     38  C   UNL     1     -12.313  -1.559  -5.119  1.00  0.00     0.014 A 
ATOM     39  C   UNL     1     -14.036  -1.983  -2.966  1.00  0.00     0.010 A 
ATOM     40  C   UNL     1     -13.220  -0.567  -4.748  1.00  0.00     0.010 A 
ATOM     41  C   UNL     1     -14.092  -0.767  -3.667  1.00  0.00    -0.014 A 
BRANCH  41  42
ATOM     42  C   UNL     1     -15.048   0.302  -3.269  1.00  0.00     0.031 A 
ATOM     43  C   UNL     1     -16.136   0.741  -4.212  1.00  0.00     0.074 A 
ATOM     44  C   UNL     1     -14.905   0.908  -2.073  1.00  0.00     0.049 A 
ATOM     45  N   UNL     1     -17.030   1.685  -4.061  1.00  0.00    -0.248 NA
ATOM     46  C   UNL     1     -16.211   0.045  -5.505  1.00  0.00     0.031 C 
ATOM     47  C   UNL     1     -13.866   0.595  -1.089  1.00  0.00     0.029 A 
ATOM     48  N   UNL     1     -15.628   1.913  -1.480  1.00  0.00    -0.354 N 
ATOM     49  C   UNL     1     -17.770   1.701  -5.239  1.00  0.00     0.074 A 
ATOM     50  C   UNL     1     -17.176   0.715  -6.117  1.00  0.00     0.031 C 
ATOM     51  C   UNL     1     -14.038   1.369  -0.006  1.00  0.00     0.029 A 
ATOM     52  C   UNL     1     -15.164   2.269  -0.234  1.00  0.00     0.049 A 
ATOM     53  H   UNL     1     -16.406   2.340  -1.907  1.00  0.00     0.167 HD
ATOM     54  C   UNL     1     -18.856   2.452  -5.550  1.00  0.00     0.034 A 
ATOM     55  C   UNL     1     -15.586   3.221   0.622  1.00  0.00     0.034 A 
ATOM     56  C   UNL     1     -19.438   3.429  -4.659  1.00  0.00     0.049 A 
ATOM     57  C   UNL     1     -16.773   4.069   0.237  1.00  0.00     0.074 A 
ATOM     58  C   UNL     1     -20.567   4.205  -4.853  1.00  0.00     0.029 A 
ATOM     59  N   UNL     1     -18.932   3.773  -3.412  1.00  0.00    -0.354 N 
ATOM     60  N   UNL     1     -17.494   4.033  -0.860  1.00  0.00    -0.248 NA
ATOM     61  C   UNL     1     -17.208   5.078   1.211  1.00  0.00     0.031 C 
ATOM     62  C   UNL     1     -20.698   5.072  -3.762  1.00  0.00     0.029 A 
ATOM     63  C   UNL     1     -19.703   4.777  -2.844  1.00  0.00     0.049 A 
ATOM     64  H   UNL     1     -18.141   3.364  -2.992  1.00  0.00     0.167 HD
ATOM     65  C   UNL     1     -18.487   4.994  -0.691  1.00  0.00     0.074 A 
ATOM     66  C   UNL     1     -18.283   5.575   0.620  1.00  0.00     0.031 C 
ATOM     67  C   UNL     1     -19.480   5.362  -1.542  1.00  0.00     0.034 A 
BRANCH  54  68
ATOM     68  C   UNL     1     -19.467   2.264  -6.920  1.00  0.00     0.023 A 
ATOM     69  C   UNL     1     -20.018   1.034  -7.322  1.00  0.00     0.031 A 
ATOM     70  C   UNL     1     -19.485   3.324  -7.844  1.00  0.00     0.131 A 
ATOM     71  C   UNL     1     -20.495   0.874  -8.632  1.00  0.00     0.055 A 
ATOM     72  C   UNL     1     -20.040   3.183  -9.118  1.00  0.00     0.041 A 
ATOM     73  F   UNL     1     -18.955   4.516  -7.528  1.00  0.00    -0.206 F 
ATOM     74  C   UNL     1     -20.535   1.947  -9.524  1.00  0.00     0.022 A 
BRANCH  71  75
ATOM     75  S   UNL     1     -20.926  -0.794  -9.199  1.00  0.00     0.124 S 
ATOM     76  O   UNL     1     -19.667  -1.508  -8.996  1.00  0.00    -0.237 OA
ATOM     77  O   UNL     1     -22.018  -1.159  -8.305  1.00  0.00    -0.237 OA
ATOM     78  O   UNL     1     -21.302  -0.595 -10.597  1.00  0.00    -0.744 OA
ENDBRANCH  71  75
ENDBRANCH  54  68
BRANCH  55  79
ATOM     79  C   UNL     1     -14.881   3.441   1.919  1.00  0.00     0.023 A 
ATOM     80  C   UNL     1     -15.539   3.247   3.144  1.00  0.00     0.031 A 
ATOM     81  C   UNL     1     -13.551   3.898   1.952  1.00  0.00     0.131 A 
ATOM     82  C   UNL     1     -14.886   3.559   4.347  1.00  0.00     0.055 A 
ATOM     83  C   UNL     1     -12.885   4.148   3.153  1.00  0.00     0.041 A 
ATOM     84  F   UNL     1     -12.873   4.100   0.811  1.00  0.00    -0.206 F 
ATOM     85  C   UNL     1     -13.559   3.993   4.361  1.00  0.00     0.022 A 
BRANCH  82  86
ATOM     86  S   UNL     1     -15.832   3.484   5.893  1.00  0.00     0.124 S 
ATOM     87  O   UNL     1     -16.926   4.407   5.615  1.00  0.00    -0.237 OA
ATOM     88  O   UNL     1     -16.185   2.070   5.963  1.00  0.00    -0.237 OA
ATOM     89  O   UNL     1     -14.873   3.935   6.899  1.00  0.00    -0.744 OA
ENDBRANCH  82  86
ENDBRANCH  55  79
BRANCH  67  90
ATOM     90  C   UNL     1     -20.444   6.419  -1.055  1.00  0.00     0.023 A 
ATOM     91  C   UNL     1     -20.029   7.737  -0.796  1.00  0.00     0.031 A 
ATOM     92  C   UNL     1     -21.794   6.096  -0.828  1.00  0.00     0.131 A 
ATOM     93  C   UNL     1     -20.937   8.665  -0.263  1.00  0.00     0.055 A 
ATOM     94  C   UNL     1     -22.709   7.042  -0.364  1.00  0.00     0.041 A 
ATOM     95  F   UNL     1     -22.247   4.852  -1.053  1.00  0.00    -0.206 F 
ATOM     96  C   UNL     1     -22.279   8.331  -0.064  1.00  0.00     0.022 A 
BRANCH  93  97
ATOM     97  S   UNL     1     -20.315  10.283   0.270  1.00  0.00     0.124 S 
ATOM     98  O   UNL     1     -19.298   9.910   1.247  1.00  0.00    -0.237 OA
ATOM     99  O   UNL     1     -19.820  10.854  -0.978  1.00  0.00    -0.237 OA
ATOM    100  O   UNL     1     -21.497  10.939   0.826  1.00  0.00    -0.744 OA
ENDBRANCH  93  97
ENDBRANCH  67  90
ENDBRANCH  41  42
ENDBRANCH  33  36
ENDBRANCH  31  32
ENDBRANCH  30  31
ENDBRANCH  29  30
ENDBRANCH   1  29
TORSDOF 20
