REMARK SMILES [NH3+][C@H](c1ccc(C(=O)NCCCCCCNC(=O)c2ccc(-c3c4nc(c(-c5cc(S(=O)(=O)[O-])ccc5F)c5ccc([nH]5)c(-c5cc(S(=O)(=O)[O-])ccc5F)c5nc(c(-c6cc(S(=O)(=O)[O-])ccc6F)c6ccc3[nH]6)C=C5)C=C4)cc2)cc1Cl)C(F)(F)F
REMARK SMILES IDX 13 1 12 2 11 3 10 4 9 5 7 6 8 7 6 9 3 10 4 11 83 12 5 13
REMARK SMILES IDX 82 14 84 15 2 16 1 17 85 21 86 22 87 23 88 24 14 25 15 26
REMARK SMILES IDX 16 27 17 28 18 30 19 31 20 32 81 33 21 34 80 35 22 36 23 37
REMARK SMILES IDX 24 38 74 39 25 40 79 41 73 42 75 43 26 44 78 45 72 46 71 47
REMARK SMILES IDX 27 49 59 50 39 51 58 52 40 53 43 54 57 55 76 56 41 57 42 58
REMARK SMILES IDX 56 60 77 61 44 62 28 63 29 64 37 65 30 66 36 67 38 68 35 69
REMARK SMILES IDX 31 70 32 71 33 72 34 73 60 74 61 75 69 76 62 77 68 78 70 79
REMARK SMILES IDX 67 80 63 81 64 82 65 83 66 84 45 85 46 86 54 87 47 88 53 89
REMARK SMILES IDX 55 90 52 91 48 92 49 93 50 94 51 95
REMARK H PARENT 9 8 1 18 1 19 1 20 16 29 75 48 43 59
REMARK Flexibility Score: inf
ROOT
ATOM      1  C   UNL     1       8.943   0.920   2.227  1.00  0.00     0.002 C 
ENDROOT
BRANCH   1   2
ATOM      2  C   UNL     1       8.694   0.782   0.722  1.00  0.00     0.002 C 
BRANCH   2   3
ATOM      3  C   UNL     1       7.394   0.098   0.311  1.00  0.00     0.021 C 
BRANCH   3   4
ATOM      4  C   UNL     1       6.116   0.660   0.914  1.00  0.00     0.116 C 
BRANCH   4   5
ATOM      5  N   UNL     1       5.679   1.941   0.380  1.00  0.00    -0.352 N 
ATOM      6  C   UNL     1       4.405   2.402   0.106  1.00  0.00     0.251 C 
ATOM      7  O   UNL     1       4.261   3.526  -0.372  1.00  0.00    -0.269 OA
ATOM      8  H   UNL     1       6.404   2.579   0.183  1.00  0.00     0.163 HD
BRANCH   6   9
ATOM      9  C   UNL     1       3.204   1.540   0.310  1.00  0.00     0.041 A 
ATOM     10  C   UNL     1       1.077  -0.369   0.395  1.00  0.00     0.037 A 
ATOM     11  C   UNL     1       1.059   0.731  -0.494  1.00  0.00     0.012 A 
ATOM     12  C   UNL     1       2.193  -0.447   1.252  1.00  0.00     0.051 A 
ATOM     13  C   UNL     1       2.119   1.653  -0.558  1.00  0.00     0.014 A 
ATOM     14  C   UNL     1       3.153   0.567   1.296  1.00  0.00     0.034 A 
ATOM     15  Cl  UNL     1       2.600  -1.835   2.208  1.00  0.00    -0.084 Cl
BRANCH  10  16
ATOM     16  C   UNL     1      -0.028  -1.446   0.341  1.00  0.00     0.320 C 
BRANCH  16  17
ATOM     17  N   UNL     1      -0.227  -2.124   1.651  1.00  0.00    -0.344 N 
ATOM     18  H   UNL     1      -0.964  -2.824   1.563  1.00  0.00     0.345 HD
ATOM     19  H   UNL     1      -0.495  -1.435   2.353  1.00  0.00     0.345 HD
ATOM     20  H   UNL     1       0.641  -2.579   1.934  1.00  0.00     0.345 HD
ENDBRANCH  16  17
BRANCH  16  21
ATOM     21  C   UNL     1      -1.413  -0.966  -0.212  1.00  0.00     0.445 C 
ATOM     22  F   UNL     1      -1.343  -0.573  -1.506  1.00  0.00    -0.165 F 
ATOM     23  F   UNL     1      -2.339  -1.956  -0.167  1.00  0.00    -0.165 F 
ATOM     24  F   UNL     1      -1.901   0.073   0.509  1.00  0.00    -0.165 F 
ENDBRANCH  16  21
ENDBRANCH  10  16
ENDBRANCH   6   9
ENDBRANCH   4   5
ENDBRANCH   3   4
ENDBRANCH   2   3
ENDBRANCH   1   2
BRANCH   1  25
ATOM     25  C   UNL     1       8.803  -0.356   3.063  1.00  0.00     0.021 C 
BRANCH  25  26
ATOM     26  C   UNL     1       9.655  -1.539   2.615  1.00  0.00     0.116 C 
BRANCH  26  27
ATOM     27  N   UNL     1      11.076  -1.232   2.620  1.00  0.00    -0.352 N 
ATOM     28  C   UNL     1      12.107  -1.887   3.245  1.00  0.00     0.251 C 
ATOM     29  H   UNL     1      11.336  -0.438   2.100  1.00  0.00     0.163 HD
ATOM     30  O   UNL     1      13.218  -1.358   3.297  1.00  0.00    -0.269 OA
BRANCH  28  31
ATOM     31  C   UNL     1      11.881  -3.208   3.871  1.00  0.00     0.039 A 
ATOM     32  C   UNL     1      12.428  -3.464   5.131  1.00  0.00     0.014 A 
ATOM     33  C   UNL     1      11.142  -4.196   3.215  1.00  0.00     0.014 A 
ATOM     34  C   UNL     1      12.181  -4.688   5.758  1.00  0.00     0.010 A 
ATOM     35  C   UNL     1      10.833  -5.384   3.873  1.00  0.00     0.010 A 
ATOM     36  C   UNL     1      11.352  -5.645   5.151  1.00  0.00    -0.014 A 
BRANCH  36  37
ATOM     37  C   UNL     1      11.020  -6.925   5.832  1.00  0.00     0.031 A 
ATOM     38  C   UNL     1      11.445  -8.235   5.224  1.00  0.00     0.074 A 
ATOM     39  C   UNL     1      10.284  -6.910   6.961  1.00  0.00     0.049 A 
ATOM     40  N   UNL     1      11.178  -9.455   5.614  1.00  0.00    -0.248 NA
ATOM     41  C   UNL     1      12.253  -8.159   3.998  1.00  0.00     0.031 C 
ATOM     42  C   UNL     1       9.788  -5.705   7.630  1.00  0.00     0.029 A 
ATOM     43  N   UNL     1       9.816  -7.937   7.742  1.00  0.00    -0.354 N 
ATOM     44  C   UNL     1      11.775 -10.292   4.677  1.00  0.00     0.074 A 
ATOM     45  C   UNL     1      12.358  -9.436   3.665  1.00  0.00     0.031 C 
ATOM     46  C   UNL     1       9.111  -6.061   8.733  1.00  0.00     0.029 A 
ATOM     47  C   UNL     1       9.074  -7.518   8.823  1.00  0.00     0.049 A 
ATOM     48  H   UNL     1       9.994  -8.886   7.548  1.00  0.00     0.167 HD
ATOM     49  C   UNL     1      11.851 -11.646   4.674  1.00  0.00     0.034 A 
ATOM     50  C   UNL     1       8.423  -8.224   9.769  1.00  0.00     0.034 A 
ATOM     51  C   UNL     1      11.265 -12.483   5.694  1.00  0.00     0.049 A 
ATOM     52  C   UNL     1       8.478  -9.731   9.718  1.00  0.00     0.074 A 
ATOM     53  C   UNL     1      11.318 -13.861   5.814  1.00  0.00     0.029 A 
ATOM     54  N   UNL     1      10.509 -12.022   6.766  1.00  0.00    -0.354 N 
ATOM     55  N   UNL     1       9.083 -10.507   8.848  1.00  0.00    -0.248 NA
ATOM     56  C   UNL     1       7.772 -10.455  10.782  1.00  0.00     0.031 C 
ATOM     57  C   UNL     1      10.530 -14.237   6.906  1.00  0.00     0.029 A 
ATOM     58  C   UNL     1      10.060 -13.091   7.527  1.00  0.00     0.049 A 
ATOM     59  H   UNL     1      10.319 -11.075   6.956  1.00  0.00     0.167 HD
ATOM     60  C   UNL     1       8.859 -11.811   9.283  1.00  0.00     0.074 A 
ATOM     61  C   UNL     1       8.076 -11.713  10.498  1.00  0.00     0.031 C 
ATOM     62  C   UNL     1       9.270 -12.982   8.733  1.00  0.00     0.034 A 
BRANCH  49  63
ATOM     63  C   UNL     1      12.566 -12.301   3.514  1.00  0.00     0.023 A 
ATOM     64  C   UNL     1      13.926 -12.056   3.250  1.00  0.00     0.031 A 
ATOM     65  C   UNL     1      11.874 -13.157   2.638  1.00  0.00     0.131 A 
ATOM     66  C   UNL     1      14.525 -12.588   2.099  1.00  0.00     0.055 A 
ATOM     67  C   UNL     1      12.501 -13.758   1.545  1.00  0.00     0.041 A 
ATOM     68  F   UNL     1      10.569 -13.413   2.821  1.00  0.00    -0.206 F 
ATOM     69  C   UNL     1      13.830 -13.460   1.259  1.00  0.00     0.022 A 
BRANCH  66  70
ATOM     70  S   UNL     1      16.171 -11.990   1.626  1.00  0.00     0.124 S 
ATOM     71  O   UNL     1      15.940 -10.552   1.511  1.00  0.00    -0.237 OA
ATOM     72  O   UNL     1      16.996 -12.416   2.750  1.00  0.00    -0.237 OA
ATOM     73  O   UNL     1      16.435 -12.674   0.362  1.00  0.00    -0.744 OA
ENDBRANCH  66  70
ENDBRANCH  49  63
BRANCH  50  74
ATOM     74  C   UNL     1       7.652  -7.525  10.838  1.00  0.00     0.023 A 
ATOM     75  C   UNL     1       8.016  -7.647  12.189  1.00  0.00     0.031 A 
ATOM     76  C   UNL     1       6.514  -6.758  10.530  1.00  0.00     0.131 A 
ATOM     77  C   UNL     1       7.223  -7.055  13.184  1.00  0.00     0.055 A 
ATOM     78  C   UNL     1       5.763  -6.120  11.520  1.00  0.00     0.041 A 
ATOM     79  F   UNL     1       6.122  -6.605   9.255  1.00  0.00    -0.206 F 
ATOM     80  C   UNL     1       6.108  -6.279  12.858  1.00  0.00     0.022 A 
BRANCH  77  81
ATOM     81  S   UNL     1       7.616  -7.392  14.922  1.00  0.00     0.124 S 
ATOM     82  O   UNL     1       7.525  -8.846  14.970  1.00  0.00    -0.237 OA
ATOM     83  O   UNL     1       8.956  -6.827  15.044  1.00  0.00    -0.237 OA
ATOM     84  O   UNL     1       6.572  -6.676  15.652  1.00  0.00    -0.744 OA
ENDBRANCH  77  81
ENDBRANCH  50  74
BRANCH  62  85
ATOM     85  C   UNL     1       8.924 -14.252   9.475  1.00  0.00     0.023 A 
ATOM     86  C   UNL     1       7.595 -14.683   9.633  1.00  0.00     0.031 A 
ATOM     87  C   UNL     1       9.944 -15.039  10.038  1.00  0.00     0.131 A 
ATOM     88  C   UNL     1       7.319 -15.835  10.386  1.00  0.00     0.055 A 
ATOM     89  C   UNL     1       9.668 -16.221  10.727  1.00  0.00     0.041 A 
ATOM     90  F   UNL     1      11.232 -14.674   9.924  1.00  0.00    -0.206 F 
ATOM     91  C   UNL     1       8.348 -16.617  10.917  1.00  0.00     0.022 A 
BRANCH  88  92
ATOM     92  S   UNL     1       5.590 -16.243  10.752  1.00  0.00     0.124 S 
ATOM     93  O   UNL     1       5.133 -15.039  11.439  1.00  0.00    -0.237 OA
ATOM     94  O   UNL     1       5.034 -16.468   9.422  1.00  0.00    -0.237 OA
ATOM     95  O   UNL     1       5.689 -17.435  11.592  1.00  0.00    -0.744 OA
ENDBRANCH  88  92
ENDBRANCH  62  85
ENDBRANCH  36  37
ENDBRANCH  28  31
ENDBRANCH  26  27
ENDBRANCH  25  26
ENDBRANCH   1  25
TORSDOF 19
