REMARK SMILES C[C@@H](C(=O)NCCCCCCNC(=O)c1ccc(-c2c3nc(c(-c4cc(S(=O)(=O)[O-])ccc4F)c4ccc([nH]4)c(-c4cc(S(=O)(=O)[O-])ccc4F)c4nc(c(-c5cc(S(=O)(=O)[O-])ccc5F)c5ccc2[nH]5)C=C4)C=C3)cc1)c1ccc(-c2cccc(OC(=O)Nc3ccccc3)c2)c(F)c1
REMARK SMILES IDX 7 1 6 2 5 3 3 4 4 5 2 7 1 8 78 9 79 10 100 11 80 12 98 13
REMARK SMILES IDX 81 14 99 15 82 16 83 17 97 18 84 19 86 20 85 21 87 22 88 23
REMARK SMILES IDX 89 24 90 25 91 27 92 28 96 29 93 30 95 31 94 32 8 33 9 34
REMARK SMILES IDX 10 35 11 36 12 37 13 38 14 40 15 41 16 42 77 43 17 44 76 45
REMARK SMILES IDX 18 46 19 47 20 48 70 49 21 50 75 51 69 52 71 53 22 54 74 55
REMARK SMILES IDX 68 56 67 57 23 59 55 60 35 61 54 62 36 63 39 64 53 65 72 66
REMARK SMILES IDX 37 67 38 68 52 70 73 71 40 72 24 73 25 74 33 75 26 76 32 77
REMARK SMILES IDX 34 78 31 79 27 80 28 81 29 82 30 83 56 84 57 85 65 86 58 87
REMARK SMILES IDX 64 88 66 89 63 90 59 91 60 92 61 93 62 94 41 95 42 96 50 97
REMARK SMILES IDX 43 98 49 99 51 100 48 101 44 102 45 103 46 104 47 105
REMARK H PARENT 5 6 90 26 12 39 71 58 39 69
REMARK Flexibility Score: inf
ROOT
ATOM      1  C   UNL     1       4.315  -0.600   1.293  1.00  0.00     0.021 C 
ENDROOT
BRANCH   1   2
ATOM      2  C   UNL     1       3.470  -1.776   0.796  1.00  0.00     0.116 C 
BRANCH   2   3
ATOM      3  N   UNL     1       2.340  -1.986   1.677  1.00  0.00    -0.356 N 
ATOM      4  C   UNL     1       1.047  -1.572   1.552  1.00  0.00     0.227 C 
ATOM      5  O   UNL     1       0.330  -1.680   2.549  1.00  0.00    -0.274 OA
ATOM      6  H   UNL     1       2.535  -2.508   2.489  1.00  0.00     0.163 HD
BRANCH   4   7
ATOM      7  C   UNL     1       0.529  -1.048   0.197  1.00  0.00     0.105 C 
ATOM      8  C   UNL     1       1.077   0.352  -0.106  1.00  0.00     0.023 C 
BRANCH   7   9
ATOM      9  C   UNL     1      -0.998  -1.118   0.139  1.00  0.00    -0.033 A 
ATOM     10  C   UNL     1      -1.813   0.019   0.246  1.00  0.00     0.005 A 
ATOM     11  C   UNL     1      -1.623  -2.372   0.048  1.00  0.00     0.044 A 
ATOM     12  C   UNL     1      -3.206  -0.095   0.273  1.00  0.00     0.012 A 
ATOM     13  C   UNL     1      -3.014  -2.477   0.091  1.00  0.00     0.131 A 
ATOM     14  C   UNL     1      -3.832  -1.347   0.214  1.00  0.00     0.018 A 
ATOM     15  F   UNL     1      -3.559  -3.703   0.033  1.00  0.00    -0.206 F 
BRANCH  14  16
ATOM     16  C   UNL     1      -5.288  -1.446   0.366  1.00  0.00    -0.012 A 
ATOM     17  C   UNL     1      -6.161  -0.766  -0.500  1.00  0.00     0.009 A 
ATOM     18  C   UNL     1      -5.834  -2.165   1.443  1.00  0.00     0.056 A 
ATOM     19  C   UNL     1      -7.542  -0.793  -0.292  1.00  0.00     0.004 A 
ATOM     20  C   UNL     1      -7.208  -2.168   1.662  1.00  0.00     0.133 A 
ATOM     21  C   UNL     1      -8.066  -1.491   0.793  1.00  0.00     0.047 A 
BRANCH  20  22
ATOM     22  O   UNL     1      -7.842  -2.801   2.759  1.00  0.00    -0.410 OA
BRANCH  22  23
ATOM     23  C   UNL     1      -7.219  -3.284   3.906  1.00  0.00     0.417 C 
ATOM     24  O   UNL     1      -6.007  -3.343   4.096  1.00  0.00    -0.224 OA
ATOM     25  N   UNL     1      -8.072  -3.619   4.927  1.00  0.00    -0.291 N 
ATOM     26  H   UNL     1      -7.627  -3.846   5.775  1.00  0.00     0.173 HD
BRANCH  25  27
ATOM     27  C   UNL     1      -9.472  -3.691   4.966  1.00  0.00     0.044 A 
ATOM     28  C   UNL     1     -10.072  -3.652   6.231  1.00  0.00     0.026 A 
ATOM     29  C   UNL     1     -10.282  -3.825   3.837  1.00  0.00     0.026 A 
ATOM     30  C   UNL     1     -11.462  -3.696   6.361  1.00  0.00     0.002 A 
ATOM     31  C   UNL     1     -11.673  -3.885   3.969  1.00  0.00     0.002 A 
ATOM     32  C   UNL     1     -12.263  -3.810   5.228  1.00  0.00     0.000 A 
ENDBRANCH  25  27
ENDBRANCH  22  23
ENDBRANCH  20  22
ENDBRANCH  14  16
ENDBRANCH   7   9
ENDBRANCH   4   7
ENDBRANCH   2   3
ENDBRANCH   1   2
BRANCH   1  33
ATOM     33  C   UNL     1       5.036  -0.866   2.622  1.00  0.00     0.002 C 
BRANCH  33  34
ATOM     34  C   UNL     1       6.010  -2.048   2.606  1.00  0.00     0.002 C 
BRANCH  34  35
ATOM     35  C   UNL     1       7.068  -1.998   1.502  1.00  0.00     0.021 C 
BRANCH  35  36
ATOM     36  C   UNL     1       7.966  -0.766   1.539  1.00  0.00     0.116 C 
BRANCH  36  37
ATOM     37  N   UNL     1       8.799  -0.735   2.730  1.00  0.00    -0.352 N 
ATOM     38  C   UNL     1      10.162  -0.597   2.826  1.00  0.00     0.251 C 
ATOM     39  H   UNL     1       8.320  -0.824   3.586  1.00  0.00     0.163 HD
ATOM     40  O   UNL     1      10.725  -0.798   3.898  1.00  0.00    -0.269 OA
BRANCH  38  41
ATOM     41  C   UNL     1      10.945  -0.230   1.626  1.00  0.00     0.039 A 
ATOM     42  C   UNL     1      12.107  -0.946   1.327  1.00  0.00     0.014 A 
ATOM     43  C   UNL     1      10.527   0.814   0.795  1.00  0.00     0.014 A 
ATOM     44  C   UNL     1      12.819  -0.654   0.161  1.00  0.00     0.010 A 
ATOM     45  C   UNL     1      11.200   1.059  -0.398  1.00  0.00     0.010 A 
ATOM     46  C   UNL     1      12.353   0.329  -0.727  1.00  0.00    -0.014 A 
BRANCH  46  47
ATOM     47  C   UNL     1      13.058   0.619  -2.003  1.00  0.00     0.031 A 
ATOM     48  C   UNL     1      13.678   1.971  -2.226  1.00  0.00     0.074 A 
ATOM     49  C   UNL     1      13.057  -0.297  -2.991  1.00  0.00     0.049 A 
ATOM     50  N   UNL     1      14.227   2.464  -3.305  1.00  0.00    -0.248 NA
ATOM     51  C   UNL     1      13.637   2.902  -1.089  1.00  0.00     0.031 C 
ATOM     52  C   UNL     1      12.444  -1.625  -2.911  1.00  0.00     0.029 A 
ATOM     53  N   UNL     1      13.566  -0.243  -4.264  1.00  0.00    -0.354 N 
ATOM     54  C   UNL     1      14.580   3.772  -2.986  1.00  0.00     0.074 A 
ATOM     55  C   UNL     1      14.124   4.007  -1.632  1.00  0.00     0.031 C 
ATOM     56  C   UNL     1      12.612  -2.257  -4.083  1.00  0.00     0.029 A 
ATOM     57  C   UNL     1      13.307  -1.369  -5.010  1.00  0.00     0.049 A 
ATOM     58  H   UNL     1      14.070   0.529  -4.611  1.00  0.00     0.167 HD
ATOM     59  C   UNL     1      15.239   4.683  -3.746  1.00  0.00     0.034 A 
ATOM     60  C   UNL     1      13.575  -1.647  -6.301  1.00  0.00     0.034 A 
ATOM     61  C   UNL     1      15.697   4.422  -5.090  1.00  0.00     0.049 A 
ATOM     62  C   UNL     1      14.304  -0.623  -7.132  1.00  0.00     0.074 A 
ATOM     63  C   UNL     1      16.440   5.239  -5.923  1.00  0.00     0.029 A 
ATOM     64  N   UNL     1      15.442   3.257  -5.804  1.00  0.00    -0.354 N 
ATOM     65  N   UNL     1      14.690   0.586  -6.797  1.00  0.00    -0.248 NA
ATOM     66  C   UNL     1      14.644  -1.006  -8.508  1.00  0.00     0.031 C 
ATOM     67  C   UNL     1      16.577   4.599  -7.160  1.00  0.00     0.029 A 
ATOM     68  C   UNL     1      15.984   3.349  -7.078  1.00  0.00     0.049 A 
ATOM     69  H   UNL     1      14.949   2.479  -5.456  1.00  0.00     0.167 HD
ATOM     70  C   UNL     1      15.340   1.100  -7.915  1.00  0.00     0.074 A 
ATOM     71  C   UNL     1      15.302   0.065  -8.929  1.00  0.00     0.031 C 
ATOM     72  C   UNL     1      15.923   2.315  -8.085  1.00  0.00     0.034 A 
BRANCH  59  73
ATOM     73  C   UNL     1      15.469   6.049  -3.143  1.00  0.00     0.023 A 
ATOM     74  C   UNL     1      16.225   6.222  -1.970  1.00  0.00     0.031 A 
ATOM     75  C   UNL     1      14.881   7.191  -3.717  1.00  0.00     0.131 A 
ATOM     76  C   UNL     1      16.290   7.481  -1.355  1.00  0.00     0.055 A 
ATOM     77  C   UNL     1      15.027   8.459  -3.150  1.00  0.00     0.041 A 
ATOM     78  F   UNL     1      14.133   7.090  -4.827  1.00  0.00    -0.206 F 
ATOM     79  C   UNL     1      15.717   8.607  -1.950  1.00  0.00     0.022 A 
BRANCH  76  80
ATOM     80  S   UNL     1      16.981   7.590   0.319  1.00  0.00     0.124 S 
ATOM     81  O   UNL     1      16.138   6.644   1.047  1.00  0.00    -0.237 OA
ATOM     82  O   UNL     1      18.367   7.185   0.114  1.00  0.00    -0.237 OA
ATOM     83  O   UNL     1      16.786   8.992   0.680  1.00  0.00    -0.744 OA
ENDBRANCH  76  80
ENDBRANCH  59  73
BRANCH  60  84
ATOM     84  C   UNL     1      13.129  -2.939  -6.893  1.00  0.00     0.023 A 
ATOM     85  C   UNL     1      14.054  -3.919  -7.283  1.00  0.00     0.031 A 
ATOM     86  C   UNL     1      11.761  -3.207  -7.082  1.00  0.00     0.131 A 
ATOM     87  C   UNL     1      13.601  -5.110  -7.873  1.00  0.00     0.055 A 
ATOM     88  C   UNL     1      11.314  -4.411  -7.629  1.00  0.00     0.041 A 
ATOM     89  F   UNL     1      10.836  -2.306  -6.715  1.00  0.00    -0.206 F 
ATOM     90  C   UNL     1      12.238  -5.367  -8.037  1.00  0.00     0.022 A 
BRANCH  87  91
ATOM     91  S   UNL     1      14.828  -6.303  -8.475  1.00  0.00     0.124 S 
ATOM     92  O   UNL     1      15.555  -5.510  -9.460  1.00  0.00    -0.237 OA
ATOM     93  O   UNL     1      15.555  -6.633  -7.254  1.00  0.00    -0.237 OA
ATOM     94  O   UNL     1      14.011  -7.384  -9.022  1.00  0.00    -0.744 OA
ENDBRANCH  87  91
ENDBRANCH  60  84
BRANCH  72  95
ATOM     95  C   UNL     1      16.600   2.571  -9.408  1.00  0.00     0.023 A 
ATOM     96  C   UNL     1      15.869   2.711 -10.600  1.00  0.00     0.031 A 
ATOM     97  C   UNL     1      18.001   2.681  -9.473  1.00  0.00     0.131 A 
ATOM     98  C   UNL     1      16.544   2.911 -11.814  1.00  0.00     0.055 A 
ATOM     99  C   UNL     1      18.664   2.933 -10.674  1.00  0.00     0.041 A 
ATOM    100  F   UNL     1      18.747   2.553  -8.364  1.00  0.00    -0.206 F 
ATOM    101  C   UNL     1      17.936   3.039 -11.856  1.00  0.00     0.022 A 
BRANCH  98 102
ATOM    102  S   UNL     1      15.586   2.932 -13.354  1.00  0.00     0.124 S 
ATOM    103  O   UNL     1      14.981   1.603 -13.353  1.00  0.00    -0.237 OA
ATOM    104  O   UNL     1      14.672   4.049 -13.139  1.00  0.00    -0.237 OA
ATOM    105  O   UNL     1      16.598   3.151 -14.386  1.00  0.00    -0.744 OA
ENDBRANCH  98 102
ENDBRANCH  72  95
ENDBRANCH  46  47
ENDBRANCH  38  41
ENDBRANCH  36  37
ENDBRANCH  35  36
ENDBRANCH  34  35
ENDBRANCH  33  34
ENDBRANCH   1  33
TORSDOF 21
