REMARK SMILES COc1cc(/C=C2/C(=O)N(c3ccccc3)C(=O)[NH+]=C2NCCCCCCNC(=O)c2ccc(-c3c4nc(c(-c5cc(S(=O)(=O)[O-])ccc5F)c5ccc([nH]5)c(-c5cc(S(=O)(=O)[O-])ccc5F)c5nc(c(-c6cc(S(=O)(=O)[O-])ccc6F)c6ccc3[nH]6)C=C5)C=C4)cc2)ccc1OCC(=O)[O-]
REMARK SMILES IDX 24 1 23 2 22 3 21 4 6 5 7 6 8 7 20 8 9 9 10 10 19 11 17 12
REMARK SMILES IDX 18 15 5 16 3 17 4 18 96 19 95 20 94 21 2 22 1 23 97 24 98 25
REMARK SMILES IDX 99 26 100 27 101 28 11 29 12 30 16 31 13 32 15 33 14 34
REMARK SMILES IDX 25 35 26 36 27 37 28 38 29 39 30 41 31 42 32 43 93 44 33 45
REMARK SMILES IDX 92 46 34 47 35 48 36 49 86 50 37 51 91 52 85 53 87 54 38 55
REMARK SMILES IDX 90 56 84 57 83 58 39 60 71 61 51 62 70 63 52 64 55 65 69 66
REMARK SMILES IDX 88 67 53 68 54 69 68 71 89 72 56 73 40 74 41 75 49 76 42 77
REMARK SMILES IDX 48 78 50 79 47 80 43 81 44 82 45 83 46 84 72 85 73 86 81 87
REMARK SMILES IDX 74 88 80 89 82 90 79 91 75 92 76 93 77 94 78 95 57 96 58 97
REMARK SMILES IDX 66 98 59 99 65 100 67 101 64 102 60 103 61 104 62 105 63 106
REMARK H PARENT 19 13 21 14 28 40 87 59 55 70
REMARK Flexibility Score: inf
ROOT
ATOM      1  C   UNL     1       0.258  -0.552  -2.858  1.00  0.00     0.003 C 
ENDROOT
BRANCH   1   2
ATOM      2  C   UNL     1       0.728  -2.186  -2.518  1.00  0.00     0.037 C 
BRANCH   2   3
ATOM      3  C   UNL     1       0.060  -3.761  -1.148  1.00  0.00     0.194 C 
BRANCH   3   4
ATOM      4  N   UNL     1      -1.399  -4.240  -0.767  1.00  0.00    -0.305 N 
ATOM      5  C   UNL     1      -1.231  -4.901  -3.733  1.00  0.00     0.030 C 
ATOM      6  C   UNL     1      -2.164  -5.404  -2.905  1.00  0.00     0.129 C 
ATOM      7  C   UNL     1      -3.140  -6.401  -3.386  1.00  0.00     0.328 C 
ATOM      8  C   UNL     1      -2.345  -4.908  -1.510  1.00  0.00     0.236 C 
ATOM      9  O   UNL     1      -2.904  -7.070  -4.390  1.00  0.00    -0.249 OA
ATOM     10  N   UNL     1      -4.324  -6.410  -2.655  1.00  0.00    -0.155 N 
ATOM     11  N   UNL     1      -3.501  -5.010  -0.927  1.00  0.00    -0.209 N 
ATOM     12  C   UNL     1      -4.573  -5.520  -1.605  1.00  0.00     0.448 C 
ATOM     13  H   UNL     1      -3.605  -4.718   0.008  1.00  0.00     0.270 HD
ATOM     14  H   UNL     1      -1.675  -4.026   0.153  1.00  0.00     0.256 HD
ATOM     15  O   UNL     1      -5.706  -5.199  -1.252  1.00  0.00    -0.212 OA
BRANCH   5  16
ATOM     16  C   UNL     1      -0.393  -3.844  -3.185  1.00  0.00    -0.021 A 
ATOM     17  C   UNL     1      -0.472  -1.753  -0.847  1.00  0.00     0.161 A 
ATOM     18  C   UNL     1      -1.269  -2.543  -2.273  1.00  0.00     0.058 A 
ATOM     19  C   UNL     1       1.246  -2.099  -0.456  1.00  0.00     0.161 A 
ATOM     20  C   UNL     1       2.134  -3.365  -1.393  1.00  0.00     0.051 A 
ATOM     21  C   UNL     1       1.343  -4.194  -2.796  1.00  0.00     0.012 A 
BRANCH  17  22
ATOM     22  O   UNL     1      -1.389  -1.110  -0.060  1.00  0.00    -0.493 OA
ATOM     23  C   UNL     1      -0.886  -0.331   1.003  1.00  0.00     0.278 C 
ENDBRANCH  17  22
BRANCH  19  24
ATOM     24  O   UNL     1       1.681  -1.849   0.828  1.00  0.00    -0.484 OA
BRANCH  24  25
ATOM     25  C   UNL     1       2.736  -0.904   0.933  1.00  0.00     0.282 C 
BRANCH  25  26
ATOM     26  C   UNL     1       2.274   0.343   1.673  1.00  0.00     0.079 C 
ATOM     27  O   UNL     1       2.010   0.425   2.862  1.00  0.00    -0.546 OA
ATOM     28  O   UNL     1       2.100   1.411   0.869  1.00  0.00    -0.546 OA
ENDBRANCH  25  26
ENDBRANCH  24  25
ENDBRANCH  19  24
ENDBRANCH   5  16
BRANCH  10  29
ATOM     29  C   UNL     1      -5.366  -7.280  -3.079  1.00  0.00     0.111 A 
ATOM     30  C   UNL     1      -6.632  -6.794  -3.425  1.00  0.00     0.044 A 
ATOM     31  C   UNL     1      -5.126  -8.659  -3.109  1.00  0.00     0.044 A 
ATOM     32  C   UNL     1      -7.641  -7.677  -3.809  1.00  0.00     0.004 A 
ATOM     33  C   UNL     1      -6.145  -9.542  -3.462  1.00  0.00     0.004 A 
ATOM     34  C   UNL     1      -7.399  -9.050  -3.819  1.00  0.00     0.000 A 
ENDBRANCH  10  29
ENDBRANCH   3   4
ENDBRANCH   2   3
ENDBRANCH   1   2
BRANCH   1  35
ATOM     35  C   UNL     1       1.201   0.533  -2.338  1.00  0.00     0.002 C 
BRANCH  35  36
ATOM     36  C   UNL     1       2.656   0.269  -2.692  1.00  0.00     0.021 C 
BRANCH  36  37
ATOM     37  C   UNL     1       3.535   1.491  -2.615  1.00  0.00     0.116 C 
BRANCH  37  38
ATOM     38  N   UNL     1       3.443   2.256  -1.382  1.00  0.00    -0.352 N 
ATOM     39  C   UNL     1       4.395   3.070  -0.802  1.00  0.00     0.251 C 
ATOM     40  H   UNL     1       2.590   2.182  -0.896  1.00  0.00     0.163 HD
ATOM     41  O   UNL     1       4.165   3.634   0.263  1.00  0.00    -0.269 OA
BRANCH  39  42
ATOM     42  C   UNL     1       5.732   3.133  -1.435  1.00  0.00     0.039 A 
ATOM     43  C   UNL     1       6.867   2.930  -0.649  1.00  0.00     0.014 A 
ATOM     44  C   UNL     1       5.837   3.168  -2.822  1.00  0.00     0.014 A 
ATOM     45  C   UNL     1       8.083   2.636  -1.269  1.00  0.00     0.010 A 
ATOM     46  C   UNL     1       6.984   2.680  -3.419  1.00  0.00     0.010 A 
ATOM     47  C   UNL     1       8.135   2.435  -2.657  1.00  0.00    -0.014 A 
BRANCH  47  48
ATOM     48  C   UNL     1       9.380   2.040  -3.369  1.00  0.00     0.031 A 
ATOM     49  C   UNL     1       9.837   2.881  -4.537  1.00  0.00     0.074 A 
ATOM     50  C   UNL     1      10.028   0.902  -3.045  1.00  0.00     0.049 A 
ATOM     51  N   UNL     1      10.742   2.625  -5.444  1.00  0.00    -0.248 NA
ATOM     52  C   UNL     1       9.110   4.143  -4.765  1.00  0.00     0.031 C 
ATOM     53  C   UNL     1       9.635  -0.035  -1.988  1.00  0.00     0.029 A 
ATOM     54  N   UNL     1      11.158   0.334  -3.577  1.00  0.00    -0.354 N 
ATOM     55  C   UNL     1      10.648   3.663  -6.367  1.00  0.00     0.074 A 
ATOM     56  C   UNL     1       9.520   4.475  -5.976  1.00  0.00     0.031 C 
ATOM     57  C   UNL     1      10.536  -1.029  -1.918  1.00  0.00     0.029 A 
ATOM     58  C   UNL     1      11.543  -0.833  -2.955  1.00  0.00     0.049 A 
ATOM     59  H   UNL     1      11.649   0.726  -4.335  1.00  0.00     0.167 HD
ATOM     60  C   UNL     1      11.465   3.954  -7.408  1.00  0.00     0.034 A 
ATOM     61  C   UNL     1      12.590  -1.646  -3.201  1.00  0.00     0.034 A 
ATOM     62  C   UNL     1      12.637   3.179  -7.716  1.00  0.00     0.049 A 
ATOM     63  C   UNL     1      13.531  -1.266  -4.321  1.00  0.00     0.074 A 
ATOM     64  C   UNL     1      13.580   3.388  -8.705  1.00  0.00     0.029 A 
ATOM     65  N   UNL     1      13.042   2.056  -7.006  1.00  0.00    -0.354 N 
ATOM     66  N   UNL     1      13.444  -0.262  -5.166  1.00  0.00    -0.248 NA
ATOM     67  C   UNL     1      14.717  -2.110  -4.509  1.00  0.00     0.031 C 
ATOM     68  C   UNL     1      14.540   2.374  -8.610  1.00  0.00     0.029 A 
ATOM     69  C   UNL     1      14.226   1.566  -7.528  1.00  0.00     0.049 A 
ATOM     70  H   UNL     1      12.558   1.666  -6.242  1.00  0.00     0.167 HD
ATOM     71  C   UNL     1      14.582  -0.339  -5.963  1.00  0.00     0.074 A 
ATOM     72  C   UNL     1      15.348  -1.470  -5.481  1.00  0.00     0.031 C 
ATOM     73  C   UNL     1      14.964   0.444  -7.005  1.00  0.00     0.034 A 
BRANCH  60  74
ATOM     74  C   UNL     1      11.121   5.164  -8.245  1.00  0.00     0.023 A 
ATOM     75  C   UNL     1      11.054   6.450  -7.678  1.00  0.00     0.031 A 
ATOM     76  C   UNL     1      10.794   5.032  -9.605  1.00  0.00     0.131 A 
ATOM     77  C   UNL     1      10.566   7.527  -8.431  1.00  0.00     0.055 A 
ATOM     78  C   UNL     1      10.406   6.129 -10.378  1.00  0.00     0.041 A 
ATOM     79  F   UNL     1      10.821   3.830 -10.201  1.00  0.00    -0.206 F 
ATOM     80  C   UNL     1      10.269   7.383  -9.787  1.00  0.00     0.022 A 
BRANCH  77  81
ATOM     81  S   UNL     1      10.171   9.073  -7.569  1.00  0.00     0.124 S 
ATOM     82  O   UNL     1       9.101   8.640  -6.672  1.00  0.00    -0.237 OA
ATOM     83  O   UNL     1      11.438   9.414  -6.931  1.00  0.00    -0.237 OA
ATOM     84  O   UNL     1       9.752   9.968  -8.645  1.00  0.00    -0.744 OA
ENDBRANCH  77  81
ENDBRANCH  60  74
BRANCH  61  85
ATOM     85  C   UNL     1      12.825  -2.874  -2.384  1.00  0.00     0.023 A 
ATOM     86  C   UNL     1      13.987  -3.013  -1.606  1.00  0.00     0.031 A 
ATOM     87  C   UNL     1      11.924  -3.953  -2.408  1.00  0.00     0.131 A 
ATOM     88  C   UNL     1      14.250  -4.222  -0.941  1.00  0.00     0.055 A 
ATOM     89  C   UNL     1      12.161  -5.132  -1.696  1.00  0.00     0.041 A 
ATOM     90  F   UNL     1      10.790  -3.876  -3.123  1.00  0.00    -0.206 F 
ATOM     91  C   UNL     1      13.339  -5.278  -0.972  1.00  0.00     0.022 A 
BRANCH  88  92
ATOM     92  S   UNL     1      15.860  -4.434  -0.129  1.00  0.00     0.124 S 
ATOM     93  O   UNL     1      16.784  -4.114  -1.211  1.00  0.00    -0.237 OA
ATOM     94  O   UNL     1      15.779  -3.461   0.956  1.00  0.00    -0.237 OA
ATOM     95  O   UNL     1      15.847  -5.835   0.288  1.00  0.00    -0.744 OA
ENDBRANCH  88  92
ENDBRANCH  61  85
BRANCH  73  96
ATOM     96  C   UNL     1      16.290   0.126  -7.642  1.00  0.00     0.023 A 
ATOM     97  C   UNL     1      16.482  -1.050  -8.384  1.00  0.00     0.031 A 
ATOM     98  C   UNL     1      17.369   1.015  -7.506  1.00  0.00     0.131 A 
ATOM     99  C   UNL     1      17.746  -1.335  -8.918  1.00  0.00     0.055 A 
ATOM    100  C   UNL     1      18.608   0.755  -8.090  1.00  0.00     0.041 A 
ATOM    101  F   UNL     1      17.233   2.155  -6.809  1.00  0.00    -0.206 F 
ATOM    102  C   UNL     1      18.805  -0.432  -8.790  1.00  0.00     0.022 A 
BRANCH  99 103
ATOM    103  S   UNL     1      18.007  -2.943  -9.711  1.00  0.00     0.124 S 
ATOM    104  O   UNL     1      17.695  -3.870  -8.627  1.00  0.00    -0.237 OA
ATOM    105  O   UNL     1      17.050  -2.907 -10.813  1.00  0.00    -0.237 OA
ATOM    106  O   UNL     1      19.412  -2.904 -10.110  1.00  0.00    -0.744 OA
ENDBRANCH  99 103
ENDBRANCH  73  96
ENDBRANCH  47  48
ENDBRANCH  39  42
ENDBRANCH  37  38
ENDBRANCH  36  37
ENDBRANCH  35  36
ENDBRANCH   1  35
TORSDOF 21
