REMARK SMILES COc1ccc(/C=C2/C(=O)N(c3ccccc3)C(=O)[NH+]=C2NCCCCCCNC(=O)c2ccc(-c3c4nc(c(-c5cc(S(=O)(=O)[O-])ccc5F)c5ccc([nH]5)c(-c5cc(S(=O)(=O)[O-])ccc5F)c5nc(c(-c6cc(S(=O)(=O)[O-])ccc6F)c6ccc3[nH]6)C=C5)C=C4)cc2)cc1C(=O)[O-]
REMARK SMILES IDX 26 1 25 2 24 3 23 4 22 5 7 6 8 7 9 8 21 9 10 10 11 11 20 12
REMARK SMILES IDX 18 13 19 16 6 17 3 18 4 19 96 20 5 21 95 22 2 23 1 24 97 25
REMARK SMILES IDX 98 26 99 27 12 28 13 29 17 30 14 31 16 32 15 33 27 34 28 35
REMARK SMILES IDX 29 36 30 37 31 39 32 40 33 41 94 42 34 43 93 44 35 45 36 46
REMARK SMILES IDX 37 47 87 48 38 49 92 50 86 51 88 52 39 53 91 54 85 55 84 56
REMARK SMILES IDX 40 58 72 59 52 60 71 61 53 62 56 63 70 64 89 65 54 66 55 67
REMARK SMILES IDX 69 69 90 70 57 71 41 72 42 73 50 74 43 75 49 76 51 77 48 78
REMARK SMILES IDX 44 79 45 80 46 81 47 82 73 83 74 84 82 85 75 86 81 87 83 88
REMARK SMILES IDX 80 89 76 90 77 91 78 92 79 93 58 94 59 95 67 96 60 97 66 98
REMARK SMILES IDX 68 99 65 100 61 101 62 102 63 103 64 104
REMARK H PARENT 20 14 22 15 29 38 88 57 56 68
REMARK Flexibility Score: inf
ROOT
ATOM      1  C   UNL     1      -2.039   1.232   1.769  1.00  0.00     0.002 C 
ENDROOT
BRANCH   1   2
ATOM      2  C   UNL     1      -1.067   0.524   2.757  1.00  0.00     0.003 C 
BRANCH   2   3
ATOM      3  C   UNL     1       0.610   0.905   3.203  1.00  0.00     0.037 C 
BRANCH   3   4
ATOM      4  C   UNL     1       1.715   2.688   3.832  1.00  0.00     0.194 C 
BRANCH   4   5
ATOM      5  N   UNL     1       1.245   3.936   4.792  1.00  0.00    -0.305 N 
ATOM      6  C   UNL     1       1.031   1.575   6.667  1.00  0.00     0.030 C 
ATOM      7  C   UNL     1       1.248   2.832   7.072  1.00  0.00     0.129 C 
ATOM      8  C   UNL     1       1.611   3.171   8.459  1.00  0.00     0.328 C 
ATOM      9  C   UNL     1       1.017   3.974   6.156  1.00  0.00     0.236 C 
ATOM     10  O   UNL     1       2.282   2.404   9.145  1.00  0.00    -0.249 OA
ATOM     11  N   UNL     1       1.083   4.387   8.851  1.00  0.00    -0.155 N 
ATOM     12  N   UNL     1       0.504   5.061   6.664  1.00  0.00    -0.209 N 
ATOM     13  C   UNL     1       0.203   5.067   8.014  1.00  0.00     0.448 C 
ATOM     14  H   UNL     1       0.338   5.853   6.103  1.00  0.00     0.270 HD
ATOM     15  H   UNL     1       1.104   4.790   4.323  1.00  0.00     0.256 HD
ATOM     16  O   UNL     1      -0.808   5.629   8.433  1.00  0.00    -0.212 OA
BRANCH   6  17
ATOM     17  C   UNL     1       0.860   1.394   5.233  1.00  0.00    -0.024 A 
ATOM     18  C   UNL     1       1.605   2.082   1.769  1.00  0.00     0.127 A 
ATOM     19  C   UNL     1       0.122   2.788   2.520  1.00  0.00     0.048 A 
ATOM     20  C   UNL     1       2.730   1.105   2.762  1.00  0.00     0.040 A 
ATOM     21  C   UNL     1      -0.305   2.388   4.249  1.00  0.00     0.012 A 
ATOM     22  C   UNL     1       2.346   0.731   4.463  1.00  0.00     0.022 A 
BRANCH  18  23
ATOM     23  O   UNL     1       1.766   2.245   0.420  1.00  0.00    -0.496 OA
ATOM     24  C   UNL     1       1.948   0.980  -0.228  1.00  0.00     0.278 C 
ENDBRANCH  18  23
BRANCH  20  25
ATOM     25  C   UNL     1       4.053   0.662   2.310  1.00  0.00     0.075 C 
ATOM     26  O   UNL     1       4.678  -0.255   2.802  1.00  0.00    -0.545 OA
ATOM     27  O   UNL     1       4.546   1.464   1.361  1.00  0.00    -0.545 OA
ENDBRANCH  20  25
ENDBRANCH   6  17
BRANCH  11  28
ATOM     28  C   UNL     1       1.207   4.765  10.207  1.00  0.00     0.111 A 
ATOM     29  C   UNL     1       0.248   4.402  11.157  1.00  0.00     0.044 A 
ATOM     30  C   UNL     1       2.346   5.479  10.597  1.00  0.00     0.044 A 
ATOM     31  C   UNL     1       0.436   4.749  12.497  1.00  0.00     0.004 A 
ATOM     32  C   UNL     1       2.523   5.835  11.933  1.00  0.00     0.004 A 
ATOM     33  C   UNL     1       1.571   5.466  12.883  1.00  0.00     0.000 A 
ENDBRANCH  11  28
ENDBRANCH   4   5
ENDBRANCH   3   4
ENDBRANCH   2   3
ENDBRANCH   1   2
BRANCH   1  34
ATOM     34  C   UNL     1      -1.665   1.416   0.292  1.00  0.00     0.021 C 
BRANCH  34  35
ATOM     35  C   UNL     1      -1.429   0.127  -0.486  1.00  0.00     0.116 C 
BRANCH  35  36
ATOM     36  N   UNL     1      -2.492  -0.172  -1.426  1.00  0.00    -0.352 N 
ATOM     37  C   UNL     1      -2.366  -0.671  -2.704  1.00  0.00     0.251 C 
ATOM     38  H   UNL     1      -3.409   0.002  -1.115  1.00  0.00     0.163 HD
ATOM     39  O   UNL     1      -3.340  -0.681  -3.451  1.00  0.00    -0.269 OA
BRANCH  37  40
ATOM     40  C   UNL     1      -1.050  -1.170  -3.188  1.00  0.00     0.039 A 
ATOM     41  C   UNL     1      -0.628  -0.826  -4.475  1.00  0.00     0.014 A 
ATOM     42  C   UNL     1      -0.249  -2.004  -2.400  1.00  0.00     0.014 A 
ATOM     43  C   UNL     1       0.594  -1.302  -4.964  1.00  0.00     0.010 A 
ATOM     44  C   UNL     1       0.998  -2.431  -2.867  1.00  0.00     0.010 A 
ATOM     45  C   UNL     1       1.425  -2.105  -4.164  1.00  0.00    -0.014 A 
BRANCH  45  46
ATOM     46  C   UNL     1       2.702  -2.653  -4.707  1.00  0.00     0.031 A 
ATOM     47  C   UNL     1       2.858  -4.138  -4.924  1.00  0.00     0.074 A 
ATOM     48  C   UNL     1       3.722  -1.826  -5.010  1.00  0.00     0.049 A 
ATOM     49  N   UNL     1       3.881  -4.804  -5.401  1.00  0.00    -0.248 NA
ATOM     50  C   UNL     1       1.723  -4.986  -4.533  1.00  0.00     0.031 C 
ATOM     51  C   UNL     1       3.713  -0.374  -4.828  1.00  0.00     0.029 A 
ATOM     52  N   UNL     1       4.962  -2.084  -5.544  1.00  0.00    -0.354 N 
ATOM     53  C   UNL     1       3.513  -6.146  -5.367  1.00  0.00     0.074 A 
ATOM     54  C   UNL     1       2.201  -6.201  -4.758  1.00  0.00     0.031 C 
ATOM     55  C   UNL     1       4.875   0.132  -5.274  1.00  0.00     0.029 A 
ATOM     56  C   UNL     1       5.729  -0.958  -5.739  1.00  0.00     0.049 A 
ATOM     57  H   UNL     1       5.273  -2.991  -5.767  1.00  0.00     0.167 HD
ATOM     58  C   UNL     1       4.189  -7.229  -5.827  1.00  0.00     0.034 A 
ATOM     59  C   UNL     1       6.976  -0.817  -6.234  1.00  0.00     0.034 A 
ATOM     60  C   UNL     1       5.492  -7.166  -6.444  1.00  0.00     0.049 A 
ATOM     61  C   UNL     1       7.727  -2.041  -6.700  1.00  0.00     0.074 A 
ATOM     62  C   UNL     1       6.238  -8.198  -6.988  1.00  0.00     0.029 A 
ATOM     63  N   UNL     1       6.249  -6.011  -6.592  1.00  0.00    -0.354 N 
ATOM     64  N   UNL     1       7.340  -3.295  -6.707  1.00  0.00    -0.248 NA
ATOM     65  C   UNL     1       9.079  -1.827  -7.234  1.00  0.00     0.031 C 
ATOM     66  C   UNL     1       7.473  -7.681  -7.396  1.00  0.00     0.029 A 
ATOM     67  C   UNL     1       7.467  -6.312  -7.182  1.00  0.00     0.049 A 
ATOM     68  H   UNL     1       5.962  -5.110  -6.317  1.00  0.00     0.167 HD
ATOM     69  C   UNL     1       8.391  -4.013  -7.274  1.00  0.00     0.074 A 
ATOM     70  C   UNL     1       9.418  -3.051  -7.611  1.00  0.00     0.031 C 
ATOM     71  C   UNL     1       8.495  -5.348  -7.500  1.00  0.00     0.034 A 
BRANCH  58  72
ATOM     72  C   UNL     1       3.535  -8.582  -5.654  1.00  0.00     0.023 A 
ATOM     73  C   UNL     1       2.317  -8.899  -6.283  1.00  0.00     0.031 A 
ATOM     74  C   UNL     1       4.126  -9.561  -4.837  1.00  0.00     0.131 A 
ATOM     75  C   UNL     1       1.693 -10.128  -6.023  1.00  0.00     0.055 A 
ATOM     76  C   UNL     1       3.541 -10.816  -4.650  1.00  0.00     0.041 A 
ATOM     77  F   UNL     1       5.278  -9.312  -4.195  1.00  0.00    -0.206 F 
ATOM     78  C   UNL     1       2.309 -11.100  -5.231  1.00  0.00     0.022 A 
BRANCH  75  79
ATOM     79  S   UNL     1      -0.003 -10.379  -6.613  1.00  0.00     0.124 S 
ATOM     80  O   UNL     1      -0.706  -9.273  -5.967  1.00  0.00    -0.237 OA
ATOM     81  O   UNL     1       0.149 -10.281  -8.060  1.00  0.00    -0.237 OA
ATOM     82  O   UNL     1      -0.349 -11.706  -6.109  1.00  0.00    -0.744 OA
ENDBRANCH  75  79
ENDBRANCH  58  72
BRANCH  59  83
ATOM     83  C   UNL     1       7.612   0.532  -6.309  1.00  0.00     0.023 A 
ATOM     84  C   UNL     1       7.964   1.102  -7.543  1.00  0.00     0.031 A 
ATOM     85  C   UNL     1       7.927   1.248  -5.139  1.00  0.00     0.131 A 
ATOM     86  C   UNL     1       8.653   2.324  -7.579  1.00  0.00     0.055 A 
ATOM     87  C   UNL     1       8.562   2.490  -5.183  1.00  0.00     0.041 A 
ATOM     88  F   UNL     1       7.612   0.750  -3.933  1.00  0.00    -0.206 F 
ATOM     89  C   UNL     1       8.942   3.029  -6.408  1.00  0.00     0.022 A 
BRANCH  86  90
ATOM     90  S   UNL     1       9.250   2.941  -9.177  1.00  0.00     0.124 S 
ATOM     91  O   UNL     1      10.100   1.841  -9.620  1.00  0.00    -0.237 OA
ATOM     92  O   UNL     1       8.004   3.126  -9.914  1.00  0.00    -0.237 OA
ATOM     93  O   UNL     1       9.954   4.172  -8.825  1.00  0.00    -0.744 OA
ENDBRANCH  86  90
ENDBRANCH  59  83
BRANCH  71  94
ATOM     94  C   UNL     1       9.754  -5.838  -8.176  1.00  0.00     0.023 A 
ATOM     95  C   UNL     1      11.008  -5.767  -7.546  1.00  0.00     0.031 A 
ATOM     96  C   UNL     1       9.696  -6.381  -9.473  1.00  0.00     0.131 A 
ATOM     97  C   UNL     1      12.161  -6.179  -8.232  1.00  0.00     0.055 A 
ATOM     98  C   UNL     1      10.838  -6.846 -10.127  1.00  0.00     0.041 A 
ATOM     99  F   UNL     1       8.526  -6.472 -10.124  1.00  0.00    -0.206 F 
ATOM    100  C   UNL     1      12.082  -6.734  -9.512  1.00  0.00     0.022 A 
BRANCH  97 101
ATOM    101  S   UNL     1      13.780  -5.899  -7.464  1.00  0.00     0.124 S 
ATOM    102  O   UNL     1      13.784  -4.451  -7.284  1.00  0.00    -0.237 OA
ATOM    103  O   UNL     1      13.689  -6.693  -6.243  1.00  0.00    -0.237 OA
ATOM    104  O   UNL     1      14.725  -6.402  -8.460  1.00  0.00    -0.744 OA
ENDBRANCH  97 101
ENDBRANCH  71  94
ENDBRANCH  45  46
ENDBRANCH  37  40
ENDBRANCH  35  36
ENDBRANCH  34  35
ENDBRANCH   1  34
TORSDOF 19
