REMARK SMILES Cn1c(=O)c(=O)n(C)c2cc(S(=O)(=O)N3CCC[C@H]3C(=O)NCCCCCCNC(=O)c3ccc(-c4c5nc(c(-c6cc(S(=O)(=O)[O-])ccc6F)c6ccc([nH]6)c(-c6cc(S(=O)(=O)[O-])ccc6F)c6nc(c(-c7cc(S(=O)(=O)[O-])ccc7F)c7ccc4[nH]7)C=C6)C=C5)cc3)ccc21
REMARK SMILES IDX 26 1 25 2 24 3 23 4 22 5 20 6 21 7 19 9 15 10 16 11 17 12
REMARK SMILES IDX 18 13 12 14 13 15 14 16 11 17 1 18 2 19 3 20 97 21 4 22 5 23
REMARK SMILES IDX 9 24 96 25 6 26 7 27 10 28 95 29 8 30 27 31 28 32 29 33
REMARK SMILES IDX 30 34 31 36 32 37 33 38 94 39 34 40 93 41 35 42 36 43 37 44
REMARK SMILES IDX 87 45 38 46 92 47 86 48 88 49 39 50 91 51 85 52 84 53 40 55
REMARK SMILES IDX 72 56 52 57 71 58 53 59 56 60 70 61 89 62 54 63 55 64 69 66
REMARK SMILES IDX 90 67 57 68 41 69 42 70 50 71 43 72 49 73 51 74 48 75 44 76
REMARK SMILES IDX 45 77 46 78 47 79 73 80 74 81 82 82 75 83 81 84 83 85 80 86
REMARK SMILES IDX 76 87 77 88 78 89 79 90 58 91 59 92 67 93 60 94 66 95 68 96
REMARK SMILES IDX 65 97 61 98 62 99 63 100 64 101
REMARK H PARENT 22 8 29 35 88 54 56 65
REMARK Flexibility Score: inf
ROOT
ATOM      1  C   UNL     1       5.859   8.043  -2.744  1.00  0.00     0.002 C 
ENDROOT
BRANCH   1   2
ATOM      2  C   UNL     1       4.436   8.557  -2.494  1.00  0.00     0.002 C 
BRANCH   2   3
ATOM      3  C   UNL     1       3.481   7.531  -1.878  1.00  0.00     0.021 C 
BRANCH   3   4
ATOM      4  C   UNL     1       3.865   7.121  -0.456  1.00  0.00     0.116 C 
BRANCH   4   5
ATOM      5  N   UNL     1       3.402   8.101   0.518  1.00  0.00    -0.355 N 
ATOM      6  C   UNL     1       2.297   8.044   1.337  1.00  0.00     0.238 C 
ATOM      7  O   UNL     1       2.017   9.023   2.026  1.00  0.00    -0.273 OA
ATOM      8  H   UNL     1       3.953   8.912   0.601  1.00  0.00     0.163 HD
BRANCH   6   9
ATOM      9  C   UNL     1       1.482   6.755   1.323  1.00  0.00     0.162 C 
ATOM     10  N   UNL     1       0.499   6.592   2.417  1.00  0.00    -0.185 NA
ATOM     11  C   UNL     1      -0.859   6.719   1.873  1.00  0.00     0.103 C 
ATOM     12  C   UNL     1      -0.730   6.187   0.462  1.00  0.00     0.019 C 
ATOM     13  C   UNL     1       0.654   6.642   0.032  1.00  0.00     0.032 C 
BRANCH  10  14
ATOM     14  S   UNL     1       0.817   5.510   3.664  1.00  0.00     0.243 S 
ATOM     15  O   UNL     1      -0.233   5.662   4.642  1.00  0.00    -0.207 OA
ATOM     16  O   UNL     1       2.216   5.642   4.030  1.00  0.00    -0.207 OA
BRANCH  14  17
ATOM     17  C   UNL     1       0.652   3.851   2.994  1.00  0.00     0.084 A 
ATOM     18  C   UNL     1       0.834  -0.458   0.227  1.00  0.00     0.154 C 
ATOM     19  N   UNL     1       0.360  -0.135   1.568  1.00  0.00    -0.305 N 
ATOM     20  C   UNL     1      -0.213  -1.155   2.321  1.00  0.00     0.316 A 
ATOM     21  C   UNL     1       0.468   1.189   2.067  1.00  0.00     0.068 A 
ATOM     22  O   UNL     1      -0.361  -2.304   1.914  1.00  0.00    -0.263 OA
ATOM     23  C   UNL     1      -0.677  -0.816   3.743  1.00  0.00     0.316 A 
ATOM     24  C   UNL     1      -0.056   1.530   3.328  1.00  0.00     0.069 A 
ATOM     25  C   UNL     1       1.111   2.177   1.314  1.00  0.00     0.030 A 
ATOM     26  O   UNL     1      -1.094  -1.726   4.457  1.00  0.00    -0.263 OA
ATOM     27  N   UNL     1      -0.606   0.515   4.158  1.00  0.00    -0.305 N 
ATOM     28  C   UNL     1       0.011   2.872   3.766  1.00  0.00     0.050 A 
ATOM     29  C   UNL     1       1.227   3.482   1.785  1.00  0.00     0.024 A 
ATOM     30  C   UNL     1      -1.048   0.826   5.508  1.00  0.00     0.154 C 
ENDBRANCH  14  17
ENDBRANCH  10  14
ENDBRANCH   6   9
ENDBRANCH   4   5
ENDBRANCH   3   4
ENDBRANCH   2   3
ENDBRANCH   1   2
BRANCH   1  31
ATOM     31  C   UNL     1       5.958   6.778  -3.599  1.00  0.00     0.021 C 
BRANCH  31  32
ATOM     32  C   UNL     1       5.331   6.894  -4.984  1.00  0.00     0.116 C 
BRANCH  32  33
ATOM     33  N   UNL     1       6.017   7.867  -5.822  1.00  0.00    -0.352 N 
ATOM     34  C   UNL     1       6.563   7.699  -7.074  1.00  0.00     0.251 C 
ATOM     35  H   UNL     1       6.104   8.770  -5.439  1.00  0.00     0.163 HD
ATOM     36  O   UNL     1       7.269   8.576  -7.560  1.00  0.00    -0.269 OA
BRANCH  34  37
ATOM     37  C   UNL     1       6.314   6.439  -7.806  1.00  0.00     0.039 A 
ATOM     38  C   UNL     1       5.024   5.910  -7.875  1.00  0.00     0.014 A 
ATOM     39  C   UNL     1       7.388   5.761  -8.389  1.00  0.00     0.014 A 
ATOM     40  C   UNL     1       4.835   4.626  -8.374  1.00  0.00     0.010 A 
ATOM     41  C   UNL     1       7.179   4.506  -8.968  1.00  0.00     0.010 A 
ATOM     42  C   UNL     1       5.911   3.905  -8.919  1.00  0.00    -0.014 A 
BRANCH  42  43
ATOM     43  C   UNL     1       5.680   2.530  -9.433  1.00  0.00     0.031 A 
ATOM     44  C   UNL     1       6.326   1.340  -8.778  1.00  0.00     0.074 A 
ATOM     45  C   UNL     1       4.830   2.353 -10.462  1.00  0.00     0.049 A 
ATOM     46  N   UNL     1       6.192   0.071  -9.065  1.00  0.00    -0.248 NA
ATOM     47  C   UNL     1       7.243   1.607  -7.659  1.00  0.00     0.031 C 
ATOM     48  C   UNL     1       4.145   3.436 -11.168  1.00  0.00     0.029 A 
ATOM     49  N   UNL     1       4.377   1.213 -11.077  1.00  0.00    -0.354 N 
ATOM     50  C   UNL     1       7.006  -0.613  -8.169  1.00  0.00     0.074 A 
ATOM     51  C   UNL     1       7.668   0.387  -7.360  1.00  0.00     0.031 C 
ATOM     52  C   UNL     1       3.317   2.909 -12.079  1.00  0.00     0.029 A 
ATOM     53  C   UNL     1       3.465   1.455 -12.077  1.00  0.00     0.049 A 
ATOM     54  H   UNL     1       4.676   0.309 -10.826  1.00  0.00     0.167 HD
ATOM     55  C   UNL     1       7.170  -1.950  -8.023  1.00  0.00     0.034 A 
ATOM     56  C   UNL     1       2.825   0.610 -12.911  1.00  0.00     0.034 A 
ATOM     57  C   UNL     1       6.508  -2.933  -8.844  1.00  0.00     0.049 A 
ATOM     58  C   UNL     1       3.055  -0.870 -12.763  1.00  0.00     0.074 A 
ATOM     59  C   UNL     1       6.608  -4.311  -8.775  1.00  0.00     0.029 A 
ATOM     60  N   UNL     1       5.627  -2.649  -9.878  1.00  0.00    -0.354 N 
ATOM     61  N   UNL     1       3.805  -1.501 -11.889  1.00  0.00    -0.248 NA
ATOM     62  C   UNL     1       2.358  -1.755 -13.704  1.00  0.00     0.031 C 
ATOM     63  C   UNL     1       5.835  -4.857  -9.801  1.00  0.00     0.029 A 
ATOM     64  C   UNL     1       5.193  -3.825 -10.469  1.00  0.00     0.049 A 
ATOM     65  H   UNL     1       5.350  -1.745 -10.152  1.00  0.00     0.167 HD
ATOM     66  C   UNL     1       3.666  -2.856 -12.171  1.00  0.00     0.074 A 
ATOM     67  C   UNL     1       2.733  -2.954 -13.275  1.00  0.00     0.031 C 
ATOM     68  C   UNL     1       4.263  -3.918 -11.572  1.00  0.00     0.034 A 
BRANCH  55  69
ATOM     69  C   UNL     1       8.092  -2.442  -6.932  1.00  0.00     0.023 A 
ATOM     70  C   UNL     1       9.251  -3.172  -7.256  1.00  0.00     0.031 A 
ATOM     71  C   UNL     1       7.774  -2.272  -5.572  1.00  0.00     0.131 A 
ATOM     72  C   UNL     1      10.038  -3.721  -6.235  1.00  0.00     0.055 A 
ATOM     73  C   UNL     1       8.582  -2.788  -4.558  1.00  0.00     0.041 A 
ATOM     74  F   UNL     1       6.680  -1.582  -5.209  1.00  0.00    -0.206 F 
ATOM     75  C   UNL     1       9.714  -3.525  -4.888  1.00  0.00     0.022 A 
BRANCH  72  76
ATOM     76  S   UNL     1      11.478  -4.757  -6.609  1.00  0.00     0.124 S 
ATOM     77  O   UNL     1      12.568  -3.969  -6.038  1.00  0.00    -0.237 OA
ATOM     78  O   UNL     1      11.161  -5.992  -5.896  1.00  0.00    -0.237 OA
ATOM     79  O   UNL     1      11.474  -4.851  -8.065  1.00  0.00    -0.744 OA
ENDBRANCH  72  76
ENDBRANCH  55  69
BRANCH  56  80
ATOM     80  C   UNL     1       1.876   1.179 -13.910  1.00  0.00     0.023 A 
ATOM     81  C   UNL     1       2.325   2.085 -14.890  1.00  0.00     0.031 A 
ATOM     82  C   UNL     1       0.494   0.959 -13.797  1.00  0.00     0.131 A 
ATOM     83  C   UNL     1       1.396   2.812 -15.643  1.00  0.00     0.055 A 
ATOM     84  C   UNL     1      -0.425   1.626 -14.609  1.00  0.00     0.041 A 
ATOM     85  F   UNL     1       0.017   0.114 -12.869  1.00  0.00    -0.206 F 
ATOM     86  C   UNL     1       0.024   2.576 -15.522  1.00  0.00     0.022 A 
BRANCH  83  87
ATOM     87  S   UNL     1       1.931   4.203 -16.680  1.00  0.00     0.124 S 
ATOM     88  O   UNL     1       1.401   3.832 -17.987  1.00  0.00    -0.237 OA
ATOM     89  O   UNL     1       1.268   5.329 -16.025  1.00  0.00    -0.237 OA
ATOM     90  O   UNL     1       3.385   4.184 -16.559  1.00  0.00    -0.744 OA
ENDBRANCH  83  87
ENDBRANCH  56  80
BRANCH  68  91
ATOM     91  C   UNL     1       3.954  -5.303 -12.089  1.00  0.00     0.023 A 
ATOM     92  C   UNL     1       3.328  -6.245 -11.251  1.00  0.00     0.031 A 
ATOM     93  C   UNL     1       4.417  -5.733 -13.345  1.00  0.00     0.131 A 
ATOM     94  C   UNL     1       3.222  -7.580 -11.660  1.00  0.00     0.055 A 
ATOM     95  C   UNL     1       4.266  -7.055 -13.767  1.00  0.00     0.041 A 
ATOM     96  F   UNL     1       5.029  -4.875 -14.176  1.00  0.00    -0.206 F 
ATOM     97  C   UNL     1       3.680  -7.988 -12.917  1.00  0.00     0.022 A 
BRANCH  94  98
ATOM     98  S   UNL     1       2.569  -8.852 -10.543  1.00  0.00     0.124 S 
ATOM     99  O   UNL     1       1.417  -9.348 -11.292  1.00  0.00    -0.237 OA
ATOM    100  O   UNL     1       3.694  -9.777 -10.442  1.00  0.00    -0.237 OA
ATOM    101  O   UNL     1       2.248  -8.118  -9.323  1.00  0.00    -0.744 OA
ENDBRANCH  94  98
ENDBRANCH  68  91
ENDBRANCH  42  43
ENDBRANCH  34  37
ENDBRANCH  32  33
ENDBRANCH  31  32
ENDBRANCH   1  31
TORSDOF 18
