REMARK SMILES CC(C)N(CCCC(=O)NCCCCCCNC(=O)c1ccc(-c2c3nc(c(-c4cc(S(=O)(=O)[O-])ccc4F)c4ccc([nH]4)c(-c4cc(S(=O)(=O)[O-])ccc4F)c4nc(c(-c5cc(S(=O)(=O)[O-])ccc5F)c5ccc2[nH]5)C=C4)C=C3)cc1)C(=O)N[C@@H]1CCCC1(C)C
REMARK SMILES IDX 12 1 11 2 10 3 8 4 9 5 7 7 6 8 5 9 4 10 2 11 1 12 3 13 83 14
REMARK SMILES IDX 84 15 85 16 86 18 87 19 90 20 88 21 89 22 91 23 92 24 13 25
REMARK SMILES IDX 14 26 15 27 16 28 17 29 18 30 19 32 20 33 21 34 82 35 22 36
REMARK SMILES IDX 81 37 23 38 24 39 25 40 75 41 26 42 80 43 74 44 76 45 27 46
REMARK SMILES IDX 79 47 73 48 72 49 28 51 60 52 40 53 59 54 41 55 44 56 58 57
REMARK SMILES IDX 77 58 42 59 43 60 57 62 78 63 45 64 29 65 30 66 38 67 31 68
REMARK SMILES IDX 37 69 39 70 36 71 32 72 33 73 34 74 35 75 61 76 62 77 70 78
REMARK SMILES IDX 63 79 69 80 71 81 68 82 64 83 65 84 66 85 67 86 46 87 47 88
REMARK SMILES IDX 55 89 48 90 54 91 56 92 53 93 49 94 50 95 51 96 52 97
REMARK H PARENT 10 6 85 17 17 31 76 50 44 61
REMARK Flexibility Score: inf
ROOT
ATOM      1  C   UNL     1      -5.806   4.258   1.841  1.00  0.00     0.021 C 
ENDROOT
BRANCH   1   2
ATOM      2  C   UNL     1      -6.117   3.512   0.505  1.00  0.00     0.116 C 
BRANCH   2   3
ATOM      3  N   UNL     1      -5.078   2.623  -0.055  1.00  0.00    -0.356 N 
ATOM      4  C   UNL     1      -4.968   1.274  -0.305  1.00  0.00     0.220 C 
ATOM      5  O   UNL     1      -4.005   0.949  -1.017  1.00  0.00    -0.275 OA
ATOM      6  H   UNL     1      -4.266   3.116  -0.312  1.00  0.00     0.163 HD
BRANCH   4   7
ATOM      7  C   UNL     1      -5.907   0.161   0.218  1.00  0.00     0.102 C 
BRANCH   7   8
ATOM      8  C   UNL     1      -5.189  -1.046   0.932  1.00  0.00     0.031 C 
BRANCH   8   9
ATOM      9  C   UNL     1      -5.257  -1.260   2.481  1.00  0.00     0.122 C 
BRANCH   9  10
ATOM     10  N   UNL     1      -5.721  -0.142   3.271  1.00  0.00    -0.322 N 
BRANCH  10  11
ATOM     11  C   UNL     1      -6.900  -0.287   4.210  1.00  0.00     0.080 C 
ATOM     12  C   UNL     1      -7.564   1.025   4.724  1.00  0.00     0.031 C 
ATOM     13  C   UNL     1      -8.039  -1.143   3.645  1.00  0.00     0.031 C 
ENDBRANCH  10  11
BRANCH  10  14
ATOM     14  C   UNL     1      -5.330   1.085   2.910  1.00  0.00     0.317 C 
ATOM     15  O   UNL     1      -6.204   1.946   2.838  1.00  0.00    -0.249 OA
ATOM     16  N   UNL     1      -4.120   1.420   2.458  1.00  0.00    -0.335 N 
ATOM     17  H   UNL     1      -4.166   2.374   2.220  1.00  0.00     0.165 HD
BRANCH  16  18
ATOM     18  C   UNL     1      -2.760   0.986   2.164  1.00  0.00     0.089 C 
ATOM     19  C   UNL     1      -2.103  -0.061   3.055  1.00  0.00     0.025 C 
ATOM     20  C   UNL     1      -1.789   2.215   2.200  1.00  0.00    -0.015 C 
ATOM     21  C   UNL     1      -0.631   0.352   3.183  1.00  0.00     0.003 C 
ATOM     22  C   UNL     1      -0.430   1.512   2.217  1.00  0.00     0.008 C 
ATOM     23  C   UNL     1      -1.891   3.139   0.977  1.00  0.00     0.013 C 
ATOM     24  C   UNL     1      -1.984   3.071   3.470  1.00  0.00     0.013 C 
ENDBRANCH  16  18
ENDBRANCH  10  14
ENDBRANCH   9  10
ENDBRANCH   8   9
ENDBRANCH   7   8
ENDBRANCH   4   7
ENDBRANCH   2   3
ENDBRANCH   1   2
BRANCH   1  25
ATOM     25  C   UNL     1      -5.081   5.598   1.883  1.00  0.00     0.002 C 
BRANCH  25  26
ATOM     26  C   UNL     1      -5.985   6.796   2.183  1.00  0.00     0.002 C 
BRANCH  26  27
ATOM     27  C   UNL     1      -6.893   6.702   3.426  1.00  0.00     0.021 C 
BRANCH  27  28
ATOM     28  C   UNL     1      -6.193   6.432   4.760  1.00  0.00     0.116 C 
BRANCH  28  29
ATOM     29  N   UNL     1      -5.368   7.561   5.165  1.00  0.00    -0.352 N 
ATOM     30  C   UNL     1      -5.658   8.550   6.080  1.00  0.00     0.251 C 
ATOM     31  H   UNL     1      -4.488   7.626   4.729  1.00  0.00     0.163 HD
ATOM     32  O   UNL     1      -5.007   9.585   6.102  1.00  0.00    -0.269 OA
BRANCH  30  33
ATOM     33  C   UNL     1      -6.769   8.341   7.031  1.00  0.00     0.039 A 
ATOM     34  C   UNL     1      -7.793   9.286   7.122  1.00  0.00     0.014 A 
ATOM     35  C   UNL     1      -6.791   7.192   7.828  1.00  0.00     0.014 A 
ATOM     36  C   UNL     1      -8.876   9.048   7.974  1.00  0.00     0.010 A 
ATOM     37  C   UNL     1      -7.898   6.931   8.631  1.00  0.00     0.010 A 
ATOM     38  C   UNL     1      -8.950   7.856   8.715  1.00  0.00    -0.014 A 
BRANCH  38  39
ATOM     39  C   UNL     1     -10.110   7.566   9.599  1.00  0.00     0.031 A 
ATOM     40  C   UNL     1      -9.910   7.466  11.087  1.00  0.00     0.074 A 
ATOM     41  C   UNL     1     -11.321   7.324   9.059  1.00  0.00     0.049 A 
ATOM     42  N   UNL     1     -10.770   7.152  12.022  1.00  0.00    -0.248 NA
ATOM     43  C   UNL     1      -8.549   7.719  11.581  1.00  0.00     0.031 C 
ATOM     44  C   UNL     1     -11.625   7.344   7.627  1.00  0.00     0.029 A 
ATOM     45  N   UNL     1     -12.519   7.003   9.647  1.00  0.00    -0.354 N 
ATOM     46  C   UNL     1     -10.051   7.154  13.213  1.00  0.00     0.074 A 
ATOM     47  C   UNL     1      -8.673   7.432  12.867  1.00  0.00     0.031 C 
ATOM     48  C   UNL     1     -12.929   7.074   7.450  1.00  0.00     0.029 A 
ATOM     49  C   UNL     1     -13.546   6.823   8.749  1.00  0.00     0.049 A 
ATOM     50  H   UNL     1     -12.633   6.912  10.621  1.00  0.00     0.167 HD
ATOM     51  C   UNL     1     -10.503   6.969  14.479  1.00  0.00     0.034 A 
ATOM     52  C   UNL     1     -14.836   6.488   8.952  1.00  0.00     0.034 A 
ATOM     53  C   UNL     1     -11.884   6.703  14.801  1.00  0.00     0.049 A 
ATOM     54  C   UNL     1     -15.317   6.272  10.364  1.00  0.00     0.074 A 
ATOM     55  C   UNL     1     -12.469   6.556  16.047  1.00  0.00     0.029 A 
ATOM     56  N   UNL     1     -12.899   6.534  13.866  1.00  0.00    -0.354 N 
ATOM     57  N   UNL     1     -14.638   6.336  11.487  1.00  0.00    -0.248 NA
ATOM     58  C   UNL     1     -16.739   5.952  10.537  1.00  0.00     0.031 C 
ATOM     59  C   UNL     1     -13.819   6.234  15.864  1.00  0.00     0.029 A 
ATOM     60  C   UNL     1     -14.097   6.254  14.506  1.00  0.00     0.049 A 
ATOM     61  H   UNL     1     -12.784   6.603  12.891  1.00  0.00     0.167 HD
ATOM     62  C   UNL     1     -15.559   6.094  12.502  1.00  0.00     0.074 A 
ATOM     63  C   UNL     1     -16.842   5.896  11.857  1.00  0.00     0.031 C 
ATOM     64  C   UNL     1     -15.366   6.045  13.846  1.00  0.00     0.034 A 
BRANCH  51  65
ATOM     65  C   UNL     1      -9.481   7.022  15.592  1.00  0.00     0.023 A 
ATOM     66  C   UNL     1      -8.719   8.178  15.840  1.00  0.00     0.031 A 
ATOM     67  C   UNL     1      -9.224   5.888  16.383  1.00  0.00     0.131 A 
ATOM     68  C   UNL     1      -7.674   8.145  16.776  1.00  0.00     0.055 A 
ATOM     69  C   UNL     1      -8.244   5.890  17.379  1.00  0.00     0.041 A 
ATOM     70  F   UNL     1      -9.903   4.747  16.186  1.00  0.00    -0.206 F 
ATOM     71  C   UNL     1      -7.448   7.016  17.566  1.00  0.00     0.022 A 
BRANCH  68  72
ATOM     72  S   UNL     1      -6.509   9.535  16.821  1.00  0.00     0.124 S 
ATOM     73  O   UNL     1      -6.010   9.544  15.447  1.00  0.00    -0.237 OA
ATOM     74  O   UNL     1      -7.366  10.652  17.198  1.00  0.00    -0.237 OA
ATOM     75  O   UNL     1      -5.531   9.130  17.828  1.00  0.00    -0.744 OA
ENDBRANCH  68  72
ENDBRANCH  51  65
BRANCH  52  76
ATOM     76  C   UNL     1     -15.767   6.341   7.796  1.00  0.00     0.023 A 
ATOM     77  C   UNL     1     -16.846   7.222   7.622  1.00  0.00     0.031 A 
ATOM     78  C   UNL     1     -15.608   5.301   6.863  1.00  0.00     0.131 A 
ATOM     79  C   UNL     1     -17.747   7.026   6.564  1.00  0.00     0.055 A 
ATOM     80  C   UNL     1     -16.479   5.139   5.784  1.00  0.00     0.041 A 
ATOM     81  F   UNL     1     -14.589   4.435   6.980  1.00  0.00    -0.206 F 
ATOM     82  C   UNL     1     -17.564   5.998   5.636  1.00  0.00     0.022 A 
BRANCH  79  83
ATOM     83  S   UNL     1     -19.207   8.097   6.453  1.00  0.00     0.124 S 
ATOM     84  O   UNL     1     -19.863   7.839   7.731  1.00  0.00    -0.237 OA
ATOM     85  O   UNL     1     -18.604   9.416   6.296  1.00  0.00    -0.237 OA
ATOM     86  O   UNL     1     -19.912   7.593   5.277  1.00  0.00    -0.744 OA
ENDBRANCH  79  83
ENDBRANCH  52  76
BRANCH  64  87
ATOM     87  C   UNL     1     -16.584   5.807  14.704  1.00  0.00     0.023 A 
ATOM     88  C   UNL     1     -17.276   4.583  14.685  1.00  0.00     0.031 A 
ATOM     89  C   UNL     1     -17.063   6.826  15.546  1.00  0.00     0.131 A 
ATOM     90  C   UNL     1     -18.441   4.428  15.452  1.00  0.00     0.055 A 
ATOM     91  C   UNL     1     -18.187   6.645  16.353  1.00  0.00     0.041 A 
ATOM     92  F   UNL     1     -16.443   8.015  15.602  1.00  0.00    -0.206 F 
ATOM     93  C   UNL     1     -18.891   5.445  16.299  1.00  0.00     0.022 A 
BRANCH  90  94
ATOM     94  S   UNL     1     -19.414   2.910  15.260  1.00  0.00     0.124 S 
ATOM     95  O   UNL     1     -19.733   2.932  13.836  1.00  0.00    -0.237 OA
ATOM     96  O   UNL     1     -18.474   1.879  15.686  1.00  0.00    -0.237 OA
ATOM     97  O   UNL     1     -20.552   3.117  16.153  1.00  0.00    -0.744 OA
ENDBRANCH  90  94
ENDBRANCH  64  87
ENDBRANCH  38  39
ENDBRANCH  30  33
ENDBRANCH  28  29
ENDBRANCH  27  28
ENDBRANCH  26  27
ENDBRANCH  25  26
ENDBRANCH   1  25
TORSDOF 22
