REMARK SMILES Cc1ccc(-n2cnnn2)cc1OCC(=O)NCCCCCCNC(=O)c1ccc(-c2c3nc(c(-c4cc(S(=O)(=O)[O-])ccc4F)c4ccc([nH]4)c(-c4cc(S(=O)(=O)[O-])ccc4F)c4nc(c(-c5cc(S(=O)(=O)[O-])ccc5F)c5ccc2[nH]5)C=C4)C=C3)cc1
REMARK SMILES IDX 20 1 19 2 18 3 17 4 15 5 16 6 14 8 13 9 12 10 1 11 2 12 3 13
REMARK SMILES IDX 4 14 11 15 5 16 6 17 7 18 10 19 8 20 9 21 21 22 22 23 23 24
REMARK SMILES IDX 24 25 25 26 26 28 27 29 28 30 89 31 29 32 88 33 30 34 31 35
REMARK SMILES IDX 32 36 82 37 33 38 87 39 81 40 83 41 34 42 86 43 80 44 79 45
REMARK SMILES IDX 35 47 67 48 47 49 66 50 48 51 51 52 65 53 84 54 49 55 50 56
REMARK SMILES IDX 64 58 85 59 52 60 36 61 37 62 45 63 38 64 44 65 46 66 43 67
REMARK SMILES IDX 39 68 40 69 41 70 42 71 68 72 69 73 77 74 70 75 76 76 78 77
REMARK SMILES IDX 75 78 71 79 72 80 73 81 74 82 53 83 54 84 62 85 55 86 61 87
REMARK SMILES IDX 63 88 60 89 56 90 57 91 58 92 59 93
REMARK H PARENT 17 7 24 27 83 46 51 57
REMARK Flexibility Score: inf
ROOT
ATOM      1  C   UNL     1       1.100   2.593   4.928  1.00  0.00     0.002 C 
ENDROOT
BRANCH   1   2
ATOM      2  C   UNL     1       0.532   3.021   3.568  1.00  0.00     0.021 C 
BRANCH   2   3
ATOM      3  C   UNL     1       1.541   3.442   2.503  1.00  0.00     0.116 C 
BRANCH   3   4
ATOM      4  N   UNL     1       2.575   2.457   2.268  1.00  0.00    -0.353 N 
ATOM      5  C   UNL     1       3.113   2.061   1.082  1.00  0.00     0.257 C 
ATOM      6  O   UNL     1       4.186   1.450   1.091  1.00  0.00    -0.271 OA
ATOM      7  H   UNL     1       2.936   2.015   3.071  1.00  0.00     0.163 HD
BRANCH   5   8
ATOM      8  C   UNL     1       2.434   2.440  -0.241  1.00  0.00     0.329 C 
BRANCH   8   9
ATOM      9  O   UNL     1       1.075   2.171  -0.499  1.00  0.00    -0.483 OA
BRANCH   9  10
ATOM     10  C   UNL     1       0.501   0.948  -0.315  1.00  0.00     0.125 A 
ATOM     11  C   UNL     1       2.530  -0.663  -0.408  1.00  0.00     0.048 C 
ATOM     12  C   UNL     1       1.082  -0.323  -0.218  1.00  0.00    -0.009 A 
ATOM     13  C   UNL     1       0.246  -1.422   0.082  1.00  0.00     0.009 A 
ATOM     14  C   UNL     1      -1.139  -1.296   0.167  1.00  0.00     0.029 A 
ATOM     15  C   UNL     1      -0.905   1.060  -0.272  1.00  0.00     0.075 A 
ATOM     16  C   UNL     1      -1.727  -0.055  -0.062  1.00  0.00     0.072 A 
BRANCH  16  17
ATOM     17  N   UNL     1      -3.136   0.049  -0.115  1.00  0.00    -0.200 N 
ATOM     18  C   UNL     1      -3.917   1.111  -0.495  1.00  0.00     0.252 A 
ATOM     19  N   UNL     1      -3.953  -0.999   0.133  1.00  0.00    -0.040 NA
ATOM     20  N   UNL     1      -5.179   0.751  -0.477  1.00  0.00    -0.117 NA
ATOM     21  N   UNL     1      -5.186  -0.556  -0.069  1.00  0.00    -0.024 NA
ENDBRANCH  16  17
ENDBRANCH   9  10
ENDBRANCH   8   9
ENDBRANCH   5   8
ENDBRANCH   3   4
ENDBRANCH   2   3
ENDBRANCH   1   2
BRANCH   1  22
ATOM     22  C   UNL     1       2.131   3.515   5.595  1.00  0.00     0.002 C 
BRANCH  22  23
ATOM     23  C   UNL     1       1.757   4.990   5.739  1.00  0.00     0.021 C 
BRANCH  23  24
ATOM     24  C   UNL     1       0.481   5.251   6.532  1.00  0.00     0.116 C 
BRANCH  24  25
ATOM     25  N   UNL     1       0.691   5.944   7.797  1.00  0.00    -0.352 N 
ATOM     26  C   UNL     1      -0.255   6.430   8.690  1.00  0.00     0.251 C 
ATOM     27  H   UNL     1       1.631   6.087   8.053  1.00  0.00     0.163 HD
ATOM     28  O   UNL     1       0.067   7.033   9.696  1.00  0.00    -0.269 OA
BRANCH  26  29
ATOM     29  C   UNL     1      -1.681   6.074   8.469  1.00  0.00     0.039 A 
ATOM     30  C   UNL     1      -2.340   5.415   9.512  1.00  0.00     0.014 A 
ATOM     31  C   UNL     1      -2.267   6.158   7.209  1.00  0.00     0.014 A 
ATOM     32  C   UNL     1      -3.457   4.633   9.229  1.00  0.00     0.010 A 
ATOM     33  C   UNL     1      -3.319   5.314   6.906  1.00  0.00     0.010 A 
ATOM     34  C   UNL     1      -3.869   4.500   7.901  1.00  0.00    -0.014 A 
BRANCH  34  35
ATOM     35  C   UNL     1      -4.729   3.408   7.456  1.00  0.00     0.031 A 
ATOM     36  C   UNL     1      -6.141   3.634   7.097  1.00  0.00     0.074 A 
ATOM     37  C   UNL     1      -4.225   2.156   7.372  1.00  0.00     0.049 A 
ATOM     38  N   UNL     1      -7.078   2.764   7.280  1.00  0.00    -0.248 NA
ATOM     39  C   UNL     1      -6.614   4.885   6.518  1.00  0.00     0.031 C 
ATOM     40  C   UNL     1      -4.862   0.978   6.791  1.00  0.00     0.029 A 
ATOM     41  N   UNL     1      -3.106   1.656   8.029  1.00  0.00    -0.354 N 
ATOM     42  C   UNL     1      -8.188   3.208   6.602  1.00  0.00     0.074 A 
ATOM     43  C   UNL     1      -7.872   4.562   6.202  1.00  0.00     0.031 C 
ATOM     44  C   UNL     1      -4.296  -0.120   7.314  1.00  0.00     0.029 A 
ATOM     45  C   UNL     1      -3.361   0.311   8.338  1.00  0.00     0.049 A 
ATOM     46  H   UNL     1      -2.284   2.155   8.240  1.00  0.00     0.167 HD
ATOM     47  C   UNL     1      -9.207   2.351   6.312  1.00  0.00     0.034 A 
ATOM     48  C   UNL     1      -3.342  -0.123   9.632  1.00  0.00     0.034 A 
ATOM     49  C   UNL     1      -8.950   1.000   6.800  1.00  0.00     0.049 A 
ATOM     50  C   UNL     1      -4.676  -0.661  10.106  1.00  0.00     0.074 A 
ATOM     51  C   UNL     1      -8.478  -0.145   6.179  1.00  0.00     0.029 A 
ATOM     52  N   UNL     1      -8.896   0.756   8.167  1.00  0.00    -0.354 N 
ATOM     53  N   UNL     1      -5.800  -0.507   9.462  1.00  0.00    -0.248 NA
ATOM     54  C   UNL     1      -4.852  -1.388  11.360  1.00  0.00     0.031 C 
ATOM     55  C   UNL     1      -8.066  -1.053   7.188  1.00  0.00     0.029 A 
ATOM     56  C   UNL     1      -8.322  -0.476   8.420  1.00  0.00     0.049 A 
ATOM     57  H   UNL     1      -9.223   1.375   8.860  1.00  0.00     0.167 HD
ATOM     58  C   UNL     1      -6.830  -1.041  10.194  1.00  0.00     0.074 A 
ATOM     59  C   UNL     1      -6.177  -1.617  11.356  1.00  0.00     0.031 C 
ATOM     60  C   UNL     1      -8.133  -0.943   9.788  1.00  0.00     0.034 A 
BRANCH  47  61
ATOM     61  C   UNL     1     -10.275   2.695   5.306  1.00  0.00     0.023 A 
ATOM     62  C   UNL     1     -10.732   1.719   4.398  1.00  0.00     0.031 A 
ATOM     63  C   UNL     1     -10.847   3.974   5.175  1.00  0.00     0.131 A 
ATOM     64  C   UNL     1     -11.625   2.049   3.362  1.00  0.00     0.055 A 
ATOM     65  C   UNL     1     -11.687   4.320   4.108  1.00  0.00     0.041 A 
ATOM     66  F   UNL     1     -10.623   4.931   6.089  1.00  0.00    -0.206 F 
ATOM     67  C   UNL     1     -12.069   3.357   3.184  1.00  0.00     0.022 A 
BRANCH  64  68
ATOM     68  S   UNL     1     -12.215   0.739   2.253  1.00  0.00     0.124 S 
ATOM     69  O   UNL     1     -10.972   0.212   1.701  1.00  0.00    -0.237 OA
ATOM     70  O   UNL     1     -12.937  -0.137   3.170  1.00  0.00    -0.237 OA
ATOM     71  O   UNL     1     -13.058   1.458   1.298  1.00  0.00    -0.744 OA
ENDBRANCH  64  68
ENDBRANCH  47  61
BRANCH  48  72
ATOM     72  C   UNL     1      -2.336   0.591  10.472  1.00  0.00     0.023 A 
ATOM     73  C   UNL     1      -0.991   0.549  10.040  1.00  0.00     0.031 A 
ATOM     74  C   UNL     1      -2.695   1.582  11.394  1.00  0.00     0.131 A 
ATOM     75  C   UNL     1      -0.099   1.572  10.389  1.00  0.00     0.055 A 
ATOM     76  C   UNL     1      -1.778   2.562  11.800  1.00  0.00     0.041 A 
ATOM     77  F   UNL     1      -3.961   1.696  11.819  1.00  0.00    -0.206 F 
ATOM     78  C   UNL     1      -0.489   2.588  11.262  1.00  0.00     0.022 A 
BRANCH  75  79
ATOM     79  S   UNL     1       1.469   1.720   9.478  1.00  0.00     0.124 S 
ATOM     80  O   UNL     1       2.393   0.992  10.340  1.00  0.00    -0.237 OA
ATOM     81  O   UNL     1       1.165   1.087   8.196  1.00  0.00    -0.237 OA
ATOM     82  O   UNL     1       1.683   3.163   9.396  1.00  0.00    -0.744 OA
ENDBRANCH  75  79
ENDBRANCH  48  72
BRANCH  60  83
ATOM     83  C   UNL     1      -9.347  -1.347  10.600  1.00  0.00     0.023 A 
ATOM     84  C   UNL     1      -9.332  -1.489  11.995  1.00  0.00     0.031 A 
ATOM     85  C   UNL     1     -10.607  -1.535   9.979  1.00  0.00     0.131 A 
ATOM     86  C   UNL     1     -10.484  -1.888  12.700  1.00  0.00     0.055 A 
ATOM     87  C   UNL     1     -11.769  -1.849  10.690  1.00  0.00     0.041 A 
ATOM     88  F   UNL     1     -10.764  -1.420   8.652  1.00  0.00    -0.206 F 
ATOM     89  C   UNL     1     -11.710  -2.046  12.060  1.00  0.00     0.022 A 
BRANCH  86  90
ATOM     90  S   UNL     1     -10.323  -2.269  14.464  1.00  0.00     0.124 S 
ATOM     91  O   UNL     1      -9.374  -3.379  14.445  1.00  0.00    -0.237 OA
ATOM     92  O   UNL     1      -9.819  -1.014  15.012  1.00  0.00    -0.237 OA
ATOM     93  O   UNL     1     -11.682  -2.624  14.867  1.00  0.00    -0.744 OA
ENDBRANCH  86  90
ENDBRANCH  60  83
ENDBRANCH  34  35
ENDBRANCH  26  29
ENDBRANCH  24  25
ENDBRANCH  23  24
ENDBRANCH  22  23
ENDBRANCH   1  22
TORSDOF 19
