REMARK SMILES O=C(C[C@@H](NS(=O)(=O)c1ccc(Cl)cc1)c1ccc(F)cc1)NCCCCCCNC(=O)c1ccc(-c2c3nc(c(-c4cc(S(=O)(=O)[O-])ccc4F)c4ccc([nH]4)c(-c4cc(S(=O)(=O)[O-])ccc4F)c4nc(c(-c5cc(S(=O)(=O)[O-])ccc5F)c5ccc2[nH]5)C=C4)C=C3)cc1
REMARK SMILES IDX 26 1 25 2 24 3 23 4 1 5 2 6 3 8 4 9 5 10 6 12 7 13 8 14 9 15
REMARK SMILES IDX 10 16 15 17 11 18 14 19 12 20 13 21 16 22 17 23 22 24 18 25
REMARK SMILES IDX 21 26 19 27 20 28 27 29 28 30 29 31 30 32 31 33 32 35 33 36
REMARK SMILES IDX 34 37 95 38 35 39 94 40 36 41 37 42 38 43 88 44 39 45 93 46
REMARK SMILES IDX 87 47 89 48 40 49 92 50 86 51 85 52 41 54 73 55 53 56 72 57
REMARK SMILES IDX 54 58 57 59 71 60 90 61 55 62 56 63 70 65 91 66 58 67 42 68
REMARK SMILES IDX 43 69 51 70 44 71 50 72 52 73 49 74 45 75 46 76 47 77 48 78
REMARK SMILES IDX 74 79 75 80 83 81 76 82 82 83 84 84 81 85 77 86 78 87 79 88
REMARK SMILES IDX 80 89 59 90 60 91 68 92 61 93 67 94 69 95 66 96 62 97 63 98
REMARK SMILES IDX 64 99 65 100
REMARK H PARENT 23 7 5 11 30 34 89 53 57 64
REMARK Flexibility Score: inf
ROOT
ATOM      1  C   UNL     1       4.231   1.592   3.350  1.00  0.00     0.002 C 
ENDROOT
BRANCH   1   2
ATOM      2  C   UNL     1       2.723   1.358   3.201  1.00  0.00     0.021 C 
BRANCH   2   3
ATOM      3  C   UNL     1       2.183   1.515   1.781  1.00  0.00     0.116 C 
BRANCH   3   4
ATOM      4  N   UNL     1       2.708   0.506   0.881  1.00  0.00    -0.356 N 
ATOM      5  O   UNL     1       1.224   0.960  -0.815  1.00  0.00    -0.275 OA
ATOM      6  C   UNL     1       2.163   0.311  -0.369  1.00  0.00     0.221 C 
ATOM      7  H   UNL     1       3.468  -0.050   1.168  1.00  0.00     0.163 HD
BRANCH   6   8
ATOM      8  C   UNL     1       2.854  -0.757  -1.180  1.00  0.00     0.124 C 
BRANCH   8   9
ATOM      9  C   UNL     1       3.833  -0.114  -2.180  1.00  0.00     0.109 C 
BRANCH   9  10
ATOM     10  N   UNL     1       5.026   0.368  -1.434  1.00  0.00    -0.203 NA
ATOM     11  H   UNL     1       5.579  -0.453  -1.191  1.00  0.00     0.142 HD
BRANCH  10  12
ATOM     12  S   UNL     1       6.073   1.467  -2.181  1.00  0.00     0.241 S 
ATOM     13  O   UNL     1       5.301   2.249  -3.123  1.00  0.00    -0.207 OA
ATOM     14  O   UNL     1       6.814   2.080  -1.105  1.00  0.00    -0.207 OA
BRANCH  12  15
ATOM     15  C   UNL     1       7.224   0.470  -3.088  1.00  0.00     0.082 A 
ATOM     16  C   UNL     1       7.580  -0.800  -2.627  1.00  0.00     0.023 A 
ATOM     17  C   UNL     1       7.714   0.950  -4.308  1.00  0.00     0.023 A 
ATOM     18  C   UNL     1       8.400  -1.611  -3.413  1.00  0.00     0.022 A 
ATOM     19  C   UNL     1       8.548   0.142  -5.082  1.00  0.00     0.022 A 
ATOM     20  C   UNL     1       8.876  -1.140  -4.638  1.00  0.00     0.041 A 
ATOM     21  Cl  UNL     1       9.866  -2.152  -5.615  1.00  0.00    -0.084 Cl
ENDBRANCH  12  15
ENDBRANCH  10  12
ENDBRANCH   9  10
BRANCH   9  22
ATOM     22  C   UNL     1       4.224  -1.109  -3.270  1.00  0.00    -0.029 A 
ATOM     23  C   UNL     1       4.373  -0.661  -4.595  1.00  0.00     0.008 A 
ATOM     24  C   UNL     1       4.504  -2.460  -2.985  1.00  0.00     0.008 A 
ATOM     25  C   UNL     1       4.804  -1.530  -5.599  1.00  0.00     0.039 A 
ATOM     26  C   UNL     1       4.915  -3.332  -3.995  1.00  0.00     0.039 A 
ATOM     27  C   UNL     1       5.069  -2.858  -5.291  1.00  0.00     0.123 A 
ATOM     28  F   UNL     1       5.485  -3.691  -6.253  1.00  0.00    -0.207 F 
ENDBRANCH   9  22
ENDBRANCH   8   9
ENDBRANCH   6   8
ENDBRANCH   3   4
ENDBRANCH   2   3
ENDBRANCH   1   2
BRANCH   1  29
ATOM     29  C   UNL     1       4.723   2.994   2.978  1.00  0.00     0.002 C 
BRANCH  29  30
ATOM     30  C   UNL     1       4.071   4.152   3.740  1.00  0.00     0.021 C 
BRANCH  30  31
ATOM     31  C   UNL     1       4.143   4.071   5.264  1.00  0.00     0.116 C 
BRANCH  31  32
ATOM     32  N   UNL     1       5.506   4.039   5.766  1.00  0.00    -0.352 N 
ATOM     33  C   UNL     1       6.063   4.702   6.832  1.00  0.00     0.251 C 
ATOM     34  H   UNL     1       6.122   3.455   5.267  1.00  0.00     0.163 HD
ATOM     35  O   UNL     1       7.276   4.631   7.016  1.00  0.00    -0.269 OA
BRANCH  33  36
ATOM     36  C   UNL     1       5.225   5.524   7.737  1.00  0.00     0.039 A 
ATOM     37  C   UNL     1       5.697   6.782   8.121  1.00  0.00     0.014 A 
ATOM     38  C   UNL     1       4.000   5.060   8.229  1.00  0.00     0.014 A 
ATOM     39  C   UNL     1       4.917   7.599   8.945  1.00  0.00     0.010 A 
ATOM     40  C   UNL     1       3.200   5.896   9.011  1.00  0.00     0.010 A 
ATOM     41  C   UNL     1       3.648   7.176   9.372  1.00  0.00    -0.014 A 
BRANCH  41  42
ATOM     42  C   UNL     1       2.780   8.075  10.178  1.00  0.00     0.031 A 
ATOM     43  C   UNL     1       2.465   7.749  11.612  1.00  0.00     0.074 A 
ATOM     44  C   UNL     1       2.252   9.175   9.604  1.00  0.00     0.049 A 
ATOM     45  N   UNL     1       1.698   8.394  12.453  1.00  0.00    -0.248 NA
ATOM     46  C   UNL     1       3.077   6.533  12.169  1.00  0.00     0.031 C 
ATOM     47  C   UNL     1       2.460   9.583   8.213  1.00  0.00     0.029 A 
ATOM     48  N   UNL     1       1.435  10.152  10.117  1.00  0.00    -0.354 N 
ATOM     49  C   UNL     1       1.726   7.661  13.634  1.00  0.00     0.074 A 
ATOM     50  C   UNL     1       2.558   6.502  13.389  1.00  0.00     0.031 C 
ATOM     51  C   UNL     1       1.814  10.740   7.993  1.00  0.00     0.029 A 
ATOM     52  C   UNL     1       1.117  11.139   9.212  1.00  0.00     0.049 A 
ATOM     53  H   UNL     1       1.106  10.147  11.045  1.00  0.00     0.167 HD
ATOM     54  C   UNL     1       1.127   7.939  14.817  1.00  0.00     0.034 A 
ATOM     55  C   UNL     1       0.351  12.240   9.346  1.00  0.00     0.034 A 
ATOM     56  C   UNL     1       0.325   9.109  15.064  1.00  0.00     0.049 A 
ATOM     57  C   UNL     1      -0.301  12.527  10.671  1.00  0.00     0.074 A 
ATOM     58  C   UNL     1      -0.286   9.499  16.244  1.00  0.00     0.029 A 
ATOM     59  N   UNL     1       0.026  10.081  14.121  1.00  0.00    -0.354 N 
ATOM     60  N   UNL     1      -0.257  11.822  11.777  1.00  0.00    -0.248 NA
ATOM     61  C   UNL     1      -1.101  13.756  10.772  1.00  0.00     0.031 C 
ATOM     62  C   UNL     1      -0.988  10.684  16.004  1.00  0.00     0.029 A 
ATOM     63  C   UNL     1      -0.771  11.060  14.689  1.00  0.00     0.049 A 
ATOM     64  H   UNL     1       0.336  10.076  13.187  1.00  0.00     0.167 HD
ATOM     65  C   UNL     1      -1.002  12.535  12.710  1.00  0.00     0.074 A 
ATOM     66  C   UNL     1      -1.490  13.722  12.040  1.00  0.00     0.031 C 
ATOM     67  C   UNL     1      -1.251  12.236  14.008  1.00  0.00     0.034 A 
BRANCH  54  68
ATOM     68  C   UNL     1       1.304   6.954  15.940  1.00  0.00     0.023 A 
ATOM     69  C   UNL     1       2.534   6.814  16.603  1.00  0.00     0.031 A 
ATOM     70  C   UNL     1       0.218   6.178  16.380  1.00  0.00     0.131 A 
ATOM     71  C   UNL     1       2.659   5.890  17.651  1.00  0.00     0.055 A 
ATOM     72  C   UNL     1       0.332   5.303  17.460  1.00  0.00     0.041 A 
ATOM     73  F   UNL     1      -0.975   6.267  15.770  1.00  0.00    -0.206 F 
ATOM     74  C   UNL     1       1.560   5.151  18.099  1.00  0.00     0.022 A 
BRANCH  71  75
ATOM     75  S   UNL     1       4.290   5.627  18.395  1.00  0.00     0.124 S 
ATOM     76  O   UNL     1       5.000   4.953  17.311  1.00  0.00    -0.237 OA
ATOM     77  O   UNL     1       4.729   6.985  18.697  1.00  0.00    -0.237 OA
ATOM     78  O   UNL     1       4.004   4.793  19.560  1.00  0.00    -0.744 OA
ENDBRANCH  71  75
ENDBRANCH  54  68
BRANCH  55  79
ATOM     79  C   UNL     1       0.155  13.154   8.188  1.00  0.00     0.023 A 
ATOM     80  C   UNL     1       0.741  14.428   8.168  1.00  0.00     0.031 A 
ATOM     81  C   UNL     1      -0.624  12.762   7.086  1.00  0.00     0.131 A 
ATOM     82  C   UNL     1       0.519  15.280   7.075  1.00  0.00     0.055 A 
ATOM     83  C   UNL     1      -0.813  13.599   5.985  1.00  0.00     0.041 A 
ATOM     84  F   UNL     1      -1.195  11.548   7.056  1.00  0.00    -0.206 F 
ATOM     85  C   UNL     1      -0.245  14.870   5.979  1.00  0.00     0.022 A 
BRANCH  82  86
ATOM     86  S   UNL     1       1.220  16.952   7.118  1.00  0.00     0.124 S 
ATOM     87  O   UNL     1       0.520  17.538   8.255  1.00  0.00    -0.237 OA
ATOM     88  O   UNL     1       2.641  16.683   7.307  1.00  0.00    -0.237 OA
ATOM     89  O   UNL     1       0.862  17.504   5.812  1.00  0.00    -0.744 OA
ENDBRANCH  82  86
ENDBRANCH  55  79
BRANCH  67  90
ATOM     90  C   UNL     1      -2.050  13.224  14.809  1.00  0.00     0.023 A 
ATOM     91  C   UNL     1      -3.445  13.312  14.683  1.00  0.00     0.031 A 
ATOM     92  C   UNL     1      -1.407  14.039  15.757  1.00  0.00     0.131 A 
ATOM     93  C   UNL     1      -4.157  14.214  15.487  1.00  0.00     0.055 A 
ATOM     94  C   UNL     1      -2.124  14.910  16.576  1.00  0.00     0.041 A 
ATOM     95  F   UNL     1      -0.075  13.982  15.914  1.00  0.00    -0.206 F 
ATOM     96  C   UNL     1      -3.507  15.001  16.443  1.00  0.00     0.022 A 
BRANCH  93  97
ATOM     97  S   UNL     1      -5.955  14.344  15.281  1.00  0.00     0.124 S 
ATOM     98  O   UNL     1      -6.062  15.010  13.987  1.00  0.00    -0.237 OA
ATOM     99  O   UNL     1      -6.383  12.949  15.317  1.00  0.00    -0.237 OA
ATOM    100  O   UNL     1      -6.373  15.145  16.430  1.00  0.00    -0.744 OA
ENDBRANCH  93  97
ENDBRANCH  67  90
ENDBRANCH  41  42
ENDBRANCH  33  36
ENDBRANCH  31  32
ENDBRANCH  30  31
ENDBRANCH  29  30
ENDBRANCH   1  29
TORSDOF 21
