REMARK SMILES COc1cc(/C=C2/CCc3cc(OC(C)(C)C(=O)NCCCCCCNC(=O)c4ccc(-c5c6nc(c(-c7cc(S(=O)(=O)[O-])ccc7F)c7ccc([nH]7)c(-c7cc(S(=O)(=O)[O-])ccc7F)c7nc(c(-c8cc(S(=O)(=O)[O-])ccc8F)c8ccc5[nH]8)C=C7)C=C6)cc4)ccc3C2=O)cc(OC)c1O
REMARK SMILES IDX 22 1 21 2 20 3 19 4 17 5 18 6 14 8 15 9 16 10 13 11 12 12
REMARK SMILES IDX 6 13 7 14 8 15 95 16 9 17 94 18 96 19 10 20 93 21 11 22
REMARK SMILES IDX 92 23 5 24 3 25 4 26 101 27 98 28 97 29 2 30 1 31 102 32
REMARK SMILES IDX 99 34 100 35 23 36 24 37 25 38 26 39 27 40 28 42 29 43 30 44
REMARK SMILES IDX 91 45 31 46 90 47 32 48 33 49 34 50 84 51 35 52 89 53 83 54
REMARK SMILES IDX 85 55 36 56 88 57 82 58 81 59 37 61 69 62 49 63 68 64 50 65
REMARK SMILES IDX 53 66 67 67 86 68 51 69 52 70 66 72 87 73 54 74 38 75 39 76
REMARK SMILES IDX 47 77 40 78 46 79 48 80 45 81 41 82 42 83 43 84 44 85 70 86
REMARK SMILES IDX 71 87 79 88 72 89 78 90 80 91 77 92 73 93 74 94 75 95 76 96
REMARK SMILES IDX 55 97 56 98 64 99 57 100 63 101 65 102 62 103 58 104 59 105
REMARK SMILES IDX 60 106 61 107
REMARK H PARENT 19 7 102 33 26 41 85 60 53 71
REMARK Flexibility Score: inf
ROOT
ATOM      1  C   UNL     1       7.824  -4.208  -7.544  1.00  0.00     0.002 C 
ENDROOT
BRANCH   1   2
ATOM      2  C   UNL     1       6.637  -3.253  -7.426  1.00  0.00     0.021 C 
BRANCH   2   3
ATOM      3  C   UNL     1       5.696  -3.253  -8.627  1.00  0.00     0.116 C 
BRANCH   3   4
ATOM      4  N   UNL     1       4.795  -4.395  -8.653  1.00  0.00    -0.353 N 
ATOM      5  C   UNL     1       3.459  -4.481  -8.967  1.00  0.00     0.263 C 
ATOM      6  O   UNL     1       2.967  -5.614  -8.972  1.00  0.00    -0.270 OA
ATOM      7  H   UNL     1       5.212  -5.252  -8.403  1.00  0.00     0.163 HD
BRANCH   5   8
ATOM      8  C   UNL     1       2.604  -3.201  -9.242  1.00  0.00     0.181 C 
ATOM      9  C   UNL     1       3.184  -2.417 -10.424  1.00  0.00     0.067 C 
ATOM     10  C   UNL     1       2.587  -2.420  -7.899  1.00  0.00     0.067 C 
BRANCH   8  11
ATOM     11  O   UNL     1       1.286  -3.617  -9.760  1.00  0.00    -0.478 OA
BRANCH  11  12
ATOM     12  C   UNL     1       0.214  -3.008  -9.157  1.00  0.00     0.121 A 
ATOM     13  C   UNL     1      -2.271   0.387  -4.611  1.00  0.00     0.016 C 
ATOM     14  C   UNL     1      -1.688   0.205  -5.813  1.00  0.00     0.001 C 
ATOM     15  C   UNL     1      -1.853   0.987  -7.102  1.00  0.00     0.044 C 
ATOM     16  C   UNL     1      -0.761  -0.934  -5.949  1.00  0.00     0.189 C 
ATOM     17  C   UNL     1      -0.842   0.558  -8.226  1.00  0.00     0.041 C 
ATOM     18  C   UNL     1      -0.976  -1.693  -7.171  1.00  0.00     0.026 A 
ATOM     19  O   UNL     1       0.224  -1.141  -5.256  1.00  0.00    -0.289 OA
ATOM     20  C   UNL     1      -0.700  -0.949  -8.321  1.00  0.00    -0.033 A 
ATOM     21  C   UNL     1      -0.978  -3.082  -7.107  1.00  0.00     0.016 A 
ATOM     22  C   UNL     1      -0.056  -1.636  -9.344  1.00  0.00     0.051 A 
ATOM     23  C   UNL     1      -0.402  -3.762  -8.157  1.00  0.00     0.047 A 
BRANCH  13  24
ATOM     24  C   UNL     1      -1.812  -0.354  -3.411  1.00  0.00    -0.018 A 
ATOM     25  C   UNL     1      -0.224  -0.307  -1.576  1.00  0.00     0.165 A 
ATOM     26  C   UNL     1      -1.007   0.358  -2.520  1.00  0.00     0.058 A 
ATOM     27  C   UNL     1      -0.232  -1.710  -1.523  1.00  0.00     0.200 A 
ATOM     28  C   UNL     1      -1.098  -2.445  -2.346  1.00  0.00     0.165 A 
ATOM     29  C   UNL     1      -1.899  -1.752  -3.276  1.00  0.00     0.058 A 
BRANCH  25  30
ATOM     30  O   UNL     1       0.612   0.519  -0.870  1.00  0.00    -0.493 OA
ATOM     31  C   UNL     1       0.833   0.184   0.494  1.00  0.00     0.278 C 
ENDBRANCH  25  30
BRANCH  27  32
ATOM     32  O   UNL     1       0.705  -2.347  -0.753  1.00  0.00    -0.502 OA
ATOM     33  H   UNL     1       1.280  -1.848  -0.207  1.00  0.00     0.293 HD
ENDBRANCH  27  32
BRANCH  28  34
ATOM     34  O   UNL     1      -1.200  -3.811  -2.454  1.00  0.00    -0.493 OA
ATOM     35  C   UNL     1      -0.554  -4.612  -1.472  1.00  0.00     0.278 C 
ENDBRANCH  28  34
ENDBRANCH  13  24
ENDBRANCH  11  12
ENDBRANCH   8  11
ENDBRANCH   5   8
ENDBRANCH   3   4
ENDBRANCH   2   3
ENDBRANCH   1   2
BRANCH   1  36
ATOM     36  C   UNL     1       8.684  -4.032  -8.801  1.00  0.00     0.002 C 
BRANCH  36  37
ATOM     37  C   UNL     1       9.175  -2.607  -9.079  1.00  0.00     0.021 C 
BRANCH  37  38
ATOM     38  C   UNL     1       9.991  -1.972  -7.956  1.00  0.00     0.116 C 
BRANCH  38  39
ATOM     39  N   UNL     1      11.191  -2.733  -7.658  1.00  0.00    -0.352 N 
ATOM     40  C   UNL     1      12.507  -2.330  -7.643  1.00  0.00     0.251 C 
ATOM     41  H   UNL     1      11.040  -3.679  -7.432  1.00  0.00     0.163 HD
ATOM     42  O   UNL     1      13.394  -3.163  -7.574  1.00  0.00    -0.269 OA
BRANCH  40  43
ATOM     43  C   UNL     1      12.836  -0.888  -7.732  1.00  0.00     0.039 A 
ATOM     44  C   UNL     1      13.863  -0.485  -8.588  1.00  0.00     0.014 A 
ATOM     45  C   UNL     1      12.152   0.057  -6.962  1.00  0.00     0.014 A 
ATOM     46  C   UNL     1      14.164   0.874  -8.720  1.00  0.00     0.010 A 
ATOM     47  C   UNL     1      12.412   1.415  -7.139  1.00  0.00     0.010 A 
ATOM     48  C   UNL     1      13.418   1.837  -8.022  1.00  0.00    -0.014 A 
BRANCH  48  49
ATOM     49  C   UNL     1      13.669   3.291  -8.208  1.00  0.00     0.031 A 
ATOM     50  C   UNL     1      14.174   4.122  -7.060  1.00  0.00     0.074 A 
ATOM     51  C   UNL     1      13.373   3.870  -9.389  1.00  0.00     0.049 A 
ATOM     52  N   UNL     1      14.355   5.416  -6.993  1.00  0.00    -0.248 NA
ATOM     53  C   UNL     1      14.494   3.406  -5.816  1.00  0.00     0.031 C 
ATOM     54  C   UNL     1      12.849   3.171 -10.565  1.00  0.00     0.029 A 
ATOM     55  N   UNL     1      13.455   5.179  -9.794  1.00  0.00    -0.354 N 
ATOM     56  C   UNL     1      14.794   5.673  -5.698  1.00  0.00     0.074 A 
ATOM     57  C   UNL     1      14.808   4.403  -5.002  1.00  0.00     0.031 C 
ATOM     58  C   UNL     1      12.666   4.056 -11.558  1.00  0.00     0.029 A 
ATOM     59  C   UNL     1      13.012   5.390 -11.080  1.00  0.00     0.049 A 
ATOM     60  H   UNL     1      13.799   5.900  -9.218  1.00  0.00     0.167 HD
ATOM     61  C   UNL     1      15.165   6.855  -5.149  1.00  0.00     0.034 A 
ATOM     62  C   UNL     1      12.879   6.531 -11.786  1.00  0.00     0.034 A 
ATOM     63  C   UNL     1      15.164   8.109  -5.863  1.00  0.00     0.049 A 
ATOM     64  C   UNL     1      13.278   7.836 -11.142  1.00  0.00     0.074 A 
ATOM     65  C   UNL     1      15.581   9.352  -5.420  1.00  0.00     0.029 A 
ATOM     66  N   UNL     1      14.717   8.283  -7.166  1.00  0.00    -0.354 N 
ATOM     67  N   UNL     1      13.741   8.052  -9.932  1.00  0.00    -0.248 NA
ATOM     68  C   UNL     1      13.147   9.048 -11.960  1.00  0.00     0.031 C 
ATOM     69  C   UNL     1      15.323  10.287  -6.428  1.00  0.00     0.029 A 
ATOM     70  C   UNL     1      14.817   9.617  -7.530  1.00  0.00     0.049 A 
ATOM     71  H   UNL     1      14.379   7.564  -7.747  1.00  0.00     0.167 HD
ATOM     72  C   UNL     1      13.986   9.420  -9.859  1.00  0.00     0.074 A 
ATOM     73  C   UNL     1      13.637   9.974 -11.151  1.00  0.00     0.031 C 
ATOM     74  C   UNL     1      14.457  10.155  -8.820  1.00  0.00     0.034 A 
BRANCH  61  75
ATOM     75  C   UNL     1      15.578   6.855  -3.697  1.00  0.00     0.023 A 
ATOM     76  C   UNL     1      16.727   6.178  -3.252  1.00  0.00     0.031 A 
ATOM     77  C   UNL     1      14.812   7.550  -2.743  1.00  0.00     0.131 A 
ATOM     78  C   UNL     1      17.046   6.164  -1.886  1.00  0.00     0.055 A 
ATOM     79  C   UNL     1      15.175   7.593  -1.396  1.00  0.00     0.041 A 
ATOM     80  F   UNL     1      13.694   8.198  -3.106  1.00  0.00    -0.206 F 
ATOM     81  C   UNL     1      16.293   6.888  -0.958  1.00  0.00     0.022 A 
BRANCH  78  82
ATOM     82  S   UNL     1      18.397   5.094  -1.321  1.00  0.00     0.124 S 
ATOM     83  O   UNL     1      17.914   3.775  -1.720  1.00  0.00    -0.237 OA
ATOM     84  O   UNL     1      19.540   5.609  -2.065  1.00  0.00    -0.237 OA
ATOM     85  O   UNL     1      18.436   5.325   0.122  1.00  0.00    -0.744 OA
ENDBRANCH  78  82
ENDBRANCH  61  75
BRANCH  62  86
ATOM     86  C   UNL     1      12.319   6.510 -13.169  1.00  0.00     0.023 A 
ATOM     87  C   UNL     1      13.087   6.929 -14.267  1.00  0.00     0.031 A 
ATOM     88  C   UNL     1      10.984   6.135 -13.406  1.00  0.00     0.131 A 
ATOM     89  C   UNL     1      12.500   7.023 -15.538  1.00  0.00     0.055 A 
ATOM     90  C   UNL     1      10.422   6.171 -14.683  1.00  0.00     0.041 A 
ATOM     91  F   UNL     1      10.205   5.722 -12.393  1.00  0.00    -0.206 F 
ATOM     92  C   UNL     1      11.176   6.634 -15.756  1.00  0.00     0.022 A 
BRANCH  89  93
ATOM     93  S   UNL     1      13.460   7.769 -16.884  1.00  0.00     0.124 S 
ATOM     94  O   UNL     1      13.813   9.064 -16.314  1.00  0.00    -0.237 OA
ATOM     95  O   UNL     1      14.554   6.816 -17.038  1.00  0.00    -0.237 OA
ATOM     96  O   UNL     1      12.511   7.813 -17.994  1.00  0.00    -0.744 OA
ENDBRANCH  89  93
ENDBRANCH  62  86
BRANCH  74  97
ATOM     97  C   UNL     1      14.665  11.630  -9.063  1.00  0.00     0.023 A 
ATOM     98  C   UNL     1      13.586  12.502  -9.290  1.00  0.00     0.031 A 
ATOM     99  C   UNL     1      15.965  12.166  -9.084  1.00  0.00     0.131 A 
ATOM    100  C   UNL     1      13.829  13.851  -9.586  1.00  0.00     0.055 A 
ATOM    101  C   UNL     1      16.197  13.522  -9.318  1.00  0.00     0.041 A 
ATOM    102  F   UNL     1      17.033  11.379  -8.876  1.00  0.00    -0.206 F 
ATOM    103  C   UNL     1      15.126  14.370  -9.584  1.00  0.00     0.022 A 
BRANCH 100 104
ATOM    104  S   UNL     1      12.430  14.903 -10.064  1.00  0.00     0.124 S 
ATOM    105  O   UNL     1      11.912  14.205 -11.236  1.00  0.00    -0.237 OA
ATOM    106  O   UNL     1      11.587  14.861  -8.873  1.00  0.00    -0.237 OA
ATOM    107  O   UNL     1      13.052  16.198 -10.336  1.00  0.00    -0.744 OA
ENDBRANCH 100 104
ENDBRANCH  74  97
ENDBRANCH  48  49
ENDBRANCH  40  43
ENDBRANCH  38  39
ENDBRANCH  37  38
ENDBRANCH  36  37
ENDBRANCH   1  36
TORSDOF 22
