REMARK SMILES O=C(NCCCCCCNC(=O)c1cccc(CS(=O)(=O)Nc2ncccn2)c1)c1ccc(-c2c3nc(c(-c4cc(S(=O)(=O)[O-])ccc4F)c4ccc([nH]4)c(-c4cc(S(=O)(=O)[O-])ccc4F)c4nc(c(-c5cc(S(=O)(=O)[O-])ccc5F)c5ccc2[nH]5)C=C4)C=C3)cc1
REMARK SMILES IDX 7 1 6 2 5 3 4 4 3 5 1 6 2 7 30 9 31 10 92 11 32 12 91 13
REMARK SMILES IDX 33 14 34 15 35 16 85 17 36 18 90 19 84 20 86 21 37 22 89 23
REMARK SMILES IDX 83 24 82 25 38 27 70 28 50 29 69 30 51 31 54 32 68 33 87 34
REMARK SMILES IDX 52 35 53 36 67 38 88 39 55 40 39 41 40 42 48 43 41 44 47 45
REMARK SMILES IDX 49 46 46 47 42 48 43 49 44 50 45 51 71 52 72 53 80 54 73 55
REMARK SMILES IDX 79 56 81 57 78 58 74 59 75 60 76 61 77 62 56 63 57 64 65 65
REMARK SMILES IDX 58 66 64 67 66 68 63 69 59 70 60 71 61 72 62 73 8 74 9 75
REMARK SMILES IDX 10 76 11 77 12 79 13 80 14 81 29 82 15 83 17 84 16 85 18 86
REMARK SMILES IDX 19 87 20 88 21 89 22 90 23 92 24 93 28 94 25 95 27 96 26 97
REMARK H PARENT 3 8 86 26 54 37 10 78 22 91
REMARK Flexibility Score: inf
ROOT
ATOM      1  C   UNL     1       4.648   2.594  -3.347  1.00  0.00     0.002 C 
ENDROOT
BRANCH   1   2
ATOM      2  C   UNL     1       4.095   1.212  -3.707  1.00  0.00     0.002 C 
BRANCH   2   3
ATOM      3  C   UNL     1       4.525   0.061  -2.799  1.00  0.00     0.021 C 
BRANCH   3   4
ATOM      4  C   UNL     1       4.304   0.282  -1.310  1.00  0.00     0.116 C 
BRANCH   4   5
ATOM      5  N   UNL     1       2.903   0.392  -0.941  1.00  0.00    -0.352 N 
ATOM      6  O   UNL     1       1.047  -0.064   0.267  1.00  0.00    -0.269 OA
ATOM      7  C   UNL     1       2.265  -0.165   0.144  1.00  0.00     0.251 C 
ATOM      8  H   UNL     1       2.340   0.933  -1.541  1.00  0.00     0.163 HD
BRANCH   7   9
ATOM      9  C   UNL     1       3.059  -0.915   1.145  1.00  0.00     0.039 A 
ATOM     10  C   UNL     1       4.255  -0.389   1.636  1.00  0.00     0.014 A 
ATOM     11  C   UNL     1       2.618  -2.172   1.571  1.00  0.00     0.014 A 
ATOM     12  C   UNL     1       5.079  -1.176   2.431  1.00  0.00     0.010 A 
ATOM     13  C   UNL     1       3.407  -2.925   2.449  1.00  0.00     0.010 A 
ATOM     14  C   UNL     1       4.659  -2.446   2.863  1.00  0.00    -0.014 A 
BRANCH  14  15
ATOM     15  C   UNL     1       5.529  -3.203   3.801  1.00  0.00     0.031 A 
ATOM     16  C   UNL     1       6.166  -4.507   3.407  1.00  0.00     0.074 A 
ATOM     17  C   UNL     1       5.791  -2.656   5.006  1.00  0.00     0.049 A 
ATOM     18  N   UNL     1       6.998  -5.254   4.088  1.00  0.00    -0.248 NA
ATOM     19  C   UNL     1       5.817  -5.049   2.087  1.00  0.00     0.031 C 
ATOM     20  C   UNL     1       5.209  -1.403   5.500  1.00  0.00     0.029 A 
ATOM     21  N   UNL     1       6.626  -3.052   6.016  1.00  0.00    -0.354 N 
ATOM     22  C   UNL     1       7.271  -6.357   3.285  1.00  0.00     0.074 A 
ATOM     23  C   UNL     1       6.481  -6.197   2.080  1.00  0.00     0.031 C 
ATOM     24  C   UNL     1       5.751  -1.105   6.688  1.00  0.00     0.029 A 
ATOM     25  C   UNL     1       6.663  -2.174   7.075  1.00  0.00     0.049 A 
ATOM     26  H   UNL     1       7.150  -3.885   5.988  1.00  0.00     0.167 HD
ATOM     27  C   UNL     1       8.108  -7.398   3.528  1.00  0.00     0.034 A 
ATOM     28  C   UNL     1       7.343  -2.225   8.236  1.00  0.00     0.034 A 
ATOM     29  C   UNL     1       8.882  -7.544   4.740  1.00  0.00     0.049 A 
ATOM     30  C   UNL     1       8.259  -3.392   8.479  1.00  0.00     0.074 A 
ATOM     31  C   UNL     1       9.757  -8.558   5.091  1.00  0.00     0.029 A 
ATOM     32  N   UNL     1       8.874  -6.648   5.803  1.00  0.00    -0.354 N 
ATOM     33  N   UNL     1       8.505  -4.423   7.704  1.00  0.00    -0.248 NA
ATOM     34  C   UNL     1       8.994  -3.398   9.748  1.00  0.00     0.031 C 
ATOM     35  C   UNL     1      10.234  -8.305   6.383  1.00  0.00     0.029 A 
ATOM     36  C   UNL     1       9.713  -7.096   6.814  1.00  0.00     0.049 A 
ATOM     37  H   UNL     1       8.350  -5.815   5.834  1.00  0.00     0.167 HD
ATOM     38  C   UNL     1       9.427  -5.201   8.395  1.00  0.00     0.074 A 
ATOM     39  C   UNL     1       9.724  -4.497   9.626  1.00  0.00     0.031 C 
ATOM     40  C   UNL     1       9.972  -6.396   8.050  1.00  0.00     0.034 A 
BRANCH  27  41
ATOM     41  C   UNL     1       8.200  -8.478   2.476  1.00  0.00     0.023 A 
ATOM     42  C   UNL     1       8.733  -8.222   1.200  1.00  0.00     0.031 A 
ATOM     43  C   UNL     1       7.743  -9.780   2.747  1.00  0.00     0.131 A 
ATOM     44  C   UNL     1       8.743  -9.233   0.227  1.00  0.00     0.055 A 
ATOM     45  C   UNL     1       7.821 -10.802   1.798  1.00  0.00     0.041 A 
ATOM     46  F   UNL     1       7.206 -10.081   3.940  1.00  0.00    -0.206 F 
ATOM     47  C   UNL     1       8.312 -10.529   0.524  1.00  0.00     0.022 A 
BRANCH  44  48
ATOM     48  S   UNL     1       9.214  -8.801  -1.470  1.00  0.00     0.124 S 
ATOM     49  O   UNL     1       8.217  -7.785  -1.804  1.00  0.00    -0.237 OA
ATOM     50  O   UNL     1      10.582  -8.322  -1.305  1.00  0.00    -0.237 OA
ATOM     51  O   UNL     1       9.076 -10.061  -2.197  1.00  0.00    -0.744 OA
ENDBRANCH  44  48
ENDBRANCH  27  41
BRANCH  28  52
ATOM     52  C   UNL     1       7.154  -1.162   9.262  1.00  0.00     0.023 A 
ATOM     53  C   UNL     1       8.212  -0.327   9.652  1.00  0.00     0.031 A 
ATOM     54  C   UNL     1       5.907  -0.984   9.888  1.00  0.00     0.131 A 
ATOM     55  C   UNL     1       8.014   0.621  10.668  1.00  0.00     0.055 A 
ATOM     56  C   UNL     1       5.700  -0.003  10.857  1.00  0.00     0.041 A 
ATOM     57  F   UNL     1       4.860  -1.753   9.547  1.00  0.00    -0.206 F 
ATOM     58  C   UNL     1       6.762   0.798  11.262  1.00  0.00     0.022 A 
BRANCH  55  59
ATOM     59  S   UNL     1       9.443   1.564  11.266  1.00  0.00     0.124 S 
ATOM     60  O   UNL     1      10.371   0.501  11.632  1.00  0.00    -0.237 OA
ATOM     61  O   UNL     1       9.799   2.350  10.089  1.00  0.00    -0.237 OA
ATOM     62  O   UNL     1       8.899   2.332  12.384  1.00  0.00    -0.744 OA
ENDBRANCH  55  59
ENDBRANCH  28  52
BRANCH  40  63
ATOM     63  C   UNL     1      10.952  -6.991   9.030  1.00  0.00     0.023 A 
ATOM     64  C   UNL     1      10.540  -7.423  10.304  1.00  0.00     0.031 A 
ATOM     65  C   UNL     1      12.318  -7.076   8.710  1.00  0.00     0.131 A 
ATOM     66  C   UNL     1      11.494  -7.851  11.238  1.00  0.00     0.055 A 
ATOM     67  C   UNL     1      13.255  -7.561   9.624  1.00  0.00     0.041 A 
ATOM     68  F   UNL     1      12.765  -6.675   7.510  1.00  0.00    -0.206 F 
ATOM     69  C   UNL     1      12.848  -7.934  10.902  1.00  0.00     0.022 A 
BRANCH  66  70
ATOM     70  S   UNL     1      10.956  -8.183  12.938  1.00  0.00     0.124 S 
ATOM     71  O   UNL     1      10.345  -6.913  13.317  1.00  0.00    -0.237 OA
ATOM     72  O   UNL     1      10.039  -9.304  12.761  1.00  0.00    -0.237 OA
ATOM     73  O   UNL     1      12.200  -8.504  13.635  1.00  0.00    -0.744 OA
ENDBRANCH  66  70
ENDBRANCH  40  63
ENDBRANCH  14  15
ENDBRANCH   7   9
ENDBRANCH   4   5
ENDBRANCH   3   4
ENDBRANCH   2   3
ENDBRANCH   1   2
BRANCH   1  74
ATOM     74  C   UNL     1       6.165   2.687  -3.149  1.00  0.00     0.021 C 
BRANCH  74  75
ATOM     75  C   UNL     1       7.013   2.182  -4.313  1.00  0.00     0.116 C 
BRANCH  75  76
ATOM     76  N   UNL     1       6.775   2.946  -5.524  1.00  0.00    -0.352 N 
ATOM     77  C   UNL     1       7.678   3.557  -6.352  1.00  0.00     0.251 C 
ATOM     78  H   UNL     1       5.830   3.039  -5.786  1.00  0.00     0.163 HD
ATOM     79  O   UNL     1       7.287   4.288  -7.259  1.00  0.00    -0.269 OA
BRANCH  77  80
ATOM     80  C   UNL     1       9.125   3.308  -6.191  1.00  0.00     0.040 A 
ATOM     81  C   UNL     1      10.003   4.393  -6.210  1.00  0.00     0.014 A 
ATOM     82  C   UNL     1       9.618   1.997  -6.160  1.00  0.00     0.018 A 
ATOM     83  C   UNL     1      11.376   4.164  -6.153  1.00  0.00     0.001 A 
ATOM     84  C   UNL     1      10.998   1.754  -6.166  1.00  0.00    -0.030 A 
ATOM     85  C   UNL     1      11.867   2.856  -6.118  1.00  0.00     0.005 A 
BRANCH  84  86
ATOM     86  C   UNL     1      11.506   0.333  -6.190  1.00  0.00     0.195 C 
BRANCH  86  87
ATOM     87  S   UNL     1      12.486  -0.059  -7.668  1.00  0.00     0.239 S 
ATOM     88  O   UNL     1      13.254   1.098  -8.090  1.00  0.00    -0.206 OA
ATOM     89  O   UNL     1      13.214  -1.281  -7.383  1.00  0.00    -0.206 OA
BRANCH  87  90
ATOM     90  N   UNL     1      11.500  -0.422  -8.954  1.00  0.00    -0.251 N 
ATOM     91  H   UNL     1      11.834  -0.957  -9.710  1.00  0.00     0.183 HD
BRANCH  90  92
ATOM     92  C   UNL     1      10.190   0.048  -8.937  1.00  0.00     0.236 A 
ATOM     93  N   UNL     1       9.240  -0.874  -8.774  1.00  0.00    -0.221 NA
ATOM     94  N   UNL     1      10.013   1.326  -9.266  1.00  0.00    -0.221 NA
ATOM     95  C   UNL     1       7.979  -0.451  -8.977  1.00  0.00     0.117 A 
ATOM     96  C   UNL     1       8.728   1.712  -9.402  1.00  0.00     0.117 A 
ATOM     97  C   UNL     1       7.659   0.852  -9.283  1.00  0.00     0.040 A 
ENDBRANCH  90  92
ENDBRANCH  87  90
ENDBRANCH  86  87
ENDBRANCH  84  86
ENDBRANCH  77  80
ENDBRANCH  75  76
ENDBRANCH  74  75
ENDBRANCH   1  74
TORSDOF 20
