REMARK SMILES Cc1ccc(C[C@@H](Cc2cc(F)cc(Br)c2)C(=O)NCCCCCCNC(=O)c2ccc(-c3c4nc(c(-c5cc(S(=O)(=O)[O-])ccc5F)c5ccc([nH]5)c(-c5cc(S(=O)(=O)[O-])ccc5F)c5nc(c(-c6cc(S(=O)(=O)[O-])ccc6F)c6ccc3[nH]6)C=C5)C=C4)cc2)cc1
REMARK SMILES IDX 23 1 22 2 21 3 20 4 19 5 17 6 18 7 7 9 6 10 5 11 1 12 2 13
REMARK SMILES IDX 3 14 93 15 4 16 92 17 8 18 9 19 10 20 16 21 11 22 14 23
REMARK SMILES IDX 12 24 13 25 15 26 24 27 25 28 26 29 27 30 28 32 29 33 30 34
REMARK SMILES IDX 91 35 31 36 90 37 32 38 33 39 34 40 84 41 35 42 89 43 83 44
REMARK SMILES IDX 85 45 36 46 88 47 82 48 81 49 37 51 69 52 49 53 68 54 50 55
REMARK SMILES IDX 53 56 67 57 86 58 51 59 52 60 66 62 87 63 54 64 38 65 39 66
REMARK SMILES IDX 47 67 40 68 46 69 48 70 45 71 41 72 42 73 43 74 44 75 70 76
REMARK SMILES IDX 71 77 79 78 72 79 78 80 80 81 77 82 73 83 74 84 75 85 76 86
REMARK SMILES IDX 55 87 56 88 64 89 57 90 63 91 65 92 62 93 58 94 59 95 60 96
REMARK SMILES IDX 61 97
REMARK H PARENT 19 8 26 31 85 50 53 61
REMARK Flexibility Score: inf
ROOT
ATOM      1  C   UNL     1      -8.329  -2.882   2.126  1.00  0.00     0.002 C 
ENDROOT
BRANCH   1   2
ATOM      2  C   UNL     1      -7.811  -1.468   2.446  1.00  0.00     0.002 C 
BRANCH   2   3
ATOM      3  C   UNL     1      -6.295  -1.257   2.353  1.00  0.00     0.021 C 
BRANCH   3   4
ATOM      4  C   UNL     1      -5.690  -1.619   1.003  1.00  0.00     0.116 C 
BRANCH   4   5
ATOM      5  N   UNL     1      -5.984  -0.629  -0.016  1.00  0.00    -0.356 N 
ATOM      6  C   UNL     1      -5.251  -0.224  -1.087  1.00  0.00     0.223 C 
ATOM      7  O   UNL     1      -5.781   0.535  -1.904  1.00  0.00    -0.275 OA
ATOM      8  H   UNL     1      -6.854  -0.179   0.084  1.00  0.00     0.163 HD
BRANCH   6   9
ATOM      9  C   UNL     1      -3.802  -0.655  -1.288  1.00  0.00     0.087 C 
BRANCH   9  10
ATOM     10  C   UNL     1      -2.964   0.065  -0.196  1.00  0.00     0.049 C 
BRANCH  10  11
ATOM     11  C   UNL     1      -1.453   0.047  -0.282  1.00  0.00    -0.047 A 
ATOM     12  C   UNL     1       2.866   0.150  -0.018  1.00  0.00     0.044 C 
ATOM     13  C   UNL     1       1.372   0.124  -0.127  1.00  0.00    -0.051 A 
ATOM     14  C   UNL     1       0.683  -1.081   0.033  1.00  0.00     0.004 A 
ATOM     15  C   UNL     1       0.642   1.288  -0.385  1.00  0.00     0.004 A 
ATOM     16  C   UNL     1      -0.712  -1.114  -0.025  1.00  0.00     0.004 A 
ATOM     17  C   UNL     1      -0.754   1.248  -0.464  1.00  0.00     0.004 A 
ENDBRANCH  10  11
ENDBRANCH   9  10
BRANCH   9  18
ATOM     18  C   UNL     1      -3.542  -2.173  -1.423  1.00  0.00     0.049 C 
BRANCH  18  19
ATOM     19  C   UNL     1      -4.616  -3.205  -1.715  1.00  0.00    -0.043 A 
ATOM     20  C   UNL     1      -4.362  -4.525  -1.295  1.00  0.00     0.043 A 
ATOM     21  C   UNL     1      -5.848  -2.942  -2.327  1.00  0.00     0.019 A 
ATOM     22  C   UNL     1      -5.345  -5.506  -1.383  1.00  0.00     0.124 A 
ATOM     23  C   UNL     1      -6.841  -3.932  -2.371  1.00  0.00     0.021 A 
ATOM     24  F   UNL     1      -5.078  -6.743  -0.944  1.00  0.00    -0.207 F 
ATOM     25  C   UNL     1      -6.600  -5.214  -1.889  1.00  0.00     0.055 A 
ATOM     26  Br  UNL     1      -8.555  -3.507  -3.049  1.00  0.00    -0.051 Br
ENDBRANCH  18  19
ENDBRANCH   9  18
ENDBRANCH   6   9
ENDBRANCH   4   5
ENDBRANCH   3   4
ENDBRANCH   2   3
ENDBRANCH   1   2
BRANCH   1  27
ATOM     27  C   UNL     1      -7.578  -4.046   2.778  1.00  0.00     0.021 C 
BRANCH  27  28
ATOM     28  C   UNL     1      -7.590  -4.018   4.301  1.00  0.00     0.116 C 
BRANCH  28  29
ATOM     29  N   UNL     1      -8.551  -4.911   4.923  1.00  0.00    -0.352 N 
ATOM     30  C   UNL     1      -8.844  -5.086   6.268  1.00  0.00     0.251 C 
ATOM     31  H   UNL     1      -9.069  -5.473   4.302  1.00  0.00     0.163 HD
ATOM     32  O   UNL     1      -9.567  -5.992   6.636  1.00  0.00    -0.269 OA
BRANCH  30  33
ATOM     33  C   UNL     1      -8.368  -4.074   7.250  1.00  0.00     0.039 A 
ATOM     34  C   UNL     1      -9.311  -3.575   8.160  1.00  0.00     0.014 A 
ATOM     35  C   UNL     1      -7.113  -3.480   7.155  1.00  0.00     0.014 A 
ATOM     36  C   UNL     1      -9.081  -2.356   8.794  1.00  0.00     0.010 A 
ATOM     37  C   UNL     1      -6.920  -2.228   7.706  1.00  0.00     0.010 A 
ATOM     38  C   UNL     1      -7.927  -1.641   8.476  1.00  0.00    -0.014 A 
BRANCH  38  39
ATOM     39  C   UNL     1      -7.749  -0.229   8.791  1.00  0.00     0.031 A 
ATOM     40  C   UNL     1      -6.845   0.200   9.874  1.00  0.00     0.074 A 
ATOM     41  C   UNL     1      -8.377   0.704   8.043  1.00  0.00     0.049 A 
ATOM     42  N   UNL     1      -6.974   1.305  10.526  1.00  0.00    -0.248 NA
ATOM     43  C   UNL     1      -5.727  -0.614  10.335  1.00  0.00     0.031 C 
ATOM     44  C   UNL     1      -8.137   2.144   8.031  1.00  0.00     0.029 A 
ATOM     45  N   UNL     1      -9.546   0.541   7.306  1.00  0.00    -0.354 N 
ATOM     46  C   UNL     1      -5.830   1.489  11.265  1.00  0.00     0.074 A 
ATOM     47  C   UNL     1      -5.116   0.236  11.167  1.00  0.00     0.031 C 
ATOM     48  C   UNL     1      -9.230   2.761   7.556  1.00  0.00     0.029 A 
ATOM     49  C   UNL     1     -10.257   1.750   7.378  1.00  0.00     0.049 A 
ATOM     50  H   UNL     1      -9.823  -0.271   6.824  1.00  0.00     0.167 HD
ATOM     51  C   UNL     1      -5.539   2.724  11.762  1.00  0.00     0.034 A 
ATOM     52  C   UNL     1     -11.508   1.794   7.919  1.00  0.00     0.034 A 
ATOM     53  C   UNL     1      -6.575   3.700  11.433  1.00  0.00     0.049 A 
ATOM     54  C   UNL     1     -11.610   2.694   9.131  1.00  0.00     0.074 A 
ATOM     55  C   UNL     1      -6.667   4.681  10.459  1.00  0.00     0.029 A 
ATOM     56  N   UNL     1      -7.848   3.566  11.975  1.00  0.00    -0.354 N 
ATOM     57  N   UNL     1     -10.585   3.128   9.812  1.00  0.00    -0.248 NA
ATOM     58  C   UNL     1     -12.877   3.169   9.674  1.00  0.00     0.031 C 
ATOM     59  C   UNL     1      -8.019   5.106  10.388  1.00  0.00     0.029 A 
ATOM     60  C   UNL     1      -8.741   4.405  11.338  1.00  0.00     0.049 A 
ATOM     61  H   UNL     1      -8.081   2.955  12.712  1.00  0.00     0.167 HD
ATOM     62  C   UNL     1     -11.018   3.905  10.861  1.00  0.00     0.074 A 
ATOM     63  C   UNL     1     -12.463   3.915  10.713  1.00  0.00     0.031 C 
ATOM     64  C   UNL     1     -10.139   4.460  11.754  1.00  0.00     0.034 A 
BRANCH  51  65
ATOM     65  C   UNL     1      -4.171   3.109  12.275  1.00  0.00     0.023 A 
ATOM     66  C   UNL     1      -3.696   4.421  12.072  1.00  0.00     0.031 A 
ATOM     67  C   UNL     1      -3.281   2.237  12.929  1.00  0.00     0.131 A 
ATOM     68  C   UNL     1      -2.378   4.785  12.400  1.00  0.00     0.055 A 
ATOM     69  C   UNL     1      -1.949   2.578  13.202  1.00  0.00     0.041 A 
ATOM     70  F   UNL     1      -3.678   1.034  13.369  1.00  0.00    -0.206 F 
ATOM     71  C   UNL     1      -1.485   3.855  12.923  1.00  0.00     0.022 A 
BRANCH  68  72
ATOM     72  S   UNL     1      -1.847   6.500  12.137  1.00  0.00     0.124 S 
ATOM     73  O   UNL     1      -2.072   6.681  10.707  1.00  0.00    -0.237 OA
ATOM     74  O   UNL     1      -2.734   7.238  13.029  1.00  0.00    -0.237 OA
ATOM     75  O   UNL     1      -0.441   6.485  12.542  1.00  0.00    -0.744 OA
ENDBRANCH  68  72
ENDBRANCH  51  65
BRANCH  52  76
ATOM     76  C   UNL     1     -12.286   0.542   7.684  1.00  0.00     0.023 A 
ATOM     77  C   UNL     1     -12.489   0.161   6.339  1.00  0.00     0.031 A 
ATOM     78  C   UNL     1     -12.431  -0.439   8.674  1.00  0.00     0.131 A 
ATOM     79  C   UNL     1     -12.645  -1.190   6.003  1.00  0.00     0.055 A 
ATOM     80  C   UNL     1     -12.662  -1.779   8.336  1.00  0.00     0.041 A 
ATOM     81  F   UNL     1     -12.220  -0.145   9.965  1.00  0.00    -0.206 F 
ATOM     82  C   UNL     1     -12.721  -2.168   6.996  1.00  0.00     0.022 A 
BRANCH  79  83
ATOM     83  S   UNL     1     -12.454  -1.691   4.262  1.00  0.00     0.124 S 
ATOM     84  O   UNL     1     -13.837  -1.717   3.800  1.00  0.00    -0.237 OA
ATOM     85  O   UNL     1     -11.617  -0.630   3.703  1.00  0.00    -0.237 OA
ATOM     86  O   UNL     1     -11.791  -2.990   4.355  1.00  0.00    -0.744 OA
ENDBRANCH  79  83
ENDBRANCH  52  76
BRANCH  64  87
ATOM     87  C   UNL     1     -10.481   5.179  13.050  1.00  0.00     0.023 A 
ATOM     88  C   UNL     1     -11.761   5.202  13.621  1.00  0.00     0.031 A 
ATOM     89  C   UNL     1      -9.474   5.835  13.808  1.00  0.00     0.131 A 
ATOM     90  C   UNL     1     -12.020   5.895  14.820  1.00  0.00     0.055 A 
ATOM     91  C   UNL     1      -9.718   6.462  15.035  1.00  0.00     0.041 A 
ATOM     92  F   UNL     1      -8.198   5.891  13.400  1.00  0.00    -0.206 F 
ATOM     93  C   UNL     1     -11.003   6.508  15.544  1.00  0.00     0.022 A 
BRANCH  90  94
ATOM     94  S   UNL     1     -13.738   6.021  15.384  1.00  0.00     0.124 S 
ATOM     95  O   UNL     1     -14.356   6.776  14.297  1.00  0.00    -0.237 OA
ATOM     96  O   UNL     1     -14.136   4.622  15.490  1.00  0.00    -0.237 OA
ATOM     97  O   UNL     1     -13.634   6.736  16.655  1.00  0.00    -0.744 OA
ENDBRANCH  90  94
ENDBRANCH  64  87
ENDBRANCH  38  39
ENDBRANCH  30  33
ENDBRANCH  28  29
ENDBRANCH  27  28
ENDBRANCH   1  27
TORSDOF 20
