REMARK SMILES CC1C[NH+]([C@@H](C(=O)NCCCCCCNC(=O)c2ccc(-c3c4nc(c(-c5cc(S(=O)(=O)[O-])ccc5F)c5ccc([nH]5)c(-c5cc(S(=O)(=O)[O-])ccc5F)c5nc(c(-c6cc(S(=O)(=O)[O-])ccc6F)c6ccc3[nH]6)C=C5)C=C4)cc2)C2CCCCC2)C1
REMARK SMILES IDX 12 1 11 2 10 3 9 4 8 5 6 6 7 7 5 9 4 10 1 11 2 12 3 13 87 14
REMARK SMILES IDX 81 16 82 17 86 18 83 19 85 20 84 21 13 22 14 23 15 24 16 25
REMARK SMILES IDX 17 27 18 28 19 29 80 30 20 31 79 32 21 33 22 34 23 35 73 36
REMARK SMILES IDX 24 37 78 38 72 39 74 40 25 41 77 42 71 43 70 44 26 46 58 47
REMARK SMILES IDX 38 48 57 49 39 50 42 51 56 52 75 53 40 54 41 55 55 57 76 58
REMARK SMILES IDX 43 59 27 60 28 61 36 62 29 63 35 64 37 65 34 66 30 67 31 68
REMARK SMILES IDX 32 69 33 70 59 71 60 72 68 73 61 74 67 75 69 76 66 77 62 78
REMARK SMILES IDX 63 79 64 80 65 81 44 82 45 83 53 84 46 85 52 86 54 87 51 88
REMARK SMILES IDX 47 89 48 90 49 91 50 92
REMARK H PARENT 8 8 4 15 15 26 74 45 42 56
REMARK Flexibility Score: inf
ROOT
ATOM      1  C   UNL     1       5.423   2.224  -3.165  1.00  0.00     0.002 C 
ENDROOT
BRANCH   1   2
ATOM      2  C   UNL     1       4.223   1.544  -2.505  1.00  0.00     0.002 C 
BRANCH   2   3
ATOM      3  C   UNL     1       3.288   2.493  -1.746  1.00  0.00     0.021 C 
BRANCH   3   4
ATOM      4  C   UNL     1       2.306   3.280  -2.623  1.00  0.00     0.116 C 
BRANCH   4   5
ATOM      5  N   UNL     1       1.359   2.409  -3.299  1.00  0.00    -0.351 N 
ATOM      6  C   UNL     1       0.028   2.161  -3.120  1.00  0.00     0.278 C 
ATOM      7  O   UNL     1      -0.449   1.296  -3.863  1.00  0.00    -0.268 OA
ATOM      8  H   UNL     1       1.759   1.892  -4.035  1.00  0.00     0.163 HD
BRANCH   6   9
ATOM      9  C   UNL     1      -0.835   2.930  -2.082  1.00  0.00     0.277 C 
BRANCH   9  10
ATOM     10  N   UNL     1      -0.969   2.322  -0.727  1.00  0.00    -0.324 N 
ATOM     11  C   UNL     1       0.895  -0.175   0.739  1.00  0.00     0.020 C 
ATOM     12  C   UNL     1       0.450   0.789  -0.338  1.00  0.00     0.096 C 
ATOM     13  C   UNL     1      -1.045   0.846  -0.689  1.00  0.00     0.271 C 
ATOM     14  C   UNL     1       0.273   2.276   0.059  1.00  0.00     0.271 C 
ATOM     15  H   UNL     1      -1.762   2.882  -0.413  1.00  0.00     0.348 HD
ENDBRANCH   9  10
BRANCH   9  16
ATOM     16  C   UNL     1      -2.273   3.221  -2.666  1.00  0.00     0.057 C 
ATOM     17  C   UNL     1      -3.205   1.986  -2.715  1.00  0.00     0.010 C 
ATOM     18  C   UNL     1      -2.959   4.368  -1.885  1.00  0.00     0.010 C 
ATOM     19  C   UNL     1      -4.608   2.311  -3.215  1.00  0.00     0.001 C 
ATOM     20  C   UNL     1      -4.388   4.648  -2.353  1.00  0.00     0.001 C 
ATOM     21  C   UNL     1      -5.244   3.388  -2.350  1.00  0.00     0.000 C 
ENDBRANCH   9  16
ENDBRANCH   6   9
ENDBRANCH   4   5
ENDBRANCH   3   4
ENDBRANCH   2   3
ENDBRANCH   1   2
BRANCH   1  22
ATOM     22  C   UNL     1       6.300   3.060  -2.227  1.00  0.00     0.021 C 
BRANCH  22  23
ATOM     23  C   UNL     1       6.759   2.350  -0.954  1.00  0.00     0.116 C 
BRANCH  23  24
ATOM     24  N   UNL     1       7.637   1.232  -1.243  1.00  0.00    -0.352 N 
ATOM     25  C   UNL     1       8.907   0.988  -0.781  1.00  0.00     0.251 C 
ATOM     26  H   UNL     1       7.271   0.554  -1.855  1.00  0.00     0.163 HD
ATOM     27  O   UNL     1       9.585   0.115  -1.314  1.00  0.00    -0.269 OA
BRANCH  25  28
ATOM     28  C   UNL     1       9.459   1.781   0.342  1.00  0.00     0.039 A 
ATOM     29  C   UNL     1      10.787   2.212   0.272  1.00  0.00     0.014 A 
ATOM     30  C   UNL     1       8.694   2.058   1.479  1.00  0.00     0.014 A 
ATOM     31  C   UNL     1      11.339   2.938   1.330  1.00  0.00     0.010 A 
ATOM     32  C   UNL     1       9.225   2.839   2.505  1.00  0.00     0.010 A 
ATOM     33  C   UNL     1      10.561   3.265   2.453  1.00  0.00    -0.014 A 
BRANCH  33  34
ATOM     34  C   UNL     1      11.160   3.993   3.602  1.00  0.00     0.031 A 
ATOM     35  C   UNL     1      11.315   3.303   4.931  1.00  0.00     0.074 A 
ATOM     36  C   UNL     1      11.539   5.277   3.460  1.00  0.00     0.049 A 
ATOM     37  N   UNL     1      11.804   3.763   6.055  1.00  0.00    -0.248 NA
ATOM     38  C   UNL     1      10.820   1.921   5.013  1.00  0.00     0.031 C 
ATOM     39  C   UNL     1      11.387   6.072   2.241  1.00  0.00     0.029 A 
ATOM     40  N   UNL     1      12.126   6.141   4.350  1.00  0.00    -0.354 N 
ATOM     41  C   UNL     1      11.672   2.729   6.977  1.00  0.00     0.074 A 
ATOM     42  C   UNL     1      10.981   1.653   6.298  1.00  0.00     0.031 C 
ATOM     43  C   UNL     1      11.883   7.302   2.454  1.00  0.00     0.029 A 
ATOM     44  C   UNL     1      12.367   7.391   3.829  1.00  0.00     0.049 A 
ATOM     45  H   UNL     1      12.353   5.890   5.274  1.00  0.00     0.167 HD
ATOM     46  C   UNL     1      12.115   2.667   8.259  1.00  0.00     0.034 A 
ATOM     47  C   UNL     1      12.917   8.483   4.395  1.00  0.00     0.034 A 
ATOM     48  C   UNL     1      12.802   3.751   8.921  1.00  0.00     0.049 A 
ATOM     49  C   UNL     1      13.419   8.395   5.812  1.00  0.00     0.074 A 
ATOM     50  C   UNL     1      13.320   3.795  10.204  1.00  0.00     0.029 A 
ATOM     51  N   UNL     1      13.064   4.991   8.348  1.00  0.00    -0.354 N 
ATOM     52  N   UNL     1      13.339   7.391   6.656  1.00  0.00    -0.248 NA
ATOM     53  C   UNL     1      14.112   9.575   6.342  1.00  0.00     0.031 C 
ATOM     54  C   UNL     1      13.843   5.076  10.424  1.00  0.00     0.029 A 
ATOM     55  C   UNL     1      13.719   5.810   9.255  1.00  0.00     0.049 A 
ATOM     56  H   UNL     1      12.819   5.250   7.430  1.00  0.00     0.167 HD
ATOM     57  C   UNL     1      13.995   7.812   7.810  1.00  0.00     0.074 A 
ATOM     58  C   UNL     1      14.480   9.152   7.543  1.00  0.00     0.031 C 
ATOM     59  C   UNL     1      14.183   7.151   8.982  1.00  0.00     0.034 A 
BRANCH  46  60
ATOM     60  C   UNL     1      11.838   1.388   9.019  1.00  0.00     0.023 A 
ATOM     61  C   UNL     1      12.339   0.149   8.576  1.00  0.00     0.031 A 
ATOM     62  C   UNL     1      11.011   1.389  10.155  1.00  0.00     0.131 A 
ATOM     63  C   UNL     1      11.923  -1.040   9.194  1.00  0.00     0.055 A 
ATOM     64  C   UNL     1      10.678   0.209  10.826  1.00  0.00     0.041 A 
ATOM     65  F   UNL     1      10.486   2.534  10.618  1.00  0.00    -0.206 F 
ATOM     66  C   UNL     1      11.116  -1.017  10.333  1.00  0.00     0.022 A 
BRANCH  63  67
ATOM     67  S   UNL     1      12.296  -2.615   8.375  1.00  0.00     0.124 S 
ATOM     68  O   UNL     1      11.670  -2.423   7.069  1.00  0.00    -0.237 OA
ATOM     69  O   UNL     1      13.754  -2.639   8.388  1.00  0.00    -0.237 OA
ATOM     70  O   UNL     1      11.647  -3.608   9.228  1.00  0.00    -0.744 OA
ENDBRANCH  63  67
ENDBRANCH  46  60
BRANCH  47  71
ATOM     71  C   UNL     1      13.027   9.749   3.617  1.00  0.00     0.023 A 
ATOM     72  C   UNL     1      14.274  10.256   3.220  1.00  0.00     0.031 A 
ATOM     73  C   UNL     1      11.876  10.476   3.267  1.00  0.00     0.131 A 
ATOM     74  C   UNL     1      14.345  11.475   2.528  1.00  0.00     0.055 A 
ATOM     75  C   UNL     1      11.948  11.666   2.540  1.00  0.00     0.041 A 
ATOM     76  F   UNL     1      10.658  10.026   3.611  1.00  0.00    -0.206 F 
ATOM     77  C   UNL     1      13.189  12.177   2.175  1.00  0.00     0.022 A 
BRANCH  74  78
ATOM     78  S   UNL     1      15.977  12.162   2.137  1.00  0.00     0.124 S 
ATOM     79  O   UNL     1      16.561  12.316   3.465  1.00  0.00    -0.237 OA
ATOM     80  O   UNL     1      16.553  11.115   1.300  1.00  0.00    -0.237 OA
ATOM     81  O   UNL     1      15.665  13.409   1.443  1.00  0.00    -0.744 OA
ENDBRANCH  74  78
ENDBRANCH  47  71
BRANCH  59  82
ATOM     82  C   UNL     1      14.984   7.864  10.045  1.00  0.00     0.023 A 
ATOM     83  C   UNL     1      14.512   9.031  10.671  1.00  0.00     0.031 A 
ATOM     84  C   UNL     1      16.251   7.380  10.417  1.00  0.00     0.131 A 
ATOM     85  C   UNL     1      15.329   9.713  11.586  1.00  0.00     0.055 A 
ATOM     86  C   UNL     1      17.034   8.028  11.373  1.00  0.00     0.041 A 
ATOM     87  F   UNL     1      16.752   6.270   9.851  1.00  0.00    -0.206 F 
ATOM     88  C   UNL     1      16.581   9.210  11.952  1.00  0.00     0.022 A 
BRANCH  85  89
ATOM     89  S   UNL     1      14.781  11.325  12.209  1.00  0.00     0.124 S 
ATOM     90  O   UNL     1      14.565  12.072  10.974  1.00  0.00    -0.237 OA
ATOM     91  O   UNL     1      13.581  10.976  12.962  1.00  0.00    -0.237 OA
ATOM     92  O   UNL     1      15.909  11.781  13.020  1.00  0.00    -0.744 OA
ENDBRANCH  85  89
ENDBRANCH  59  82
ENDBRANCH  33  34
ENDBRANCH  25  28
ENDBRANCH  23  24
ENDBRANCH  22  23
ENDBRANCH   1  22
TORSDOF 18
