REMARK SMILES COc1ccc([C@H]2CC(c3ccccc3)=NN2C(=O)CCCC(=O)NCCCCCCNC(=O)c2ccc(-c3c4nc(c(-c5cc(S(=O)(=O)[O-])ccc5F)c5ccc([nH]5)c(-c5cc(S(=O)(=O)[O-])ccc5F)c5nc(c(-c6cc(S(=O)(=O)[O-])ccc6F)c6ccc3[nH]6)C=C5)C=C4)cc2)cc1
REMARK SMILES IDX 27 1 26 2 25 3 23 4 24 5 22 7 21 8 20 9 18 10 19 11 17 12
REMARK SMILES IDX 7 13 8 14 9 15 16 16 6 17 3 18 4 19 99 20 5 21 98 22 2 23
REMARK SMILES IDX 1 24 10 25 11 26 15 27 12 28 14 29 13 30 28 31 29 32 30 33
REMARK SMILES IDX 31 34 32 35 33 36 34 38 35 39 36 40 97 41 37 42 96 43 38 44
REMARK SMILES IDX 39 45 40 46 90 47 41 48 95 49 89 50 91 51 42 52 94 53 88 54
REMARK SMILES IDX 87 55 43 57 75 58 55 59 74 60 56 61 59 62 73 63 92 64 57 65
REMARK SMILES IDX 58 66 72 68 93 69 60 70 44 71 45 72 53 73 46 74 52 75 54 76
REMARK SMILES IDX 51 77 47 78 48 79 49 80 50 81 76 82 77 83 85 84 78 85 84 86
REMARK SMILES IDX 86 87 83 88 79 89 80 90 81 91 82 92 61 93 62 94 70 95 63 96
REMARK SMILES IDX 69 97 71 98 68 99 64 100 65 101 66 102 67 103
REMARK H PARENT 25 6 32 37 91 56 59 67
REMARK Flexibility Score: inf
ROOT
ATOM      1  C   UNL     1       0.448   5.039  -7.137  1.00  0.00     0.021 C 
ENDROOT
BRANCH   1   2
ATOM      2  C   UNL     1       0.855   5.469  -5.736  1.00  0.00     0.116 C 
BRANCH   2   3
ATOM      3  N   UNL     1      -0.241   5.239  -4.840  1.00  0.00    -0.356 N 
ATOM      4  C   UNL     1      -0.659   4.060  -4.321  1.00  0.00     0.220 C 
ATOM      5  O   UNL     1      -1.821   4.027  -3.903  1.00  0.00    -0.275 OA
ATOM      6  H   UNL     1      -0.752   6.035  -4.569  1.00  0.00     0.163 HD
BRANCH   4   7
ATOM      7  C   UNL     1       0.289   2.913  -4.017  1.00  0.00     0.100 C 
BRANCH   7   8
ATOM      8  C   UNL     1       1.304   2.201  -4.875  1.00  0.00     0.020 C 
BRANCH   8   9
ATOM      9  C   UNL     1       2.652   2.788  -5.286  1.00  0.00     0.103 C 
BRANCH   9  10
ATOM     10  C   UNL     1       3.794   3.482  -4.504  1.00  0.00     0.243 C 
ATOM     11  O   UNL     1       4.934   3.138  -4.880  1.00  0.00    -0.273 OA
BRANCH  10  12
ATOM     12  N   UNL     1       3.685   4.548  -3.624  1.00  0.00    -0.225 N 
ATOM     13  C   UNL     1       2.706   4.970  -2.586  1.00  0.00     0.147 C 
ATOM     14  C   UNL     1       3.331   6.191  -1.913  1.00  0.00     0.091 C 
ATOM     15  C   UNL     1       4.576   6.324  -2.727  1.00  0.00     0.071 C 
ATOM     16  N   UNL     1       4.754   5.435  -3.648  1.00  0.00    -0.174 NA
BRANCH  13  17
ATOM     17  C   UNL     1       2.353   3.908  -1.555  1.00  0.00    -0.023 A 
ATOM     18  C   UNL     1       1.267   1.566  -0.513  1.00  0.00     0.118 A 
ATOM     19  C   UNL     1       0.504   2.731  -0.526  1.00  0.00     0.047 A 
ATOM     20  C   UNL     1       2.619   1.609  -0.855  1.00  0.00     0.047 A 
ATOM     21  C   UNL     1       1.060   3.922  -0.992  1.00  0.00     0.010 A 
ATOM     22  C   UNL     1       3.171   2.789  -1.355  1.00  0.00     0.010 A 
BRANCH  18  23
ATOM     23  O   UNL     1       0.572   0.398  -0.363  1.00  0.00    -0.497 OA
ATOM     24  C   UNL     1       1.111  -0.480   0.613  1.00  0.00     0.278 C 
ENDBRANCH  18  23
ENDBRANCH  13  17
BRANCH  15  25
ATOM     25  C   UNL     1       5.541   7.402  -2.479  1.00  0.00    -0.002 A 
ATOM     26  C   UNL     1       5.963   8.205  -3.542  1.00  0.00     0.010 A 
ATOM     27  C   UNL     1       6.096   7.555  -1.207  1.00  0.00     0.010 A 
ATOM     28  C   UNL     1       6.946   9.171  -3.328  1.00  0.00     0.001 A 
ATOM     29  C   UNL     1       7.094   8.510  -1.004  1.00  0.00     0.001 A 
ATOM     30  C   UNL     1       7.516   9.316  -2.062  1.00  0.00     0.000 A 
ENDBRANCH  15  25
ENDBRANCH  10  12
ENDBRANCH   9  10
ENDBRANCH   8   9
ENDBRANCH   7   8
ENDBRANCH   4   7
ENDBRANCH   2   3
ENDBRANCH   1   2
BRANCH   1  31
ATOM     31  C   UNL     1      -0.499   6.063  -7.767  1.00  0.00     0.002 C 
BRANCH  31  32
ATOM     32  C   UNL     1       0.136   7.447  -7.945  1.00  0.00     0.002 C 
BRANCH  32  33
ATOM     33  C   UNL     1       1.468   7.424  -8.699  1.00  0.00     0.021 C 
BRANCH  33  34
ATOM     34  C   UNL     1       1.393   6.695 -10.035  1.00  0.00     0.116 C 
BRANCH  34  35
ATOM     35  N   UNL     1       0.340   7.248 -10.870  1.00  0.00    -0.352 N 
ATOM     36  C   UNL     1       0.439   7.751 -12.140  1.00  0.00     0.251 C 
ATOM     37  H   UNL     1      -0.560   7.264 -10.471  1.00  0.00     0.163 HD
ATOM     38  O   UNL     1      -0.453   8.439 -12.609  1.00  0.00    -0.269 OA
BRANCH  36  39
ATOM     39  C   UNL     1       1.655   7.439 -12.912  1.00  0.00     0.039 A 
ATOM     40  C   UNL     1       2.330   8.472 -13.560  1.00  0.00     0.014 A 
ATOM     41  C   UNL     1       2.133   6.125 -12.956  1.00  0.00     0.014 A 
ATOM     42  C   UNL     1       3.516   8.187 -14.233  1.00  0.00     0.010 A 
ATOM     43  C   UNL     1       3.354   5.860 -13.559  1.00  0.00     0.010 A 
ATOM     44  C   UNL     1       4.047   6.886 -14.218  1.00  0.00    -0.014 A 
BRANCH  44  45
ATOM     45  C   UNL     1       5.320   6.575 -14.911  1.00  0.00     0.031 A 
ATOM     46  C   UNL     1       5.316   5.624 -16.076  1.00  0.00     0.074 A 
ATOM     47  C   UNL     1       6.470   7.109 -14.454  1.00  0.00     0.049 A 
ATOM     48  N   UNL     1       6.324   5.179 -16.779  1.00  0.00    -0.248 NA
ATOM     49  C   UNL     1       4.011   5.079 -16.487  1.00  0.00     0.031 C 
ATOM     50  C   UNL     1       6.585   8.006 -13.301  1.00  0.00     0.029 A 
ATOM     51  N   UNL     1       7.761   6.971 -14.895  1.00  0.00    -0.354 N 
ATOM     52  C   UNL     1       5.779   4.289 -17.699  1.00  0.00     0.074 A 
ATOM     53  C   UNL     1       4.360   4.220 -17.433  1.00  0.00     0.031 C 
ATOM     54  C   UNL     1       7.872   8.351 -13.139  1.00  0.00     0.029 A 
ATOM     55  C   UNL     1       8.680   7.664 -14.141  1.00  0.00     0.049 A 
ATOM     56  H   UNL     1       8.007   6.426 -15.677  1.00  0.00     0.167 HD
ATOM     57  C   UNL     1       6.409   3.609 -18.686  1.00  0.00     0.034 A 
ATOM     58  C   UNL     1      10.024   7.720 -14.236  1.00  0.00     0.034 A 
ATOM     59  C   UNL     1       7.823   3.716 -18.947  1.00  0.00     0.049 A 
ATOM     60  C   UNL     1      10.697   6.947 -15.344  1.00  0.00     0.074 A 
ATOM     61  C   UNL     1       8.553   3.137 -19.970  1.00  0.00     0.029 A 
ATOM     62  N   UNL     1       8.723   4.437 -18.173  1.00  0.00    -0.354 N 
ATOM     63  N   UNL     1      10.157   6.172 -16.258  1.00  0.00    -0.248 NA
ATOM     64  C   UNL     1      12.157   7.065 -15.444  1.00  0.00     0.031 C 
ATOM     65  C   UNL     1       9.902   3.441 -19.768  1.00  0.00     0.029 A 
ATOM     66  C   UNL     1      10.006   4.285 -18.674  1.00  0.00     0.049 A 
ATOM     67  H   UNL     1       8.484   4.978 -17.386  1.00  0.00     0.167 HD
ATOM     68  C   UNL     1      11.210   5.739 -17.059  1.00  0.00     0.074 A 
ATOM     69  C   UNL     1      12.410   6.356 -16.534  1.00  0.00     0.031 C 
ATOM     70  C   UNL     1      11.190   4.908 -18.132  1.00  0.00     0.034 A 
BRANCH  57  71
ATOM     71  C   UNL     1       5.588   2.671 -19.535  1.00  0.00     0.023 A 
ATOM     72  C   UNL     1       4.562   3.132 -20.379  1.00  0.00     0.031 A 
ATOM     73  C   UNL     1       5.851   1.290 -19.513  1.00  0.00     0.131 A 
ATOM     74  C   UNL     1       3.807   2.217 -21.128  1.00  0.00     0.055 A 
ATOM     75  C   UNL     1       5.146   0.392 -20.316  1.00  0.00     0.041 A 
ATOM     76  F   UNL     1       6.802   0.788 -18.708  1.00  0.00    -0.206 F 
ATOM     77  C   UNL     1       4.111   0.853 -21.123  1.00  0.00     0.022 A 
BRANCH  74  78
ATOM     78  S   UNL     1       2.354   2.819 -22.030  1.00  0.00     0.124 S 
ATOM     79  O   UNL     1       1.534   3.354 -20.945  1.00  0.00    -0.237 OA
ATOM     80  O   UNL     1       2.930   3.802 -22.939  1.00  0.00    -0.237 OA
ATOM     81  O   UNL     1       1.823   1.616 -22.667  1.00  0.00    -0.744 OA
ENDBRANCH  74  78
ENDBRANCH  57  71
BRANCH  58  82
ATOM     82  C   UNL     1      10.829   8.503 -13.253  1.00  0.00     0.023 A 
ATOM     83  C   UNL     1      11.640   9.572 -13.663  1.00  0.00     0.031 A 
ATOM     84  C   UNL     1      10.854   8.145 -11.892  1.00  0.00     0.131 A 
ATOM     85  C   UNL     1      12.494  10.199 -12.741  1.00  0.00     0.055 A 
ATOM     86  C   UNL     1      11.653   8.816 -10.965  1.00  0.00     0.041 A 
ATOM     87  F   UNL     1      10.095   7.133 -11.441  1.00  0.00    -0.206 F 
ATOM     88  C   UNL     1      12.495   9.838 -11.392  1.00  0.00     0.022 A 
BRANCH  85  89
ATOM     89  S   UNL     1      13.698  11.408 -13.357  1.00  0.00     0.124 S 
ATOM     90  O   UNL     1      14.394  10.637 -14.381  1.00  0.00    -0.237 OA
ATOM     91  O   UNL     1      12.832  12.479 -13.836  1.00  0.00    -0.237 OA
ATOM     92  O   UNL     1      14.491  11.731 -12.172  1.00  0.00    -0.744 OA
ENDBRANCH  85  89
ENDBRANCH  58  82
BRANCH  70  93
ATOM     93  C   UNL     1      12.503   4.665 -18.837  1.00  0.00     0.023 A 
ATOM     94  C   UNL     1      13.563   3.984 -18.215  1.00  0.00     0.031 A 
ATOM     95  C   UNL     1      12.692   5.127 -20.152  1.00  0.00     0.131 A 
ATOM     96  C   UNL     1      14.785   3.835 -18.887  1.00  0.00     0.055 A 
ATOM     97  C   UNL     1      13.886   4.914 -20.840  1.00  0.00     0.041 A 
ATOM     98  F   UNL     1      11.714   5.786 -20.793  1.00  0.00    -0.206 F 
ATOM     99  C   UNL     1      14.947   4.278 -20.203  1.00  0.00     0.022 A 
BRANCH  96 100
ATOM    100  S   UNL     1      16.196   3.142 -17.983  1.00  0.00     0.124 S 
ATOM    101  O   UNL     1      16.326   4.071 -16.866  1.00  0.00    -0.237 OA
ATOM    102  O   UNL     1      15.724   1.802 -17.647  1.00  0.00    -0.237 OA
ATOM    103  O   UNL     1      17.284   3.188 -18.958  1.00  0.00    -0.744 OA
ENDBRANCH  96 100
ENDBRANCH  70  93
ENDBRANCH  44  45
ENDBRANCH  36  39
ENDBRANCH  34  35
ENDBRANCH  33  34
ENDBRANCH  32  33
ENDBRANCH  31  32
ENDBRANCH   1  31
TORSDOF 23
