REMARK SMILES Nc1cc(C(=O)NCCCCCCNC(=O)c2ccc(-c3c4nc(c(-c5cc(S(=O)(=O)[O-])ccc5F)c5ccc([nH]5)c(-c5cc(S(=O)(=O)[O-])ccc5F)c5nc(c(-c6cc(S(=O)(=O)[O-])ccc6F)c6ccc3[nH]6)C=C5)C=C4)cc2)ccc1N1CC2(CCOCC2)C1
REMARK SMILES IDX 11 1 10 2 9 3 8 4 7 5 5 6 6 7 4 9 2 10 3 11 82 12 81 13
REMARK SMILES IDX 80 14 1 15 83 18 84 19 91 20 85 21 86 22 90 23 87 24 89 25
REMARK SMILES IDX 88 26 12 27 13 28 14 29 15 30 16 32 17 33 18 34 79 35 19 36
REMARK SMILES IDX 78 37 20 38 21 39 22 40 72 41 23 42 77 43 71 44 73 45 24 46
REMARK SMILES IDX 76 47 70 48 69 49 25 51 57 52 37 53 56 54 38 55 41 56 55 57
REMARK SMILES IDX 74 58 39 59 40 60 54 62 75 63 42 64 26 65 27 66 35 67 28 68
REMARK SMILES IDX 34 69 36 70 33 71 29 72 30 73 31 74 32 75 58 76 59 77 67 78
REMARK SMILES IDX 60 79 66 80 68 81 65 82 61 83 62 84 63 85 64 86 43 87 44 88
REMARK SMILES IDX 52 89 45 90 51 91 53 92 50 93 46 94 47 95 48 96 49 97
REMARK H PARENT 7 8 1 16 1 17 14 31 73 50 41 61
REMARK Flexibility Score: inf
ROOT
ATOM      1  C   UNL     1      -7.082  -2.686  -0.081  1.00  0.00     0.002 C 
ENDROOT
BRANCH   1   2
ATOM      2  C   UNL     1      -6.012  -2.607  -1.178  1.00  0.00     0.002 C 
BRANCH   2   3
ATOM      3  C   UNL     1      -5.014  -1.450  -1.013  1.00  0.00     0.021 C 
BRANCH   3   4
ATOM      4  C   UNL     1      -4.242  -1.521   0.304  1.00  0.00     0.116 C 
BRANCH   4   5
ATOM      5  N   UNL     1      -3.138  -2.445   0.174  1.00  0.00    -0.352 N 
ATOM      6  C   UNL     1      -1.806  -2.304  -0.089  1.00  0.00     0.251 C 
ATOM      7  O   UNL     1      -1.172  -3.356  -0.223  1.00  0.00    -0.269 OA
ATOM      8  H   UNL     1      -3.406  -3.383   0.305  1.00  0.00     0.163 HD
BRANCH   6   9
ATOM      9  C   UNL     1      -1.071  -1.004  -0.170  1.00  0.00     0.041 A 
ATOM     10  C   UNL     1       1.156   0.022  -0.132  1.00  0.00     0.056 A 
ATOM     11  C   UNL     1       0.328  -1.105  -0.122  1.00  0.00     0.041 A 
ATOM     12  C   UNL     1       0.573   1.306  -0.108  1.00  0.00     0.060 A 
ATOM     13  C   UNL     1      -0.816   1.415  -0.183  1.00  0.00     0.029 A 
ATOM     14  C   UNL     1      -1.626   0.273  -0.267  1.00  0.00     0.016 A 
BRANCH  10  15
ATOM     15  N   UNL     1       2.530  -0.161   0.029  1.00  0.00    -0.397 N 
ATOM     16  H   UNL     1       2.912  -1.068   0.008  1.00  0.00     0.156 HD
ATOM     17  H   UNL     1       3.118   0.617   0.163  1.00  0.00     0.156 HD
ENDBRANCH  10  15
BRANCH  12  18
ATOM     18  N   UNL     1       1.377   2.444   0.021  1.00  0.00    -0.369 N 
ATOM     19  C   UNL     1       2.300   3.037  -0.886  1.00  0.00     0.125 C 
ATOM     20  C   UNL     1       1.260   3.617   0.824  1.00  0.00     0.125 C 
ATOM     21  C   UNL     1       2.676   3.976   0.294  1.00  0.00     0.010 C 
ATOM     22  C   UNL     1       2.938   5.438  -0.050  1.00  0.00     0.039 C 
ATOM     23  C   UNL     1       3.816   3.439   1.182  1.00  0.00     0.039 C 
ATOM     24  C   UNL     1       4.315   5.546  -0.700  1.00  0.00     0.161 C 
ATOM     25  C   UNL     1       5.137   3.643   0.453  1.00  0.00     0.161 C 
ATOM     26  O   UNL     1       5.331   5.029   0.166  1.00  0.00    -0.381 OA
ENDBRANCH  12  18
ENDBRANCH   6   9
ENDBRANCH   4   5
ENDBRANCH   3   4
ENDBRANCH   2   3
ENDBRANCH   1   2
BRANCH   1  27
ATOM     27  C   UNL     1      -7.848  -1.383   0.158  1.00  0.00     0.021 C 
BRANCH  27  28
ATOM     28  C   UNL     1      -8.632  -0.899  -1.057  1.00  0.00     0.116 C 
BRANCH  28  29
ATOM     29  N   UNL     1      -9.674  -1.846  -1.421  1.00  0.00    -0.352 N 
ATOM     30  C   UNL     1     -11.030  -1.650  -1.502  1.00  0.00     0.251 C 
ATOM     31  H   UNL     1      -9.363  -2.754  -1.641  1.00  0.00     0.163 HD
ATOM     32  O   UNL     1     -11.785  -2.614  -1.546  1.00  0.00    -0.269 OA
BRANCH  30  33
ATOM     33  C   UNL     1     -11.564  -0.272  -1.523  1.00  0.00     0.039 A 
ATOM     34  C   UNL     1     -12.690   0.033  -0.755  1.00  0.00     0.014 A 
ATOM     35  C   UNL     1     -10.957   0.713  -2.308  1.00  0.00     0.014 A 
ATOM     36  C   UNL     1     -13.176   1.341  -0.736  1.00  0.00     0.010 A 
ATOM     37  C   UNL     1     -11.396   2.030  -2.227  1.00  0.00     0.010 A 
ATOM     38  C   UNL     1     -12.515   2.357  -1.447  1.00  0.00    -0.014 A 
BRANCH  38  39
ATOM     39  C   UNL     1     -12.987   3.764  -1.396  1.00  0.00     0.031 A 
ATOM     40  C   UNL     1     -13.476   4.439  -2.649  1.00  0.00     0.074 A 
ATOM     41  C   UNL     1     -12.920   4.448  -0.237  1.00  0.00     0.049 A 
ATOM     42  N   UNL     1     -13.857   5.678  -2.828  1.00  0.00    -0.248 NA
ATOM     43  C   UNL     1     -13.512   3.618  -3.869  1.00  0.00     0.031 C 
ATOM     44  C   UNL     1     -12.430   3.908   1.034  1.00  0.00     0.029 A 
ATOM     45  N   UNL     1     -13.257   5.744   0.063  1.00  0.00    -0.354 N 
ATOM     46  C   UNL     1     -14.168   5.788  -4.179  1.00  0.00     0.074 A 
ATOM     47  C   UNL     1     -13.866   4.508  -4.784  1.00  0.00     0.031 C 
ATOM     48  C   UNL     1     -12.525   4.856   1.980  1.00  0.00     0.029 A 
ATOM     49  C   UNL     1     -13.030   6.085   1.377  1.00  0.00     0.049 A 
ATOM     50  H   UNL     1     -13.626   6.371  -0.600  1.00  0.00     0.167 HD
ATOM     51  C   UNL     1     -14.681   6.851  -4.847  1.00  0.00     0.034 A 
ATOM     52  C   UNL     1     -13.198   7.258   2.019  1.00  0.00     0.034 A 
ATOM     53  C   UNL     1     -14.983   8.116  -4.223  1.00  0.00     0.049 A 
ATOM     54  C   UNL     1     -13.736   8.437   1.247  1.00  0.00     0.074 A 
ATOM     55  C   UNL     1     -15.549   9.244  -4.792  1.00  0.00     0.029 A 
ATOM     56  N   UNL     1     -14.736   8.427  -2.891  1.00  0.00    -0.354 N 
ATOM     57  N   UNL     1     -14.069   8.512  -0.021  1.00  0.00    -0.248 NA
ATOM     58  C   UNL     1     -13.930   9.686   1.994  1.00  0.00     0.031 C 
ATOM     59  C   UNL     1     -15.573  10.257  -3.828  1.00  0.00     0.029 A 
ATOM     60  C   UNL     1     -15.106   9.738  -2.631  1.00  0.00     0.049 A 
ATOM     61  H   UNL     1     -14.354   7.807  -2.229  1.00  0.00     0.167 HD
ATOM     62  C   UNL     1     -14.549   9.805  -0.212  1.00  0.00     0.074 A 
ATOM     63  C   UNL     1     -14.471  10.469   1.073  1.00  0.00     0.031 C 
ATOM     64  C   UNL     1     -15.017  10.390  -1.345  1.00  0.00     0.034 A 
BRANCH  51  65
ATOM     65  C   UNL     1     -14.918   6.694  -6.331  1.00  0.00     0.023 A 
ATOM     66  C   UNL     1     -15.821   5.743  -6.840  1.00  0.00     0.031 A 
ATOM     67  C   UNL     1     -14.216   7.490  -7.253  1.00  0.00     0.131 A 
ATOM     68  C   UNL     1     -15.941   5.560  -8.226  1.00  0.00     0.055 A 
ATOM     69  C   UNL     1     -14.405   7.364  -8.631  1.00  0.00     0.041 A 
ATOM     70  F   UNL     1     -13.323   8.400  -6.832  1.00  0.00    -0.206 F 
ATOM     71  C   UNL     1     -15.260   6.383  -9.125  1.00  0.00     0.022 A 
BRANCH  68  72
ATOM     72  S   UNL     1     -16.882   4.133  -8.832  1.00  0.00     0.124 S 
ATOM     73  O   UNL     1     -16.167   3.023  -8.207  1.00  0.00    -0.237 OA
ATOM     74  O   UNL     1     -18.222   4.399  -8.322  1.00  0.00    -0.237 OA
ATOM     75  O   UNL     1     -16.736   4.219 -10.284  1.00  0.00    -0.744 OA
ENDBRANCH  68  72
ENDBRANCH  51  65
BRANCH  52  76
ATOM     76  C   UNL     1     -12.845   7.388   3.463  1.00  0.00     0.023 A 
ATOM     77  C   UNL     1     -13.825   7.687   4.423  1.00  0.00     0.031 A 
ATOM     78  C   UNL     1     -11.514   7.259   3.899  1.00  0.00     0.131 A 
ATOM     79  C   UNL     1     -13.454   7.900   5.759  1.00  0.00     0.055 A 
ATOM     80  C   UNL     1     -11.159   7.412   5.240  1.00  0.00     0.041 A 
ATOM     81  F   UNL     1     -10.537   6.970   3.025  1.00  0.00    -0.206 F 
ATOM     82  C   UNL     1     -12.130   7.750   6.178  1.00  0.00     0.022 A 
BRANCH  79  83
ATOM     83  S   UNL     1     -14.715   8.476   6.929  1.00  0.00     0.124 S 
ATOM     84  O   UNL     1     -15.172   9.705   6.290  1.00  0.00    -0.237 OA
ATOM     85  O   UNL     1     -15.658   7.363   6.929  1.00  0.00    -0.237 OA
ATOM     86  O   UNL     1     -13.968   8.659   8.171  1.00  0.00    -0.744 OA
ENDBRANCH  79  83
ENDBRANCH  52  76
BRANCH  64  87
ATOM     87  C   UNL     1     -15.534  11.804  -1.227  1.00  0.00     0.023 A 
ATOM     88  C   UNL     1     -14.687  12.883  -0.918  1.00  0.00     0.031 A 
ATOM     89  C   UNL     1     -16.901  12.072  -1.425  1.00  0.00     0.131 A 
ATOM     90  C   UNL     1     -15.225  14.169  -0.761  1.00  0.00     0.055 A 
ATOM     91  C   UNL     1     -17.418  13.364  -1.333  1.00  0.00     0.041 A 
ATOM     92  F   UNL     1     -17.756  11.079  -1.718  1.00  0.00    -0.206 F 
ATOM     93  C   UNL     1     -16.581  14.420  -0.986  1.00  0.00     0.022 A 
BRANCH  90  94
ATOM     94  S   UNL     1     -14.144  15.498  -0.164  1.00  0.00     0.124 S 
ATOM     95  O   UNL     1     -13.684  14.963   1.113  1.00  0.00    -0.237 OA
ATOM     96  O   UNL     1     -13.139  15.581  -1.220  1.00  0.00    -0.237 OA
ATOM     97  O   UNL     1     -15.038  16.651  -0.068  1.00  0.00    -0.744 OA
ENDBRANCH  90  94
ENDBRANCH  64  87
ENDBRANCH  38  39
ENDBRANCH  30  33
ENDBRANCH  28  29
ENDBRANCH  27  28
ENDBRANCH   1  27
TORSDOF 18
