REMARK SMILES O=C(NCCCCCCNC(=O)[C@@H]1CCCC[C@@H]1C(=O)Nc1nc(-c2ccc(Cl)c(Cl)c2)cs1)c1ccc(-c2c3nc(c(-c4cc(S(=O)(=O)[O-])ccc4F)c4ccc([nH]4)c(-c4cc(S(=O)(=O)[O-])ccc4F)c4nc(c(-c5cc(S(=O)(=O)[O-])ccc5F)c5ccc2[nH]5)C=C4)C=C3)cc1
REMARK SMILES IDX 6 1 5 2 4 3 3 4 1 5 2 6 35 8 36 9 97 10 37 11 96 12 38 13
REMARK SMILES IDX 39 14 40 15 90 16 41 17 95 18 89 19 91 20 42 21 94 22 88 23
REMARK SMILES IDX 87 24 43 26 75 27 55 28 74 29 56 30 59 31 73 32 92 33 57 34
REMARK SMILES IDX 58 35 72 37 93 38 60 39 44 40 45 41 53 42 46 43 52 44 54 45
REMARK SMILES IDX 51 46 47 47 48 48 49 49 50 50 76 51 77 52 85 53 78 54 84 55
REMARK SMILES IDX 86 56 83 57 79 58 80 59 81 60 82 61 61 62 62 63 70 64 63 65
REMARK SMILES IDX 69 66 71 67 68 68 64 69 65 70 66 71 67 72 7 73 8 74 9 75
REMARK SMILES IDX 10 76 11 77 12 79 13 80 14 81 18 82 15 83 17 84 16 85 19 86
REMARK SMILES IDX 20 87 21 88 22 90 23 91 34 92 24 93 33 94 25 95 26 96 32 97
REMARK SMILES IDX 27 98 30 99 28 100 31 101 29 102
REMARK H PARENT 3 7 91 25 59 36 10 78 21 89
REMARK Flexibility Score: inf
ROOT
ATOM      1  C   UNL     1       3.646  -3.763  -0.426  1.00  0.00     0.002 C 
ENDROOT
BRANCH   1   2
ATOM      2  C   UNL     1       4.209  -2.571   0.357  1.00  0.00     0.021 C 
BRANCH   2   3
ATOM      3  C   UNL     1       4.238  -1.249  -0.405  1.00  0.00     0.116 C 
BRANCH   3   4
ATOM      4  N   UNL     1       2.901  -0.728  -0.654  1.00  0.00    -0.352 N 
ATOM      5  O   UNL     1       1.020   0.429  -0.167  1.00  0.00    -0.269 OA
ATOM      6  C   UNL     1       2.228   0.270   0.009  1.00  0.00     0.251 C 
ATOM      7  H   UNL     1       2.412  -1.148  -1.399  1.00  0.00     0.163 HD
BRANCH   6   8
ATOM      8  C   UNL     1       2.966   1.146   0.943  1.00  0.00     0.039 A 
ATOM      9  C   UNL     1       4.172   1.723   0.544  1.00  0.00     0.014 A 
ATOM     10  C   UNL     1       2.464   1.379   2.225  1.00  0.00     0.014 A 
ATOM     11  C   UNL     1       4.956   2.391   1.476  1.00  0.00     0.010 A 
ATOM     12  C   UNL     1       3.212   2.139   3.132  1.00  0.00     0.010 A 
ATOM     13  C   UNL     1       4.483   2.619   2.779  1.00  0.00    -0.014 A 
BRANCH  13  14
ATOM     14  C   UNL     1       5.330   3.389   3.732  1.00  0.00     0.031 A 
ATOM     15  C   UNL     1       5.843   2.762   5.002  1.00  0.00     0.074 A 
ATOM     16  C   UNL     1       5.673   4.655   3.418  1.00  0.00     0.049 A 
ATOM     17  N   UNL     1       6.615   3.280   5.924  1.00  0.00    -0.248 NA
ATOM     18  C   UNL     1       5.427   1.380   5.278  1.00  0.00     0.031 C 
ATOM     19  C   UNL     1       5.236   5.369   2.215  1.00  0.00     0.029 A 
ATOM     20  N   UNL     1       6.481   5.557   4.060  1.00  0.00    -0.354 N 
ATOM     21  C   UNL     1       6.762   2.299   6.900  1.00  0.00     0.074 A 
ATOM     22  C   UNL     1       5.965   1.168   6.471  1.00  0.00     0.031 C 
ATOM     23  C   UNL     1       5.829   6.570   2.175  1.00  0.00     0.029 A 
ATOM     24  C   UNL     1       6.621   6.749   3.385  1.00  0.00     0.049 A 
ATOM     25  H   UNL     1       6.921   5.371   4.921  1.00  0.00     0.167 HD
ATOM     26  C   UNL     1       7.497   2.338   8.041  1.00  0.00     0.034 A 
ATOM     27  C   UNL     1       7.293   7.870   3.710  1.00  0.00     0.034 A 
ATOM     28  C   UNL     1       8.288   3.477   8.449  1.00  0.00     0.049 A 
ATOM     29  C   UNL     1       8.062   7.902   5.004  1.00  0.00     0.074 A 
ATOM     30  C   UNL     1       9.096   3.610   9.566  1.00  0.00     0.029 A 
ATOM     31  N   UNL     1       8.364   4.686   7.766  1.00  0.00    -0.354 N 
ATOM     32  N   UNL     1       8.206   6.956   5.904  1.00  0.00    -0.248 NA
ATOM     33  C   UNL     1       8.766   9.149   5.319  1.00  0.00     0.031 C 
ATOM     34  C   UNL     1       9.588   4.919   9.603  1.00  0.00     0.029 A 
ATOM     35  C   UNL     1       9.173   5.577   8.457  1.00  0.00     0.049 A 
ATOM     36  H   UNL     1       7.909   4.881   6.915  1.00  0.00     0.167 HD
ATOM     37  C   UNL     1       9.050   7.486   6.876  1.00  0.00     0.074 A 
ATOM     38  C   UNL     1       9.393   8.825   6.439  1.00  0.00     0.031 C 
ATOM     39  C   UNL     1       9.504   6.915   8.021  1.00  0.00     0.034 A 
BRANCH  26  40
ATOM     40  C   UNL     1       7.436   1.134   8.956  1.00  0.00     0.023 A 
ATOM     41  C   UNL     1       7.880  -0.137   8.551  1.00  0.00     0.031 A 
ATOM     42  C   UNL     1       6.905   1.258  10.254  1.00  0.00     0.131 A 
ATOM     43  C   UNL     1       7.715  -1.242   9.401  1.00  0.00     0.055 A 
ATOM     44  C   UNL     1       6.825   0.171  11.127  1.00  0.00     0.041 A 
ATOM     45  F   UNL     1       6.442   2.438  10.694  1.00  0.00    -0.206 F 
ATOM     46  C   UNL     1       7.216  -1.093  10.696  1.00  0.00     0.022 A 
BRANCH  43  47
ATOM     47  S   UNL     1       8.015  -2.902   8.731  1.00  0.00     0.124 S 
ATOM     48  O   UNL     1       7.104  -2.929   7.588  1.00  0.00    -0.237 OA
ATOM     49  O   UNL     1       9.437  -2.862   8.414  1.00  0.00    -0.237 OA
ATOM     50  O   UNL     1       7.644  -3.788   9.833  1.00  0.00    -0.744 OA
ENDBRANCH  43  47
ENDBRANCH  26  40
BRANCH  27  51
ATOM     51  C   UNL     1       7.253   9.060   2.812  1.00  0.00     0.023 A 
ATOM     52  C   UNL     1       8.423   9.564   2.225  1.00  0.00     0.031 A 
ATOM     53  C   UNL     1       6.046   9.739   2.563  1.00  0.00     0.131 A 
ATOM     54  C   UNL     1       8.371  10.739   1.460  1.00  0.00     0.055 A 
ATOM     55  C   UNL     1       5.989  10.870   1.748  1.00  0.00     0.041 A 
ATOM     56  F   UNL     1       4.896   9.300   3.098  1.00  0.00    -0.206 F 
ATOM     57  C   UNL     1       7.160  11.386   1.203  1.00  0.00     0.022 A 
BRANCH  54  58
ATOM     58  S   UNL     1       9.929  11.468   0.885  1.00  0.00     0.124 S 
ATOM     59  O   UNL     1      10.642  11.670   2.141  1.00  0.00    -0.237 OA
ATOM     60  O   UNL     1      10.450  10.420   0.013  1.00  0.00    -0.237 OA
ATOM     61  O   UNL     1       9.502  12.688   0.204  1.00  0.00    -0.744 OA
ENDBRANCH  54  58
ENDBRANCH  27  51
BRANCH  39  62
ATOM     62  C   UNL     1      10.479   7.722   8.848  1.00  0.00     0.023 A 
ATOM     63  C   UNL     1      10.118   8.941   9.449  1.00  0.00     0.031 A 
ATOM     64  C   UNL     1      11.805   7.279   9.004  1.00  0.00     0.131 A 
ATOM     65  C   UNL     1      11.089   9.710  10.110  1.00  0.00     0.055 A 
ATOM     66  C   UNL     1      12.746   8.011   9.728  1.00  0.00     0.041 A 
ATOM     67  F   UNL     1      12.210   6.126   8.447  1.00  0.00    -0.206 F 
ATOM     68  C   UNL     1      12.395   9.243  10.270  1.00  0.00     0.022 A 
BRANCH  65  69
ATOM     69  S   UNL     1      10.655  11.389  10.643  1.00  0.00     0.124 S 
ATOM     70  O   UNL     1      10.205  11.996   9.394  1.00  0.00    -0.237 OA
ATOM     71  O   UNL     1       9.619  11.142  11.640  1.00  0.00    -0.237 OA
ATOM     72  O   UNL     1      11.912  11.916  11.171  1.00  0.00    -0.744 OA
ENDBRANCH  65  69
ENDBRANCH  39  62
ENDBRANCH  13  14
ENDBRANCH   6   8
ENDBRANCH   3   4
ENDBRANCH   2   3
ENDBRANCH   1   2
BRANCH   1  73
ATOM     73  C   UNL     1       4.247  -3.989  -1.814  1.00  0.00     0.002 C 
BRANCH  73  74
ATOM     74  C   UNL     1       5.773  -4.095  -1.845  1.00  0.00     0.021 C 
BRANCH  74  75
ATOM     75  C   UNL     1       6.366  -5.489  -1.638  1.00  0.00     0.116 C 
BRANCH  75  76
ATOM     76  N   UNL     1       6.497  -6.157  -2.923  1.00  0.00    -0.356 N 
ATOM     77  C   UNL     1       7.540  -6.393  -3.754  1.00  0.00     0.223 C 
ATOM     78  H   UNL     1       5.644  -6.514  -3.261  1.00  0.00     0.163 HD
ATOM     79  O   UNL     1       7.239  -6.908  -4.841  1.00  0.00    -0.275 OA
BRANCH  77  80
ATOM     80  C   UNL     1       9.023  -6.218  -3.407  1.00  0.00     0.091 C 
ATOM     81  C   UNL     1       9.443  -7.217  -2.323  1.00  0.00     0.014 C 
ATOM     82  C   UNL     1       9.682  -4.824  -3.330  1.00  0.00     0.091 C 
ATOM     83  C   UNL     1      10.961  -7.297  -2.206  1.00  0.00     0.001 C 
ATOM     84  C   UNL     1      11.196  -4.922  -2.989  1.00  0.00     0.014 C 
ATOM     85  C   UNL     1      11.536  -5.928  -1.889  1.00  0.00     0.001 C 
BRANCH  82  86
ATOM     86  C   UNL     1       9.094  -3.795  -2.374  1.00  0.00     0.230 C 
ATOM     87  O   UNL     1       9.237  -3.901  -1.153  1.00  0.00    -0.274 OA
ATOM     88  N   UNL     1       8.500  -2.660  -2.842  1.00  0.00    -0.302 N 
ATOM     89  H   UNL     1       8.574  -1.850  -2.289  1.00  0.00     0.172 HD
BRANCH  88  90
ATOM     90  C   UNL     1       7.811  -2.557  -4.016  1.00  0.00     0.189 A 
ATOM     91  N   UNL     1       7.631  -3.466  -4.937  1.00  0.00    -0.220 NA
ATOM     92  S   UNL     1       6.866  -1.138  -4.147  1.00  0.00    -0.105 S 
ATOM     93  C   UNL     1       6.612  -3.066  -5.776  1.00  0.00     0.084 A 
ATOM     94  C   UNL     1       6.037  -1.846  -5.475  1.00  0.00     0.097 A 
BRANCH  93  95
ATOM     95  C   UNL     1       6.214  -3.867  -6.914  1.00  0.00     0.003 A 
ATOM     96  C   UNL     1       5.524  -5.072  -6.753  1.00  0.00     0.012 A 
ATOM     97  C   UNL     1       6.567  -3.438  -8.197  1.00  0.00     0.032 A 
ATOM     98  C   UNL     1       5.188  -5.844  -7.870  1.00  0.00     0.023 A 
ATOM     99  C   UNL     1       6.231  -4.207  -9.314  1.00  0.00     0.060 A 
ATOM    100  C   UNL     1       5.540  -5.412  -9.152  1.00  0.00     0.059 A 
ATOM    101  Cl  UNL     1       6.708  -3.608 -10.863  1.00  0.00    -0.083 Cl
ATOM    102  Cl  UNL     1       5.096  -6.409 -10.492  1.00  0.00    -0.083 Cl
ENDBRANCH  93  95
ENDBRANCH  88  90
ENDBRANCH  82  86
ENDBRANCH  77  80
ENDBRANCH  75  76
ENDBRANCH  74  75
ENDBRANCH  73  74
ENDBRANCH   1  73
TORSDOF 19
