REMARK SMILES Cc1cccc(N2C(=O)/C(=C/c3ccc(C(=O)NCCCCCCNC(=O)c4ccc(-c5c6nc(c(-c7cc(S(=O)(=O)[O-])ccc7F)c7ccc([nH]7)c(-c7cc(S(=O)(=O)[O-])ccc7F)c7nc(c(-c8cc(S(=O)(=O)[O-])ccc8F)c8ccc5[nH]8)C=C7)C=C6)cc4)cc3)c3ccccc3C2=O)c1
REMARK SMILES IDX 22 1 21 2 20 3 19 4 18 5 16 6 17 7 15 9 12 10 13 11 92 12
REMARK SMILES IDX 14 13 91 14 11 15 7 16 8 17 99 18 9 19 10 20 98 21 100 22
REMARK SMILES IDX 93 23 97 24 94 25 96 26 95 27 6 28 1 29 2 30 3 31 101 32
REMARK SMILES IDX 4 33 5 34 23 35 24 36 25 37 26 38 27 40 28 41 29 42 90 43
REMARK SMILES IDX 30 44 89 45 31 46 32 47 33 48 83 49 34 50 88 51 82 52 84 53
REMARK SMILES IDX 35 54 87 55 81 56 80 57 36 59 68 60 48 61 67 62 49 63 52 64
REMARK SMILES IDX 66 65 85 66 50 67 51 68 65 70 86 71 53 72 37 73 38 74 46 75
REMARK SMILES IDX 39 76 45 77 47 78 44 79 40 80 41 81 42 82 43 83 69 84 70 85
REMARK SMILES IDX 78 86 71 87 77 88 79 89 76 90 72 91 73 92 74 93 75 94 54 95
REMARK SMILES IDX 55 96 63 97 56 98 62 99 64 100 61 101 57 102 58 103 59 104
REMARK SMILES IDX 60 105
REMARK H PARENT 18 8 25 39 84 58 52 69
REMARK Flexibility Score: inf
ROOT
ATOM      1  C   UNL     1      -8.269  12.332   1.363  1.00  0.00     0.002 C 
ENDROOT
BRANCH   1   2
ATOM      2  C   UNL     1      -6.927  12.462   2.096  1.00  0.00     0.002 C 
BRANCH   2   3
ATOM      3  C   UNL     1      -6.002  11.239   2.114  1.00  0.00     0.021 C 
BRANCH   3   4
ATOM      4  C   UNL     1      -5.698  10.568   0.775  1.00  0.00     0.116 C 
BRANCH   4   5
ATOM      5  N   UNL     1      -5.094  11.447  -0.211  1.00  0.00    -0.352 N 
ATOM      6  C   UNL     1      -4.124  11.176  -1.147  1.00  0.00     0.251 C 
ATOM      7  O   UNL     1      -3.721  12.054  -1.905  1.00  0.00    -0.269 OA
ATOM      8  H   UNL     1      -5.427  12.373  -0.208  1.00  0.00     0.163 HD
BRANCH   6   9
ATOM      9  C   UNL     1      -3.510   9.831  -1.224  1.00  0.00     0.039 A 
ATOM     10  C   UNL     1      -2.264   7.324  -1.150  1.00  0.00    -0.025 A 
ATOM     11  C   UNL     1      -1.493   8.492  -1.164  1.00  0.00     0.009 A 
ATOM     12  C   UNL     1      -3.656   7.419  -1.294  1.00  0.00     0.009 A 
ATOM     13  C   UNL     1      -2.114   9.742  -1.203  1.00  0.00     0.014 A 
ATOM     14  C   UNL     1      -4.280   8.669  -1.327  1.00  0.00     0.014 A 
BRANCH  10  15
ATOM     15  C   UNL     1      -1.592   6.029  -0.969  1.00  0.00     0.022 C 
ATOM     16  N   UNL     1      -1.749   2.649   0.298  1.00  0.00    -0.242 N 
ATOM     17  C   UNL     1      -1.083   3.801  -0.172  1.00  0.00     0.265 C 
ATOM     18  C   UNL     1      -3.081   2.716   0.757  1.00  0.00     0.265 C 
ATOM     19  O   UNL     1      -0.004   3.824  -0.766  1.00  0.00    -0.268 OA
ATOM     20  C   UNL     1      -1.845   5.094  -0.023  1.00  0.00     0.049 C 
ATOM     21  C   UNL     1      -3.523   3.999   1.354  1.00  0.00     0.048 A 
ATOM     22  O   UNL     1      -3.925   1.823   0.736  1.00  0.00    -0.268 OA
ATOM     23  C   UNL     1      -2.859   5.177   1.032  1.00  0.00    -0.000 A 
ATOM     24  C   UNL     1      -4.592   4.008   2.264  1.00  0.00     0.014 A 
ATOM     25  C   UNL     1      -3.199   6.350   1.723  1.00  0.00     0.010 A 
ATOM     26  C   UNL     1      -4.967   5.193   2.892  1.00  0.00     0.001 A 
ATOM     27  C   UNL     1      -4.256   6.361   2.636  1.00  0.00     0.001 A 
BRANCH  16  28
ATOM     28  C   UNL     1      -1.086   1.351   0.170  1.00  0.00     0.053 A 
ATOM     29  C   UNL     1       2.488  -0.059   0.033  1.00  0.00     0.044 C 
ATOM     30  C   UNL     1       0.989   0.010   0.046  1.00  0.00    -0.049 A 
ATOM     31  C   UNL     1       0.242  -1.162  -0.054  1.00  0.00     0.003 A 
ATOM     32  C   UNL     1       0.321   1.243   0.176  1.00  0.00     0.030 A 
ATOM     33  C   UNL     1      -1.145  -1.096  -0.034  1.00  0.00     0.002 A 
ATOM     34  C   UNL     1      -1.794   0.141   0.075  1.00  0.00     0.027 A 
ENDBRANCH  16  28
ENDBRANCH  10  15
ENDBRANCH   6   9
ENDBRANCH   4   5
ENDBRANCH   3   4
ENDBRANCH   2   3
ENDBRANCH   1   2
BRANCH   1  35
ATOM     35  C   UNL     1      -9.136  11.125   1.720  1.00  0.00     0.021 C 
BRANCH  35  36
ATOM     36  C   UNL     1      -9.598  11.069   3.172  1.00  0.00     0.116 C 
BRANCH  36  37
ATOM     37  N   UNL     1     -10.981  11.479   3.390  1.00  0.00    -0.352 N 
ATOM     38  C   UNL     1     -11.712  11.469   4.570  1.00  0.00     0.251 C 
ATOM     39  H   UNL     1     -11.460  11.806   2.594  1.00  0.00     0.163 HD
ATOM     40  O   UNL     1     -12.893  11.777   4.590  1.00  0.00    -0.269 OA
BRANCH  38  41
ATOM     41  C   UNL     1     -11.004  11.178   5.842  1.00  0.00     0.039 A 
ATOM     42  C   UNL     1     -11.094  12.125   6.869  1.00  0.00     0.014 A 
ATOM     43  C   UNL     1     -10.097  10.127   5.932  1.00  0.00     0.014 A 
ATOM     44  C   UNL     1     -10.114  12.152   7.861  1.00  0.00     0.010 A 
ATOM     45  C   UNL     1      -9.068  10.216   6.848  1.00  0.00     0.010 A 
ATOM     46  C   UNL     1      -9.041  11.264   7.775  1.00  0.00    -0.014 A 
BRANCH  46  47
ATOM     47  C   UNL     1      -7.788  11.452   8.498  1.00  0.00     0.031 A 
ATOM     48  C   UNL     1      -7.374  10.538   9.580  1.00  0.00     0.074 A 
ATOM     49  C   UNL     1      -6.938  12.438   8.132  1.00  0.00     0.049 A 
ATOM     50  N   UNL     1      -6.567  10.876  10.530  1.00  0.00    -0.248 NA
ATOM     51  C   UNL     1      -7.859   9.170   9.699  1.00  0.00     0.031 C 
ATOM     52  C   UNL     1      -5.540  12.593   8.528  1.00  0.00     0.029 A 
ATOM     53  N   UNL     1      -7.255  13.642   7.512  1.00  0.00    -0.354 N 
ATOM     54  C   UNL     1      -6.186   9.729  11.180  1.00  0.00     0.074 A 
ATOM     55  C   UNL     1      -7.077   8.705  10.680  1.00  0.00     0.031 C 
ATOM     56  C   UNL     1      -5.189  13.879   8.387  1.00  0.00     0.029 A 
ATOM     57  C   UNL     1      -6.382  14.620   8.027  1.00  0.00     0.049 A 
ATOM     58  H   UNL     1      -7.960  13.785   6.840  1.00  0.00     0.167 HD
ATOM     59  C   UNL     1      -5.068   9.732  11.960  1.00  0.00     0.034 A 
ATOM     60  C   UNL     1      -6.858  15.729   8.664  1.00  0.00     0.034 A 
ATOM     61  C   UNL     1      -4.416  11.043  11.999  1.00  0.00     0.049 A 
ATOM     62  C   UNL     1      -6.390  15.872  10.101  1.00  0.00     0.074 A 
ATOM     63  C   UNL     1      -3.265  11.567  11.430  1.00  0.00     0.029 A 
ATOM     64  N   UNL     1      -5.095  12.121  12.540  1.00  0.00    -0.354 N 
ATOM     65  N   UNL     1      -5.660  14.991  10.728  1.00  0.00    -0.248 NA
ATOM     66  C   UNL     1      -6.782  16.977  10.976  1.00  0.00     0.031 C 
ATOM     67  C   UNL     1      -3.242  12.968  11.679  1.00  0.00     0.029 A 
ATOM     68  C   UNL     1      -4.375  13.292  12.400  1.00  0.00     0.049 A 
ATOM     69  H   UNL     1      -5.978  12.062  12.970  1.00  0.00     0.167 HD
ATOM     70  C   UNL     1      -5.547  15.335  12.053  1.00  0.00     0.074 A 
ATOM     71  C   UNL     1      -6.262  16.594  12.156  1.00  0.00     0.031 C 
ATOM     72  C   UNL     1      -4.916  14.524  12.956  1.00  0.00     0.034 A 
BRANCH  59  73
ATOM     73  C   UNL     1      -4.408   8.476  12.478  1.00  0.00     0.023 A 
ATOM     74  C   UNL     1      -3.011   8.460  12.666  1.00  0.00     0.031 A 
ATOM     75  C   UNL     1      -5.073   7.275  12.785  1.00  0.00     0.131 A 
ATOM     76  C   UNL     1      -2.329   7.281  13.011  1.00  0.00     0.055 A 
ATOM     77  C   UNL     1      -4.392   6.084  13.072  1.00  0.00     0.041 A 
ATOM     78  F   UNL     1      -6.410   7.214  12.870  1.00  0.00    -0.206 F 
ATOM     79  C   UNL     1      -3.008   6.078  13.170  1.00  0.00     0.022 A 
BRANCH  76  80
ATOM     80  S   UNL     1      -0.533   7.352  13.253  1.00  0.00     0.124 S 
ATOM     81  O   UNL     1      -0.069   7.864  11.967  1.00  0.00    -0.237 OA
ATOM     82  O   UNL     1      -0.412   8.257  14.390  1.00  0.00    -0.237 OA
ATOM     83  O   UNL     1      -0.175   5.962  13.528  1.00  0.00    -0.744 OA
ENDBRANCH  76  80
ENDBRANCH  59  73
BRANCH  60  84
ATOM     84  C   UNL     1      -8.175  16.172   8.118  1.00  0.00     0.023 A 
ATOM     85  C   UNL     1      -8.225  16.465   6.737  1.00  0.00     0.031 A 
ATOM     86  C   UNL     1      -9.381  15.893   8.774  1.00  0.00     0.131 A 
ATOM     87  C   UNL     1      -9.416  16.287   6.021  1.00  0.00     0.055 A 
ATOM     88  C   UNL     1     -10.587  15.802   8.067  1.00  0.00     0.041 A 
ATOM     89  F   UNL     1      -9.394  15.569  10.076  1.00  0.00    -0.206 F 
ATOM     90  C   UNL     1     -10.600  15.950   6.678  1.00  0.00     0.022 A 
BRANCH  87  91
ATOM     91  S   UNL     1      -9.328  16.192   4.204  1.00  0.00     0.124 S 
ATOM     92  O   UNL     1      -9.469  17.591   3.820  1.00  0.00    -0.237 OA
ATOM     93  O   UNL     1      -8.012  15.595   3.977  1.00  0.00    -0.237 OA
ATOM     94  O   UNL     1     -10.448  15.322   3.853  1.00  0.00    -0.744 OA
ENDBRANCH  87  91
ENDBRANCH  60  84
BRANCH  72  95
ATOM     95  C   UNL     1      -4.764  14.786  14.442  1.00  0.00     0.023 A 
ATOM     96  C   UNL     1      -4.707  16.073  14.997  1.00  0.00     0.031 A 
ATOM     97  C   UNL     1      -4.594  13.717  15.361  1.00  0.00     0.131 A 
ATOM     98  C   UNL     1      -4.569  16.258  16.389  1.00  0.00     0.055 A 
ATOM     99  C   UNL     1      -4.391  13.905  16.731  1.00  0.00     0.041 A 
ATOM    100  F   UNL     1      -4.642  12.434  14.979  1.00  0.00    -0.206 F 
ATOM    101  C   UNL     1      -4.393  15.183  17.257  1.00  0.00     0.022 A 
BRANCH  98 102
ATOM    102  S   UNL     1      -4.669  17.939  17.058  1.00  0.00     0.124 S 
ATOM    103  O   UNL     1      -3.622  18.636  16.318  1.00  0.00    -0.237 OA
ATOM    104  O   UNL     1      -6.040  18.312  16.722  1.00  0.00    -0.237 OA
ATOM    105  O   UNL     1      -4.409  17.761  18.485  1.00  0.00    -0.744 OA
ENDBRANCH  98 102
ENDBRANCH  72  95
ENDBRANCH  46  47
ENDBRANCH  38  41
ENDBRANCH  36  37
ENDBRANCH  35  36
ENDBRANCH   1  35
TORSDOF 18
