REMARK SMILES O=CN1CCN(S(=O)(=O)c2ccc(C(=O)NCCCCCCNC(=O)c3ccc(-c4c5nc(c(-c6cc(S(=O)(=O)[O-])ccc6F)c6ccc([nH]6)c(-c6cc(S(=O)(=O)[O-])ccc6F)c6nc(c(-c7cc(S(=O)(=O)[O-])ccc7F)c7ccc4[nH]7)C=C6)C=C5)cc3)cc2)CC1
REMARK SMILES IDX 20 1 19 2 18 3 17 4 16 5 14 6 15 7 13 9 10 10 11 11 90 12
REMARK SMILES IDX 12 13 89 14 7 15 8 16 9 17 6 18 1 19 2 20 3 21 4 22 92 23
REMARK SMILES IDX 5 24 91 25 21 26 22 27 23 28 24 29 25 31 26 32 27 33 88 34
REMARK SMILES IDX 28 35 87 36 29 37 30 38 31 39 81 40 32 41 86 42 80 43 82 44
REMARK SMILES IDX 33 45 85 46 79 47 78 48 34 50 66 51 46 52 65 53 47 54 50 55
REMARK SMILES IDX 64 56 83 57 48 58 49 59 63 61 84 62 51 63 35 64 36 65 44 66
REMARK SMILES IDX 37 67 43 68 45 69 42 70 38 71 39 72 40 73 41 74 67 75 68 76
REMARK SMILES IDX 76 77 69 78 75 79 77 80 74 81 70 82 71 83 72 84 73 85 52 86
REMARK SMILES IDX 53 87 61 88 54 89 60 90 62 91 59 92 55 93 56 94 57 95 58 96
REMARK H PARENT 16 8 23 30 82 49 50 60
REMARK Flexibility Score: inf
ROOT
ATOM      1  C   UNL     1       0.153  11.230  -3.326  1.00  0.00     0.002 C 
ENDROOT
BRANCH   1   2
ATOM      2  C   UNL     1       1.547  10.991  -2.734  1.00  0.00     0.002 C 
BRANCH   2   3
ATOM      3  C   UNL     1       1.929   9.517  -2.543  1.00  0.00     0.021 C 
BRANCH   3   4
ATOM      4  C   UNL     1       2.009   8.726  -3.849  1.00  0.00     0.116 C 
BRANCH   4   5
ATOM      5  N   UNL     1       3.207   9.079  -4.590  1.00  0.00    -0.352 N 
ATOM      6  C   UNL     1       4.340   8.364  -4.879  1.00  0.00     0.251 C 
ATOM      7  O   UNL     1       5.189   8.867  -5.614  1.00  0.00    -0.269 OA
ATOM      8  H   UNL     1       3.205   9.996  -4.950  1.00  0.00     0.163 HD
BRANCH   6   9
ATOM      9  C   UNL     1       4.551   6.983  -4.376  1.00  0.00     0.039 A 
ATOM     10  C   UNL     1       5.019   4.351  -3.554  1.00  0.00     0.082 A 
ATOM     11  C   UNL     1       5.395   4.747  -4.838  1.00  0.00     0.022 A 
ATOM     12  C   UNL     1       4.469   5.276  -2.659  1.00  0.00     0.022 A 
ATOM     13  C   UNL     1       5.160   6.064  -5.245  1.00  0.00     0.015 A 
ATOM     14  C   UNL     1       4.242   6.592  -3.069  1.00  0.00     0.015 A 
BRANCH  10  15
ATOM     15  S   UNL     1       5.383   2.704  -2.993  1.00  0.00     0.243 S 
ATOM     16  O   UNL     1       5.544   2.761  -1.553  1.00  0.00    -0.207 OA
ATOM     17  O   UNL     1       6.442   2.176  -3.822  1.00  0.00    -0.207 OA
BRANCH  15  18
ATOM     18  N   UNL     1       3.972   1.810  -3.342  1.00  0.00    -0.194 NA
ATOM     19  O   UNL     1       1.216   0.334   0.648  1.00  0.00    -0.279 OA
ATOM     20  C   UNL     1       2.157  -0.118   0.011  1.00  0.00     0.340 C 
ATOM     21  N   UNL     1       2.838   0.545  -0.986  1.00  0.00    -0.343 N 
ATOM     22  C   UNL     1       4.031  -0.023  -1.610  1.00  0.00     0.136 C 
ATOM     23  C   UNL     1       2.535   1.946  -1.270  1.00  0.00     0.136 C 
ATOM     24  C   UNL     1       4.128   0.332  -3.103  1.00  0.00     0.124 C 
ATOM     25  C   UNL     1       2.670   2.275  -2.761  1.00  0.00     0.124 C 
ENDBRANCH  15  18
ENDBRANCH  10  15
ENDBRANCH   6   9
ENDBRANCH   4   5
ENDBRANCH   3   4
ENDBRANCH   2   3
ENDBRANCH   1   2
BRANCH   1  26
ATOM     26  C   UNL     1      -1.003  10.576  -2.563  1.00  0.00     0.021 C 
BRANCH  26  27
ATOM     27  C   UNL     1      -1.152  11.032  -1.114  1.00  0.00     0.116 C 
BRANCH  27  28
ATOM     28  N   UNL     1      -1.497  12.440  -1.026  1.00  0.00    -0.352 N 
ATOM     29  C   UNL     1      -2.501  13.049  -0.316  1.00  0.00     0.251 C 
ATOM     30  H   UNL     1      -0.927  13.046  -1.553  1.00  0.00     0.163 HD
ATOM     31  O   UNL     1      -2.774  14.223  -0.550  1.00  0.00    -0.269 OA
BRANCH  29  32
ATOM     32  C   UNL     1      -3.257  12.299   0.713  1.00  0.00     0.039 A 
ATOM     33  C   UNL     1      -4.634  12.513   0.824  1.00  0.00     0.014 A 
ATOM     34  C   UNL     1      -2.612  11.433   1.602  1.00  0.00     0.014 A 
ATOM     35  C   UNL     1      -5.366  11.845   1.809  1.00  0.00     0.010 A 
ATOM     36  C   UNL     1      -3.353  10.718   2.540  1.00  0.00     0.010 A 
ATOM     37  C   UNL     1      -4.733  10.935   2.670  1.00  0.00    -0.014 A 
BRANCH  37  38
ATOM     38  C   UNL     1      -5.494  10.249   3.746  1.00  0.00     0.031 A 
ATOM     39  C   UNL     1      -5.190  10.551   5.190  1.00  0.00     0.074 A 
ATOM     40  C   UNL     1      -6.419   9.324   3.428  1.00  0.00     0.049 A 
ATOM     41  N   UNL     1      -5.713  10.037   6.274  1.00  0.00    -0.248 NA
ATOM     42  C   UNL     1      -4.127  11.534   5.443  1.00  0.00     0.031 C 
ATOM     43  C   UNL     1      -6.757   8.902   2.068  1.00  0.00     0.029 A 
ATOM     44  N   UNL     1      -7.236   8.564   4.226  1.00  0.00    -0.354 N 
ATOM     45  C   UNL     1      -5.028  10.618   7.337  1.00  0.00     0.074 A 
ATOM     46  C   UNL     1      -4.010  11.470   6.760  1.00  0.00     0.031 C 
ATOM     47  C   UNL     1      -7.721   7.968   2.126  1.00  0.00     0.029 A 
ATOM     48  C   UNL     1      -8.051   7.708   3.524  1.00  0.00     0.049 A 
ATOM     49  H   UNL     1      -7.238   8.626   5.208  1.00  0.00     0.167 HD
ATOM     50  C   UNL     1      -5.243  10.473   8.670  1.00  0.00     0.034 A 
ATOM     51  C   UNL     1      -8.960   6.814   3.958  1.00  0.00     0.034 A 
ATOM     52  C   UNL     1      -6.279   9.633   9.224  1.00  0.00     0.049 A 
ATOM     53  C   UNL     1      -9.217   6.696   5.437  1.00  0.00     0.074 A 
ATOM     54  C   UNL     1      -6.638   9.462  10.550  1.00  0.00     0.029 A 
ATOM     55  N   UNL     1      -7.120   8.813   8.479  1.00  0.00    -0.354 N 
ATOM     56  N   UNL     1      -8.613   7.306   6.432  1.00  0.00    -0.248 NA
ATOM     57  C   UNL     1     -10.294   5.790   5.850  1.00  0.00     0.031 C 
ATOM     58  C   UNL     1      -7.652   8.499  10.611  1.00  0.00     0.029 A 
ATOM     59  C   UNL     1      -7.978   8.118   9.319  1.00  0.00     0.049 A 
ATOM     60  H   UNL     1      -7.107   8.737   7.498  1.00  0.00     0.167 HD
ATOM     61  C   UNL     1      -9.255   6.873   7.588  1.00  0.00     0.074 A 
ATOM     62  C   UNL     1     -10.303   5.965   7.163  1.00  0.00     0.031 C 
ATOM     63  C   UNL     1      -9.007   7.202   8.882  1.00  0.00     0.034 A 
BRANCH  50  64
ATOM     64  C   UNL     1      -4.316  11.218   9.604  1.00  0.00     0.023 A 
ATOM     65  C   UNL     1      -4.220  12.622   9.587  1.00  0.00     0.031 A 
ATOM     66  C   UNL     1      -3.469  10.516  10.479  1.00  0.00     0.131 A 
ATOM     67  C   UNL     1      -3.231  13.268  10.345  1.00  0.00     0.055 A 
ATOM     68  C   UNL     1      -2.550  11.172  11.302  1.00  0.00     0.041 A 
ATOM     69  F   UNL     1      -3.499   9.175  10.531  1.00  0.00    -0.206 F 
ATOM     70  C   UNL     1      -2.411  12.555  11.221  1.00  0.00     0.022 A 
BRANCH  67  71
ATOM     71  S   UNL     1      -2.911  15.025  10.027  1.00  0.00     0.124 S 
ATOM     72  O   UNL     1      -2.611  15.016   8.597  1.00  0.00    -0.237 OA
ATOM     73  O   UNL     1      -4.170  15.650  10.413  1.00  0.00    -0.237 OA
ATOM     74  O   UNL     1      -1.772  15.328  10.891  1.00  0.00    -0.744 OA
ENDBRANCH  67  71
ENDBRANCH  50  64
BRANCH  51  75
ATOM     75  C   UNL     1      -9.700   5.971   2.980  1.00  0.00     0.023 A 
ATOM     76  C   UNL     1     -11.072   6.156   2.750  1.00  0.00     0.031 A 
ATOM     77  C   UNL     1      -9.037   4.961   2.259  1.00  0.00     0.131 A 
ATOM     78  C   UNL     1     -11.747   5.320   1.847  1.00  0.00     0.055 A 
ATOM     79  C   UNL     1      -9.705   4.159   1.332  1.00  0.00     0.041 A 
ATOM     80  F   UNL     1      -7.722   4.756   2.432  1.00  0.00    -0.206 F 
ATOM     81  C   UNL     1     -11.070   4.331   1.129  1.00  0.00     0.022 A 
BRANCH  78  82
ATOM     82  S   UNL     1     -13.539   5.518   1.651  1.00  0.00     0.124 S 
ATOM     83  O   UNL     1     -14.019   5.237   2.999  1.00  0.00    -0.237 OA
ATOM     84  O   UNL     1     -13.645   6.905   1.208  1.00  0.00    -0.237 OA
ATOM     85  O   UNL     1     -13.884   4.518   0.643  1.00  0.00    -0.744 OA
ENDBRANCH  78  82
ENDBRANCH  51  75
BRANCH  63  86
ATOM     86  C   UNL     1      -9.916   6.598   9.925  1.00  0.00     0.023 A 
ATOM     87  C   UNL     1      -9.923   5.217  10.191  1.00  0.00     0.031 A 
ATOM     88  C   UNL     1     -10.805   7.415  10.644  1.00  0.00     0.131 A 
ATOM     89  C   UNL     1     -10.844   4.688  11.109  1.00  0.00     0.055 A 
ATOM     90  C   UNL     1     -11.678   6.891  11.598  1.00  0.00     0.041 A 
ATOM     91  F   UNL     1     -10.843   8.740  10.428  1.00  0.00    -0.206 F 
ATOM     92  C   UNL     1     -11.711   5.518  11.824  1.00  0.00     0.022 A 
BRANCH  89  93
ATOM     93  S   UNL     1     -10.966   2.886  11.279  1.00  0.00     0.124 S 
ATOM     94  O   UNL     1     -11.241   2.469   9.908  1.00  0.00    -0.237 OA
ATOM     95  O   UNL     1      -9.650   2.533  11.801  1.00  0.00    -0.237 OA
ATOM     96  O   UNL     1     -12.073   2.704  12.215  1.00  0.00    -0.744 OA
ENDBRANCH  89  93
ENDBRANCH  63  86
ENDBRANCH  37  38
ENDBRANCH  29  32
ENDBRANCH  27  28
ENDBRANCH  26  27
ENDBRANCH   1  26
TORSDOF 18
