REMARK SMILES Cc1cccc(C(=O)Nc2ccc(C(=O)NNC(=O)c3ccccc3C(=O)NCCCCCCNC(=O)c3ccc(-c4c5nc(c(-c6cc(S(=O)(=O)[O-])ccc6F)c6ccc([nH]6)c(-c6cc(S(=O)(=O)[O-])ccc6F)c6nc(c(-c7cc(S(=O)(=O)[O-])ccc7F)c7ccc4[nH]7)C=C6)C=C5)cc3)cc2)c1
REMARK SMILES IDX 30 1 29 2 28 3 26 4 27 5 25 7 20 8 21 9 22 10 24 11 23 12
REMARK SMILES IDX 18 13 17 14 19 16 16 17 14 18 15 19 13 21 10 22 11 23 102 24
REMARK SMILES IDX 12 25 101 26 9 27 7 28 8 29 6 31 1 32 2 33 3 34 103 35 4 36
REMARK SMILES IDX 5 37 31 38 32 39 33 40 34 41 35 42 36 43 37 45 38 46 39 47
REMARK SMILES IDX 100 48 40 49 99 50 41 51 42 52 43 53 93 54 44 55 98 56 92 57
REMARK SMILES IDX 94 58 45 59 97 60 91 61 90 62 46 64 78 65 58 66 77 67 59 68
REMARK SMILES IDX 62 69 76 70 95 71 60 72 61 73 75 75 96 76 63 77 47 78 48 79
REMARK SMILES IDX 56 80 49 81 55 82 57 83 54 84 50 85 51 86 52 87 53 88 79 89
REMARK SMILES IDX 80 90 88 91 81 92 87 93 89 94 86 95 82 96 83 97 84 98 85 99
REMARK SMILES IDX 64 100 65 101 73 102 66 103 72 104 74 105 71 106 67 107
REMARK SMILES IDX 68 108 69 109 70 110
REMARK H PARENT 28 6 17 15 16 20 9 30 35 44 94 63 62 74
REMARK Flexibility Score: inf
ROOT
ATOM      1  C   UNL     1       3.171   0.887  -3.191  1.00  0.00     0.021 C 
ENDROOT
BRANCH   1   2
ATOM      2  C   UNL     1       4.515   0.943  -2.467  1.00  0.00     0.116 C 
BRANCH   2   3
ATOM      3  N   UNL     1       4.495   0.818  -1.013  1.00  0.00    -0.352 N 
ATOM      4  C   UNL     1       5.571   0.652  -0.160  1.00  0.00     0.252 C 
ATOM      5  O   UNL     1       5.483   0.810   1.052  1.00  0.00    -0.269 OA
ATOM      6  H   UNL     1       3.608   0.857  -0.588  1.00  0.00     0.163 HD
BRANCH   4   7
ATOM      7  C   UNL     1       6.864   0.193  -0.698  1.00  0.00     0.052 A 
ATOM      8  C   UNL     1       7.588   0.929  -1.638  1.00  0.00     0.054 A 
ATOM      9  C   UNL     1       8.561   0.269  -2.397  1.00  0.00     0.015 A 
ATOM     10  C   UNL     1       8.921  -1.048  -2.079  1.00  0.00     0.001 A 
ATOM     11  C   UNL     1       7.291  -1.084  -0.306  1.00  0.00     0.014 A 
ATOM     12  C   UNL     1       8.336  -1.698  -0.990  1.00  0.00     0.001 A 
BRANCH   8  13
ATOM     13  C   UNL     1       7.296   2.371  -1.862  1.00  0.00     0.270 C 
ATOM     14  N   UNL     1       7.120   3.121  -0.708  1.00  0.00    -0.263 N 
ATOM     15  H   UNL     1       7.625   2.900   0.107  1.00  0.00     0.191 HD
ATOM     16  O   UNL     1       7.176   2.800  -3.004  1.00  0.00    -0.267 OA
BRANCH  14  17
ATOM     17  N   UNL     1       6.208   4.209  -0.710  1.00  0.00    -0.263 N 
ATOM     18  C   UNL     1       5.771   4.628   0.550  1.00  0.00     0.269 C 
ATOM     19  O   UNL     1       6.547   4.847   1.476  1.00  0.00    -0.267 OA
ATOM     20  H   UNL     1       5.904   4.638  -1.542  1.00  0.00     0.191 HD
BRANCH  18  21
ATOM     21  C   UNL     1       4.296   4.609   0.799  1.00  0.00     0.041 A 
ATOM     22  C   UNL     1       1.625   4.045   1.538  1.00  0.00     0.041 A 
ATOM     23  C   UNL     1       2.188   3.462   0.423  1.00  0.00     0.027 A 
ATOM     24  C   UNL     1       2.361   5.021   2.217  1.00  0.00     0.027 A 
ATOM     25  C   UNL     1       3.510   3.721   0.079  1.00  0.00     0.016 A 
ATOM     26  C   UNL     1       3.703   5.284   1.867  1.00  0.00     0.016 A 
BRANCH  22  27
ATOM     27  N   UNL     1       0.350   3.680   1.990  1.00  0.00    -0.322 N 
ATOM     28  C   UNL     1      -0.392   2.530   1.801  1.00  0.00     0.255 C 
ATOM     29  O   UNL     1      -1.575   2.514   2.151  1.00  0.00    -0.269 OA
ATOM     30  H   UNL     1      -0.097   4.365   2.538  1.00  0.00     0.170 HD
BRANCH  28  31
ATOM     31  C   UNL     1       0.171   1.252   1.261  1.00  0.00     0.040 A 
ATOM     32  C   UNL     1       3.078  -1.215   1.476  1.00  0.00     0.044 C 
ATOM     33  C   UNL     1       1.780  -0.570   1.100  1.00  0.00    -0.050 A 
ATOM     34  C   UNL     1       0.932  -1.255   0.219  1.00  0.00     0.003 A 
ATOM     35  C   UNL     1       1.390   0.679   1.633  1.00  0.00     0.017 A 
ATOM     36  C   UNL     1      -0.286  -0.701  -0.136  1.00  0.00     0.001 A 
ATOM     37  C   UNL     1      -0.646   0.541   0.382  1.00  0.00     0.014 A 
ENDBRANCH  28  31
ENDBRANCH  22  27
ENDBRANCH  18  21
ENDBRANCH  14  17
ENDBRANCH   8  13
ENDBRANCH   4   7
ENDBRANCH   2   3
ENDBRANCH   1   2
BRANCH   1  38
ATOM     38  C   UNL     1       2.173   2.030  -2.958  1.00  0.00     0.002 C 
BRANCH  38  39
ATOM     39  C   UNL     1       2.648   3.502  -3.062  1.00  0.00     0.002 C 
BRANCH  39  40
ATOM     40  C   UNL     1       2.693   4.190  -4.429  1.00  0.00     0.021 C 
BRANCH  40  41
ATOM     41  C   UNL     1       1.349   4.168  -5.130  1.00  0.00     0.116 C 
BRANCH  41  42
ATOM     42  N   UNL     1       0.705   5.425  -5.480  1.00  0.00    -0.352 N 
ATOM     43  C   UNL     1      -0.589   5.598  -5.982  1.00  0.00     0.251 C 
ATOM     44  H   UNL     1       1.238   6.242  -5.350  1.00  0.00     0.163 HD
ATOM     45  O   UNL     1      -0.991   6.699  -6.313  1.00  0.00    -0.269 OA
BRANCH  43  46
ATOM     46  C   UNL     1      -1.523   4.431  -5.999  1.00  0.00     0.039 A 
ATOM     47  C   UNL     1      -2.833   4.612  -5.535  1.00  0.00     0.014 A 
ATOM     48  C   UNL     1      -1.040   3.146  -6.201  1.00  0.00     0.014 A 
ATOM     49  C   UNL     1      -3.533   3.521  -5.023  1.00  0.00     0.010 A 
ATOM     50  C   UNL     1      -1.620   2.119  -5.502  1.00  0.00     0.010 A 
ATOM     51  C   UNL     1      -2.860   2.312  -4.896  1.00  0.00    -0.014 A 
BRANCH  51  52
ATOM     52  C   UNL     1      -3.357   1.146  -4.195  1.00  0.00     0.031 A 
ATOM     53  C   UNL     1      -3.811  -0.005  -4.991  1.00  0.00     0.074 A 
ATOM     54  C   UNL     1      -3.233   1.065  -2.856  1.00  0.00     0.049 A 
ATOM     55  N   UNL     1      -4.493  -0.989  -4.529  1.00  0.00    -0.248 NA
ATOM     56  C   UNL     1      -3.525  -0.131  -6.416  1.00  0.00     0.031 C 
ATOM     57  C   UNL     1      -3.410  -0.114  -2.017  1.00  0.00     0.029 A 
ATOM     58  N   UNL     1      -3.169   2.120  -1.962  1.00  0.00    -0.354 N 
ATOM     59  C   UNL     1      -4.466  -1.994  -5.465  1.00  0.00     0.074 A 
ATOM     60  C   UNL     1      -3.906  -1.387  -6.647  1.00  0.00     0.031 C 
ATOM     61  C   UNL     1      -3.723   0.282  -0.774  1.00  0.00     0.029 A 
ATOM     62  C   UNL     1      -3.858   1.731  -0.809  1.00  0.00     0.049 A 
ATOM     63  H   UNL     1      -2.722   2.984  -2.111  1.00  0.00     0.167 HD
ATOM     64  C   UNL     1      -4.788  -3.258  -5.071  1.00  0.00     0.034 A 
ATOM     65  C   UNL     1      -4.963   2.410  -0.392  1.00  0.00     0.034 A 
ATOM     66  C   UNL     1      -5.197  -3.271  -3.659  1.00  0.00     0.049 A 
ATOM     67  C   UNL     1      -6.142   1.464  -0.395  1.00  0.00     0.074 A 
ATOM     68  C   UNL     1      -4.564  -3.672  -2.494  1.00  0.00     0.029 A 
ATOM     69  N   UNL     1      -6.295  -2.503  -3.259  1.00  0.00    -0.354 N 
ATOM     70  N   UNL     1      -6.288   0.474  -1.245  1.00  0.00    -0.248 NA
ATOM     71  C   UNL     1      -7.107   1.428   0.696  1.00  0.00     0.031 C 
ATOM     72  C   UNL     1      -5.246  -3.072  -1.396  1.00  0.00     0.029 A 
ATOM     73  C   UNL     1      -6.314  -2.334  -1.888  1.00  0.00     0.049 A 
ATOM     74  H   UNL     1      -6.968  -2.132  -3.874  1.00  0.00     0.167 HD
ATOM     75  C   UNL     1      -7.216  -0.404  -0.739  1.00  0.00     0.074 A 
ATOM     76  C   UNL     1      -7.738   0.268   0.444  1.00  0.00     0.031 C 
ATOM     77  C   UNL     1      -7.429  -1.669  -1.222  1.00  0.00     0.034 A 
BRANCH  64  78
ATOM     78  C   UNL     1      -4.430  -4.493  -5.873  1.00  0.00     0.023 A 
ATOM     79  C   UNL     1      -4.200  -5.714  -5.207  1.00  0.00     0.031 A 
ATOM     80  C   UNL     1      -4.260  -4.535  -7.272  1.00  0.00     0.131 A 
ATOM     81  C   UNL     1      -3.726  -6.849  -5.896  1.00  0.00     0.055 A 
ATOM     82  C   UNL     1      -3.722  -5.639  -7.948  1.00  0.00     0.041 A 
ATOM     83  F   UNL     1      -4.669  -3.535  -8.063  1.00  0.00    -0.206 F 
ATOM     84  C   UNL     1      -3.442  -6.805  -7.257  1.00  0.00     0.022 A 
BRANCH  81  85
ATOM     85  S   UNL     1      -3.516  -8.408  -4.992  1.00  0.00     0.124 S 
ATOM     86  O   UNL     1      -2.471  -8.068  -4.032  1.00  0.00    -0.237 OA
ATOM     87  O   UNL     1      -4.849  -8.632  -4.446  1.00  0.00    -0.237 OA
ATOM     88  O   UNL     1      -3.112  -9.352  -6.035  1.00  0.00    -0.744 OA
ENDBRANCH  81  85
ENDBRANCH  64  78
BRANCH  65  89
ATOM     89  C   UNL     1      -4.893   3.861  -0.740  1.00  0.00     0.023 A 
ATOM     90  C   UNL     1      -3.792   4.580  -0.202  1.00  0.00     0.031 A 
ATOM     91  C   UNL     1      -5.513   4.383  -1.883  1.00  0.00     0.131 A 
ATOM     92  C   UNL     1      -3.220   5.640  -0.921  1.00  0.00     0.055 A 
ATOM     93  C   UNL     1      -4.990   5.507  -2.544  1.00  0.00     0.041 A 
ATOM     94  F   UNL     1      -6.534   3.737  -2.464  1.00  0.00    -0.206 F 
ATOM     95  C   UNL     1      -3.812   6.109  -2.094  1.00  0.00     0.022 A 
BRANCH  92  96
ATOM     96  S   UNL     1      -1.572   6.250  -0.444  1.00  0.00     0.124 S 
ATOM     97  O   UNL     1      -1.587   6.182   1.015  1.00  0.00    -0.237 OA
ATOM     98  O   UNL     1      -0.698   5.285  -1.109  1.00  0.00    -0.237 OA
ATOM     99  O   UNL     1      -1.544   7.603  -0.995  1.00  0.00    -0.744 OA
ENDBRANCH  92  96
ENDBRANCH  65  89
BRANCH  77 100
ATOM    100  C   UNL     1      -8.698  -2.468  -1.000  1.00  0.00     0.023 A 
ATOM    101  C   UNL     1      -9.849  -1.919  -0.422  1.00  0.00     0.031 A 
ATOM    102  C   UNL     1      -8.843  -3.784  -1.510  1.00  0.00     0.131 A 
ATOM    103  C   UNL     1     -11.032  -2.663  -0.296  1.00  0.00     0.055 A 
ATOM    104  C   UNL     1     -10.046  -4.492  -1.464  1.00  0.00     0.041 A 
ATOM    105  F   UNL     1      -7.837  -4.435  -2.111  1.00  0.00    -0.206 F 
ATOM    106  C   UNL     1     -11.151  -3.936  -0.843  1.00  0.00     0.022 A 
BRANCH 103 107
ATOM    107  S   UNL     1     -12.398  -1.927   0.631  1.00  0.00     0.124 S 
ATOM    108  O   UNL     1     -11.851  -1.892   1.985  1.00  0.00    -0.237 OA
ATOM    109  O   UNL     1     -12.559  -0.630  -0.018  1.00  0.00    -0.237 OA
ATOM    110  O   UNL     1     -13.498  -2.866   0.426  1.00  0.00    -0.744 OA
ENDBRANCH 103 107
ENDBRANCH  77 100
ENDBRANCH  51  52
ENDBRANCH  43  46
ENDBRANCH  41  42
ENDBRANCH  40  41
ENDBRANCH  39  40
ENDBRANCH  38  39
ENDBRANCH   1  38
TORSDOF 21
