REMARK SMILES COCCCN1C(=O)CC[C@@H](C(=O)NCCCCCCNC(=O)c2ccc(-c3c4nc(c(-c5cc(S(=O)(=O)[O-])ccc5F)c5ccc([nH]5)c(-c5cc(S(=O)(=O)[O-])ccc5F)c5nc(c(-c6cc(S(=O)(=O)[O-])ccc6F)c6ccc3[nH]6)C=C5)C=C4)cc2)[C@@H]1c1ccc(F)cc1
REMARK SMILES IDX 17 1 16 2 15 3 14 4 12 5 13 6 11 8 6 9 7 10 87 11 8 12 9 13
REMARK SMILES IDX 10 14 5 15 4 16 3 17 2 18 1 19 88 20 89 21 94 22 90 23 93 24
REMARK SMILES IDX 91 25 92 26 18 27 19 28 20 29 21 30 22 31 23 33 24 34 25 35
REMARK SMILES IDX 86 36 26 37 85 38 27 39 28 40 29 41 79 42 30 43 84 44 78 45
REMARK SMILES IDX 80 46 31 47 83 48 77 49 76 50 32 52 64 53 44 54 63 55 45 56
REMARK SMILES IDX 48 57 62 58 81 59 46 60 47 61 61 63 82 64 49 65 33 66 34 67
REMARK SMILES IDX 42 68 35 69 41 70 43 71 40 72 36 73 37 74 38 75 39 76 65 77
REMARK SMILES IDX 66 78 74 79 67 80 73 81 75 82 72 83 68 84 69 85 70 86 71 87
REMARK SMILES IDX 50 88 51 89 59 90 52 91 58 92 60 93 57 94 53 95 54 96 55 97
REMARK SMILES IDX 56 98
REMARK H PARENT 14 7 21 32 80 51 48 62
REMARK Flexibility Score: inf
ROOT
ATOM      1  C   UNL     1       4.804   2.242  -3.389  1.00  0.00     0.002 C 
ENDROOT
BRANCH   1   2
ATOM      2  C   UNL     1       5.017   2.229  -1.871  1.00  0.00     0.021 C 
BRANCH   2   3
ATOM      3  C   UNL     1       4.096   1.284  -1.104  1.00  0.00     0.116 C 
BRANCH   3   4
ATOM      4  N   UNL     1       4.271  -0.096  -1.519  1.00  0.00    -0.356 N 
ATOM      5  C   UNL     1       4.664  -1.193  -0.814  1.00  0.00     0.225 C 
ATOM      6  O   UNL     1       4.868  -2.227  -1.450  1.00  0.00    -0.275 OA
ATOM      7  H   UNL     1       4.072  -0.267  -2.467  1.00  0.00     0.163 HD
BRANCH   5   8
ATOM      8  C   UNL     1       4.822  -1.115   0.704  1.00  0.00     0.106 C 
ATOM      9  N   UNL     1       2.653  -2.245   1.268  1.00  0.00    -0.335 N 
ATOM     10  C   UNL     1       3.244  -3.504   1.271  1.00  0.00     0.223 C 
ATOM     11  C   UNL     1       3.445  -1.011   1.379  1.00  0.00     0.128 C 
ATOM     12  O   UNL     1       2.582  -4.545   1.280  1.00  0.00    -0.275 OA
ATOM     13  C   UNL     1       4.758  -3.607   1.196  1.00  0.00     0.101 C 
ATOM     14  C   UNL     1       5.562  -2.321   1.274  1.00  0.00     0.026 C 
BRANCH   9  15
ATOM     15  C   UNL     1       1.202  -2.156   1.004  1.00  0.00     0.122 C 
BRANCH  15  16
ATOM     16  C   UNL     1       0.321  -1.376   1.993  1.00  0.00     0.050 C 
BRANCH  16  17
ATOM     17  C   UNL     1       0.278   0.150   1.876  1.00  0.00     0.161 C 
BRANCH  17  18
ATOM     18  O   UNL     1      -0.539   0.624   0.807  1.00  0.00    -0.385 OA
ATOM     19  C   UNL     1       0.055   0.558  -0.478  1.00  0.00     0.194 C 
ENDBRANCH  17  18
ENDBRANCH  16  17
ENDBRANCH  15  16
ENDBRANCH   9  15
BRANCH  11  20
ATOM     20  C   UNL     1       3.523  -0.483   2.820  1.00  0.00    -0.024 A 
ATOM     21  C   UNL     1       3.121  -1.249   3.930  1.00  0.00     0.009 A 
ATOM     22  C   UNL     1       3.905   0.855   3.047  1.00  0.00     0.009 A 
ATOM     23  C   UNL     1       3.019  -0.676   5.200  1.00  0.00     0.039 A 
ATOM     24  C   UNL     1       3.822   1.421   4.322  1.00  0.00     0.039 A 
ATOM     25  C   UNL     1       3.360   0.656   5.382  1.00  0.00     0.123 A 
ATOM     26  F   UNL     1       3.228   1.213   6.593  1.00  0.00    -0.207 F 
ENDBRANCH  11  20
ENDBRANCH   5   8
ENDBRANCH   3   4
ENDBRANCH   2   3
ENDBRANCH   1   2
BRANCH   1  27
ATOM     27  C   UNL     1       3.376   2.543  -3.855  1.00  0.00     0.002 C 
BRANCH  27  28
ATOM     28  C   UNL     1       2.781   3.856  -3.342  1.00  0.00     0.021 C 
BRANCH  28  29
ATOM     29  C   UNL     1       3.587   5.105  -3.682  1.00  0.00     0.116 C 
BRANCH  29  30
ATOM     30  N   UNL     1       3.688   5.327  -5.112  1.00  0.00    -0.352 N 
ATOM     31  C   UNL     1       3.481   6.477  -5.834  1.00  0.00     0.251 C 
ATOM     32  H   UNL     1       3.941   4.537  -5.643  1.00  0.00     0.163 HD
ATOM     33  O   UNL     1       3.434   6.416  -7.058  1.00  0.00    -0.269 OA
BRANCH  31  34
ATOM     34  C   UNL     1       3.294   7.775  -5.142  1.00  0.00     0.039 A 
ATOM     35  C   UNL     1       2.354   8.676  -5.648  1.00  0.00     0.014 A 
ATOM     36  C   UNL     1       4.061   8.125  -4.026  1.00  0.00     0.014 A 
ATOM     37  C   UNL     1       2.164   9.909  -5.020  1.00  0.00     0.010 A 
ATOM     38  C   UNL     1       3.810   9.318  -3.351  1.00  0.00     0.010 A 
ATOM     39  C   UNL     1       2.878  10.236  -3.856  1.00  0.00    -0.014 A 
BRANCH  39  40
ATOM     40  C   UNL     1       2.700  11.559  -3.197  1.00  0.00     0.031 A 
ATOM     41  C   UNL     1       3.855  12.525  -3.126  1.00  0.00     0.074 A 
ATOM     42  C   UNL     1       1.513  11.882  -2.647  1.00  0.00     0.049 A 
ATOM     43  N   UNL     1       3.909  13.715  -2.583  1.00  0.00    -0.248 NA
ATOM     44  C   UNL     1       5.127  12.079  -3.714  1.00  0.00     0.031 C 
ATOM     45  C   UNL     1       0.333  11.014  -2.613  1.00  0.00     0.029 A 
ATOM     46  N   UNL     1       1.099  13.027  -2.014  1.00  0.00    -0.354 N 
ATOM     47  C   UNL     1       5.218  14.154  -2.757  1.00  0.00     0.074 A 
ATOM     48  C   UNL     1       5.941  13.069  -3.384  1.00  0.00     0.031 C 
ATOM     49  C   UNL     1      -0.680  11.672  -2.027  1.00  0.00     0.029 A 
ATOM     50  C   UNL     1      -0.215  12.990  -1.606  1.00  0.00     0.049 A 
ATOM     51  H   UNL     1       1.687  13.803  -1.866  1.00  0.00     0.167 HD
ATOM     52  C   UNL     1       5.761  15.360  -2.453  1.00  0.00     0.034 A 
ATOM     53  C   UNL     1      -0.959  13.914  -0.967  1.00  0.00     0.034 A 
ATOM     54  C   UNL     1       5.022  16.437  -1.839  1.00  0.00     0.049 A 
ATOM     55  C   UNL     1      -0.333  15.245  -0.631  1.00  0.00     0.074 A 
ATOM     56  C   UNL     1       5.457  17.712  -1.523  1.00  0.00     0.029 A 
ATOM     57  N   UNL     1       3.691  16.365  -1.445  1.00  0.00    -0.354 N 
ATOM     58  N   UNL     1       0.894  15.663  -0.849  1.00  0.00    -0.248 NA
ATOM     59  C   UNL     1      -1.200  16.237   0.015  1.00  0.00     0.031 C 
ATOM     60  C   UNL     1       4.415  18.385  -0.875  1.00  0.00     0.029 A 
ATOM     61  C   UNL     1       3.299  17.563  -0.866  1.00  0.00     0.049 A 
ATOM     62  H   UNL     1       3.111  15.578  -1.560  1.00  0.00     0.167 HD
ATOM     63  C   UNL     1       0.931  16.981  -0.399  1.00  0.00     0.074 A 
ATOM     64  C   UNL     1      -0.402  17.291   0.076  1.00  0.00     0.031 C 
ATOM     65  C   UNL     1       1.969  17.857  -0.384  1.00  0.00     0.034 A 
BRANCH  52  66
ATOM     66  C   UNL     1       7.229  15.558  -2.760  1.00  0.00     0.023 A 
ATOM     67  C   UNL     1       7.729  15.473  -4.073  1.00  0.00     0.031 A 
ATOM     68  C   UNL     1       8.150  15.799  -1.725  1.00  0.00     0.131 A 
ATOM     69  C   UNL     1       9.111  15.540  -4.305  1.00  0.00     0.055 A 
ATOM     70  C   UNL     1       9.515  15.958  -1.974  1.00  0.00     0.041 A 
ATOM     71  F   UNL     1       7.741  15.868  -0.449  1.00  0.00    -0.206 F 
ATOM     72  C   UNL     1      10.006  15.811  -3.268  1.00  0.00     0.022 A 
BRANCH  69  73
ATOM     73  S   UNL     1       9.735  15.106  -5.952  1.00  0.00     0.124 S 
ATOM     74  O   UNL     1       9.238  13.741  -6.104  1.00  0.00    -0.237 OA
ATOM     75  O   UNL     1       9.110  16.112  -6.802  1.00  0.00    -0.237 OA
ATOM     76  O   UNL     1      11.185  15.220  -5.811  1.00  0.00    -0.744 OA
ENDBRANCH  69  73
ENDBRANCH  52  66
BRANCH  53  77
ATOM     77  C   UNL     1      -2.378  13.629  -0.604  1.00  0.00     0.023 A 
ATOM     78  C   UNL     1      -3.433  14.378  -1.151  1.00  0.00     0.031 A 
ATOM     79  C   UNL     1      -2.698  12.635   0.339  1.00  0.00     0.131 A 
ATOM     80  C   UNL     1      -4.748  14.163  -0.710  1.00  0.00     0.055 A 
ATOM     81  C   UNL     1      -4.015  12.384   0.730  1.00  0.00     0.041 A 
ATOM     82  F   UNL     1      -1.731  11.885   0.890  1.00  0.00    -0.206 F 
ATOM     83  C   UNL     1      -5.048  13.162   0.216  1.00  0.00     0.022 A 
BRANCH  80  84
ATOM     84  S   UNL     1      -6.053  15.280  -1.294  1.00  0.00     0.124 S 
ATOM     85  O   UNL     1      -5.548  16.578  -0.863  1.00  0.00    -0.237 OA
ATOM     86  O   UNL     1      -6.043  15.032  -2.732  1.00  0.00    -0.237 OA
ATOM     87  O   UNL     1      -7.244  14.807  -0.591  1.00  0.00    -0.744 OA
ENDBRANCH  80  84
ENDBRANCH  53  77
BRANCH  65  88
ATOM     88  C   UNL     1       1.677  19.253   0.120  1.00  0.00     0.023 A 
ATOM     89  C   UNL     1       1.264  19.494   1.442  1.00  0.00     0.031 A 
ATOM     90  C   UNL     1       1.768  20.353  -0.752  1.00  0.00     0.131 A 
ATOM     91  C   UNL     1       0.873  20.785   1.829  1.00  0.00     0.055 A 
ATOM     92  C   UNL     1       1.454  21.648  -0.339  1.00  0.00     0.041 A 
ATOM     93  F   UNL     1       2.155  20.186  -2.027  1.00  0.00    -0.206 F 
ATOM     94  C   UNL     1       0.982  21.867   0.952  1.00  0.00     0.022 A 
BRANCH  91  95
ATOM     95  S   UNL     1       0.079  21.003   3.446  1.00  0.00     0.124 S 
ATOM     96  O   UNL     1      -1.018  20.043   3.376  1.00  0.00    -0.237 OA
ATOM     97  O   UNL     1       1.159  20.670   4.369  1.00  0.00    -0.237 OA
ATOM     98  O   UNL     1      -0.324  22.408   3.443  1.00  0.00    -0.744 OA
ENDBRANCH  91  95
ENDBRANCH  65  88
ENDBRANCH  39  40
ENDBRANCH  31  34
ENDBRANCH  29  30
ENDBRANCH  28  29
ENDBRANCH  27  28
ENDBRANCH   1  27
TORSDOF 21
