REMARK SMILES [NH3+][C@H]([C@@H](C(=O)NCCCCCCNC(=O)c1ccc(-c2c3nc(c(-c4cc(S(=O)(=O)[O-])ccc4F)c4ccc([nH]4)c(-c4cc(S(=O)(=O)[O-])ccc4F)c4nc(c(-c5cc(S(=O)(=O)[O-])ccc5F)c5ccc2[nH]5)C=C4)C=C3)cc1)C(=O)OCC1c2ccccc2-c2ccccc21)C(F)(F)F
REMARK SMILES IDX 9 1 8 2 7 3 6 4 4 5 5 6 3 8 2 9 1 10 96 14 97 15 98 16 99 17
REMARK SMILES IDX 79 18 80 19 81 20 82 21 83 22 84 23 95 24 85 25 89 26 90 27
REMARK SMILES IDX 94 28 86 29 88 30 91 31 93 32 87 33 92 34 10 35 11 36 12 37
REMARK SMILES IDX 13 38 14 39 15 41 16 42 17 43 78 44 18 45 77 46 19 47 20 48
REMARK SMILES IDX 21 49 71 50 22 51 76 52 70 53 72 54 23 55 75 56 69 57 68 58
REMARK SMILES IDX 24 60 56 61 36 62 55 63 37 64 40 65 54 66 73 67 38 68 39 69
REMARK SMILES IDX 53 71 74 72 41 73 25 74 26 75 34 76 27 77 33 78 35 79 32 80
REMARK SMILES IDX 28 81 29 82 30 83 31 84 57 85 58 86 66 87 59 88 65 89 67 90
REMARK SMILES IDX 64 91 60 92 61 93 62 94 63 95 42 96 43 97 51 98 44 99 50 100
REMARK SMILES IDX 52 101 49 102 45 103 46 104 47 105 48 106
REMARK H PARENT 6 7 1 11 1 12 1 13 13 40 72 59 40 70
REMARK Flexibility Score: inf
ROOT
ATOM      1  C   UNL     1      -4.122   0.334  -0.816  1.00  0.00     0.002 C 
ENDROOT
BRANCH   1   2
ATOM      2  C   UNL     1      -3.010  -0.216   0.079  1.00  0.00     0.021 C 
BRANCH   2   3
ATOM      3  C   UNL     1      -1.742  -0.644  -0.665  1.00  0.00     0.116 C 
BRANCH   3   4
ATOM      4  N   UNL     1      -0.916   0.516  -0.976  1.00  0.00    -0.355 N 
ATOM      5  C   UNL     1       0.245   0.979  -0.433  1.00  0.00     0.240 C 
ATOM      6  O   UNL     1       0.633   2.095  -0.788  1.00  0.00    -0.274 OA
ATOM      7  H   UNL     1      -1.261   1.067  -1.715  1.00  0.00     0.163 HD
BRANCH   5   8
ATOM      8  C   UNL     1       1.067   0.155   0.544  1.00  0.00     0.255 C 
BRANCH   8   9
ATOM      9  C   UNL     1       0.915   0.580   2.034  1.00  0.00     0.311 C 
BRANCH   9  10
ATOM     10  N   UNL     1       1.415   1.951   2.372  1.00  0.00    -0.346 N 
ATOM     11  H   UNL     1       1.270   2.131   3.365  1.00  0.00     0.345 HD
ATOM     12  H   UNL     1       0.905   2.643   1.823  1.00  0.00     0.345 HD
ATOM     13  H   UNL     1       2.410   2.012   2.156  1.00  0.00     0.345 HD
ENDBRANCH   9  10
BRANCH   9  14
ATOM     14  C   UNL     1      -0.530   0.399   2.537  1.00  0.00     0.442 C 
ATOM     15  F   UNL     1      -1.037  -0.796   2.170  1.00  0.00    -0.165 F 
ATOM     16  F   UNL     1      -0.597   0.464   3.885  1.00  0.00    -0.165 F 
ATOM     17  F   UNL     1      -1.323   1.376   2.047  1.00  0.00    -0.165 F 
ENDBRANCH   9  14
ENDBRANCH   8   9
BRANCH   8  18
ATOM     18  C   UNL     1       2.518   0.155   0.075  1.00  0.00     0.325 C 
ATOM     19  O   UNL     1       2.927  -0.510  -0.871  1.00  0.00    -0.251 OA
BRANCH  18  20
ATOM     20  O   UNL     1       3.285   1.031   0.776  1.00  0.00    -0.464 OA
BRANCH  20  21
ATOM     21  C   UNL     1       4.606   1.288   0.274  1.00  0.00     0.246 C 
BRANCH  21  22
ATOM     22  C   UNL     1       5.334   2.260   1.208  1.00  0.00     0.088 C 
ATOM     23  C   UNL     1       6.729   2.655   0.735  1.00  0.00    -0.029 A 
ATOM     24  C   UNL     1       5.611   1.878   2.664  1.00  0.00    -0.029 A 
ATOM     25  C   UNL     1       7.200   2.828  -0.557  1.00  0.00     0.005 A 
ATOM     26  C   UNL     1       7.584   2.804   1.849  1.00  0.00    -0.014 A 
ATOM     27  C   UNL     1       6.873   2.396   3.043  1.00  0.00    -0.014 A 
ATOM     28  C   UNL     1       4.809   1.243   3.598  1.00  0.00     0.005 A 
ATOM     29  C   UNL     1       8.549   3.144  -0.730  1.00  0.00     0.000 A 
ATOM     30  C   UNL     1       8.915   3.146   1.679  1.00  0.00     0.009 A 
ATOM     31  C   UNL     1       7.273   2.408   4.370  1.00  0.00     0.009 A 
ATOM     32  C   UNL     1       5.234   1.212   4.932  1.00  0.00     0.000 A 
ATOM     33  C   UNL     1       9.397   3.311   0.377  1.00  0.00     0.001 A 
ATOM     34  C   UNL     1       6.434   1.825   5.321  1.00  0.00     0.001 A 
ENDBRANCH  21  22
ENDBRANCH  20  21
ENDBRANCH  18  20
ENDBRANCH   8  18
ENDBRANCH   5   8
ENDBRANCH   3   4
ENDBRANCH   2   3
ENDBRANCH   1   2
BRANCH   1  35
ATOM     35  C   UNL     1      -4.900  -0.731  -1.589  1.00  0.00     0.002 C 
BRANCH  35  36
ATOM     36  C   UNL     1      -5.486  -1.859  -0.734  1.00  0.00     0.021 C 
BRANCH  36  37
ATOM     37  C   UNL     1      -6.326  -1.399   0.456  1.00  0.00     0.116 C 
BRANCH  37  38
ATOM     38  N   UNL     1      -7.513  -0.677   0.031  1.00  0.00    -0.352 N 
ATOM     39  C   UNL     1      -8.834  -1.015   0.193  1.00  0.00     0.251 C 
ATOM     40  H   UNL     1      -7.347   0.172  -0.439  1.00  0.00     0.163 HD
ATOM     41  O   UNL     1      -9.699  -0.430  -0.452  1.00  0.00    -0.269 OA
BRANCH  39  42
ATOM     42  C   UNL     1      -9.203  -2.097   1.131  1.00  0.00     0.039 A 
ATOM     43  C   UNL     1     -10.114  -3.072   0.720  1.00  0.00     0.014 A 
ATOM     44  C   UNL     1      -8.650  -2.148   2.415  1.00  0.00     0.014 A 
ATOM     45  C   UNL     1     -10.424  -4.132   1.574  1.00  0.00     0.010 A 
ATOM     46  C   UNL     1      -8.906  -3.243   3.238  1.00  0.00     0.010 A 
ATOM     47  C   UNL     1      -9.795  -4.248   2.826  1.00  0.00    -0.014 A 
BRANCH  47  48
ATOM     48  C   UNL     1     -10.046  -5.423   3.704  1.00  0.00     0.031 A 
ATOM     49  C   UNL     1     -10.694  -5.240   5.050  1.00  0.00     0.074 A 
ATOM     50  C   UNL     1      -9.640  -6.646   3.307  1.00  0.00     0.049 A 
ATOM     51  N   UNL     1     -10.943  -6.132   5.974  1.00  0.00    -0.248 NA
ATOM     52  C   UNL     1     -11.090  -3.872   5.415  1.00  0.00     0.031 C 
ATOM     53  C   UNL     1      -8.964  -6.939   2.040  1.00  0.00     0.029 A 
ATOM     54  N   UNL     1      -9.725  -7.869   3.925  1.00  0.00    -0.354 N 
ATOM     55  C   UNL     1     -11.515  -5.434   7.033  1.00  0.00     0.074 A 
ATOM     56  C   UNL     1     -11.523  -4.037   6.656  1.00  0.00     0.031 C 
ATOM     57  C   UNL     1      -8.719  -8.257   1.967  1.00  0.00     0.029 A 
ATOM     58  C   UNL     1      -9.169  -8.897   3.198  1.00  0.00     0.049 A 
ATOM     59  H   UNL     1     -10.145  -7.998   4.806  1.00  0.00     0.167 HD
ATOM     60  C   UNL     1     -12.002  -5.918   8.202  1.00  0.00     0.034 A 
ATOM     61  C   UNL     1      -9.020 -10.204   3.496  1.00  0.00     0.034 A 
ATOM     62  C   UNL     1     -11.993  -7.318   8.557  1.00  0.00     0.049 A 
ATOM     63  C   UNL     1      -9.545 -10.711   4.817  1.00  0.00     0.074 A 
ATOM     64  C   UNL     1     -12.521  -7.922   9.685  1.00  0.00     0.029 A 
ATOM     65  N   UNL     1     -11.416  -8.330   7.800  1.00  0.00    -0.354 N 
ATOM     66  N   UNL     1     -10.142 -10.046   5.779  1.00  0.00    -0.248 NA
ATOM     67  C   UNL     1      -9.386 -12.146   5.087  1.00  0.00     0.031 C 
ATOM     68  C   UNL     1     -12.190  -9.281   9.650  1.00  0.00     0.029 A 
ATOM     69  C   UNL     1     -11.537  -9.545   8.458  1.00  0.00     0.049 A 
ATOM     70  H   UNL     1     -10.984  -8.203   6.924  1.00  0.00     0.167 HD
ATOM     71  C   UNL     1     -10.456 -10.989   6.754  1.00  0.00     0.074 A 
ATOM     72  C   UNL     1     -10.001 -12.270   6.253  1.00  0.00     0.031 C 
ATOM     73  C   UNL     1     -11.066 -10.814   7.954  1.00  0.00     0.034 A 
BRANCH  60  74
ATOM     74  C   UNL     1     -12.558  -4.926   9.197  1.00  0.00     0.023 A 
ATOM     75  C   UNL     1     -13.685  -4.137   8.909  1.00  0.00     0.031 A 
ATOM     76  C   UNL     1     -11.951  -4.768  10.456  1.00  0.00     0.131 A 
ATOM     77  C   UNL     1     -14.131  -3.185   9.839  1.00  0.00     0.055 A 
ATOM     78  C   UNL     1     -12.447  -3.876  11.408  1.00  0.00     0.041 A 
ATOM     79  F   UNL     1     -10.858  -5.477  10.781  1.00  0.00    -0.206 F 
ATOM     80  C   UNL     1     -13.537  -3.068  11.097  1.00  0.00     0.022 A 
BRANCH  77  81
ATOM     81  S   UNL     1     -15.417  -2.011   9.331  1.00  0.00     0.124 S 
ATOM     82  O   UNL     1     -14.790  -1.368   8.178  1.00  0.00    -0.237 OA
ATOM     83  O   UNL     1     -16.546  -2.886   9.039  1.00  0.00    -0.237 OA
ATOM     84  O   UNL     1     -15.579  -1.152  10.502  1.00  0.00    -0.744 OA
ENDBRANCH  77  81
ENDBRANCH  60  74
BRANCH  61  85
ATOM     85  C   UNL     1      -8.323 -11.124   2.549  1.00  0.00     0.023 A 
ATOM     86  C   UNL     1      -8.989 -12.218   1.976  1.00  0.00     0.031 A 
ATOM     87  C   UNL     1      -6.960 -10.953   2.247  1.00  0.00     0.131 A 
ATOM     88  C   UNL     1      -8.280 -13.129   1.176  1.00  0.00     0.055 A 
ATOM     89  C   UNL     1      -6.275 -11.825   1.400  1.00  0.00     0.041 A 
ATOM     90  F   UNL     1      -6.272  -9.923   2.766  1.00  0.00    -0.206 F 
ATOM     91  C   UNL     1      -6.932 -12.932   0.872  1.00  0.00     0.022 A 
BRANCH  88  92
ATOM     92  S   UNL     1      -9.121 -14.640   0.627  1.00  0.00     0.124 S 
ATOM     93  O   UNL     1      -9.542 -15.223   1.895  1.00  0.00    -0.237 OA
ATOM     94  O   UNL     1     -10.183 -14.104  -0.218  1.00  0.00    -0.237 OA
ATOM     95  O   UNL     1      -8.074 -15.373  -0.082  1.00  0.00    -0.744 OA
ENDBRANCH  88  92
ENDBRANCH  61  85
BRANCH  73  96
ATOM     96  C   UNL     1     -11.312 -12.050   8.787  1.00  0.00     0.023 A 
ATOM     97  C   UNL     1     -10.255 -12.807   9.321  1.00  0.00     0.031 A 
ATOM     98  C   UNL     1     -12.626 -12.483   9.040  1.00  0.00     0.131 A 
ATOM     99  C   UNL     1     -10.527 -13.988  10.028  1.00  0.00     0.055 A 
ATOM    100  C   UNL     1     -12.893 -13.620   9.803  1.00  0.00     0.041 A 
ATOM    101  F   UNL     1     -13.676 -11.803   8.551  1.00  0.00    -0.206 F 
ATOM    102  C   UNL     1     -11.840 -14.389  10.289  1.00  0.00     0.022 A 
BRANCH  99 103
ATOM    103  S   UNL     1      -9.140 -15.052  10.513  1.00  0.00     0.124 S 
ATOM    104  O   UNL     1      -8.516 -15.341   9.226  1.00  0.00    -0.237 OA
ATOM    105  O   UNL     1      -8.381 -14.186  11.410  1.00  0.00    -0.237 OA
ATOM    106  O   UNL     1      -9.791 -16.192  11.157  1.00  0.00    -0.744 OA
ENDBRANCH  99 103
ENDBRANCH  73  96
ENDBRANCH  47  48
ENDBRANCH  39  42
ENDBRANCH  37  38
ENDBRANCH  36  37
ENDBRANCH  35  36
ENDBRANCH   1  35
TORSDOF 23
