REMARK SMILES O=C(CSc1nc(O)cc(=O)[nH]1)Nc1cccc(C(=O)NCCCCCCNC(=O)c2ccc(-c3c4nc(c(-c5cc(S(=O)(=O)[O-])ccc5F)c5ccc([nH]5)c(-c5cc(S(=O)(=O)[O-])ccc5F)c5nc(c(-c6cc(S(=O)(=O)[O-])ccc6F)c6ccc3[nH]6)C=C5)C=C4)cc2)c1
REMARK SMILES IDX 23 1 22 2 21 3 19 4 20 5 18 7 14 8 15 9 94 10 16 11 17 12
REMARK SMILES IDX 13 13 1 14 2 15 3 17 4 18 5 19 6 20 12 21 7 22 10 23 9 25
REMARK SMILES IDX 11 26 8 27 24 29 25 30 26 31 27 32 28 33 29 34 30 36 31 37
REMARK SMILES IDX 32 38 93 39 33 40 92 41 34 42 35 43 36 44 86 45 37 46 91 47
REMARK SMILES IDX 85 48 87 49 38 50 90 51 84 52 83 53 39 55 71 56 51 57 70 58
REMARK SMILES IDX 52 59 55 60 69 61 88 62 53 63 54 64 68 66 89 67 56 68 40 69
REMARK SMILES IDX 41 70 49 71 42 72 48 73 50 74 47 75 43 76 44 77 45 78 46 79
REMARK SMILES IDX 72 80 73 81 81 82 74 83 80 84 82 85 79 86 75 87 76 88 77 89
REMARK SMILES IDX 78 90 57 91 58 92 66 93 59 94 65 95 67 96 64 97 60 98 61 99
REMARK SMILES IDX 62 100 63 101
REMARK H PARENT 21 6 13 16 12 24 8 28 28 35 87 54 55 65
REMARK Flexibility Score: inf
ROOT
ATOM      1  C   UNL     1       0.145   4.904   0.521  1.00  0.00     0.021 C 
ENDROOT
BRANCH   1   2
ATOM      2  C   UNL     1      -0.111   3.654  -0.312  1.00  0.00     0.116 C 
BRANCH   2   3
ATOM      3  N   UNL     1      -0.820   3.904  -1.561  1.00  0.00    -0.352 N 
ATOM      4  C   UNL     1      -0.613   3.401  -2.829  1.00  0.00     0.251 C 
ATOM      5  O   UNL     1      -1.320   3.795  -3.755  1.00  0.00    -0.269 OA
ATOM      6  H   UNL     1      -1.571   4.537  -1.488  1.00  0.00     0.163 HD
BRANCH   4   7
ATOM      7  C   UNL     1       0.487   2.441  -3.115  1.00  0.00     0.041 A 
ATOM      8  C   UNL     1       2.082   0.791  -2.334  1.00  0.00     0.041 A 
ATOM      9  C   UNL     1       2.774   0.903  -3.543  1.00  0.00     0.026 A 
ATOM     10  C   UNL     1       0.882   1.481  -2.183  1.00  0.00     0.040 A 
ATOM     11  C   UNL     1       2.295   1.739  -4.557  1.00  0.00     0.003 A 
ATOM     12  C   UNL     1       1.168   2.531  -4.332  1.00  0.00     0.014 A 
BRANCH   8  13
ATOM     13  N   UNL     1       2.673   0.052  -1.288  1.00  0.00    -0.325 N 
ATOM     14  O   UNL     1       1.061   0.221   0.383  1.00  0.00    -0.274 OA
ATOM     15  C   UNL     1       2.161  -0.160  -0.017  1.00  0.00     0.234 C 
ATOM     16  H   UNL     1       3.546  -0.358  -1.482  1.00  0.00     0.169 HD
BRANCH  15  17
ATOM     17  C   UNL     1       3.116  -0.818   0.970  1.00  0.00     0.178 C 
BRANCH  17  18
ATOM     18  S   UNL     1       4.262  -2.029   0.259  1.00  0.00    -0.078 SA
BRANCH  18  19
ATOM     19  C   UNL     1       3.139  -3.198  -0.357  1.00  0.00     0.172 A 
ATOM     20  N   UNL     1       2.119  -2.847  -1.060  1.00  0.00    -0.189 NA
ATOM     21  N   UNL     1       3.485  -4.479  -0.083  1.00  0.00    -0.301 N 
ATOM     22  C   UNL     1       1.342  -3.854  -1.543  1.00  0.00     0.218 A 
ATOM     23  C   UNL     1       2.767  -5.525  -0.579  1.00  0.00     0.255 A 
ATOM     24  H   UNL     1       4.269  -4.657   0.484  1.00  0.00     0.172 HD
ATOM     25  C   UNL     1       1.583  -5.154  -1.368  1.00  0.00     0.139 A 
ATOM     26  O   UNL     1       3.083  -6.693  -0.408  1.00  0.00    -0.269 OA
BRANCH  22  27
ATOM     27  O   UNL     1       0.252  -3.453  -2.266  1.00  0.00    -0.493 OA
ATOM     28  H   UNL     1       0.082  -2.540  -2.390  1.00  0.00     0.295 HD
ENDBRANCH  22  27
ENDBRANCH  18  19
ENDBRANCH  17  18
ENDBRANCH  15  17
ENDBRANCH   8  13
ENDBRANCH   4   7
ENDBRANCH   2   3
ENDBRANCH   1   2
BRANCH   1  29
ATOM     29  C   UNL     1      -1.089   5.591   1.101  1.00  0.00     0.002 C 
BRANCH  29  30
ATOM     30  C   UNL     1      -2.011   4.713   1.952  1.00  0.00     0.002 C 
BRANCH  30  31
ATOM     31  C   UNL     1      -1.347   3.944   3.097  1.00  0.00     0.021 C 
BRANCH  31  32
ATOM     32  C   UNL     1      -0.532   4.783   4.079  1.00  0.00     0.116 C 
BRANCH  32  33
ATOM     33  N   UNL     1      -1.324   5.820   4.714  1.00  0.00    -0.352 N 
ATOM     34  C   UNL     1      -1.503   6.108   6.044  1.00  0.00     0.251 C 
ATOM     35  H   UNL     1      -1.810   6.410   4.093  1.00  0.00     0.163 HD
ATOM     36  O   UNL     1      -2.370   6.916   6.368  1.00  0.00    -0.269 OA
BRANCH  34  37
ATOM     37  C   UNL     1      -0.684   5.444   7.085  1.00  0.00     0.039 A 
ATOM     38  C   UNL     1      -1.306   5.062   8.277  1.00  0.00     0.014 A 
ATOM     39  C   UNL     1       0.688   5.230   6.920  1.00  0.00     0.014 A 
ATOM     40  C   UNL     1      -0.566   4.424   9.275  1.00  0.00     0.010 A 
ATOM     41  C   UNL     1       1.409   4.523   7.885  1.00  0.00     0.010 A 
ATOM     42  C   UNL     1       0.791   4.117   9.077  1.00  0.00    -0.014 A 
BRANCH  42  43
ATOM     43  C   UNL     1       1.551   3.361  10.110  1.00  0.00     0.031 A 
ATOM     44  C   UNL     1       2.717   3.991  10.824  1.00  0.00     0.074 A 
ATOM     45  C   UNL     1       1.193   2.092  10.392  1.00  0.00     0.049 A 
ATOM     46  N   UNL     1       3.478   3.491  11.765  1.00  0.00    -0.248 NA
ATOM     47  C   UNL     1       3.094   5.349  10.409  1.00  0.00     0.031 C 
ATOM     48  C   UNL     1       0.111   1.356   9.732  1.00  0.00     0.029 A 
ATOM     49  N   UNL     1       1.688   1.198  11.308  1.00  0.00    -0.354 N 
ATOM     50  C   UNL     1       4.422   4.471  12.056  1.00  0.00     0.074 A 
ATOM     51  C   UNL     1       4.178   5.566  11.139  1.00  0.00     0.031 C 
ATOM     52  C   UNL     1      -0.005   0.144  10.295  1.00  0.00     0.029 A 
ATOM     53  C   UNL     1       1.021  -0.007  11.321  1.00  0.00     0.049 A 
ATOM     54  H   UNL     1       2.448   1.399  11.901  1.00  0.00     0.167 HD
ATOM     55  C   UNL     1       5.385   4.469  13.012  1.00  0.00     0.034 A 
ATOM     56  C   UNL     1       1.214  -1.110  12.071  1.00  0.00     0.034 A 
ATOM     57  C   UNL     1       5.614   3.366  13.917  1.00  0.00     0.049 A 
ATOM     58  C   UNL     1       2.305  -1.095  13.112  1.00  0.00     0.074 A 
ATOM     59  C   UNL     1       6.528   3.277  14.953  1.00  0.00     0.029 A 
ATOM     60  N   UNL     1       4.933   2.155  13.889  1.00  0.00    -0.354 N 
ATOM     61  N   UNL     1       3.148  -0.135  13.415  1.00  0.00    -0.248 NA
ATOM     62  C   UNL     1       2.455  -2.308  13.924  1.00  0.00     0.031 C 
ATOM     63  C   UNL     1       6.457   1.989  15.495  1.00  0.00     0.029 A 
ATOM     64  C   UNL     1       5.433   1.301  14.863  1.00  0.00     0.049 A 
ATOM     65  H   UNL     1       4.201   1.934  13.269  1.00  0.00     0.167 HD
ATOM     66  C   UNL     1       3.912  -0.621  14.473  1.00  0.00     0.074 A 
ATOM     67  C   UNL     1       3.404  -1.944  14.772  1.00  0.00     0.031 C 
ATOM     68  C   UNL     1       4.939  -0.029  15.137  1.00  0.00     0.034 A 
BRANCH  55  69
ATOM     69  C   UNL     1       6.280   5.685  13.105  1.00  0.00     0.023 A 
ATOM     70  C   UNL     1       5.768   6.962  13.402  1.00  0.00     0.031 A 
ATOM     71  C   UNL     1       7.663   5.572  12.878  1.00  0.00     0.131 A 
ATOM     72  C   UNL     1       6.617   8.080  13.387  1.00  0.00     0.055 A 
ATOM     73  C   UNL     1       8.517   6.675  12.952  1.00  0.00     0.041 A 
ATOM     74  F   UNL     1       8.211   4.386  12.568  1.00  0.00    -0.206 F 
ATOM     75  C   UNL     1       7.992   7.941  13.193  1.00  0.00     0.022 A 
BRANCH  72  76
ATOM     76  S   UNL     1       5.874   9.733  13.474  1.00  0.00     0.124 S 
ATOM     77  O   UNL     1       4.979   9.714  12.320  1.00  0.00    -0.237 OA
ATOM     78  O   UNL     1       5.231   9.721  14.783  1.00  0.00    -0.237 OA
ATOM     79  O   UNL     1       7.021  10.630  13.349  1.00  0.00    -0.744 OA
ENDBRANCH  72  76
ENDBRANCH  55  69
BRANCH  56  80
ATOM     80  C   UNL     1       0.367  -2.322  11.869  1.00  0.00     0.023 A 
ATOM     81  C   UNL     1      -0.461  -2.810  12.892  1.00  0.00     0.031 A 
ATOM     82  C   UNL     1       0.411  -3.040  10.660  1.00  0.00     0.131 A 
ATOM     83  C   UNL     1      -1.169  -4.008  12.709  1.00  0.00     0.055 A 
ATOM     84  C   UNL     1      -0.344  -4.196  10.459  1.00  0.00     0.041 A 
ATOM     85  F   UNL     1       1.185  -2.618   9.646  1.00  0.00    -0.206 F 
ATOM     86  C   UNL     1      -1.129  -4.696  11.494  1.00  0.00     0.022 A 
BRANCH  83  87
ATOM     87  S   UNL     1      -2.067  -4.712  14.119  1.00  0.00     0.124 S 
ATOM     88  O   UNL     1      -1.003  -4.858  15.105  1.00  0.00    -0.237 OA
ATOM     89  O   UNL     1      -3.058  -3.677  14.393  1.00  0.00    -0.237 OA
ATOM     90  O   UNL     1      -2.605  -5.963  13.589  1.00  0.00    -0.744 OA
ENDBRANCH  83  87
ENDBRANCH  56  80
BRANCH  68  91
ATOM     91  C   UNL     1       5.553  -0.812  16.276  1.00  0.00     0.023 A 
ATOM     92  C   UNL     1       6.194  -2.046  16.063  1.00  0.00     0.031 A 
ATOM     93  C   UNL     1       5.451  -0.344  17.598  1.00  0.00     0.131 A 
ATOM     94  C   UNL     1       6.624  -2.810  17.158  1.00  0.00     0.055 A 
ATOM     95  C   UNL     1       5.955  -1.071  18.677  1.00  0.00     0.041 A 
ATOM     96  F   UNL     1       4.848   0.825  17.867  1.00  0.00    -0.206 F 
ATOM     97  C   UNL     1       6.526  -2.322  18.463  1.00  0.00     0.022 A 
BRANCH  94  98
ATOM     98  S   UNL     1       7.174  -4.513  16.862  1.00  0.00     0.124 S 
ATOM     99  O   UNL     1       6.024  -5.088  16.172  1.00  0.00    -0.237 OA
ATOM    100  O   UNL     1       8.371  -4.317  16.051  1.00  0.00    -0.237 OA
ATOM    101  O   UNL     1       7.415  -5.034  18.207  1.00  0.00    -0.744 OA
ENDBRANCH  94  98
ENDBRANCH  68  91
ENDBRANCH  42  43
ENDBRANCH  34  37
ENDBRANCH  32  33
ENDBRANCH  31  32
ENDBRANCH  30  31
ENDBRANCH  29  30
ENDBRANCH   1  29
TORSDOF 21
