REMARK SMILES O=C(NCCCCCCNC(=O)c1ccccc1C(=O)Nc1ccc(N2C(=O)[C@H]3[C@@H]4CC[C@@H](C4)[C@@H]3C2=O)cc1)c1ccc(-c2c3nc(c(-c4cc(S(=O)(=O)[O-])ccc4F)c4ccc([nH]4)c(-c4cc(S(=O)(=O)[O-])ccc4F)c4nc(c(-c5cc(S(=O)(=O)[O-])ccc5F)c5ccc2[nH]5)C=C4)C=C3)cc1
REMARK SMILES IDX 6 1 5 2 4 3 3 4 1 5 2 6 40 8 41 9 102 10 42 11 101 12 43 13
REMARK SMILES IDX 44 14 45 15 95 16 46 17 100 18 94 19 96 20 47 21 99 22 93 23
REMARK SMILES IDX 92 24 48 26 80 27 60 28 79 29 61 30 64 31 78 32 97 33 62 34
REMARK SMILES IDX 63 35 77 37 98 38 65 39 49 40 50 41 58 42 51 43 57 44 59 45
REMARK SMILES IDX 56 46 52 47 53 48 54 49 55 50 81 51 82 52 90 53 83 54 89 55
REMARK SMILES IDX 91 56 88 57 84 58 85 59 86 60 87 61 66 62 67 63 75 64 68 65
REMARK SMILES IDX 74 66 76 67 73 68 69 69 70 70 71 71 72 72 7 73 8 74 9 75
REMARK SMILES IDX 10 76 11 77 12 79 13 80 14 81 18 82 15 83 17 84 16 85 19 86
REMARK SMILES IDX 20 87 21 88 22 90 23 91 39 92 24 93 38 94 25 95 26 96 27 97
REMARK SMILES IDX 36 98 28 99 29 100 35 101 37 102 30 103 33 104 31 105 34 106
REMARK SMILES IDX 32 107
REMARK H PARENT 3 7 96 25 64 36 10 78 21 89
REMARK Flexibility Score: inf
ROOT
ATOM      1  C   UNL     1       4.708   3.046   2.057  1.00  0.00     0.002 C 
ENDROOT
BRANCH   1   2
ATOM      2  C   UNL     1       5.033   2.363   0.738  1.00  0.00     0.021 C 
BRANCH   2   3
ATOM      3  C   UNL     1       4.581   0.921   0.646  1.00  0.00     0.116 C 
BRANCH   3   4
ATOM      4  N   UNL     1       3.136   0.769   0.711  1.00  0.00    -0.352 N 
ATOM      5  O   UNL     1       1.130  -0.003  -0.007  1.00  0.00    -0.269 OA
ATOM      6  C   UNL     1       2.353  -0.047  -0.072  1.00  0.00     0.251 C 
ATOM      7  H   UNL     1       2.668   1.309   1.389  1.00  0.00     0.163 HD
BRANCH   6   8
ATOM      8  C   UNL     1       3.034  -0.959  -1.014  1.00  0.00     0.039 A 
ATOM      9  C   UNL     1       4.097  -1.747  -0.561  1.00  0.00     0.014 A 
ATOM     10  C   UNL     1       2.663  -0.968  -2.359  1.00  0.00     0.014 A 
ATOM     11  C   UNL     1       4.874  -2.441  -1.474  1.00  0.00     0.010 A 
ATOM     12  C   UNL     1       3.378  -1.759  -3.260  1.00  0.00     0.010 A 
ATOM     13  C   UNL     1       4.492  -2.496  -2.823  1.00  0.00    -0.014 A 
BRANCH  13  14
ATOM     14  C   UNL     1       5.173  -3.463  -3.717  1.00  0.00     0.031 A 
ATOM     15  C   UNL     1       5.956  -3.014  -4.915  1.00  0.00     0.074 A 
ATOM     16  C   UNL     1       5.048  -4.773  -3.418  1.00  0.00     0.049 A 
ATOM     17  N   UNL     1       6.551  -3.745  -5.821  1.00  0.00    -0.248 NA
ATOM     18  C   UNL     1       6.086  -1.565  -5.132  1.00  0.00     0.031 C 
ATOM     19  C   UNL     1       4.301  -5.304  -2.271  1.00  0.00     0.029 A 
ATOM     20  N   UNL     1       5.535  -5.894  -4.037  1.00  0.00    -0.354 N 
ATOM     21  C   UNL     1       7.103  -2.853  -6.733  1.00  0.00     0.074 A 
ATOM     22  C   UNL     1       6.768  -1.522  -6.271  1.00  0.00     0.031 C 
ATOM     23  C   UNL     1       4.406  -6.638  -2.253  1.00  0.00     0.029 A 
ATOM     24  C   UNL     1       5.134  -7.066  -3.437  1.00  0.00     0.049 A 
ATOM     25  H   UNL     1       6.115  -5.864  -4.832  1.00  0.00     0.167 HD
ATOM     26  C   UNL     1       7.815  -3.134  -7.852  1.00  0.00     0.034 A 
ATOM     27  C   UNL     1       5.281  -8.346  -3.826  1.00  0.00     0.034 A 
ATOM     28  C   UNL     1       8.140  -4.476  -8.276  1.00  0.00     0.049 A 
ATOM     29  C   UNL     1       6.023  -8.616  -5.106  1.00  0.00     0.074 A 
ATOM     30  C   UNL     1       8.924  -4.871  -9.347  1.00  0.00     0.029 A 
ATOM     31  N   UNL     1       7.682  -5.639  -7.671  1.00  0.00    -0.354 N 
ATOM     32  N   UNL     1       6.592  -7.759  -5.923  1.00  0.00    -0.248 NA
ATOM     33  C   UNL     1       6.138 -10.018  -5.521  1.00  0.00     0.031 C 
ATOM     34  C   UNL     1       8.862  -6.264  -9.444  1.00  0.00     0.029 A 
ATOM     35  C   UNL     1       8.114  -6.748  -8.383  1.00  0.00     0.049 A 
ATOM     36  H   UNL     1       7.130  -5.672  -6.856  1.00  0.00     0.167 HD
ATOM     37  C   UNL     1       7.143  -8.524  -6.944  1.00  0.00     0.074 A 
ATOM     38  C   UNL     1       6.869  -9.909  -6.620  1.00  0.00     0.031 C 
ATOM     39  C   UNL     1       7.811  -8.120  -8.053  1.00  0.00     0.034 A 
BRANCH  26  40
ATOM     40  C   UNL     1       8.247  -1.990  -8.736  1.00  0.00     0.023 A 
ATOM     41  C   UNL     1       9.208  -1.048  -8.332  1.00  0.00     0.031 A 
ATOM     42  C   UNL     1       7.722  -1.879 -10.037  1.00  0.00     0.131 A 
ATOM     43  C   UNL     1       9.591  -0.021  -9.210  1.00  0.00     0.055 A 
ATOM     44  C   UNL     1       8.152  -0.894 -10.926  1.00  0.00     0.041 A 
ATOM     45  F   UNL     1       6.786  -2.740 -10.470  1.00  0.00    -0.206 F 
ATOM     46  C   UNL     1       9.089   0.047 -10.512  1.00  0.00     0.022 A 
BRANCH  43  47
ATOM     47  S   UNL     1      10.697   1.282  -8.600  1.00  0.00     0.124 S 
ATOM     48  O   UNL     1       9.924   1.831  -7.489  1.00  0.00    -0.237 OA
ATOM     49  O   UNL     1      11.895   0.534  -8.236  1.00  0.00    -0.237 OA
ATOM     50  O   UNL     1      10.843   2.174  -9.748  1.00  0.00    -0.744 OA
ENDBRANCH  43  47
ENDBRANCH  26  40
BRANCH  27  51
ATOM     51  C   UNL     1       4.647  -9.450  -3.051  1.00  0.00     0.023 A 
ATOM     52  C   UNL     1       5.417 -10.486  -2.506  1.00  0.00     0.031 A 
ATOM     53  C   UNL     1       3.248  -9.518  -2.896  1.00  0.00     0.131 A 
ATOM     54  C   UNL     1       4.784 -11.575  -1.889  1.00  0.00     0.055 A 
ATOM     55  C   UNL     1       2.629 -10.565  -2.215  1.00  0.00     0.041 A 
ATOM     56  F   UNL     1       2.459  -8.555  -3.400  1.00  0.00    -0.206 F 
ATOM     57  C   UNL     1       3.398 -11.614  -1.724  1.00  0.00     0.022 A 
BRANCH  54  58
ATOM     58  S   UNL     1       5.794 -13.009  -1.430  1.00  0.00     0.124 S 
ATOM     59  O   UNL     1       6.461 -13.317  -2.690  1.00  0.00    -0.237 OA
ATOM     60  O   UNL     1       6.638 -12.458  -0.375  1.00  0.00    -0.237 OA
ATOM     61  O   UNL     1       4.807 -13.992  -0.989  1.00  0.00    -0.744 OA
ENDBRANCH  54  58
ENDBRANCH  27  51
BRANCH  39  62
ATOM     62  C   UNL     1       8.300  -9.203  -8.980  1.00  0.00     0.023 A 
ATOM     63  C   UNL     1       7.402 -10.002  -9.709  1.00  0.00     0.031 A 
ATOM     64  C   UNL     1       9.676  -9.444  -9.128  1.00  0.00     0.131 A 
ATOM     65  C   UNL     1       7.891 -11.040 -10.515  1.00  0.00     0.055 A 
ATOM     66  C   UNL     1      10.159 -10.435  -9.982  1.00  0.00     0.041 A 
ATOM     67  F   UNL     1      10.575  -8.714  -8.448  1.00  0.00    -0.206 F 
ATOM     68  C   UNL     1       9.263 -11.248 -10.672  1.00  0.00     0.022 A 
BRANCH  65  69
ATOM     69  S   UNL     1       6.704 -12.167 -11.294  1.00  0.00     0.124 S 
ATOM     70  O   UNL     1       6.038 -12.753 -10.135  1.00  0.00    -0.237 OA
ATOM     71  O   UNL     1       5.895 -11.262 -12.104  1.00  0.00    -0.237 OA
ATOM     72  O   UNL     1       7.551 -13.085 -12.053  1.00  0.00    -0.744 OA
ENDBRANCH  65  69
ENDBRANCH  39  62
ENDBRANCH  13  14
ENDBRANCH   6   8
ENDBRANCH   3   4
ENDBRANCH   2   3
ENDBRANCH   1   2
BRANCH   1  73
ATOM     73  C   UNL     1       5.090   2.283   3.329  1.00  0.00     0.002 C 
BRANCH  73  74
ATOM     74  C   UNL     1       6.571   1.895   3.445  1.00  0.00     0.021 C 
BRANCH  74  75
ATOM     75  C   UNL     1       7.514   3.083   3.611  1.00  0.00     0.116 C 
BRANCH  75  76
ATOM     76  N   UNL     1       7.303   3.754   4.879  1.00  0.00    -0.352 N 
ATOM     77  C   UNL     1       8.072   4.689   5.508  1.00  0.00     0.252 C 
ATOM     78  H   UNL     1       6.482   3.496   5.358  1.00  0.00     0.163 HD
ATOM     79  O   UNL     1       7.824   4.997   6.675  1.00  0.00    -0.269 OA
BRANCH  77  80
ATOM     80  C   UNL     1       9.282   5.253   4.881  1.00  0.00     0.052 A 
ATOM     81  C   UNL     1      10.426   5.085   5.699  1.00  0.00     0.014 A 
ATOM     82  C   UNL     1       9.401   5.878   3.630  1.00  0.00     0.052 A 
ATOM     83  C   UNL     1      11.697   5.433   5.256  1.00  0.00     0.001 A 
ATOM     84  C   UNL     1      10.715   6.187   3.193  1.00  0.00     0.014 A 
ATOM     85  C   UNL     1      11.845   5.958   3.985  1.00  0.00     0.001 A 
BRANCH  82  86
ATOM     86  C   UNL     1       8.352   6.174   2.604  1.00  0.00     0.256 C 
ATOM     87  O   UNL     1       8.688   6.077   1.417  1.00  0.00    -0.269 OA
ATOM     88  N   UNL     1       7.025   6.460   2.819  1.00  0.00    -0.322 N 
ATOM     89  H   UNL     1       6.491   6.499   1.992  1.00  0.00     0.170 HD
BRANCH  88  90
ATOM     90  C   UNL     1       6.285   6.706   3.972  1.00  0.00     0.041 A 
ATOM     91  C   UNL     1       5.048   6.062   4.065  1.00  0.00     0.028 A 
ATOM     92  C   UNL     1       6.748   7.468   5.033  1.00  0.00     0.028 A 
ATOM     93  C   UNL     1       4.443   5.899   5.305  1.00  0.00     0.029 A 
ATOM     94  C   UNL     1       6.054   7.436   6.245  1.00  0.00     0.029 A 
ATOM     95  C   UNL     1       4.973   6.555   6.410  1.00  0.00     0.052 A 
BRANCH  95  96
ATOM     96  N   UNL     1       4.562   6.211   7.706  1.00  0.00    -0.250 N 
ATOM     97  C   UNL     1       4.371   7.152   8.722  1.00  0.00     0.237 C 
ATOM     98  C   UNL     1       4.592   4.886   8.193  1.00  0.00     0.237 C 
ATOM     99  O   UNL     1       4.124   8.338   8.663  1.00  0.00    -0.274 OA
ATOM    100  C   UNL     1       4.721   6.377   9.942  1.00  0.00     0.095 C 
ATOM    101  C   UNL     1       4.096   5.036   9.600  1.00  0.00     0.095 C 
ATOM    102  O   UNL     1       4.842   3.837   7.626  1.00  0.00    -0.274 OA
ATOM    103  C   UNL     1       4.410   6.520  11.430  1.00  0.00     0.002 C 
ATOM    104  C   UNL     1       4.246   4.314  10.934  1.00  0.00     0.002 C 
ATOM    105  C   UNL     1       5.661   5.936  12.121  1.00  0.00     0.005 C 
ATOM    106  C   UNL     1       3.442   5.358  11.754  1.00  0.00     0.009 C 
ATOM    107  C   UNL     1       5.638   4.463  11.614  1.00  0.00     0.005 C 
ENDBRANCH  95  96
ENDBRANCH  88  90
ENDBRANCH  82  86
ENDBRANCH  77  80
ENDBRANCH  75  76
ENDBRANCH  74  75
ENDBRANCH  73  74
ENDBRANCH   1  73
TORSDOF 19
