REMARK SMILES Cc1ccc(CNC(=O)NC[C@@H](CC(C)C)C(=O)NCCCCCCNC(=O)c2ccc(-c3c4nc(c(-c5cc(S(=O)(=O)[O-])ccc5F)c5ccc([nH]5)c(-c5cc(S(=O)(=O)[O-])ccc5F)c5nc(c(-c6cc(S(=O)(=O)[O-])ccc6F)c6ccc3[nH]6)C=C5)C=C4)cc2)s1
REMARK SMILES IDX 22 1 21 2 20 3 19 4 17 5 18 6 12 8 11 9 10 10 7 11 8 12 9 14
REMARK SMILES IDX 6 16 5 17 1 18 2 19 3 20 92 21 4 22 13 23 14 24 15 25 16 26
REMARK SMILES IDX 23 27 24 28 25 29 26 30 27 31 28 33 29 34 30 35 91 36 31 37
REMARK SMILES IDX 90 38 32 39 33 40 34 41 84 42 35 43 89 44 83 45 85 46 36 47
REMARK SMILES IDX 88 48 82 49 81 50 37 52 69 53 49 54 68 55 50 56 53 57 67 58
REMARK SMILES IDX 86 59 51 60 52 61 66 63 87 64 54 65 38 66 39 67 47 68 40 69
REMARK SMILES IDX 46 70 48 71 45 72 41 73 42 74 43 75 44 76 70 77 71 78 79 79
REMARK SMILES IDX 72 80 78 81 80 82 77 83 73 84 74 85 75 86 76 87 55 88 56 89
REMARK SMILES IDX 64 90 57 91 63 92 65 93 62 94 58 95 59 96 60 97 61 98
REMARK H PARENT 19 7 7 13 10 15 26 32 85 51 53 62
REMARK Flexibility Score: inf
ROOT
ATOM      1  C   UNL     1      -0.630   1.836  -5.820  1.00  0.00     0.002 C 
ENDROOT
BRANCH   1   2
ATOM      2  C   UNL     1      -0.718   2.228  -4.343  1.00  0.00     0.021 C 
BRANCH   2   3
ATOM      3  C   UNL     1      -2.026   2.894  -3.947  1.00  0.00     0.116 C 
BRANCH   3   4
ATOM      4  N   UNL     1      -3.143   1.974  -3.903  1.00  0.00    -0.356 N 
ATOM      5  C   UNL     1      -4.322   2.037  -3.230  1.00  0.00     0.224 C 
ATOM      6  O   UNL     1      -5.175   1.190  -3.520  1.00  0.00    -0.275 OA
ATOM      7  H   UNL     1      -3.029   1.165  -4.453  1.00  0.00     0.163 HD
BRANCH   5   8
ATOM      8  C   UNL     1      -4.634   3.095  -2.175  1.00  0.00     0.098 C 
BRANCH   8   9
ATOM      9  C   UNL     1      -3.500   3.326  -1.167  1.00  0.00     0.131 C 
BRANCH   9  10
ATOM     10  N   UNL     1      -3.979   3.453   0.200  1.00  0.00    -0.337 N 
ATOM     11  N   UNL     1      -3.118   1.564   1.324  1.00  0.00    -0.333 N 
ATOM     12  C   UNL     1      -3.655   2.789   1.320  1.00  0.00     0.315 C 
ATOM     13  H   UNL     1      -2.655   1.341   2.164  1.00  0.00     0.165 HD
ATOM     14  O   UNL     1      -3.864   3.341   2.402  1.00  0.00    -0.249 OA
ATOM     15  H   UNL     1      -4.662   4.150   0.326  1.00  0.00     0.165 HD
BRANCH  11  16
ATOM     16  C   UNL     1      -3.080   0.500   0.345  1.00  0.00     0.164 C 
BRANCH  16  17
ATOM     17  C   UNL     1      -1.689  -0.050   0.208  1.00  0.00     0.024 A 
ATOM     18  C   UNL     1       2.237  -0.102  -0.023  1.00  0.00     0.056 C 
ATOM     19  C   UNL     1       0.766  -0.345   0.027  1.00  0.00     0.002 A 
ATOM     20  C   UNL     1       0.096  -1.549   0.019  1.00  0.00     0.015 A 
ATOM     21  S   UNL     1      -0.316   0.976   0.099  1.00  0.00    -0.144 S 
ATOM     22  C   UNL     1      -1.316  -1.379   0.122  1.00  0.00     0.017 A 
ENDBRANCH  16  17
ENDBRANCH  11  16
ENDBRANCH   9  10
ENDBRANCH   8   9
BRANCH   8  23
ATOM     23  C   UNL     1      -5.276   4.394  -2.728  1.00  0.00     0.018 C 
BRANCH  23  24
ATOM     24  C   UNL     1      -4.464   5.223  -3.746  1.00  0.00    -0.017 C 
ATOM     25  C   UNL     1      -4.736   4.784  -5.191  1.00  0.00     0.007 C 
ATOM     26  C   UNL     1      -4.788   6.717  -3.635  1.00  0.00     0.007 C 
ENDBRANCH  23  24
ENDBRANCH   8  23
ENDBRANCH   5   8
ENDBRANCH   3   4
ENDBRANCH   2   3
ENDBRANCH   1   2
BRANCH   1  27
ATOM     27  C   UNL     1      -0.977   2.937  -6.830  1.00  0.00     0.002 C 
BRANCH  27  28
ATOM     28  C   UNL     1      -0.262   4.277  -6.640  1.00  0.00     0.021 C 
BRANCH  28  29
ATOM     29  C   UNL     1       1.255   4.196  -6.543  1.00  0.00     0.116 C 
BRANCH  29  30
ATOM     30  N   UNL     1       1.854   3.560  -7.700  1.00  0.00    -0.352 N 
ATOM     31  C   UNL     1       2.952   3.945  -8.428  1.00  0.00     0.251 C 
ATOM     32  H   UNL     1       1.410   2.737  -8.007  1.00  0.00     0.163 HD
ATOM     33  O   UNL     1       3.216   3.370  -9.477  1.00  0.00    -0.269 OA
BRANCH  31  34
ATOM     34  C   UNL     1       3.789   5.071  -7.955  1.00  0.00     0.039 A 
ATOM     35  C   UNL     1       4.230   6.016  -8.883  1.00  0.00     0.014 A 
ATOM     36  C   UNL     1       4.144   5.192  -6.607  1.00  0.00     0.014 A 
ATOM     37  C   UNL     1       4.993   7.103  -8.453  1.00  0.00     0.010 A 
ATOM     38  C   UNL     1       4.830   6.320  -6.169  1.00  0.00     0.010 A 
ATOM     39  C   UNL     1       5.280   7.278  -7.090  1.00  0.00    -0.014 A 
BRANCH  39  40
ATOM     40  C   UNL     1       6.092   8.429  -6.616  1.00  0.00     0.031 A 
ATOM     41  C   UNL     1       7.424   8.182  -5.959  1.00  0.00     0.074 A 
ATOM     42  C   UNL     1       5.621   9.684  -6.743  1.00  0.00     0.049 A 
ATOM     43  N   UNL     1       8.258   9.037  -5.425  1.00  0.00    -0.248 NA
ATOM     44  C   UNL     1       7.860   6.780  -5.861  1.00  0.00     0.031 C 
ATOM     45  C   UNL     1       4.333  10.047  -7.339  1.00  0.00     0.029 A 
ATOM     46  N   UNL     1       6.168  10.889  -6.380  1.00  0.00    -0.354 N 
ATOM     47  C   UNL     1       9.310   8.278  -4.922  1.00  0.00     0.074 A 
ATOM     48  C   UNL     1       8.966   6.890  -5.144  1.00  0.00     0.031 C 
ATOM     49  C   UNL     1       4.208  11.384  -7.334  1.00  0.00     0.029 A 
ATOM     50  C   UNL     1       5.378  11.972  -6.689  1.00  0.00     0.049 A 
ATOM     51  H   UNL     1       7.045  10.971  -5.939  1.00  0.00     0.167 HD
ATOM     52  C   UNL     1      10.469   8.699  -4.357  1.00  0.00     0.034 A 
ATOM     53  C   UNL     1       5.572  13.288  -6.471  1.00  0.00     0.034 A 
ATOM     54  C   UNL     1      10.795  10.089  -4.149  1.00  0.00     0.049 A 
ATOM     55  C   UNL     1       6.846  13.732  -5.795  1.00  0.00     0.074 A 
ATOM     56  C   UNL     1      11.950  10.633  -3.614  1.00  0.00     0.029 A 
ATOM     57  N   UNL     1       9.962  11.157  -4.460  1.00  0.00    -0.354 N 
ATOM     58  N   UNL     1       7.848  13.004  -5.356  1.00  0.00    -0.248 NA
ATOM     59  C   UNL     1       7.021  15.176  -5.598  1.00  0.00     0.031 C 
ATOM     60  C   UNL     1      11.785  12.019  -3.532  1.00  0.00     0.029 A 
ATOM     61  C   UNL     1      10.566  12.353  -4.101  1.00  0.00     0.049 A 
ATOM     62  H   UNL     1       9.073  11.077  -4.874  1.00  0.00     0.167 HD
ATOM     63  C   UNL     1       8.791  13.908  -4.873  1.00  0.00     0.074 A 
ATOM     64  C   UNL     1       8.240  15.231  -5.083  1.00  0.00     0.031 C 
ATOM     65  C   UNL     1      10.005  13.667  -4.314  1.00  0.00     0.034 A 
BRANCH  52  66
ATOM     66  C   UNL     1      11.445   7.637  -3.904  1.00  0.00     0.023 A 
ATOM     67  C   UNL     1      12.009   6.719  -4.809  1.00  0.00     0.031 A 
ATOM     68  C   UNL     1      11.786   7.510  -2.546  1.00  0.00     0.131 A 
ATOM     69  C   UNL     1      12.803   5.665  -4.336  1.00  0.00     0.055 A 
ATOM     70  C   UNL     1      12.656   6.516  -2.094  1.00  0.00     0.041 A 
ATOM     71  F   UNL     1      11.264   8.339  -1.629  1.00  0.00    -0.206 F 
ATOM     72  C   UNL     1      13.156   5.573  -2.988  1.00  0.00     0.022 A 
BRANCH  69  73
ATOM     73  S   UNL     1      13.223   4.320  -5.479  1.00  0.00     0.124 S 
ATOM     74  O   UNL     1      11.899   3.860  -5.890  1.00  0.00    -0.237 OA
ATOM     75  O   UNL     1      14.008   5.005  -6.499  1.00  0.00    -0.237 OA
ATOM     76  O   UNL     1      13.968   3.380  -4.643  1.00  0.00    -0.744 OA
ENDBRANCH  69  73
ENDBRANCH  52  66
BRANCH  53  77
ATOM     77  C   UNL     1       4.546  14.286  -6.891  1.00  0.00     0.023 A 
ATOM     78  C   UNL     1       4.841  15.263  -7.855  1.00  0.00     0.031 A 
ATOM     79  C   UNL     1       3.270  14.311  -6.300  1.00  0.00     0.131 A 
ATOM     80  C   UNL     1       3.897  16.255  -8.160  1.00  0.00     0.055 A 
ATOM     81  C   UNL     1       2.311  15.263  -6.652  1.00  0.00     0.041 A 
ATOM     82  F   UNL     1       2.932  13.399  -5.374  1.00  0.00    -0.206 F 
ATOM     83  C   UNL     1       2.628  16.253  -7.577  1.00  0.00     0.022 A 
BRANCH  80  84
ATOM     84  S   UNL     1       4.387  17.611  -9.261  1.00  0.00     0.124 S 
ATOM     85  O   UNL     1       5.534  18.167  -8.552  1.00  0.00    -0.237 OA
ATOM     86  O   UNL     1       4.681  16.902 -10.502  1.00  0.00    -0.237 OA
ATOM     87  O   UNL     1       3.201  18.464  -9.298  1.00  0.00    -0.744 OA
ENDBRANCH  80  84
ENDBRANCH  53  77
BRANCH  65  88
ATOM     88  C   UNL     1      10.850  14.868  -3.954  1.00  0.00     0.023 A 
ATOM     89  C   UNL     1      10.463  15.782  -2.959  1.00  0.00     0.031 A 
ATOM     90  C   UNL     1      12.061  15.102  -4.631  1.00  0.00     0.131 A 
ATOM     91  C   UNL     1      11.247  16.920  -2.713  1.00  0.00     0.055 A 
ATOM     92  C   UNL     1      12.872  16.197  -4.332  1.00  0.00     0.041 A 
ATOM     93  F   UNL     1      12.479  14.265  -5.594  1.00  0.00    -0.206 F 
ATOM     94  C   UNL     1      12.458  17.123  -3.379  1.00  0.00     0.022 A 
BRANCH  91  95
ATOM     95  S   UNL     1      10.608  18.191  -1.588  1.00  0.00     0.124 S 
ATOM     96  O   UNL     1       9.331  18.531  -2.209  1.00  0.00    -0.237 OA
ATOM     97  O   UNL     1      10.528  17.474  -0.320  1.00  0.00    -0.237 OA
ATOM     98  O   UNL     1      11.623  19.241  -1.644  1.00  0.00    -0.744 OA
ENDBRANCH  91  95
ENDBRANCH  65  88
ENDBRANCH  39  40
ENDBRANCH  31  34
ENDBRANCH  29  30
ENDBRANCH  28  29
ENDBRANCH  27  28
ENDBRANCH   1  27
TORSDOF 22
