REMARK SMILES CC[NH2+][C@]1(C(=O)NCCCCCCNC(=O)c2ccc(-c3c4nc(c(-c5cc(S(=O)(=O)[O-])ccc5F)c5ccc([nH]5)c(-c5cc(S(=O)(=O)[O-])ccc5F)c5nc(c(-c6cc(S(=O)(=O)[O-])ccc6F)c6ccc3[nH]6)C=C5)C=C4)cc2)CC[C@@H]([N@@H+]2CCO[C@@H](CC)C2)C1
REMARK SMILES IDX 11 1 10 2 9 3 8 4 7 5 5 6 6 7 4 9 80 10 91 11 81 12 82 13
REMARK SMILES IDX 3 14 2 17 1 18 83 19 84 20 90 21 85 23 87 24 86 25 88 26
REMARK SMILES IDX 89 27 12 28 13 29 14 30 15 31 16 33 17 34 18 35 79 36 19 37
REMARK SMILES IDX 78 38 20 39 21 40 22 41 72 42 23 43 77 44 71 45 73 46 24 47
REMARK SMILES IDX 76 48 70 49 69 50 25 52 57 53 37 54 56 55 38 56 41 57 55 58
REMARK SMILES IDX 74 59 39 60 40 61 54 63 75 64 42 65 26 66 27 67 35 68 28 69
REMARK SMILES IDX 34 70 36 71 33 72 29 73 30 74 31 75 32 76 58 77 59 78 67 79
REMARK SMILES IDX 60 80 66 81 68 82 65 83 61 84 62 85 63 86 64 87 43 88 44 89
REMARK SMILES IDX 52 90 45 91 51 92 53 93 50 94 46 95 47 96 48 97 49 98
REMARK H PARENT 7 8 3 15 3 16 83 22 14 32 73 51 41 62
REMARK Flexibility Score: inf
ROOT
ATOM      1  C   UNL     1       5.660   3.159  -0.164  1.00  0.00     0.002 C 
ENDROOT
BRANCH   1   2
ATOM      2  C   UNL     1       5.199   1.894   0.564  1.00  0.00     0.002 C 
BRANCH   2   3
ATOM      3  C   UNL     1       4.545   2.140   1.926  1.00  0.00     0.021 C 
BRANCH   3   4
ATOM      4  C   UNL     1       3.327   3.060   1.879  1.00  0.00     0.116 C 
BRANCH   4   5
ATOM      5  N   UNL     1       2.212   2.439   1.186  1.00  0.00    -0.351 N 
ATOM      6  C   UNL     1       1.050   1.926   1.691  1.00  0.00     0.281 C 
ATOM      7  O   UNL     1       0.307   1.335   0.902  1.00  0.00    -0.268 OA
ATOM      8  H   UNL     1       2.307   2.379   0.208  1.00  0.00     0.163 HD
BRANCH   6   9
ATOM      9  C   UNL     1       0.676   2.132   3.194  1.00  0.00     0.181 C 
ATOM     10  C   UNL     1       0.412   3.643   3.390  1.00  0.00     0.085 C 
ATOM     11  C   UNL     1      -0.692   1.515   3.571  1.00  0.00     0.144 C 
ATOM     12  C   UNL     1      -0.540   3.749   4.563  1.00  0.00     0.072 C 
ATOM     13  C   UNL     1      -1.456   2.525   4.445  1.00  0.00     0.191 C 
BRANCH   9  14
ATOM     14  N   UNL     1       1.734   1.605   4.096  1.00  0.00    -0.334 N 
ATOM     15  H   UNL     1       2.583   2.153   3.955  1.00  0.00     0.347 HD
ATOM     16  H   UNL     1       1.383   1.679   5.051  1.00  0.00     0.347 HD
BRANCH  14  17
ATOM     17  C   UNL     1       2.047   0.189   3.856  1.00  0.00     0.257 C 
ATOM     18  C   UNL     1       3.158  -0.268   4.787  1.00  0.00     0.071 C 
ENDBRANCH  14  17
ENDBRANCH   9  14
BRANCH  13  19
ATOM     19  N   UNL     1      -2.849   2.826   4.090  1.00  0.00    -0.328 N 
ATOM     20  C   UNL     1      -3.752   1.660   4.113  1.00  0.00     0.291 C 
ATOM     21  C   UNL     1      -3.098   3.622   2.875  1.00  0.00     0.294 C 
ATOM     22  H   UNL     1      -3.078   3.449   4.864  1.00  0.00     0.348 HD
ATOM     23  C   UNL     1      -3.912   0.908   2.778  1.00  0.00     0.222 C 
ATOM     24  C   UNL     1      -3.155   2.803   1.567  1.00  0.00     0.173 C 
ATOM     25  O   UNL     1      -4.171   1.788   1.677  1.00  0.00    -0.367 OA
BRANCH  24  26
ATOM     26  C   UNL     1      -3.479   3.656   0.336  1.00  0.00     0.034 C 
ATOM     27  C   UNL     1      -2.477   4.775   0.090  1.00  0.00     0.007 C 
ENDBRANCH  24  26
ENDBRANCH  13  19
ENDBRANCH   6   9
ENDBRANCH   4   5
ENDBRANCH   3   4
ENDBRANCH   2   3
ENDBRANCH   1   2
BRANCH   1  28
ATOM     28  C   UNL     1       6.560   4.085   0.659  1.00  0.00     0.021 C 
BRANCH  28  29
ATOM     29  C   UNL     1       7.822   3.423   1.203  1.00  0.00     0.116 C 
BRANCH  29  30
ATOM     30  N   UNL     1       8.686   2.949   0.135  1.00  0.00    -0.352 N 
ATOM     31  C   UNL     1       9.995   3.265  -0.125  1.00  0.00     0.251 C 
ATOM     32  H   UNL     1       8.274   2.310  -0.490  1.00  0.00     0.163 HD
ATOM     33  O   UNL     1      10.495   2.949  -1.204  1.00  0.00    -0.269 OA
BRANCH  31  34
ATOM     34  C   UNL     1      10.790   4.002   0.879  1.00  0.00     0.039 A 
ATOM     35  C   UNL     1      11.604   5.055   0.458  1.00  0.00     0.014 A 
ATOM     36  C   UNL     1      10.735   3.655   2.233  1.00  0.00     0.014 A 
ATOM     37  C   UNL     1      12.317   5.797   1.402  1.00  0.00     0.010 A 
ATOM     38  C   UNL     1      11.385   4.444   3.179  1.00  0.00     0.010 A 
ATOM     39  C   UNL     1      12.187   5.521   2.773  1.00  0.00    -0.014 A 
BRANCH  39  40
ATOM     40  C   UNL     1      12.879   6.354   3.792  1.00  0.00     0.031 A 
ATOM     41  C   UNL     1      13.917   5.744   4.693  1.00  0.00     0.074 A 
ATOM     42  C   UNL     1      12.529   7.648   3.941  1.00  0.00     0.049 A 
ATOM     43  N   UNL     1      14.588   6.292   5.674  1.00  0.00    -0.248 NA
ATOM     44  C   UNL     1      14.218   4.320   4.483  1.00  0.00     0.031 C 
ATOM     45  C   UNL     1      11.502   8.338   3.158  1.00  0.00     0.029 A 
ATOM     46  N   UNL     1      12.988   8.610   4.805  1.00  0.00    -0.354 N 
ATOM     47  C   UNL     1      15.379   5.279   6.207  1.00  0.00     0.074 A 
ATOM     48  C   UNL     1      15.055   4.071   5.479  1.00  0.00     0.031 C 
ATOM     49  C   UNL     1      11.426   9.616   3.561  1.00  0.00     0.029 A 
ATOM     50  C   UNL     1      12.359   9.826   4.664  1.00  0.00     0.049 A 
ATOM     51  H   UNL     1      13.700   8.447   5.464  1.00  0.00     0.167 HD
ATOM     52  C   UNL     1      16.302   5.357   7.198  1.00  0.00     0.034 A 
ATOM     53  C   UNL     1      12.501  10.975   5.354  1.00  0.00     0.034 A 
ATOM     54  C   UNL     1      16.615   6.575   7.906  1.00  0.00     0.049 A 
ATOM     55  C   UNL     1      13.518  11.033   6.466  1.00  0.00     0.074 A 
ATOM     56  C   UNL     1      17.581   6.784   8.876  1.00  0.00     0.029 A 
ATOM     57  N   UNL     1      15.957   7.788   7.737  1.00  0.00    -0.354 N 
ATOM     58  N   UNL     1      14.309  10.084   6.911  1.00  0.00    -0.248 NA
ATOM     59  C   UNL     1      13.670  12.318   7.158  1.00  0.00     0.031 C 
ATOM     60  C   UNL     1      17.449   8.092   9.352  1.00  0.00     0.029 A 
ATOM     61  C   UNL     1      16.465   8.734   8.616  1.00  0.00     0.049 A 
ATOM     62  H   UNL     1      15.235   7.952   7.088  1.00  0.00     0.167 HD
ATOM     63  C   UNL     1      15.072  10.668   7.919  1.00  0.00     0.074 A 
ATOM     64  C   UNL     1      14.658  12.054   8.000  1.00  0.00     0.031 C 
ATOM     65  C   UNL     1      16.031  10.110   8.703  1.00  0.00     0.034 A 
BRANCH  52  66
ATOM     66  C   UNL     1      17.010   4.080   7.594  1.00  0.00     0.023 A 
ATOM     67  C   UNL     1      17.804   3.357   6.687  1.00  0.00     0.031 A 
ATOM     68  C   UNL     1      16.865   3.562   8.894  1.00  0.00     0.131 A 
ATOM     69  C   UNL     1      18.350   2.120   7.063  1.00  0.00     0.055 A 
ATOM     70  C   UNL     1      17.486   2.376   9.290  1.00  0.00     0.041 A 
ATOM     71  F   UNL     1      16.102   4.193   9.801  1.00  0.00    -0.206 F 
ATOM     72  C   UNL     1      18.220   1.637   8.367  1.00  0.00     0.022 A 
BRANCH  69  73
ATOM     73  S   UNL     1      19.092   1.075   5.778  1.00  0.00     0.124 S 
ATOM     74  O   UNL     1      17.985   0.936   4.835  1.00  0.00    -0.237 OA
ATOM     75  O   UNL     1      20.219   1.883   5.327  1.00  0.00    -0.237 OA
ATOM     76  O   UNL     1      19.447  -0.149   6.495  1.00  0.00    -0.744 OA
ENDBRANCH  69  73
ENDBRANCH  52  66
BRANCH  53  77
ATOM     77  C   UNL     1      11.646  12.155   5.034  1.00  0.00     0.023 A 
ATOM     78  C   UNL     1      12.202  13.349   4.548  1.00  0.00     0.031 A 
ATOM     79  C   UNL     1      10.255  12.112   5.239  1.00  0.00     0.131 A 
ATOM     80  C   UNL     1      11.378  14.464   4.325  1.00  0.00     0.055 A 
ATOM     81  C   UNL     1       9.432  13.205   4.961  1.00  0.00     0.041 A 
ATOM     82  F   UNL     1       9.670  10.994   5.699  1.00  0.00    -0.206 F 
ATOM     83  C   UNL     1       9.995  14.395   4.513  1.00  0.00     0.022 A 
BRANCH  80  84
ATOM     84  S   UNL     1      12.151  16.039   3.865  1.00  0.00     0.124 S 
ATOM     85  O   UNL     1      13.052  16.267   4.989  1.00  0.00    -0.237 OA
ATOM     86  O   UNL     1      12.783  15.706   2.593  1.00  0.00    -0.237 OA
ATOM     87  O   UNL     1      11.020  16.960   3.774  1.00  0.00    -0.744 OA
ENDBRANCH  80  84
ENDBRANCH  53  77
BRANCH  65  88
ATOM     88  C   UNL     1      16.725  11.018   9.692  1.00  0.00     0.023 A 
ATOM     89  C   UNL     1      16.038  11.605  10.770  1.00  0.00     0.031 A 
ATOM     90  C   UNL     1      18.093  11.308   9.546  1.00  0.00     0.131 A 
ATOM     91  C   UNL     1      16.706  12.499  11.621  1.00  0.00     0.055 A 
ATOM     92  C   UNL     1      18.769  12.143  10.437  1.00  0.00     0.041 A 
ATOM     93  F   UNL     1      18.800  10.781   8.533  1.00  0.00    -0.206 F 
ATOM     94  C   UNL     1      18.072  12.755  11.474  1.00  0.00     0.022 A 
BRANCH  91  95
ATOM     95  S   UNL     1      15.742  13.407  12.860  1.00  0.00     0.124 S 
ATOM     96  O   UNL     1      14.756  14.095  12.032  1.00  0.00    -0.237 OA
ATOM     97  O   UNL     1      15.227  12.333  13.704  1.00  0.00    -0.237 OA
ATOM     98  O   UNL     1      16.731  14.275  13.496  1.00  0.00    -0.744 OA
ENDBRANCH  91  95
ENDBRANCH  65  88
ENDBRANCH  39  40
ENDBRANCH  31  34
ENDBRANCH  29  30
ENDBRANCH  28  29
ENDBRANCH   1  28
TORSDOF 20
