REMARK SMILES CN(CCOCC1CC1)C(=O)N1CCOC[C@@H]1C(=O)NCCCCCCNC(=O)c1ccc(-c2c3nc(c(-c4cc(S(=O)(=O)[O-])ccc4F)c4ccc([nH]4)c(-c4cc(S(=O)(=O)[O-])ccc4F)c4nc(c(-c5cc(S(=O)(=O)[O-])ccc5F)c5ccc2[nH]5)C=C4)C=C3)cc1
REMARK SMILES IDX 21 1 20 2 18 3 19 4 17 6 12 7 13 8 14 9 16 10 15 11 10 12
REMARK SMILES IDX 11 13 2 14 1 15 3 16 4 17 5 18 6 19 7 20 8 21 9 22 22 23
REMARK SMILES IDX 23 24 24 25 25 26 26 27 27 28 28 29 29 31 30 32 31 33 92 34
REMARK SMILES IDX 32 35 91 36 33 37 34 38 35 39 85 40 36 41 90 42 84 43 86 44
REMARK SMILES IDX 37 45 89 46 83 47 82 48 38 50 70 51 50 52 69 53 51 54 54 55
REMARK SMILES IDX 68 56 87 57 52 58 53 59 67 61 88 62 55 63 39 64 40 65 48 66
REMARK SMILES IDX 41 67 47 68 49 69 46 70 42 71 43 72 44 73 45 74 71 75 72 76
REMARK SMILES IDX 80 77 73 78 79 79 81 80 78 81 74 82 75 83 76 84 77 85 56 86
REMARK SMILES IDX 57 87 65 88 58 89 64 90 66 91 63 92 59 93 60 94 61 95 62 96
REMARK H PARENT 20 5 27 30 86 49 54 60
REMARK Flexibility Score: inf
ROOT
ATOM      1  C   UNL     1       2.288   1.121  -5.523  1.00  0.00     0.116 C 
ENDROOT
BRANCH   1   2
ATOM      2  N   UNL     1       3.286   0.107  -5.237  1.00  0.00    -0.354 N 
ATOM      3  C   UNL     1       3.112  -1.213  -4.924  1.00  0.00     0.245 C 
ATOM      4  O   UNL     1       4.110  -1.903  -4.698  1.00  0.00    -0.273 OA
ATOM      5  H   UNL     1       4.221   0.412  -5.273  1.00  0.00     0.163 HD
BRANCH   3   6
ATOM      6  C   UNL     1       1.689  -1.804  -4.915  1.00  0.00     0.202 C 
ATOM      7  N   UNL     1       0.736  -1.564  -3.796  1.00  0.00    -0.308 N 
ATOM      8  C   UNL     1      -0.592  -2.061  -4.175  1.00  0.00     0.151 C 
ATOM      9  C   UNL     1      -0.528  -3.557  -4.518  1.00  0.00     0.182 C 
ATOM     10  C   UNL     1       1.755  -3.325  -5.150  1.00  0.00     0.195 C 
ATOM     11  O   UNL     1       0.454  -3.827  -5.533  1.00  0.00    -0.377 OA
BRANCH   7  12
ATOM     12  C   UNL     1       1.220  -1.105  -2.595  1.00  0.00     0.320 C 
ATOM     13  O   UNL     1       2.283  -0.475  -2.577  1.00  0.00    -0.248 OA
BRANCH  12  14
ATOM     14  N   UNL     1       0.568  -1.289  -1.393  1.00  0.00    -0.325 N 
ATOM     15  C   UNL     1       1.174  -0.616  -0.235  1.00  0.00     0.148 C 
BRANCH  14  16
ATOM     16  C   UNL     1      -0.626  -2.074  -1.077  1.00  0.00     0.149 C 
BRANCH  16  17
ATOM     17  C   UNL     1      -1.883  -1.235  -0.762  1.00  0.00     0.181 C 
BRANCH  17  18
ATOM     18  O   UNL     1      -2.414  -0.481  -1.853  1.00  0.00    -0.379 OA
BRANCH  18  19
ATOM     19  C   UNL     1      -1.640   0.666  -2.202  1.00  0.00     0.163 C 
BRANCH  19  20
ATOM     20  C   UNL     1      -2.497   1.884  -2.183  1.00  0.00     0.015 C 
ATOM     21  C   UNL     1      -2.097   3.051  -3.051  1.00  0.00     0.006 C 
ATOM     22  C   UNL     1      -3.353   2.279  -3.356  1.00  0.00     0.006 C 
ENDBRANCH  19  20
ENDBRANCH  18  19
ENDBRANCH  17  18
ENDBRANCH  16  17
ENDBRANCH  14  16
ENDBRANCH  12  14
ENDBRANCH   7  12
ENDBRANCH   3   6
ENDBRANCH   1   2
BRANCH   1  23
ATOM     23  C   UNL     1       2.426   2.354  -4.628  1.00  0.00     0.021 C 
BRANCH  23  24
ATOM     24  C   UNL     1       3.818   2.996  -4.612  1.00  0.00     0.002 C 
BRANCH  24  25
ATOM     25  C   UNL     1       4.386   3.363  -5.985  1.00  0.00     0.002 C 
BRANCH  25  26
ATOM     26  C   UNL     1       3.547   4.354  -6.791  1.00  0.00     0.021 C 
BRANCH  26  27
ATOM     27  C   UNL     1       3.321   5.701  -6.113  1.00  0.00     0.116 C 
BRANCH  27  28
ATOM     28  N   UNL     1       4.563   6.420  -5.888  1.00  0.00    -0.352 N 
ATOM     29  C   UNL     1       4.889   7.718  -6.198  1.00  0.00     0.251 C 
ATOM     30  H   UNL     1       5.275   5.902  -5.449  1.00  0.00     0.163 HD
ATOM     31  O   UNL     1       6.057   8.085  -6.109  1.00  0.00    -0.269 OA
BRANCH  29  32
ATOM     32  C   UNL     1       3.842   8.662  -6.655  1.00  0.00     0.039 A 
ATOM     33  C   UNL     1       4.147   9.565  -7.678  1.00  0.00     0.014 A 
ATOM     34  C   UNL     1       2.576   8.682  -6.064  1.00  0.00     0.014 A 
ATOM     35  C   UNL     1       3.173  10.459  -8.128  1.00  0.00     0.010 A 
ATOM     36  C   UNL     1       1.581   9.511  -6.574  1.00  0.00     0.010 A 
ATOM     37  C   UNL     1       1.874  10.427  -7.595  1.00  0.00    -0.014 A 
BRANCH  37  38
ATOM     38  C   UNL     1       0.831  11.383  -8.053  1.00  0.00     0.031 A 
ATOM     39  C   UNL     1       0.254  12.385  -7.087  1.00  0.00     0.074 A 
ATOM     40  C   UNL     1       0.382  11.336  -9.322  1.00  0.00     0.049 A 
ATOM     41  N   UNL     1      -0.680  13.283  -7.279  1.00  0.00    -0.248 NA
ATOM     42  C   UNL     1       0.776  12.348  -5.713  1.00  0.00     0.031 C 
ATOM     43  C   UNL     1       0.841  10.394 -10.345  1.00  0.00     0.029 A 
ATOM     44  N   UNL     1      -0.553  12.101  -9.972  1.00  0.00    -0.354 N 
ATOM     45  C   UNL     1      -0.860  13.911  -6.050  1.00  0.00     0.074 A 
ATOM     46  C   UNL     1      -0.003  13.228  -5.105  1.00  0.00     0.031 C 
ATOM     47  C   UNL     1       0.221  10.669 -11.504  1.00  0.00     0.029 A 
ATOM     48  C   UNL     1      -0.713  11.772 -11.298  1.00  0.00     0.049 A 
ATOM     49  H   UNL     1      -1.063  12.818  -9.530  1.00  0.00     0.167 HD
ATOM     50  C   UNL     1      -1.637  14.980  -5.743  1.00  0.00     0.034 A 
ATOM     51  C   UNL     1      -1.518  12.302 -12.241  1.00  0.00     0.034 A 
ATOM     52  C   UNL     1      -2.487  15.650  -6.699  1.00  0.00     0.049 A 
ATOM     53  C   UNL     1      -2.417  13.455 -11.867  1.00  0.00     0.074 A 
ATOM     54  C   UNL     1      -3.298  16.755  -6.509  1.00  0.00     0.029 A 
ATOM     55  N   UNL     1      -2.644  15.270  -8.027  1.00  0.00    -0.354 N 
ATOM     56  N   UNL     1      -2.548  14.064 -10.710  1.00  0.00    -0.248 NA
ATOM     57  C   UNL     1      -3.265  14.000 -12.934  1.00  0.00     0.031 C 
ATOM     58  C   UNL     1      -3.999  16.996  -7.697  1.00  0.00     0.029 A 
ATOM     59  C   UNL     1      -3.559  16.100  -8.658  1.00  0.00     0.049 A 
ATOM     60  H   UNL     1      -2.173  14.520  -8.458  1.00  0.00     0.167 HD
ATOM     61  C   UNL     1      -3.459  15.095 -10.926  1.00  0.00     0.074 A 
ATOM     62  C   UNL     1      -3.835  15.027 -12.324  1.00  0.00     0.031 C 
ATOM     63  C   UNL     1      -3.933  16.021 -10.052  1.00  0.00     0.034 A 
BRANCH  50  64
ATOM     64  C   UNL     1      -1.613  15.460  -4.308  1.00  0.00     0.023 A 
ATOM     65  C   UNL     1      -0.421  15.888  -3.694  1.00  0.00     0.031 A 
ATOM     66  C   UNL     1      -2.778  15.431  -3.521  1.00  0.00     0.131 A 
ATOM     67  C   UNL     1      -0.397  16.160  -2.318  1.00  0.00     0.055 A 
ATOM     68  C   UNL     1      -2.768  15.805  -2.175  1.00  0.00     0.041 A 
ATOM     69  F   UNL     1      -3.944  15.014  -4.038  1.00  0.00    -0.206 F 
ATOM     70  C   UNL     1      -1.568  16.150  -1.559  1.00  0.00     0.022 A 
BRANCH  67  71
ATOM     71  S   UNL     1       1.214  16.330  -1.502  1.00  0.00     0.124 S 
ATOM     72  O   UNL     1       1.849  15.057  -1.837  1.00  0.00    -0.237 OA
ATOM     73  O   UNL     1       1.772  17.513  -2.146  1.00  0.00    -0.237 OA
ATOM     74  O   UNL     1       0.868  16.490  -0.091  1.00  0.00    -0.744 OA
ENDBRANCH  67  71
ENDBRANCH  50  64
BRANCH  51  75
ATOM     75  C   UNL     1      -1.503  11.772 -13.635  1.00  0.00     0.023 A 
ATOM     76  C   UNL     1      -1.092  12.582 -14.706  1.00  0.00     0.031 A 
ATOM     77  C   UNL     1      -1.939  10.468 -13.925  1.00  0.00     0.131 A 
ATOM     78  C   UNL     1      -1.173  12.099 -16.021  1.00  0.00     0.055 A 
ATOM     79  C   UNL     1      -1.964   9.971 -15.230  1.00  0.00     0.041 A 
ATOM     80  F   UNL     1      -2.341   9.650 -12.938  1.00  0.00    -0.206 F 
ATOM     81  C   UNL     1      -1.592  10.794 -16.289  1.00  0.00     0.022 A 
BRANCH  78  82
ATOM     82  S   UNL     1      -0.808  13.235 -17.387  1.00  0.00     0.124 S 
ATOM     83  O   UNL     1      -1.789  14.291 -17.163  1.00  0.00    -0.237 OA
ATOM     84  O   UNL     1       0.584  13.585 -17.126  1.00  0.00    -0.237 OA
ATOM     85  O   UNL     1      -1.030  12.417 -18.577  1.00  0.00    -0.744 OA
ENDBRANCH  78  82
ENDBRANCH  51  75
BRANCH  63  86
ATOM     86  C   UNL     1      -4.863  17.077 -10.605  1.00  0.00     0.023 A 
ATOM     87  C   UNL     1      -6.127  16.759 -11.133  1.00  0.00     0.031 A 
ATOM     88  C   UNL     1      -4.461  18.425 -10.626  1.00  0.00     0.131 A 
ATOM     89  C   UNL     1      -6.911  17.762 -11.723  1.00  0.00     0.055 A 
ATOM     90  C   UNL     1      -5.277  19.430 -11.148  1.00  0.00     0.041 A 
ATOM     91  F   UNL     1      -3.264  18.790 -10.140  1.00  0.00    -0.206 F 
ATOM     92  C   UNL     1      -6.503  19.098 -11.717  1.00  0.00     0.022 A 
BRANCH  89  93
ATOM     93  S   UNL     1      -8.418  17.279 -12.611  1.00  0.00     0.124 S 
ATOM     94  O   UNL     1      -7.903  16.322 -13.584  1.00  0.00    -0.237 OA
ATOM     95  O   UNL     1      -9.243  16.722 -11.544  1.00  0.00    -0.237 OA
ATOM     96  O   UNL     1      -8.902  18.538 -13.175  1.00  0.00    -0.744 OA
ENDBRANCH  89  93
ENDBRANCH  63  86
ENDBRANCH  37  38
ENDBRANCH  29  32
ENDBRANCH  27  28
ENDBRANCH  26  27
ENDBRANCH  25  26
ENDBRANCH  24  25
ENDBRANCH  23  24
ENDBRANCH   1  23
TORSDOF 23
