REMARK SMILES CC1(C)C(Nc2cc(C(=O)NCCCCCCNC(=O)c3ccc(-c4c5nc(c(-c6cc(S(=O)(=O)[O-])ccc6F)c6ccc([nH]6)c(-c6cc(S(=O)(=O)[O-])ccc6F)c6nc(c(-c7cc(S(=O)(=O)[O-])ccc7F)c7ccc4[nH]7)C=C6)C=C5)cc3)cc(Cl)n2)C1(C)C
REMARK SMILES IDX 15 1 14 2 13 3 12 4 11 5 9 6 10 7 8 9 6 10 7 11 87 12 85 13
REMARK SMILES IDX 84 14 86 15 5 16 4 18 1 19 2 20 3 21 88 22 89 23 90 24 16 25
REMARK SMILES IDX 17 26 18 27 19 28 20 30 21 31 22 32 83 33 23 34 82 35 24 36
REMARK SMILES IDX 25 37 26 38 76 39 27 40 81 41 75 42 77 43 28 44 80 45 74 46
REMARK SMILES IDX 73 47 29 49 61 50 41 51 60 52 42 53 45 54 59 55 78 56 43 57
REMARK SMILES IDX 44 58 58 60 79 61 46 62 30 63 31 64 39 65 32 66 38 67 40 68
REMARK SMILES IDX 37 69 33 70 34 71 35 72 36 73 62 74 63 75 71 76 64 77 70 78
REMARK SMILES IDX 72 79 69 80 65 81 66 82 67 83 68 84 47 85 48 86 56 87 49 88
REMARK SMILES IDX 55 89 57 90 54 91 50 92 51 93 52 94 53 95
REMARK H PARENT 11 8 5 17 18 29 77 48 45 59
REMARK Flexibility Score: inf
ROOT
ATOM      1  C   UNL     1       8.016   8.435  -5.010  1.00  0.00     0.002 C 
ENDROOT
BRANCH   1   2
ATOM      2  C   UNL     1       7.705   7.488  -3.843  1.00  0.00     0.002 C 
BRANCH   2   3
ATOM      3  C   UNL     1       6.209   7.304  -3.542  1.00  0.00     0.021 C 
BRANCH   3   4
ATOM      4  C   UNL     1       5.433   6.698  -4.713  1.00  0.00     0.116 C 
BRANCH   4   5
ATOM      5  N   UNL     1       5.604   5.259  -4.728  1.00  0.00    -0.352 N 
ATOM      6  C   UNL     1       4.829   4.190  -4.382  1.00  0.00     0.251 C 
ATOM      7  O   UNL     1       5.363   3.082  -4.477  1.00  0.00    -0.269 OA
ATOM      8  H   UNL     1       6.487   4.989  -5.069  1.00  0.00     0.163 HD
BRANCH   6   9
ATOM      9  C   UNL     1       3.404   4.254  -3.949  1.00  0.00     0.046 A 
ATOM     10  C   UNL     1       1.395   2.974  -3.530  1.00  0.00     0.128 A 
ATOM     11  C   UNL     1       2.725   3.029  -3.922  1.00  0.00     0.060 A 
ATOM     12  N   UNL     1       0.685   4.077  -3.260  1.00  0.00    -0.219 NA
ATOM     13  C   UNL     1       1.362   5.239  -3.251  1.00  0.00     0.132 A 
ATOM     14  C   UNL     1       2.709   5.380  -3.535  1.00  0.00     0.055 A 
ATOM     15  Cl  UNL     1       0.417   6.598  -2.798  1.00  0.00    -0.062 Cl
BRANCH  10  16
ATOM     16  N   UNL     1       0.757   1.751  -3.293  1.00  0.00    -0.366 N 
ATOM     17  H   UNL     1      -0.127   1.565  -3.684  1.00  0.00     0.162 HD
BRANCH  16  18
ATOM     18  C   UNL     1       1.426   0.749  -2.454  1.00  0.00     0.093 C 
ATOM     19  C   UNL     1       1.284  -0.182  -0.060  1.00  0.00     0.014 C 
ATOM     20  C   UNL     1       0.649  -0.061  -1.430  1.00  0.00    -0.008 C 
ATOM     21  C   UNL     1      -0.855   0.076  -1.333  1.00  0.00     0.014 C 
ATOM     22  C   UNL     1       1.288  -0.742  -2.658  1.00  0.00    -0.008 C 
ATOM     23  C   UNL     1       2.543  -1.573  -2.487  1.00  0.00     0.014 C 
ATOM     24  C   UNL     1       0.442  -1.237  -3.808  1.00  0.00     0.014 C 
ENDBRANCH  16  18
ENDBRANCH  10  16
ENDBRANCH   6   9
ENDBRANCH   4   5
ENDBRANCH   3   4
ENDBRANCH   2   3
ENDBRANCH   1   2
BRANCH   1  25
ATOM     25  C   UNL     1       7.369   9.820  -4.911  1.00  0.00     0.021 C 
BRANCH  25  26
ATOM     26  C   UNL     1       7.791  10.626  -3.686  1.00  0.00     0.116 C 
BRANCH  26  27
ATOM     27  N   UNL     1       9.211  10.933  -3.711  1.00  0.00    -0.352 N 
ATOM     28  C   UNL     1       9.842  12.152  -3.667  1.00  0.00     0.251 C 
ATOM     29  H   UNL     1       9.809  10.153  -3.768  1.00  0.00     0.163 HD
ATOM     30  O   UNL     1      11.034  12.226  -3.948  1.00  0.00    -0.269 OA
BRANCH  28  31
ATOM     31  C   UNL     1       9.083  13.368  -3.301  1.00  0.00     0.039 A 
ATOM     32  C   UNL     1       9.302  14.543  -4.023  1.00  0.00     0.014 A 
ATOM     33  C   UNL     1       8.175  13.358  -2.237  1.00  0.00     0.014 A 
ATOM     34  C   UNL     1       8.571  15.692  -3.714  1.00  0.00     0.010 A 
ATOM     35  C   UNL     1       7.397  14.484  -1.976  1.00  0.00     0.010 A 
ATOM     36  C   UNL     1       7.588  15.664  -2.710  1.00  0.00    -0.014 A 
BRANCH  36  37
ATOM     37  C   UNL     1       6.750  16.859  -2.428  1.00  0.00     0.031 A 
ATOM     38  C   UNL     1       6.837  17.551  -1.095  1.00  0.00     0.074 A 
ATOM     39  C   UNL     1       5.875  17.288  -3.358  1.00  0.00     0.049 A 
ATOM     40  N   UNL     1       6.157  18.577  -0.650  1.00  0.00    -0.248 NA
ATOM     41  C   UNL     1       7.794  16.999  -0.125  1.00  0.00     0.031 C 
ATOM     42  C   UNL     1       5.670  16.670  -4.671  1.00  0.00     0.029 A 
ATOM     43  N   UNL     1       4.990  18.336  -3.346  1.00  0.00    -0.354 N 
ATOM     44  C   UNL     1       6.598  18.790   0.652  1.00  0.00     0.074 A 
ATOM     45  C   UNL     1       7.557  17.745   0.943  1.00  0.00     0.031 C 
ATOM     46  C   UNL     1       4.743  17.368  -5.346  1.00  0.00     0.029 A 
ATOM     47  C   UNL     1       4.253  18.452  -4.502  1.00  0.00     0.049 A 
ATOM     48  H   UNL     1       4.891  18.948  -2.581  1.00  0.00     0.167 HD
ATOM     49  C   UNL     1       6.253  19.779   1.515  1.00  0.00     0.034 A 
ATOM     50  C   UNL     1       3.284  19.326  -4.840  1.00  0.00     0.034 A 
ATOM     51  C   UNL     1       5.298  20.816   1.204  1.00  0.00     0.049 A 
ATOM     52  C   UNL     1       2.898  20.400  -3.855  1.00  0.00     0.074 A 
ATOM     53  C   UNL     1       4.915  21.896   1.981  1.00  0.00     0.029 A 
ATOM     54  N   UNL     1       4.564  20.898   0.027  1.00  0.00    -0.354 N 
ATOM     55  N   UNL     1       3.367  20.622  -2.649  1.00  0.00    -0.248 NA
ATOM     56  C   UNL     1       1.861  21.347  -4.283  1.00  0.00     0.031 C 
ATOM     57  C   UNL     1       3.902  22.587   1.306  1.00  0.00     0.029 A 
ATOM     58  C   UNL     1       3.707  21.988   0.071  1.00  0.00     0.049 A 
ATOM     59  H   UNL     1       4.642  20.273  -0.730  1.00  0.00     0.167 HD
ATOM     60  C   UNL     1       2.700  21.753  -2.186  1.00  0.00     0.074 A 
ATOM     61  C   UNL     1       1.813  22.175  -3.251  1.00  0.00     0.031 C 
ATOM     62  C   UNL     1       2.813  22.387  -0.991  1.00  0.00     0.034 A 
BRANCH  49  63
ATOM     63  C   UNL     1       6.894  19.763   2.884  1.00  0.00     0.023 A 
ATOM     64  C   UNL     1       8.284  19.897   3.051  1.00  0.00     0.031 A 
ATOM     65  C   UNL     1       6.109  19.590   4.038  1.00  0.00     0.131 A 
ATOM     66  C   UNL     1       8.852  19.776   4.328  1.00  0.00     0.055 A 
ATOM     67  C   UNL     1       6.673  19.555   5.315  1.00  0.00     0.041 A 
ATOM     68  F   UNL     1       4.779  19.436   3.943  1.00  0.00    -0.206 F 
ATOM     69  C   UNL     1       8.054  19.632   5.465  1.00  0.00     0.022 A 
BRANCH  66  70
ATOM     70  S   UNL     1      10.658  19.659   4.465  1.00  0.00     0.124 S 
ATOM     71  O   UNL     1      10.940  18.486   3.640  1.00  0.00    -0.237 OA
ATOM     72  O   UNL     1      11.098  20.940   3.927  1.00  0.00    -0.237 OA
ATOM     73  O   UNL     1      10.882  19.472   5.897  1.00  0.00    -0.744 OA
ENDBRANCH  66  70
ENDBRANCH  49  63
BRANCH  50  74
ATOM     74  C   UNL     1       2.603  19.223  -6.163  1.00  0.00     0.023 A 
ATOM     75  C   UNL     1       2.719  20.245  -7.119  1.00  0.00     0.031 A 
ATOM     76  C   UNL     1       1.794  18.116  -6.477  1.00  0.00     0.131 A 
ATOM     77  C   UNL     1       2.002  20.162  -8.322  1.00  0.00     0.055 A 
ATOM     78  C   UNL     1       1.126  18.013  -7.698  1.00  0.00     0.041 A 
ATOM     79  F   UNL     1       1.653  17.108  -5.601  1.00  0.00    -0.206 F 
ATOM     80  C   UNL     1       1.217  19.047  -8.624  1.00  0.00     0.022 A 
BRANCH  77  81
ATOM     81  S   UNL     1       2.042  21.578  -9.456  1.00  0.00     0.124 S 
ATOM     82  O   UNL     1       1.537  22.652  -8.608  1.00  0.00    -0.237 OA
ATOM     83  O   UNL     1       3.457  21.646  -9.804  1.00  0.00    -0.237 OA
ATOM     84  O   UNL     1       1.154  21.168 -10.541  1.00  0.00    -0.744 OA
ENDBRANCH  77  81
ENDBRANCH  50  74
BRANCH  62  85
ATOM     85  C   UNL     1       1.976  23.629  -0.795  1.00  0.00     0.023 A 
ATOM     86  C   UNL     1       0.572  23.574  -0.743  1.00  0.00     0.031 A 
ATOM     87  C   UNL     1       2.593  24.888  -0.680  1.00  0.00     0.131 A 
ATOM     88  C   UNL     1      -0.171  24.761  -0.643  1.00  0.00     0.055 A 
ATOM     89  C   UNL     1       1.850  26.058  -0.516  1.00  0.00     0.041 A 
ATOM     90  F   UNL     1       3.930  25.001  -0.727  1.00  0.00    -0.206 F 
ATOM     91  C   UNL     1       0.460  26.000  -0.512  1.00  0.00     0.022 A 
BRANCH  88  92
ATOM     92  S   UNL     1      -1.977  24.672  -0.791  1.00  0.00     0.124 S 
ATOM     93  O   UNL     1      -2.143  24.054  -2.103  1.00  0.00    -0.237 OA
ATOM     94  O   UNL     1      -2.344  23.845   0.354  1.00  0.00    -0.237 OA
ATOM     95  O   UNL     1      -2.397  26.069  -0.707  1.00  0.00    -0.744 OA
ENDBRANCH  88  92
ENDBRANCH  62  85
ENDBRANCH  36  37
ENDBRANCH  28  31
ENDBRANCH  26  27
ENDBRANCH  25  26
ENDBRANCH   1  25
TORSDOF 18
