REMARK SMILES Cc1cc(Nc2ccc(C(=O)NCCCCCCNC(=O)c3ccc(-c4c5nc(c(-c6cc(S(=O)(=O)[O-])ccc6F)c6ccc([nH]6)c(-c6cc(S(=O)(=O)[O-])ccc6F)c6nc(c(-c7cc(S(=O)(=O)[O-])ccc7F)c7ccc4[nH]7)C=C6)C=C5)cc3)cc2)nc(-n2nc(C)cc2C)n1
REMARK SMILES IDX 15 1 14 2 13 3 12 4 10 5 11 6 9 8 6 9 7 10 86 11 8 12 85 13
REMARK SMILES IDX 5 14 4 16 1 17 2 18 3 19 96 20 88 21 87 22 89 23 90 24 94 25
REMARK SMILES IDX 91 26 93 27 95 28 92 29 16 30 17 31 18 32 19 33 20 34 21 36
REMARK SMILES IDX 22 37 23 38 84 39 24 40 83 41 25 42 26 43 27 44 77 45 28 46
REMARK SMILES IDX 82 47 76 48 78 49 29 50 81 51 75 52 74 53 30 55 62 56 42 57
REMARK SMILES IDX 61 58 43 59 46 60 60 61 79 62 44 63 45 64 59 66 80 67 47 68
REMARK SMILES IDX 31 69 32 70 40 71 33 72 39 73 41 74 38 75 34 76 35 77 36 78
REMARK SMILES IDX 37 79 63 80 64 81 72 82 65 83 71 84 73 85 70 86 66 87 67 88
REMARK SMILES IDX 68 89 69 90 48 91 49 92 57 93 50 94 56 95 58 96 55 97 51 98
REMARK SMILES IDX 52 99 53 100 54 101
REMARK H PARENT 12 7 5 15 19 35 78 54 46 65
REMARK Flexibility Score: inf
ROOT
ATOM      1  C   UNL     1       9.564  -0.895   3.731  1.00  0.00     0.002 C 
ENDROOT
BRANCH   1   2
ATOM      2  C   UNL     1       8.079  -1.011   3.354  1.00  0.00     0.021 C 
BRANCH   2   3
ATOM      3  C   UNL     1       7.775  -0.509   1.940  1.00  0.00     0.116 C 
BRANCH   3   4
ATOM      4  N   UNL     1       8.198  -1.501   0.967  1.00  0.00    -0.352 N 
ATOM      5  C   UNL     1       7.509  -2.392   0.186  1.00  0.00     0.251 C 
ATOM      6  O   UNL     1       8.162  -3.140  -0.543  1.00  0.00    -0.269 OA
ATOM      7  H   UNL     1       9.174  -1.542   0.844  1.00  0.00     0.163 HD
BRANCH   5   8
ATOM      8  C   UNL     1       6.024  -2.443   0.124  1.00  0.00     0.039 A 
ATOM      9  C   UNL     1       3.234  -2.368  -0.263  1.00  0.00     0.040 A 
ATOM     10  C   UNL     1       4.071  -2.798  -1.290  1.00  0.00     0.027 A 
ATOM     11  C   UNL     1       3.791  -2.107   0.995  1.00  0.00     0.027 A 
ATOM     12  C   UNL     1       5.456  -2.811  -1.106  1.00  0.00     0.016 A 
ATOM     13  C   UNL     1       5.174  -2.167   1.195  1.00  0.00     0.016 A 
BRANCH   9  14
ATOM     14  N   UNL     1       1.845  -2.300  -0.468  1.00  0.00    -0.340 N 
ATOM     15  H   UNL     1       1.381  -3.116  -0.768  1.00  0.00     0.168 HD
BRANCH  14  16
ATOM     16  C   UNL     1       1.077  -1.137  -0.271  1.00  0.00     0.136 A 
ATOM     17  C   UNL     1      -2.486  -0.083   0.233  1.00  0.00     0.067 C 
ATOM     18  C   UNL     1      -0.990  -0.083   0.141  1.00  0.00     0.045 A 
ATOM     19  C   UNL     1      -0.294  -1.241  -0.145  1.00  0.00     0.070 A 
ATOM     20  N   UNL     1      -0.377   1.106   0.288  1.00  0.00    -0.216 NA
ATOM     21  C   UNL     1       0.953   1.143   0.042  1.00  0.00     0.252 A 
ATOM     22  N   UNL     1       1.692   0.056  -0.250  1.00  0.00    -0.194 NA
BRANCH  21  23
ATOM     23  N   UNL     1       1.605   2.425   0.060  1.00  0.00    -0.203 N 
ATOM     24  N   UNL     1       2.636   2.716  -0.791  1.00  0.00    -0.170 NA
ATOM     25  C   UNL     1       1.280   3.525   0.844  1.00  0.00     0.045 A 
ATOM     26  C   UNL     1       2.821   4.033  -0.664  1.00  0.00     0.060 A 
ATOM     27  C   UNL     1       2.029   4.577   0.366  1.00  0.00     0.049 A 
ATOM     28  C   UNL     1       0.355   3.460   2.003  1.00  0.00     0.067 C 
ATOM     29  C   UNL     1       3.777   4.745  -1.546  1.00  0.00     0.069 C 
ENDBRANCH  21  23
ENDBRANCH  14  16
ENDBRANCH   9  14
ENDBRANCH   5   8
ENDBRANCH   3   4
ENDBRANCH   2   3
ENDBRANCH   1   2
BRANCH   1  30
ATOM     30  C   UNL     1      10.092   0.541   3.831  1.00  0.00     0.002 C 
BRANCH  30  31
ATOM     31  C   UNL     1       9.337   1.442   4.813  1.00  0.00     0.021 C 
BRANCH  31  32
ATOM     32  C   UNL     1       9.353   0.956   6.260  1.00  0.00     0.116 C 
BRANCH  32  33
ATOM     33  N   UNL     1      10.698   0.954   6.811  1.00  0.00    -0.352 N 
ATOM     34  C   UNL     1      11.176   1.565   7.945  1.00  0.00     0.251 C 
ATOM     35  H   UNL     1      11.363   0.441   6.298  1.00  0.00     0.163 HD
ATOM     36  O   UNL     1      12.387   1.652   8.121  1.00  0.00    -0.269 OA
BRANCH  34  37
ATOM     37  C   UNL     1      10.234   2.127   8.938  1.00  0.00     0.039 A 
ATOM     38  C   UNL     1      10.520   3.368   9.513  1.00  0.00     0.014 A 
ATOM     39  C   UNL     1       9.088   1.424   9.322  1.00  0.00     0.014 A 
ATOM     40  C   UNL     1       9.632   3.925  10.436  1.00  0.00     0.010 A 
ATOM     41  C   UNL     1       8.169   2.013  10.189  1.00  0.00     0.010 A 
ATOM     42  C   UNL     1       8.435   3.265  10.761  1.00  0.00    -0.014 A 
BRANCH  42  43
ATOM     43  C   UNL     1       7.460   3.874  11.702  1.00  0.00     0.031 A 
ATOM     44  C   UNL     1       7.167   3.220  13.024  1.00  0.00     0.074 A 
ATOM     45  C   UNL     1       6.802   4.993  11.341  1.00  0.00     0.049 A 
ATOM     46  N   UNL     1       6.340   3.590  13.969  1.00  0.00    -0.248 NA
ATOM     47  C   UNL     1       7.876   1.964  13.305  1.00  0.00     0.031 C 
ATOM     48  C   UNL     1       6.966   5.694  10.066  1.00  0.00     0.029 A 
ATOM     49  N   UNL     1       5.867   5.739  12.012  1.00  0.00    -0.354 N 
ATOM     50  C   UNL     1       6.420   2.608  14.951  1.00  0.00     0.074 A 
ATOM     51  C   UNL     1       7.324   1.593  14.450  1.00  0.00     0.031 C 
ATOM     52  C   UNL     1       6.192   6.790  10.065  1.00  0.00     0.029 A 
ATOM     53  C   UNL     1       5.447   6.850  11.318  1.00  0.00     0.049 A 
ATOM     54  H   UNL     1       5.529   5.502  12.905  1.00  0.00     0.167 HD
ATOM     55  C   UNL     1       5.814   2.568  16.166  1.00  0.00     0.034 A 
ATOM     56  C   UNL     1       4.565   7.810  11.657  1.00  0.00     0.034 A 
ATOM     57  C   UNL     1       4.921   3.595  16.648  1.00  0.00     0.049 A 
ATOM     58  C   UNL     1       3.887   7.735  12.999  1.00  0.00     0.074 A 
ATOM     59  C   UNL     1       4.309   3.696  17.886  1.00  0.00     0.029 A 
ATOM     60  N   UNL     1       4.498   4.694  15.909  1.00  0.00    -0.354 N 
ATOM     61  N   UNL     1       4.022   6.836  13.947  1.00  0.00    -0.248 NA
ATOM     62  C   UNL     1       2.944   8.814  13.319  1.00  0.00     0.031 C 
ATOM     63  C   UNL     1       3.461   4.811  17.868  1.00  0.00     0.029 A 
ATOM     64  C   UNL     1       3.602   5.454  16.648  1.00  0.00     0.049 A 
ATOM     65  H   UNL     1       4.792   4.903  14.993  1.00  0.00     0.167 HD
ATOM     66  C   UNL     1       3.200   7.258  14.988  1.00  0.00     0.074 A 
ATOM     67  C   UNL     1       2.590   8.500  14.556  1.00  0.00     0.031 C 
ATOM     68  C   UNL     1       2.975   6.675  16.195  1.00  0.00     0.034 A 
BRANCH  55  69
ATOM     69  C   UNL     1       6.079   1.353  17.029  1.00  0.00     0.023 A 
ATOM     70  C   UNL     1       7.377   1.015  17.454  1.00  0.00     0.031 A 
ATOM     71  C   UNL     1       5.030   0.487  17.383  1.00  0.00     0.131 A 
ATOM     72  C   UNL     1       7.606  -0.203  18.112  1.00  0.00     0.055 A 
ATOM     73  C   UNL     1       5.252  -0.678  18.122  1.00  0.00     0.041 A 
ATOM     74  F   UNL     1       3.771   0.742  16.994  1.00  0.00    -0.206 F 
ATOM     75  C   UNL     1       6.549  -1.040  18.472  1.00  0.00     0.022 A 
BRANCH  72  76
ATOM     76  S   UNL     1       9.320  -0.763  18.320  1.00  0.00     0.124 S 
ATOM     77  O   UNL     1       9.806  -0.743  16.943  1.00  0.00    -0.237 OA
ATOM     78  O   UNL     1       9.876   0.249  19.210  1.00  0.00    -0.237 OA
ATOM     79  O   UNL     1       9.176  -2.097  18.901  1.00  0.00    -0.744 OA
ENDBRANCH  72  76
ENDBRANCH  55  69
BRANCH  56  80
ATOM     80  C   UNL     1       4.286   8.936  10.722  1.00  0.00     0.023 A 
ATOM     81  C   UNL     1       4.663  10.248  11.049  1.00  0.00     0.031 A 
ATOM     82  C   UNL     1       3.622   8.722   9.502  1.00  0.00     0.131 A 
ATOM     83  C   UNL     1       4.342  11.303  10.182  1.00  0.00     0.055 A 
ATOM     84  C   UNL     1       3.345   9.769   8.621  1.00  0.00     0.041 A 
ATOM     85  F   UNL     1       3.248   7.484   9.140  1.00  0.00    -0.206 F 
ATOM     86  C   UNL     1       3.697  11.071   8.965  1.00  0.00     0.022 A 
BRANCH  83  87
ATOM     87  S   UNL     1       4.730  12.998  10.697  1.00  0.00     0.124 S 
ATOM     88  O   UNL     1       3.944  13.125  11.919  1.00  0.00    -0.237 OA
ATOM     89  O   UNL     1       6.178  12.939  10.867  1.00  0.00    -0.237 OA
ATOM     90  O   UNL     1       4.271  13.809   9.571  1.00  0.00    -0.744 OA
ENDBRANCH  83  87
ENDBRANCH  56  80
BRANCH  68  91
ATOM     91  C   UNL     1       2.045   7.404  17.136  1.00  0.00     0.023 A 
ATOM     92  C   UNL     1       0.682   7.580  16.838  1.00  0.00     0.031 A 
ATOM     93  C   UNL     1       2.538   7.968  18.326  1.00  0.00     0.131 A 
ATOM     94  C   UNL     1      -0.124   8.359  17.682  1.00  0.00     0.055 A 
ATOM     95  C   UNL     1       1.716   8.685  19.196  1.00  0.00     0.041 A 
ATOM     96  F   UNL     1       3.832   7.836  18.660  1.00  0.00    -0.206 F 
ATOM     97  C   UNL     1       0.381   8.899  18.868  1.00  0.00     0.022 A 
BRANCH  94  98
ATOM     98  S   UNL     1      -1.812   8.758  17.148  1.00  0.00     0.124 S 
ATOM     99  O   UNL     1      -1.578   9.403  15.860  1.00  0.00    -0.237 OA
ATOM    100  O   UNL     1      -2.442   7.443  17.098  1.00  0.00    -0.237 OA
ATOM    101  O   UNL     1      -2.305   9.642  18.203  1.00  0.00    -0.744 OA
ENDBRANCH  94  98
ENDBRANCH  68  91
ENDBRANCH  42  43
ENDBRANCH  34  37
ENDBRANCH  32  33
ENDBRANCH  31  32
ENDBRANCH  30  31
ENDBRANCH   1  30
TORSDOF 19
