REMARK SMILES O=C(NCCCCCCNC(=O)c1ccc2c(c1)[C@@H]1C=CC[C@@H]1[C@H](c1ccncc1)N2)c1ccc(-c2c3nc(c(-c4cc(S(=O)(=O)[O-])ccc4F)c4ccc([nH]4)c(-c4cc(S(=O)(=O)[O-])ccc4F)c4nc(c(-c5cc(S(=O)(=O)[O-])ccc5F)c5ccc2[nH]5)C=C4)C=C3)cc1
REMARK SMILES IDX 5 1 4 2 3 3 1 4 2 5 32 7 33 8 94 9 34 10 93 11 35 12 36 13
REMARK SMILES IDX 37 14 87 15 38 16 92 17 86 18 88 19 39 20 91 21 85 22 84 23
REMARK SMILES IDX 40 25 72 26 52 27 71 28 53 29 56 30 70 31 89 32 54 33 55 34
REMARK SMILES IDX 69 36 90 37 57 38 41 39 42 40 50 41 43 42 49 43 51 44 48 45
REMARK SMILES IDX 44 46 45 47 46 48 47 49 73 50 74 51 82 52 75 53 81 54 83 55
REMARK SMILES IDX 80 56 76 57 77 58 78 59 79 60 58 61 59 62 67 63 60 64 66 65
REMARK SMILES IDX 68 66 65 67 61 68 62 69 63 70 64 71 6 72 7 73 8 74 9 75
REMARK SMILES IDX 10 76 11 77 12 79 13 80 14 81 18 82 15 83 17 84 16 85 19 86
REMARK SMILES IDX 31 87 20 88 23 89 24 90 21 92 22 93 25 94 26 95 30 96 27 97
REMARK SMILES IDX 29 98 28 99
REMARK H PARENT 3 6 88 24 56 35 10 78 31 91
REMARK Flexibility Score: inf
ROOT
ATOM      1  C   UNL     1       4.767   2.502   1.130  1.00  0.00     0.021 C 
ENDROOT
BRANCH   1   2
ATOM      2  C   UNL     1       4.493   1.010   0.996  1.00  0.00     0.116 C 
BRANCH   2   3
ATOM      3  N   UNL     1       3.071   0.714   0.963  1.00  0.00    -0.352 N 
ATOM      4  O   UNL     1       1.137   0.009   0.041  1.00  0.00    -0.269 OA
ATOM      5  C   UNL     1       2.366   0.008   0.021  1.00  0.00     0.251 C 
ATOM      6  H   UNL     1       2.543   1.067   1.715  1.00  0.00     0.163 HD
BRANCH   5   7
ATOM      7  C   UNL     1       3.096  -0.745  -1.022  1.00  0.00     0.039 A 
ATOM      8  C   UNL     1       4.190  -1.546  -0.679  1.00  0.00     0.014 A 
ATOM      9  C   UNL     1       2.668  -0.668  -2.349  1.00  0.00     0.014 A 
ATOM     10  C   UNL     1       4.915  -2.192  -1.674  1.00  0.00     0.010 A 
ATOM     11  C   UNL     1       3.350  -1.382  -3.338  1.00  0.00     0.010 A 
ATOM     12  C   UNL     1       4.480  -2.147  -3.007  1.00  0.00    -0.014 A 
BRANCH  12  13
ATOM     13  C   UNL     1       5.137  -3.015  -4.017  1.00  0.00     0.031 A 
ATOM     14  C   UNL     1       5.892  -2.432  -5.176  1.00  0.00     0.074 A 
ATOM     15  C   UNL     1       5.017  -4.351  -3.876  1.00  0.00     0.049 A 
ATOM     16  N   UNL     1       6.475  -3.051  -6.170  1.00  0.00    -0.248 NA
ATOM     17  C   UNL     1       6.006  -0.966  -5.233  1.00  0.00     0.031 C 
ATOM     18  C   UNL     1       4.295  -5.017  -2.785  1.00  0.00     0.029 A 
ATOM     19  N   UNL     1       5.483  -5.388  -4.641  1.00  0.00    -0.354 N 
ATOM     20  C   UNL     1       7.005  -2.057  -6.984  1.00  0.00     0.074 A 
ATOM     21  C   UNL     1       6.664  -0.790  -6.373  1.00  0.00     0.031 C 
ATOM     22  C   UNL     1       4.383  -6.345  -2.944  1.00  0.00     0.029 A 
ATOM     23  C   UNL     1       5.091  -6.626  -4.185  1.00  0.00     0.049 A 
ATOM     24  H   UNL     1       6.044  -5.259  -5.440  1.00  0.00     0.167 HD
ATOM     25  C   UNL     1       7.705  -2.201  -8.136  1.00  0.00     0.034 A 
ATOM     26  C   UNL     1       5.239  -7.849  -4.729  1.00  0.00     0.034 A 
ATOM     27  C   UNL     1       8.038  -3.481  -8.718  1.00  0.00     0.049 A 
ATOM     28  C   UNL     1       5.969  -7.967  -6.040  1.00  0.00     0.074 A 
ATOM     29  C   UNL     1       8.817  -3.740  -9.833  1.00  0.00     0.029 A 
ATOM     30  N   UNL     1       7.590  -4.710  -8.253  1.00  0.00    -0.354 N 
ATOM     31  N   UNL     1       6.525  -7.019  -6.760  1.00  0.00    -0.248 NA
ATOM     32  C   UNL     1       6.090  -9.312  -6.615  1.00  0.00     0.031 C 
ATOM     33  C   UNL     1       8.767  -5.113 -10.092  1.00  0.00     0.029 A 
ATOM     34  C   UNL     1       8.027  -5.724  -9.093  1.00  0.00     0.049 A 
ATOM     35  H   UNL     1       7.044  -4.843  -7.445  1.00  0.00     0.167 HD
ATOM     36  C   UNL     1       7.072  -7.659  -7.867  1.00  0.00     0.074 A 
ATOM     37  C   UNL     1       6.806  -9.074  -7.703  1.00  0.00     0.031 C 
ATOM     38  C   UNL     1       7.732  -7.127  -8.926  1.00  0.00     0.034 A 
BRANCH  25  39
ATOM     39  C   UNL     1       8.119  -0.956  -8.881  1.00  0.00     0.023 A 
ATOM     40  C   UNL     1       9.071  -0.058  -8.371  1.00  0.00     0.031 A 
ATOM     41  C   UNL     1       7.577  -0.692 -10.153  1.00  0.00     0.131 A 
ATOM     42  C   UNL     1       9.427   1.080  -9.114  1.00  0.00     0.055 A 
ATOM     43  C   UNL     1       7.981   0.407 -10.914  1.00  0.00     0.041 A 
ATOM     44  F   UNL     1       6.649  -1.505 -10.682  1.00  0.00    -0.206 F 
ATOM     45  C   UNL     1       8.907   1.304 -10.392  1.00  0.00     0.022 A 
BRANCH  42  46
ATOM     46  S   UNL     1      10.515   2.315  -8.351  1.00  0.00     0.124 S 
ATOM     47  O   UNL     1       9.747   2.698  -7.169  1.00  0.00    -0.237 OA
ATOM     48  O   UNL     1      11.732   1.553  -8.101  1.00  0.00    -0.237 OA
ATOM     49  O   UNL     1      10.628   3.353  -9.374  1.00  0.00    -0.744 OA
ENDBRANCH  42  46
ENDBRANCH  25  39
BRANCH  26  50
ATOM     50  C   UNL     1       4.624  -9.044  -4.082  1.00  0.00     0.023 A 
ATOM     51  C   UNL     1       5.409 -10.124  -3.655  1.00  0.00     0.031 A 
ATOM     52  C   UNL     1       3.227  -9.147  -3.935  1.00  0.00     0.131 A 
ATOM     53  C   UNL     1       4.792 -11.282  -3.158  1.00  0.00     0.055 A 
ATOM     54  C   UNL     1       2.623 -10.273  -3.375  1.00  0.00     0.041 A 
ATOM     55  F   UNL     1       2.425  -8.145  -4.329  1.00  0.00    -0.206 F 
ATOM     56  C   UNL     1       3.407 -11.358  -2.998  1.00  0.00     0.022 A 
BRANCH  53  57
ATOM     57  S   UNL     1       5.822 -12.740  -2.837  1.00  0.00     0.124 S 
ATOM     58  O   UNL     1       6.493 -12.917  -4.121  1.00  0.00    -0.237 OA
ATOM     59  O   UNL     1       6.660 -12.281  -1.734  1.00  0.00    -0.237 OA
ATOM     60  O   UNL     1       4.850 -13.774  -2.493  1.00  0.00    -0.744 OA
ENDBRANCH  53  57
ENDBRANCH  26  50
BRANCH  38  61
ATOM     61  C   UNL     1       8.224  -8.091  -9.974  1.00  0.00     0.023 A 
ATOM     62  C   UNL     1       7.330  -8.797 -10.798  1.00  0.00     0.031 A 
ATOM     63  C   UNL     1       9.602  -8.311 -10.148  1.00  0.00     0.131 A 
ATOM     64  C   UNL     1       7.823  -9.725 -11.727  1.00  0.00     0.055 A 
ATOM     65  C   UNL     1      10.088  -9.190 -11.116  1.00  0.00     0.041 A 
ATOM     66  F   UNL     1      10.498  -7.667  -9.383  1.00  0.00    -0.206 F 
ATOM     67  C   UNL     1       9.196  -9.911 -11.905  1.00  0.00     0.022 A 
BRANCH  64  68
ATOM     68  S   UNL     1       6.641 -10.741 -12.654  1.00  0.00     0.124 S 
ATOM     69  O   UNL     1       5.973 -11.478 -11.585  1.00  0.00    -0.237 OA
ATOM     70  O   UNL     1       5.832  -9.737 -13.338  1.00  0.00    -0.237 OA
ATOM     71  O   UNL     1       7.492 -11.547 -13.526  1.00  0.00    -0.744 OA
ENDBRANCH  64  68
ENDBRANCH  38  61
ENDBRANCH  12  13
ENDBRANCH   5   7
ENDBRANCH   2   3
ENDBRANCH   1   2
BRANCH   1  72
ATOM     72  C   UNL     1       4.279   3.127   2.437  1.00  0.00     0.002 C 
BRANCH  72  73
ATOM     73  C   UNL     1       4.803   2.466   3.715  1.00  0.00     0.002 C 
BRANCH  73  74
ATOM     74  C   UNL     1       6.325   2.329   3.807  1.00  0.00     0.021 C 
BRANCH  74  75
ATOM     75  C   UNL     1       7.101   3.631   3.634  1.00  0.00     0.116 C 
BRANCH  75  76
ATOM     76  N   UNL     1       6.784   4.599   4.672  1.00  0.00    -0.352 N 
ATOM     77  C   UNL     1       7.634   5.252   5.530  1.00  0.00     0.251 C 
ATOM     78  H   UNL     1       5.829   4.816   4.774  1.00  0.00     0.163 HD
ATOM     79  O   UNL     1       7.193   5.907   6.469  1.00  0.00    -0.269 OA
BRANCH  77  80
ATOM     80  C   UNL     1       9.092   5.149   5.323  1.00  0.00     0.040 A 
ATOM     81  C   UNL     1       9.906   4.782   6.392  1.00  0.00     0.016 A 
ATOM     82  C   UNL     1       9.650   5.392   4.067  1.00  0.00     0.020 A 
ATOM     83  C   UNL     1      11.279   4.633   6.187  1.00  0.00     0.027 A 
ATOM     84  C   UNL     1      11.018   5.171   3.843  1.00  0.00    -0.017 A 
ATOM     85  C   UNL     1      11.853   4.850   4.925  1.00  0.00     0.038 A 
ATOM     86  C   UNL     1      11.562   5.260   2.436  1.00  0.00     0.049 C 
ATOM     87  N   UNL     1      13.219   4.660   4.758  1.00  0.00    -0.378 N 
ATOM     88  C   UNL     1      10.879   4.304   1.489  1.00  0.00    -0.023 C 
ATOM     89  C   UNL     1      13.024   4.795   2.300  1.00  0.00     0.031 C 
ATOM     90  C   UNL     1      13.858   5.134   3.537  1.00  0.00     0.114 C 
ATOM     91  H   UNL     1      13.748   4.210   5.455  1.00  0.00     0.161 HD
ATOM     92  C   UNL     1      11.637   3.236   1.214  1.00  0.00    -0.030 C 
ATOM     93  C   UNL     1      12.952   3.306   1.923  1.00  0.00     0.034 C 
BRANCH  90  94
ATOM     94  C   UNL     1      15.296   4.649   3.415  1.00  0.00    -0.022 A 
ATOM     95  C   UNL     1      16.130   5.218   2.440  1.00  0.00     0.026 A 
ATOM     96  C   UNL     1      15.841   3.642   4.221  1.00  0.00     0.026 A 
ATOM     97  C   UNL     1      17.439   4.775   2.326  1.00  0.00     0.111 A 
ATOM     98  C   UNL     1      17.168   3.280   4.043  1.00  0.00     0.111 A 
ATOM     99  N   UNL     1      17.982   3.830   3.119  1.00  0.00    -0.265 NA
ENDBRANCH  90  94
ENDBRANCH  77  80
ENDBRANCH  75  76
ENDBRANCH  74  75
ENDBRANCH  73  74
ENDBRANCH  72  73
ENDBRANCH   1  72
TORSDOF 17
