REMARK SMILES COc1ccc(-c2cc(Cl)cc3c2O[C@@H](C(F)(F)F)C(C(=O)NCCCCCCNC(=O)c2ccc(-c4c5nc(c(-c6cc(S(=O)(=O)[O-])ccc6F)c6ccc([nH]6)c(-c6cc(S(=O)(=O)[O-])ccc6F)c6nc(c(-c7cc(S(=O)(=O)[O-])ccc7F)c7ccc4[nH]7)C=C6)C=C5)cc2)=C3)cc1C
REMARK SMILES IDX 27 1 26 2 25 3 24 4 23 5 21 6 22 7 20 9 7 10 8 11 13 12 9 13
REMARK SMILES IDX 12 14 14 15 10 16 11 17 96 18 15 19 6 20 3 21 4 22 98 23
REMARK SMILES IDX 5 24 97 25 99 26 2 27 1 28 16 29 17 30 18 31 19 32 28 33
REMARK SMILES IDX 29 34 30 35 31 36 32 38 33 39 34 40 95 41 35 42 94 43 36 44
REMARK SMILES IDX 37 45 38 46 88 47 39 48 93 49 87 50 89 51 40 52 92 53 86 54
REMARK SMILES IDX 85 55 41 57 73 58 53 59 72 60 54 61 57 62 71 63 90 64 55 65
REMARK SMILES IDX 56 66 70 68 91 69 58 70 42 71 43 72 51 73 44 74 50 75 52 76
REMARK SMILES IDX 49 77 45 78 46 79 47 80 48 81 74 82 75 83 83 84 76 85 82 86
REMARK SMILES IDX 84 87 81 88 77 89 78 90 79 91 80 92 59 93 60 94 68 95 61 96
REMARK SMILES IDX 67 97 69 98 66 99 62 100 63 101 64 102 65 103
REMARK H PARENT 23 8 30 37 89 56 57 67
REMARK Flexibility Score: inf
ROOT
ATOM      1  C   UNL     1      -2.876  -0.684  -7.597  1.00  0.00     0.002 C 
ENDROOT
BRANCH   1   2
ATOM      2  C   UNL     1      -3.266  -1.901  -6.759  1.00  0.00     0.002 C 
BRANCH   2   3
ATOM      3  C   UNL     1      -2.720  -3.270  -7.152  1.00  0.00     0.021 C 
BRANCH   3   4
ATOM      4  C   UNL     1      -1.314  -3.417  -7.730  1.00  0.00     0.116 C 
BRANCH   4   5
ATOM      5  N   UNL     1      -0.172  -2.968  -6.961  1.00  0.00    -0.352 N 
ATOM      6  C   UNL     1       1.165  -3.262  -7.052  1.00  0.00     0.251 C 
ATOM      7  O   UNL     1       1.947  -2.446  -6.550  1.00  0.00    -0.270 OA
ATOM      8  H   UNL     1      -0.397  -2.336  -6.240  1.00  0.00     0.163 HD
BRANCH   6   9
ATOM      9  C   UNL     1       1.746  -4.551  -7.665  1.00  0.00     0.067 C 
ATOM     10  C   UNL     1       1.234  -6.027  -4.003  1.00  0.00     0.026 A 
ATOM     11  C   UNL     1       2.196  -6.867  -3.406  1.00  0.00     0.033 A 
ATOM     12  C   UNL     1       1.420  -5.801  -5.364  1.00  0.00     0.135 A 
ATOM     13  C   UNL     1       3.435  -7.068  -4.028  1.00  0.00     0.042 A 
ATOM     14  C   UNL     1       2.741  -5.697  -5.867  1.00  0.00     0.019 A 
ATOM     15  O   UNL     1       0.329  -5.816  -6.261  1.00  0.00    -0.475 OA
ATOM     16  Cl  UNL     1       4.637  -8.012  -3.236  1.00  0.00    -0.084 Cl
ATOM     17  C   UNL     1       3.749  -6.395  -5.211  1.00  0.00     0.032 A 
ATOM     18  C   UNL     1       2.948  -4.882  -7.119  1.00  0.00     0.025 C 
ATOM     19  C   UNL     1       0.869  -5.786  -7.621  1.00  0.00     0.314 C 
BRANCH  10  20
ATOM     20  C   UNL     1       0.855  -4.866  -3.136  1.00  0.00    -0.014 A 
ATOM     21  C   UNL     1       0.472  -2.804  -1.225  1.00  0.00     0.121 A 
ATOM     22  C   UNL     1      -0.565  -3.687  -1.570  1.00  0.00     0.047 A 
ATOM     23  C   UNL     1       1.718  -2.924  -1.841  1.00  0.00    -0.008 A 
ATOM     24  C   UNL     1      -0.381  -4.712  -2.517  1.00  0.00     0.013 A 
ATOM     25  C   UNL     1       1.870  -3.925  -2.814  1.00  0.00     0.016 A 
ATOM     26  C   UNL     1       2.912  -2.082  -1.492  1.00  0.00     0.048 C 
BRANCH  21  27
ATOM     27  O   UNL     1       0.208  -1.955  -0.182  1.00  0.00    -0.496 OA
ATOM     28  C   UNL     1       0.441  -0.577  -0.466  1.00  0.00     0.278 C 
ENDBRANCH  21  27
ENDBRANCH  10  20
BRANCH  19  29
ATOM     29  C   UNL     1       0.043  -6.056  -8.894  1.00  0.00     0.429 C 
ATOM     30  F   UNL     1       0.729  -6.912  -9.706  1.00  0.00    -0.167 F 
ATOM     31  F   UNL     1      -1.146  -6.636  -8.639  1.00  0.00    -0.167 F 
ATOM     32  F   UNL     1      -0.169  -4.952  -9.647  1.00  0.00    -0.167 F 
ENDBRANCH  19  29
ENDBRANCH   6   9
ENDBRANCH   4   5
ENDBRANCH   3   4
ENDBRANCH   2   3
ENDBRANCH   1   2
BRANCH   1  33
ATOM     33  C   UNL     1      -3.167  -0.759  -9.093  1.00  0.00     0.021 C 
BRANCH  33  34
ATOM     34  C   UNL     1      -4.645  -0.740  -9.473  1.00  0.00     0.116 C 
BRANCH  34  35
ATOM     35  N   UNL     1      -5.119   0.582  -9.878  1.00  0.00    -0.352 N 
ATOM     36  C   UNL     1      -6.288   0.916 -10.545  1.00  0.00     0.251 C 
ATOM     37  H   UNL     1      -4.529   1.336  -9.647  1.00  0.00     0.163 HD
ATOM     38  O   UNL     1      -6.574   2.068 -10.825  1.00  0.00    -0.269 OA
BRANCH  36  39
ATOM     39  C   UNL     1      -7.255  -0.170 -10.818  1.00  0.00     0.039 A 
ATOM     40  C   UNL     1      -8.486  -0.112 -10.157  1.00  0.00     0.014 A 
ATOM     41  C   UNL     1      -6.848  -1.326 -11.477  1.00  0.00     0.014 A 
ATOM     42  C   UNL     1      -9.197  -1.289  -9.948  1.00  0.00     0.010 A 
ATOM     43  C   UNL     1      -7.509  -2.508 -11.197  1.00  0.00     0.010 A 
ATOM     44  C   UNL     1      -8.640  -2.497 -10.369  1.00  0.00    -0.014 A 
BRANCH  44  45
ATOM     45  C   UNL     1      -9.073  -3.786  -9.833  1.00  0.00     0.031 A 
ATOM     46  C   UNL     1      -9.842  -4.741 -10.652  1.00  0.00     0.074 A 
ATOM     47  C   UNL     1      -8.752  -4.124  -8.564  1.00  0.00     0.049 A 
ATOM     48  N   UNL     1     -10.617  -5.655 -10.173  1.00  0.00    -0.248 NA
ATOM     49  C   UNL     1      -9.843  -4.695 -12.107  1.00  0.00     0.031 C 
ATOM     50  C   UNL     1      -8.867  -5.438  -7.938  1.00  0.00     0.029 A 
ATOM     51  N   UNL     1      -8.503  -3.256  -7.505  1.00  0.00    -0.354 N 
ATOM     52  C   UNL     1     -10.978  -6.489 -11.205  1.00  0.00     0.074 A 
ATOM     53  C   UNL     1     -10.542  -5.796 -12.396  1.00  0.00     0.031 C 
ATOM     54  C   UNL     1      -8.950  -5.278  -6.609  1.00  0.00     0.029 A 
ATOM     55  C   UNL     1      -9.025  -3.853  -6.346  1.00  0.00     0.049 A 
ATOM     56  H   UNL     1      -8.047  -2.385  -7.558  1.00  0.00     0.167 HD
ATOM     57  C   UNL     1     -11.475  -7.729 -10.922  1.00  0.00     0.034 A 
ATOM     58  C   UNL     1      -9.989  -3.236  -5.604  1.00  0.00     0.034 A 
ATOM     59  C   UNL     1     -11.677  -7.918  -9.482  1.00  0.00     0.049 A 
ATOM     60  C   UNL     1     -11.267  -4.035  -5.471  1.00  0.00     0.074 A 
ATOM     61  C   UNL     1     -10.970  -8.599  -8.503  1.00  0.00     0.029 A 
ATOM     62  N   UNL     1     -12.617  -7.142  -8.811  1.00  0.00    -0.354 N 
ATOM     63  N   UNL     1     -11.567  -5.071  -6.205  1.00  0.00    -0.248 NA
ATOM     64  C   UNL     1     -12.319  -3.709  -4.516  1.00  0.00     0.031 C 
ATOM     65  C   UNL     1     -11.468  -8.196  -7.235  1.00  0.00     0.029 A 
ATOM     66  C   UNL     1     -12.494  -7.290  -7.442  1.00  0.00     0.049 A 
ATOM     67  H   UNL     1     -13.282  -6.564  -9.252  1.00  0.00     0.167 HD
ATOM     68  C   UNL     1     -12.818  -5.534  -5.869  1.00  0.00     0.074 A 
ATOM     69  C   UNL     1     -13.230  -4.662  -4.783  1.00  0.00     0.031 C 
ATOM     70  C   UNL     1     -13.394  -6.584  -6.535  1.00  0.00     0.034 A 
BRANCH  57  71
ATOM     71  C   UNL     1     -11.493  -8.885 -11.910  1.00  0.00     0.023 A 
ATOM     72  C   UNL     1     -11.418 -10.211 -11.427  1.00  0.00     0.031 A 
ATOM     73  C   UNL     1     -11.517  -8.768 -13.313  1.00  0.00     0.131 A 
ATOM     74  C   UNL     1     -11.252 -11.308 -12.295  1.00  0.00     0.055 A 
ATOM     75  C   UNL     1     -11.290  -9.849 -14.177  1.00  0.00     0.041 A 
ATOM     76  F   UNL     1     -11.827  -7.618 -13.922  1.00  0.00    -0.206 F 
ATOM     77  C   UNL     1     -11.140 -11.128 -13.668  1.00  0.00     0.022 A 
BRANCH  74  78
ATOM     78  S   UNL     1     -11.182 -12.985 -11.605  1.00  0.00     0.124 S 
ATOM     79  O   UNL     1     -10.040 -12.903 -10.701  1.00  0.00    -0.237 OA
ATOM     80  O   UNL     1     -12.494 -13.117 -10.981  1.00  0.00    -0.237 OA
ATOM     81  O   UNL     1     -10.976 -13.828 -12.783  1.00  0.00    -0.744 OA
ENDBRANCH  74  78
ENDBRANCH  57  71
BRANCH  58  82
ATOM     82  C   UNL     1      -9.889  -1.750  -5.627  1.00  0.00     0.023 A 
ATOM     83  C   UNL     1      -8.678  -1.181  -5.176  1.00  0.00     0.031 A 
ATOM     84  C   UNL     1     -10.733  -0.958  -6.416  1.00  0.00     0.131 A 
ATOM     85  C   UNL     1      -8.263   0.069  -5.654  1.00  0.00     0.055 A 
ATOM     86  C   UNL     1     -10.346   0.321  -6.835  1.00  0.00     0.041 A 
ATOM     87  F   UNL     1     -11.882  -1.454  -6.898  1.00  0.00    -0.206 F 
ATOM     88  C   UNL     1      -9.087   0.820  -6.494  1.00  0.00     0.022 A 
BRANCH  85  89
ATOM     89  S   UNL     1      -6.540   0.595  -5.400  1.00  0.00     0.124 S 
ATOM     90  O   UNL     1      -6.678   1.599  -4.352  1.00  0.00    -0.237 OA
ATOM     91  O   UNL     1      -5.867  -0.640  -5.007  1.00  0.00    -0.237 OA
ATOM     92  O   UNL     1      -6.154   1.098  -6.716  1.00  0.00    -0.744 OA
ENDBRANCH  85  89
ENDBRANCH  58  82
BRANCH  70  93
ATOM     93  C   UNL     1     -14.817  -7.105  -6.372  1.00  0.00     0.023 A 
ATOM     94  C   UNL     1     -15.823  -6.448  -5.648  1.00  0.00     0.031 A 
ATOM     95  C   UNL     1     -15.229  -8.302  -7.017  1.00  0.00     0.131 A 
ATOM     96  C   UNL     1     -17.120  -6.989  -5.529  1.00  0.00     0.055 A 
ATOM     97  C   UNL     1     -16.533  -8.805  -6.952  1.00  0.00     0.041 A 
ATOM     98  F   UNL     1     -14.384  -9.039  -7.753  1.00  0.00    -0.206 F 
ATOM     99  C   UNL     1     -17.489  -8.154  -6.193  1.00  0.00     0.022 A 
BRANCH  96 100
ATOM    100  S   UNL     1     -18.309  -6.150  -4.446  1.00  0.00     0.124 S 
ATOM    101  O   UNL     1     -17.679  -6.297  -3.136  1.00  0.00    -0.237 OA
ATOM    102  O   UNL     1     -18.327  -4.796  -4.990  1.00  0.00    -0.237 OA
ATOM    103  O   UNL     1     -19.543  -6.910  -4.630  1.00  0.00    -0.744 OA
ENDBRANCH  96 100
ENDBRANCH  70  93
ENDBRANCH  44  45
ENDBRANCH  36  39
ENDBRANCH  34  35
ENDBRANCH  33  34
ENDBRANCH   1  33
TORSDOF 19
