REMARK SMILES CN(C)C(=O)[C@@H]1CC=CC[C@H]1C(=O)N1CCC(C(=O)NCCCCCCNC(=O)c2ccc(-c3c4nc(c(-c5cc(S(=O)(=O)[O-])ccc5F)c5ccc([nH]5)c(-c5cc(S(=O)(=O)[O-])ccc5F)c5nc(c(-c6cc(S(=O)(=O)[O-])ccc6F)c6ccc3[nH]6)C=C5)C=C4)cc2)CC1
REMARK SMILES IDX 24 1 23 2 22 3 21 4 20 5 18 6 19 7 17 9 12 10 13 11 14 12
REMARK SMILES IDX 15 13 94 14 16 15 93 16 11 17 6 18 7 19 8 20 10 21 9 22 4 23
REMARK SMILES IDX 1 24 2 25 3 26 5 27 25 28 26 29 27 30 28 31 29 33 30 34
REMARK SMILES IDX 31 35 92 36 32 37 91 38 33 39 34 40 35 41 85 42 36 43 90 44
REMARK SMILES IDX 84 45 86 46 37 47 89 48 83 49 82 50 38 52 70 53 50 54 69 55
REMARK SMILES IDX 51 56 54 57 68 58 87 59 52 60 53 61 67 63 88 64 55 65 39 66
REMARK SMILES IDX 40 67 48 68 41 69 47 70 49 71 46 72 42 73 43 74 44 75 45 76
REMARK SMILES IDX 71 77 72 78 80 79 73 80 79 81 81 82 78 83 74 84 75 85 76 86
REMARK SMILES IDX 77 87 56 88 57 89 65 90 58 91 64 92 66 93 63 94 59 95 60 96
REMARK SMILES IDX 61 97 62 98
REMARK H PARENT 20 8 27 32 86 51 54 62
REMARK Flexibility Score: inf
ROOT
ATOM      1  C   UNL     1       4.962  -7.071  -3.000  1.00  0.00     0.002 C 
ENDROOT
BRANCH   1   2
ATOM      2  C   UNL     1       6.090  -6.034  -3.028  1.00  0.00     0.002 C 
BRANCH   2   3
ATOM      3  C   UNL     1       5.636  -4.605  -3.345  1.00  0.00     0.021 C 
BRANCH   3   4
ATOM      4  C   UNL     1       4.580  -4.074  -2.379  1.00  0.00     0.116 C 
BRANCH   4   5
ATOM      5  N   UNL     1       5.154  -3.853  -1.059  1.00  0.00    -0.356 N 
ATOM      6  C   UNL     1       5.324  -2.709  -0.344  1.00  0.00     0.223 C 
ATOM      7  O   UNL     1       5.915  -2.779   0.737  1.00  0.00    -0.275 OA
ATOM      8  H   UNL     1       5.472  -4.669  -0.610  1.00  0.00     0.163 HD
BRANCH   6   9
ATOM      9  C   UNL     1       4.764  -1.381  -0.830  1.00  0.00     0.082 C 
ATOM     10  C   UNL     1       2.638  -0.168  -4.112  1.00  0.00     0.226 C 
ATOM     11  O   UNL     1       3.208  -0.808  -5.002  1.00  0.00    -0.275 OA
ATOM     12  N   UNL     1       3.231  -0.031  -2.868  1.00  0.00    -0.342 N 
ATOM     13  C   UNL     1       4.664   0.222  -2.793  1.00  0.00     0.120 C 
ATOM     14  C   UNL     1       2.571  -0.304  -1.605  1.00  0.00     0.120 C 
ATOM     15  C   UNL     1       5.429  -0.908  -2.127  1.00  0.00     0.035 C 
ATOM     16  C   UNL     1       3.232  -1.450  -0.856  1.00  0.00     0.035 C 
BRANCH  10  17
ATOM     17  C   UNL     1       1.463   0.767  -4.488  1.00  0.00     0.095 C 
ATOM     18  C   UNL     1       0.149   0.636  -3.704  1.00  0.00     0.095 C 
ATOM     19  C   UNL     1      -0.837   1.823  -3.752  1.00  0.00     0.041 C 
ATOM     20  C   UNL     1      -0.257   3.131  -4.167  1.00  0.00    -0.030 C 
ATOM     21  C   UNL     1       2.035   2.200  -4.488  1.00  0.00     0.041 C 
ATOM     22  C   UNL     1       1.025   3.301  -4.502  1.00  0.00    -0.030 C 
BRANCH  18  23
ATOM     23  C   UNL     1      -0.618  -0.655  -4.008  1.00  0.00     0.226 C 
ATOM     24  C   UNL     1      -2.333  -1.854  -5.254  1.00  0.00     0.146 C 
ATOM     25  N   UNL     1      -1.365  -0.771  -5.174  1.00  0.00    -0.349 N 
ATOM     26  C   UNL     1      -1.112  -0.067  -6.426  1.00  0.00     0.146 C 
ATOM     27  O   UNL     1      -0.613  -1.548  -3.152  1.00  0.00    -0.275 OA
ENDBRANCH  18  23
ENDBRANCH  10  17
ENDBRANCH   6   9
ENDBRANCH   4   5
ENDBRANCH   3   4
ENDBRANCH   2   3
ENDBRANCH   1   2
BRANCH   1  28
ATOM     28  C   UNL     1       4.103  -7.119  -4.266  1.00  0.00     0.021 C 
BRANCH  28  29
ATOM     29  C   UNL     1       4.886  -7.386  -5.546  1.00  0.00     0.116 C 
BRANCH  29  30
ATOM     30  N   UNL     1       5.554  -8.678  -5.511  1.00  0.00    -0.352 N 
ATOM     31  C   UNL     1       5.464  -9.725  -6.396  1.00  0.00     0.251 C 
ATOM     32  H   UNL     1       6.155  -8.822  -4.745  1.00  0.00     0.163 HD
ATOM     33  O   UNL     1       5.918 -10.821  -6.095  1.00  0.00    -0.269 OA
BRANCH  31  34
ATOM     34  C   UNL     1       4.795  -9.518  -7.699  1.00  0.00     0.039 A 
ATOM     35  C   UNL     1       3.882 -10.473  -8.150  1.00  0.00     0.014 A 
ATOM     36  C   UNL     1       5.062  -8.380  -8.464  1.00  0.00     0.014 A 
ATOM     37  C   UNL     1       3.187 -10.253  -9.341  1.00  0.00     0.010 A 
ATOM     38  C   UNL     1       4.313  -8.126  -9.610  1.00  0.00     0.010 A 
ATOM     39  C   UNL     1       3.367  -9.060 -10.060  1.00  0.00    -0.014 A 
BRANCH  39  40
ATOM     40  C   UNL     1       2.572  -8.768 -11.282  1.00  0.00     0.031 A 
ATOM     41  C   UNL     1       3.260  -8.610 -12.610  1.00  0.00     0.074 A 
ATOM     42  C   UNL     1       1.240  -8.586 -11.182  1.00  0.00     0.049 A 
ATOM     43  N   UNL     1       2.755  -8.277 -13.770  1.00  0.00    -0.248 NA
ATOM     44  C   UNL     1       4.715  -8.828 -12.629  1.00  0.00     0.031 C 
ATOM     45  C   UNL     1       0.466  -8.683  -9.942  1.00  0.00     0.029 A 
ATOM     46  N   UNL     1       0.301  -8.274 -12.133  1.00  0.00    -0.354 N 
ATOM     47  C   UNL     1       3.827  -8.237 -14.654  1.00  0.00     0.074 A 
ATOM     48  C   UNL     1       5.018  -8.517 -13.880  1.00  0.00     0.031 C 
ATOM     49  C   UNL     1      -0.830  -8.462 -10.214  1.00  0.00     0.029 A 
ATOM     50  C   UNL     1      -0.975  -8.152 -11.633  1.00  0.00     0.049 A 
ATOM     51  H   UNL     1       0.520  -8.150 -13.085  1.00  0.00     0.167 HD
ATOM     52  C   UNL     1       3.816  -8.009 -15.991  1.00  0.00     0.034 A 
ATOM     53  C   UNL     1      -2.128  -7.809 -12.242  1.00  0.00     0.034 A 
ATOM     54  C   UNL     1       2.617  -7.734 -16.745  1.00  0.00     0.049 A 
ATOM     55  C   UNL     1      -2.108  -7.509 -13.720  1.00  0.00     0.074 A 
ATOM     56  C   UNL     1       2.484  -7.539 -18.109  1.00  0.00     0.029 A 
ATOM     57  N   UNL     1       1.345  -7.600 -16.202  1.00  0.00    -0.354 N 
ATOM     58  N   UNL     1      -1.091  -7.524 -14.552  1.00  0.00    -0.248 NA
ATOM     59  C   UNL     1      -3.389  -7.153 -14.343  1.00  0.00     0.031 C 
ATOM     60  C   UNL     1       1.153  -7.207 -18.378  1.00  0.00     0.029 A 
ATOM     61  C   UNL     1       0.432  -7.285 -17.197  1.00  0.00     0.049 A 
ATOM     62  H   UNL     1       1.124  -7.713 -15.249  1.00  0.00     0.167 HD
ATOM     63  C   UNL     1      -1.620  -7.212 -15.802  1.00  0.00     0.074 A 
ATOM     64  C   UNL     1      -3.044  -7.029 -15.616  1.00  0.00     0.031 C 
ATOM     65  C   UNL     1      -0.986  -7.093 -16.997  1.00  0.00     0.034 A 
BRANCH  52  66
ATOM     66  C   UNL     1       5.144  -8.018 -16.712  1.00  0.00     0.023 A 
ATOM     67  C   UNL     1       5.952  -9.168 -16.761  1.00  0.00     0.031 A 
ATOM     68  C   UNL     1       5.619  -6.855 -17.344  1.00  0.00     0.131 A 
ATOM     69  C   UNL     1       7.219  -9.109 -17.360  1.00  0.00     0.055 A 
ATOM     70  C   UNL     1       6.844  -6.828 -18.014  1.00  0.00     0.041 A 
ATOM     71  F   UNL     1       4.905  -5.719 -17.313  1.00  0.00    -0.206 F 
ATOM     72  C   UNL     1       7.659  -7.956 -18.011  1.00  0.00     0.022 A 
BRANCH  69  73
ATOM     73  S   UNL     1       8.344 -10.516 -17.142  1.00  0.00     0.124 S 
ATOM     74  O   UNL     1       8.437 -10.597 -15.687  1.00  0.00    -0.237 OA
ATOM     75  O   UNL     1       7.624 -11.600 -17.799  1.00  0.00    -0.237 OA
ATOM     76  O   UNL     1       9.568 -10.082 -17.814  1.00  0.00    -0.744 OA
ENDBRANCH  69  73
ENDBRANCH  52  66
BRANCH  53  77
ATOM     77  C   UNL     1      -3.396  -7.707 -11.461  1.00  0.00     0.023 A 
ATOM     78  C   UNL     1      -4.489  -8.542 -11.743  1.00  0.00     0.031 A 
ATOM     79  C   UNL     1      -3.551  -6.739 -10.452  1.00  0.00     0.131 A 
ATOM     80  C   UNL     1      -5.703  -8.361 -11.061  1.00  0.00     0.055 A 
ATOM     81  C   UNL     1      -4.740  -6.605  -9.733  1.00  0.00     0.041 A 
ATOM     82  F   UNL     1      -2.540  -5.912 -10.141  1.00  0.00    -0.206 F 
ATOM     83  C   UNL     1      -5.831  -7.409 -10.047  1.00  0.00     0.022 A 
BRANCH  80  84
ATOM     84  S   UNL     1      -7.148  -9.319 -11.593  1.00  0.00     0.124 S 
ATOM     85  O   UNL     1      -7.254  -8.939 -12.997  1.00  0.00    -0.237 OA
ATOM     86  O   UNL     1      -6.718 -10.688 -11.328  1.00  0.00    -0.237 OA
ATOM     87  O   UNL     1      -8.219  -8.825 -10.730  1.00  0.00    -0.744 OA
ENDBRANCH  80  84
ENDBRANCH  53  77
BRANCH  65  88
ATOM     88  C   UNL     1      -1.841  -6.792 -18.205  1.00  0.00     0.023 A 
ATOM     89  C   UNL     1      -2.523  -5.571 -18.348  1.00  0.00     0.031 A 
ATOM     90  C   UNL     1      -1.973  -7.746 -19.230  1.00  0.00     0.131 A 
ATOM     91  C   UNL     1      -3.347  -5.357 -19.463  1.00  0.00     0.055 A 
ATOM     92  C   UNL     1      -2.741  -7.501 -20.369  1.00  0.00     0.041 A 
ATOM     93  F   UNL     1      -1.349  -8.932 -19.146  1.00  0.00    -0.206 F 
ATOM     94  C   UNL     1      -3.444  -6.306 -20.484  1.00  0.00     0.022 A 
BRANCH  91  95
ATOM     95  S   UNL     1      -4.367  -3.858 -19.518  1.00  0.00     0.124 S 
ATOM     96  O   UNL     1      -5.168  -3.992 -18.306  1.00  0.00    -0.237 OA
ATOM     97  O   UNL     1      -3.365  -2.797 -19.505  1.00  0.00    -0.237 OA
ATOM     98  O   UNL     1      -5.109  -3.993 -20.770  1.00  0.00    -0.744 OA
ENDBRANCH  91  95
ENDBRANCH  65  88
ENDBRANCH  39  40
ENDBRANCH  31  34
ENDBRANCH  29  30
ENDBRANCH  28  29
ENDBRANCH   1  28
TORSDOF 18
