REMARK SMILES CC(C)(CNC(=O)NCc1cccs1)C(=O)NCCCCCCNC(=O)c1ccc(-c2c3nc(c(-c4cc(S(=O)(=O)[O-])ccc4F)c4ccc([nH]4)c(-c4cc(S(=O)(=O)[O-])ccc4F)c4nc(c(-c5cc(S(=O)(=O)[O-])ccc5F)c5ccc2[nH]5)C=C4)C=C3)cc1
REMARK SMILES IDX 20 1 19 2 18 3 17 4 15 5 16 6 2 8 1 9 3 10 4 11 5 12 6 13
REMARK SMILES IDX 7 15 8 16 9 18 10 19 11 20 14 21 12 22 13 23 21 24 22 25
REMARK SMILES IDX 23 26 24 27 25 28 26 30 27 31 28 32 89 33 29 34 88 35 30 36
REMARK SMILES IDX 31 37 32 38 82 39 33 40 87 41 81 42 83 43 34 44 86 45 80 46
REMARK SMILES IDX 79 47 35 49 67 50 47 51 66 52 48 53 51 54 65 55 84 56 49 57
REMARK SMILES IDX 50 58 64 60 85 61 52 62 36 63 37 64 45 65 38 66 44 67 46 68
REMARK SMILES IDX 43 69 39 70 40 71 41 72 42 73 68 74 69 75 77 76 70 77 76 78
REMARK SMILES IDX 78 79 75 80 71 81 72 82 73 83 74 84 53 85 54 86 62 87 55 88
REMARK SMILES IDX 61 89 63 90 60 91 56 92 57 93 58 94 59 95
REMARK H PARENT 17 7 5 14 8 17 24 29 83 48 51 59
REMARK Flexibility Score: inf
ROOT
ATOM      1  C   UNL     1      -0.321   6.493   1.631  1.00  0.00     0.002 C 
ENDROOT
BRANCH   1   2
ATOM      2  C   UNL     1      -0.777   5.234   0.890  1.00  0.00     0.021 C 
BRANCH   2   3
ATOM      3  C   UNL     1       0.322   4.511   0.111  1.00  0.00     0.116 C 
BRANCH   3   4
ATOM      4  N   UNL     1       1.122   3.661   0.973  1.00  0.00    -0.356 N 
ATOM      5  C   UNL     1       1.391   2.328   0.978  1.00  0.00     0.227 C 
ATOM      6  O   UNL     1       2.122   1.933   1.894  1.00  0.00    -0.274 OA
ATOM      7  H   UNL     1       1.561   4.151   1.706  1.00  0.00     0.163 HD
BRANCH   5   8
ATOM      8  C   UNL     1       0.860   1.340  -0.082  1.00  0.00     0.061 C 
ATOM      9  C   UNL     1       1.387  -0.077   0.245  1.00  0.00     0.023 C 
ATOM     10  C   UNL     1       1.417   1.704  -1.473  1.00  0.00     0.023 C 
BRANCH   8  11
ATOM     11  C   UNL     1      -0.679   1.278  -0.133  1.00  0.00     0.134 C 
BRANCH  11  12
ATOM     12  N   UNL     1      -1.349   1.271   1.160  1.00  0.00    -0.337 N 
ATOM     13  C   UNL     1      -2.475   1.837   1.636  1.00  0.00     0.315 C 
ATOM     14  H   UNL     1      -0.874   0.734   1.835  1.00  0.00     0.165 HD
ATOM     15  O   UNL     1      -2.750   1.669   2.825  1.00  0.00    -0.249 OA
ATOM     16  N   UNL     1      -3.306   2.571   0.875  1.00  0.00    -0.333 N 
ATOM     17  H   UNL     1      -4.064   2.980   1.353  1.00  0.00     0.165 HD
BRANCH  16  18
ATOM     18  C   UNL     1      -3.250   2.846  -0.532  1.00  0.00     0.164 C 
BRANCH  18  19
ATOM     19  C   UNL     1      -4.470   3.498  -1.074  1.00  0.00     0.024 A 
ATOM     20  C   UNL     1      -5.514   2.894  -1.745  1.00  0.00     0.017 A 
ATOM     21  S   UNL     1      -4.605   5.207  -1.104  1.00  0.00    -0.147 S 
ATOM     22  C   UNL     1      -6.342   3.843  -2.409  1.00  0.00     0.012 A 
ATOM     23  C   UNL     1      -5.946   5.138  -2.161  1.00  0.00     0.065 A 
ENDBRANCH  18  19
ENDBRANCH  16  18
ENDBRANCH  11  12
ENDBRANCH   8  11
ENDBRANCH   5   8
ENDBRANCH   3   4
ENDBRANCH   2   3
ENDBRANCH   1   2
BRANCH   1  24
ATOM     24  C   UNL     1       0.173   7.639   0.740  1.00  0.00     0.002 C 
BRANCH  24  25
ATOM     25  C   UNL     1      -0.772   8.068  -0.388  1.00  0.00     0.021 C 
BRANCH  25  26
ATOM     26  C   UNL     1      -2.187   8.444   0.049  1.00  0.00     0.116 C 
BRANCH  26  27
ATOM     27  N   UNL     1      -2.199   9.569   0.969  1.00  0.00    -0.352 N 
ATOM     28  C   UNL     1      -2.729  10.825   0.819  1.00  0.00     0.251 C 
ATOM     29  H   UNL     1      -1.758   9.405   1.833  1.00  0.00     0.163 HD
ATOM     30  O   UNL     1      -2.448  11.701   1.641  1.00  0.00    -0.269 OA
BRANCH  28  31
ATOM     31  C   UNL     1      -3.610  11.143  -0.326  1.00  0.00     0.039 A 
ATOM     32  C   UNL     1      -3.422  12.351  -1.006  1.00  0.00     0.014 A 
ATOM     33  C   UNL     1      -4.635  10.277  -0.716  1.00  0.00     0.014 A 
ATOM     34  C   UNL     1      -4.215  12.656  -2.115  1.00  0.00     0.010 A 
ATOM     35  C   UNL     1      -5.380  10.552  -1.863  1.00  0.00     0.010 A 
ATOM     36  C   UNL     1      -5.177  11.743  -2.577  1.00  0.00    -0.014 A 
BRANCH  36  37
ATOM     37  C   UNL     1      -5.969  12.017  -3.807  1.00  0.00     0.031 A 
ATOM     38  C   UNL     1      -7.462  12.184  -3.727  1.00  0.00     0.074 A 
ATOM     39  C   UNL     1      -5.349  12.059  -5.003  1.00  0.00     0.049 A 
ATOM     40  N   UNL     1      -8.330  12.350  -4.693  1.00  0.00    -0.248 NA
ATOM     41  C   UNL     1      -8.060  12.132  -2.385  1.00  0.00     0.031 C 
ATOM     42  C   UNL     1      -3.910  11.884  -5.213  1.00  0.00     0.029 A 
ATOM     43  N   UNL     1      -5.846  12.252  -6.268  1.00  0.00    -0.354 N 
ATOM     44  C   UNL     1      -9.576  12.414  -4.078  1.00  0.00     0.074 A 
ATOM     45  C   UNL     1      -9.353  12.208  -2.662  1.00  0.00     0.031 C 
ATOM     46  C   UNL     1      -3.639  12.001  -6.523  1.00  0.00     0.029 A 
ATOM     47  C   UNL     1      -4.886  12.206  -7.254  1.00  0.00     0.049 A 
ATOM     48  H   UNL     1      -6.800  12.410  -6.454  1.00  0.00     0.167 HD
ATOM     49  C   UNL     1     -10.790  12.644  -4.640  1.00  0.00     0.034 A 
ATOM     50  C   UNL     1      -4.997  12.299  -8.594  1.00  0.00     0.034 A 
ATOM     51  C   UNL     1     -10.994  12.854  -6.054  1.00  0.00     0.049 A 
ATOM     52  C   UNL     1      -6.362  12.509  -9.200  1.00  0.00     0.074 A 
ATOM     53  C   UNL     1     -12.172  13.144  -6.721  1.00  0.00     0.029 A 
ATOM     54  N   UNL     1     -10.000  12.786  -7.022  1.00  0.00    -0.354 N 
ATOM     55  N   UNL     1      -7.525  12.611  -8.600  1.00  0.00    -0.248 NA
ATOM     56  C   UNL     1      -6.428  12.624 -10.663  1.00  0.00     0.031 C 
ATOM     57  C   UNL     1     -11.905  13.174  -8.094  1.00  0.00     0.029 A 
ATOM     58  C   UNL     1     -10.545  12.989  -8.282  1.00  0.00     0.049 A 
ATOM     59  H   UNL     1      -9.047  12.617  -6.841  1.00  0.00     0.167 HD
ATOM     60  C   UNL     1      -8.456  12.836  -9.611  1.00  0.00     0.074 A 
ATOM     61  C   UNL     1      -7.715  12.868 -10.856  1.00  0.00     0.031 C 
ATOM     62  C   UNL     1      -9.799  13.007  -9.519  1.00  0.00     0.034 A 
BRANCH  49  63
ATOM     63  C   UNL     1     -11.992  12.650  -3.724  1.00  0.00     0.023 A 
ATOM     64  C   UNL     1     -12.130  13.592  -2.689  1.00  0.00     0.031 A 
ATOM     65  C   UNL     1     -13.008  11.689  -3.876  1.00  0.00     0.131 A 
ATOM     66  C   UNL     1     -13.212  13.505  -1.801  1.00  0.00     0.055 A 
ATOM     67  C   UNL     1     -14.127  11.661  -3.041  1.00  0.00     0.041 A 
ATOM     68  F   UNL     1     -12.925  10.750  -4.832  1.00  0.00    -0.206 F 
ATOM     69  C   UNL     1     -14.226  12.563  -1.986  1.00  0.00     0.022 A 
BRANCH  66  70
ATOM     70  S   UNL     1     -13.197  14.544  -0.315  1.00  0.00     0.124 S 
ATOM     71  O   UNL     1     -11.946  14.135   0.318  1.00  0.00    -0.237 OA
ATOM     72  O   UNL     1     -13.221  15.892  -0.872  1.00  0.00    -0.237 OA
ATOM     73  O   UNL     1     -14.408  14.141   0.398  1.00  0.00    -0.744 OA
ENDBRANCH  66  70
ENDBRANCH  49  63
BRANCH  50  74
ATOM     74  C   UNL     1      -3.790  12.175  -9.463  1.00  0.00     0.023 A 
ATOM     75  C   UNL     1      -3.363  13.245 -10.267  1.00  0.00     0.031 A 
ATOM     76  C   UNL     1      -3.071  10.968  -9.538  1.00  0.00     0.131 A 
ATOM     77  C   UNL     1      -2.282  13.072 -11.146  1.00  0.00     0.055 A 
ATOM     78  C   UNL     1      -1.960  10.820 -10.370  1.00  0.00     0.041 A 
ATOM     79  F   UNL     1      -3.434   9.914  -8.790  1.00  0.00    -0.206 F 
ATOM     80  C   UNL     1      -1.569  11.873 -11.191  1.00  0.00     0.022 A 
BRANCH  77  81
ATOM     81  S   UNL     1      -1.880  14.412 -12.300  1.00  0.00     0.124 S 
ATOM     82  O   UNL     1      -3.137  14.568 -13.023  1.00  0.00    -0.237 OA
ATOM     83  O   UNL     1      -1.522  15.496 -11.392  1.00  0.00    -0.237 OA
ATOM     84  O   UNL     1      -0.773  13.865 -13.082  1.00  0.00    -0.744 OA
ENDBRANCH  77  81
ENDBRANCH  50  74
BRANCH  62  85
ATOM     85  C   UNL     1     -10.547  13.289 -10.800  1.00  0.00     0.023 A 
ATOM     86  C   UNL     1     -10.655  12.332 -11.824  1.00  0.00     0.031 A 
ATOM     87  C   UNL     1     -11.156  14.541 -11.001  1.00  0.00     0.131 A 
ATOM     88  C   UNL     1     -11.308  12.659 -13.022  1.00  0.00     0.055 A 
ATOM     89  C   UNL     1     -11.859  14.839 -12.168  1.00  0.00     0.041 A 
ATOM     90  F   UNL     1     -11.082  15.496 -10.059  1.00  0.00    -0.206 F 
ATOM     91  C   UNL     1     -11.927  13.900 -13.193  1.00  0.00     0.022 A 
BRANCH  88  92
ATOM     92  S   UNL     1     -11.259  11.473 -14.394  1.00  0.00     0.124 S 
ATOM     93  O   UNL     1      -9.825  11.324 -14.614  1.00  0.00    -0.237 OA
ATOM     94  O   UNL     1     -11.941  10.314 -13.829  1.00  0.00    -0.237 OA
ATOM     95  O   UNL     1     -11.984  12.156 -15.464  1.00  0.00    -0.744 OA
ENDBRANCH  88  92
ENDBRANCH  62  85
ENDBRANCH  36  37
ENDBRANCH  28  31
ENDBRANCH  26  27
ENDBRANCH  25  26
ENDBRANCH  24  25
ENDBRANCH   1  24
TORSDOF 20
