REMARK SMILES Cc1cccc([C@@H](CC(=O)NCCCCCCNC(=O)c2ccc(-c3c4nc(c(-c5cc(S(=O)(=O)[O-])ccc5F)c5ccc([nH]5)c(-c5cc(S(=O)(=O)[O-])ccc5F)c5nc(c(-c6cc(S(=O)(=O)[O-])ccc6F)c6ccc3[nH]6)C=C5)C=C4)cc2)NC(=O)OC(C)(C)C)c1
REMARK SMILES IDX 14 1 13 2 12 3 11 4 9 5 10 6 8 8 7 9 6 10 1 11 2 12 3 13
REMARK SMILES IDX 92 14 4 15 5 16 84 17 85 18 86 20 87 21 88 22 89 23 90 24
REMARK SMILES IDX 91 25 15 26 16 27 17 28 18 29 19 30 20 32 21 33 22 34 83 35
REMARK SMILES IDX 23 36 82 37 24 38 25 39 26 40 76 41 27 42 81 43 75 44 77 45
REMARK SMILES IDX 28 46 80 47 74 48 73 49 29 51 61 52 41 53 60 54 42 55 45 56
REMARK SMILES IDX 59 57 78 58 43 59 44 60 58 62 79 63 46 64 30 65 31 66 39 67
REMARK SMILES IDX 32 68 38 69 40 70 37 71 33 72 34 73 35 74 36 75 62 76 63 77
REMARK SMILES IDX 71 78 64 79 70 80 72 81 69 82 65 83 66 84 67 85 68 86 47 87
REMARK SMILES IDX 48 88 56 89 49 90 55 91 57 92 54 93 50 94 51 95 52 96 53 97
REMARK H PARENT 11 7 84 19 18 31 77 50 45 61
REMARK Flexibility Score: inf
ROOT
ATOM      1  C   UNL     1      -3.098  -2.845  -0.925  1.00  0.00     0.002 C 
ENDROOT
BRANCH   1   2
ATOM      2  C   UNL     1      -2.439  -1.486  -0.698  1.00  0.00     0.021 C 
BRANCH   2   3
ATOM      3  C   UNL     1      -2.529  -0.493  -1.854  1.00  0.00     0.116 C 
BRANCH   3   4
ATOM      4  N   UNL     1      -3.654   0.399  -1.665  1.00  0.00    -0.356 N 
ATOM      5  C   UNL     1      -3.664   1.689  -1.237  1.00  0.00     0.222 C 
ATOM      6  O   UNL     1      -4.750   2.193  -0.939  1.00  0.00    -0.275 OA
ATOM      7  H   UNL     1      -4.536   0.017  -1.876  1.00  0.00     0.163 HD
BRANCH   5   8
ATOM      8  C   UNL     1      -2.390   2.508  -1.181  1.00  0.00     0.130 C 
BRANCH   8   9
ATOM      9  C   UNL     1      -1.725   2.631   0.202  1.00  0.00     0.125 C 
BRANCH   9  10
ATOM     10  C   UNL     1      -0.763   1.502   0.556  1.00  0.00    -0.025 A 
ATOM     11  C   UNL     1       2.815   0.431  -0.304  1.00  0.00     0.044 C 
ATOM     12  C   UNL     1       1.435   0.442   0.285  1.00  0.00    -0.051 A 
ATOM     13  C   UNL     1       1.036  -0.594   1.135  1.00  0.00     0.003 A 
ATOM     14  C   UNL     1       0.524   1.468  -0.019  1.00  0.00     0.009 A 
ATOM     15  C   UNL     1      -0.217  -0.559   1.737  1.00  0.00     0.001 A 
ATOM     16  C   UNL     1      -1.100   0.489   1.465  1.00  0.00     0.006 A 
ENDBRANCH   9  10
BRANCH   9  17
ATOM     17  N   UNL     1      -2.695   2.882   1.256  1.00  0.00    -0.314 N 
ATOM     18  C   UNL     1      -2.608   3.805   2.246  1.00  0.00     0.408 C 
ATOM     19  H   UNL     1      -3.503   2.320   1.251  1.00  0.00     0.167 HD
ATOM     20  O   UNL     1      -3.433   3.833   3.157  1.00  0.00    -0.225 OA
BRANCH  18  21
ATOM     21  O   UNL     1      -1.576   4.661   2.087  1.00  0.00    -0.444 OA
BRANCH  21  22
ATOM     22  C   UNL     1      -1.347   5.722   3.045  1.00  0.00     0.106 C 
ATOM     23  C   UNL     1      -2.558   6.659   3.154  1.00  0.00     0.056 C 
ATOM     24  C   UNL     1      -0.935   5.146   4.403  1.00  0.00     0.056 C 
ATOM     25  C   UNL     1      -0.170   6.524   2.470  1.00  0.00     0.056 C 
ENDBRANCH  21  22
ENDBRANCH  18  21
ENDBRANCH   9  17
ENDBRANCH   8   9
ENDBRANCH   5   8
ENDBRANCH   3   4
ENDBRANCH   2   3
ENDBRANCH   1   2
BRANCH   1  26
ATOM     26  C   UNL     1      -2.552  -3.651  -2.107  1.00  0.00     0.002 C 
BRANCH  26  27
ATOM     27  C   UNL     1      -1.034  -3.720  -2.210  1.00  0.00     0.021 C 
BRANCH  27  28
ATOM     28  C   UNL     1      -0.357  -4.454  -1.068  1.00  0.00     0.116 C 
BRANCH  28  29
ATOM     29  N   UNL     1      -0.443  -5.899  -1.200  1.00  0.00    -0.352 N 
ATOM     30  C   UNL     1       0.450  -6.875  -0.806  1.00  0.00     0.251 C 
ATOM     31  H   UNL     1      -1.260  -6.231  -1.637  1.00  0.00     0.163 HD
ATOM     32  O   UNL     1       0.455  -7.980  -1.342  1.00  0.00    -0.269 OA
BRANCH  30  33
ATOM     33  C   UNL     1       1.231  -6.675   0.441  1.00  0.00     0.039 A 
ATOM     34  C   UNL     1       1.244  -7.762   1.332  1.00  0.00     0.014 A 
ATOM     35  C   UNL     1       1.559  -5.404   0.889  1.00  0.00     0.014 A 
ATOM     36  C   UNL     1       1.275  -7.520   2.695  1.00  0.00     0.010 A 
ATOM     37  C   UNL     1       1.413  -5.139   2.218  1.00  0.00     0.010 A 
ATOM     38  C   UNL     1       1.207  -6.198   3.101  1.00  0.00    -0.014 A 
BRANCH  38  39
ATOM     39  C   UNL     1       1.086  -5.754   4.464  1.00  0.00     0.031 A 
ATOM     40  C   UNL     1       2.355  -5.495   5.152  1.00  0.00     0.074 A 
ATOM     41  C   UNL     1      -0.137  -5.333   4.851  1.00  0.00     0.049 A 
ATOM     42  N   UNL     1       2.468  -5.231   6.396  1.00  0.00    -0.248 NA
ATOM     43  C   UNL     1       3.652  -5.563   4.465  1.00  0.00     0.031 C 
ATOM     44  C   UNL     1      -0.509  -4.460   5.954  1.00  0.00     0.029 A 
ATOM     45  N   UNL     1      -1.351  -5.866   4.416  1.00  0.00    -0.354 N 
ATOM     46  C   UNL     1       3.740  -4.737   6.585  1.00  0.00     0.074 A 
ATOM     47  C   UNL     1       4.477  -5.125   5.417  1.00  0.00     0.031 C 
ATOM     48  C   UNL     1      -1.778  -4.734   6.313  1.00  0.00     0.029 A 
ATOM     49  C   UNL     1      -2.188  -5.903   5.548  1.00  0.00     0.049 A 
ATOM     50  H   UNL     1      -1.576  -6.157   3.502  1.00  0.00     0.167 HD
ATOM     51  C   UNL     1       3.932  -3.896   7.636  1.00  0.00     0.034 A 
ATOM     52  C   UNL     1      -2.502  -7.120   6.092  1.00  0.00     0.034 A 
ATOM     53  C   UNL     1       2.747  -3.924   8.495  1.00  0.00     0.049 A 
ATOM     54  C   UNL     1      -1.890  -7.274   7.470  1.00  0.00     0.074 A 
ATOM     55  C   UNL     1       1.663  -3.074   8.627  1.00  0.00     0.029 A 
ATOM     56  N   UNL     1       2.373  -5.136   9.065  1.00  0.00    -0.354 N 
ATOM     57  N   UNL     1      -0.789  -6.682   7.860  1.00  0.00    -0.248 NA
ATOM     58  C   UNL     1      -2.542  -8.015   8.542  1.00  0.00     0.031 C 
ATOM     59  C   UNL     1       0.582  -3.844   9.149  1.00  0.00     0.029 A 
ATOM     60  C   UNL     1       1.028  -5.138   9.373  1.00  0.00     0.049 A 
ATOM     61  H   UNL     1       2.985  -5.891   9.226  1.00  0.00     0.167 HD
ATOM     62  C   UNL     1      -0.614  -6.889   9.206  1.00  0.00     0.074 A 
ATOM     63  C   UNL     1      -1.735  -7.738   9.580  1.00  0.00     0.031 C 
ATOM     64  C   UNL     1       0.407  -6.331   9.931  1.00  0.00     0.034 A 
BRANCH  51  65
ATOM     65  C   UNL     1       5.034  -2.874   7.782  1.00  0.00     0.023 A 
ATOM     66  C   UNL     1       4.963  -1.998   8.885  1.00  0.00     0.031 A 
ATOM     67  C   UNL     1       6.082  -2.608   6.873  1.00  0.00     0.131 A 
ATOM     68  C   UNL     1       5.861  -0.927   9.038  1.00  0.00     0.055 A 
ATOM     69  C   UNL     1       7.000  -1.563   7.046  1.00  0.00     0.041 A 
ATOM     70  F   UNL     1       6.264  -3.304   5.748  1.00  0.00    -0.206 F 
ATOM     71  C   UNL     1       6.889  -0.709   8.129  1.00  0.00     0.022 A 
BRANCH  68  72
ATOM     72  S   UNL     1       5.628   0.213  10.425  1.00  0.00     0.124 S 
ATOM     73  O   UNL     1       4.322   0.793  10.127  1.00  0.00    -0.237 OA
ATOM     74  O   UNL     1       5.694  -0.681  11.575  1.00  0.00    -0.237 OA
ATOM     75  O   UNL     1       6.755   1.136  10.295  1.00  0.00    -0.744 OA
ENDBRANCH  68  72
ENDBRANCH  51  65
BRANCH  52  76
ATOM     76  C   UNL     1      -2.635  -8.177   5.029  1.00  0.00     0.023 A 
ATOM     77  C   UNL     1      -3.556  -7.886   3.992  1.00  0.00     0.031 A 
ATOM     78  C   UNL     1      -1.589  -9.063   4.735  1.00  0.00     0.131 A 
ATOM     79  C   UNL     1      -3.250  -8.226   2.664  1.00  0.00     0.055 A 
ATOM     80  C   UNL     1      -1.364  -9.506   3.421  1.00  0.00     0.041 A 
ATOM     81  F   UNL     1      -0.683  -9.388   5.669  1.00  0.00    -0.206 F 
ATOM     82  C   UNL     1      -2.148  -9.026   2.368  1.00  0.00     0.022 A 
BRANCH  79  83
ATOM     83  S   UNL     1      -4.106  -7.310   1.340  1.00  0.00     0.124 S 
ATOM     84  O   UNL     1      -5.415  -7.954   1.322  1.00  0.00    -0.237 OA
ATOM     85  O   UNL     1      -4.078  -5.937   1.844  1.00  0.00    -0.237 OA
ATOM     86  O   UNL     1      -3.279  -7.527   0.155  1.00  0.00    -0.744 OA
ENDBRANCH  79  83
ENDBRANCH  52  76
BRANCH  64  87
ATOM     87  C   UNL     1       0.856  -6.813  11.295  1.00  0.00     0.023 A 
ATOM     88  C   UNL     1       0.439  -8.034  11.835  1.00  0.00     0.031 A 
ATOM     89  C   UNL     1       1.807  -6.100  12.069  1.00  0.00     0.131 A 
ATOM     90  C   UNL     1       0.833  -8.437  13.118  1.00  0.00     0.055 A 
ATOM     91  C   UNL     1       2.294  -6.563  13.293  1.00  0.00     0.041 A 
ATOM     92  F   UNL     1       2.320  -4.928  11.668  1.00  0.00    -0.206 F 
ATOM     93  C   UNL     1       1.784  -7.727  13.843  1.00  0.00     0.022 A 
BRANCH  90  94
ATOM     94  S   UNL     1      -0.026  -9.850  13.850  1.00  0.00     0.124 S 
ATOM     95  O   UNL     1      -1.403  -9.365  13.897  1.00  0.00    -0.237 OA
ATOM     96  O   UNL     1       0.236 -10.912  12.884  1.00  0.00    -0.237 OA
ATOM     97  O   UNL     1       0.622 -10.011  15.149  1.00  0.00    -0.744 OA
ENDBRANCH  90  94
ENDBRANCH  64  87
ENDBRANCH  38  39
ENDBRANCH  30  33
ENDBRANCH  28  29
ENDBRANCH  27  28
ENDBRANCH  26  27
ENDBRANCH   1  26
TORSDOF 21
