REMARK SMILES CC[NH2+][C@]1(C(=O)NCCCCCCNC(=O)c2ccc(-c3c4nc(c(-c5cc(S(=O)(=O)[O-])ccc5F)c5ccc([nH]5)c(-c5cc(S(=O)(=O)[O-])ccc5F)c5nc(c(-c6cc(S(=O)(=O)[O-])ccc6F)c6ccc3[nH]6)C=C5)C=C4)cc2)CCC[C@@H]([N@@H+](C)CC2CCCC2)C1
REMARK SMILES IDX 10 1 9 2 8 3 7 4 5 5 6 6 4 8 80 9 92 10 81 11 83 12 82 13
REMARK SMILES IDX 3 14 2 17 1 18 84 19 85 20 86 22 87 23 88 24 91 25 89 26
REMARK SMILES IDX 90 27 11 28 12 29 13 30 14 31 15 32 16 34 17 35 18 36 79 37
REMARK SMILES IDX 19 38 78 39 20 40 21 41 22 42 72 43 23 44 77 45 71 46 73 47
REMARK SMILES IDX 24 48 76 49 70 50 69 51 25 53 57 54 37 55 56 56 38 57 41 58
REMARK SMILES IDX 55 59 74 60 39 61 40 62 54 64 75 65 42 66 26 67 27 68 35 69
REMARK SMILES IDX 28 70 34 71 36 72 33 73 29 74 30 75 31 76 32 77 58 78 59 79
REMARK SMILES IDX 67 80 60 81 66 82 68 83 65 84 61 85 62 86 63 87 64 88 43 89
REMARK SMILES IDX 44 90 52 91 45 92 51 93 53 94 50 95 46 96 47 97 48 98 49 99
REMARK H PARENT 7 7 3 15 3 16 84 21 14 33 73 52 41 63
REMARK Flexibility Score: inf
ROOT
ATOM      1  C   UNL     1       4.949   1.722   1.428  1.00  0.00     0.002 C 
ENDROOT
BRANCH   1   2
ATOM      2  C   UNL     1       4.194   1.229   2.669  1.00  0.00     0.021 C 
BRANCH   2   3
ATOM      3  C   UNL     1       2.855   1.943   2.878  1.00  0.00     0.116 C 
BRANCH   3   4
ATOM      4  N   UNL     1       1.831   1.358   2.027  1.00  0.00    -0.351 N 
ATOM      5  C   UNL     1       0.914   0.368   2.177  1.00  0.00     0.281 C 
ATOM      6  O   UNL     1       0.531  -0.124   1.103  1.00  0.00    -0.268 OA
ATOM      7  H   UNL     1       1.794   1.776   1.136  1.00  0.00     0.163 HD
BRANCH   5   8
ATOM      8  C   UNL     1       0.267  -0.103   3.539  1.00  0.00     0.181 C 
ATOM      9  C   UNL     1       0.367  -1.649   3.606  1.00  0.00     0.079 C 
ATOM     10  C   UNL     1       0.968   0.448   4.792  1.00  0.00     0.144 C 
ATOM     11  C   UNL     1      -0.234  -2.221   4.890  1.00  0.00     0.013 C 
ATOM     12  C   UNL     1       0.554  -0.145   6.148  1.00  0.00     0.190 C 
ATOM     13  C   UNL     1       0.475  -1.676   6.124  1.00  0.00     0.065 C 
BRANCH   8  14
ATOM     14  N   UNL     1      -1.167   0.339   3.592  1.00  0.00    -0.334 N 
ATOM     15  H   UNL     1      -1.588  -0.058   4.432  1.00  0.00     0.347 HD
ATOM     16  H   UNL     1      -1.148   1.359   3.586  1.00  0.00     0.347 HD
BRANCH  14  17
ATOM     17  C   UNL     1      -1.989  -0.058   2.442  1.00  0.00     0.257 C 
ATOM     18  C   UNL     1      -3.465   0.001   2.805  1.00  0.00     0.071 C 
ENDBRANCH  14  17
ENDBRANCH   8  14
BRANCH  12  19
ATOM     19  N   UNL     1       1.376   0.410   7.238  1.00  0.00    -0.334 N 
ATOM     20  C   UNL     1       0.812   0.270   8.571  1.00  0.00     0.332 C 
ATOM     21  H   UNL     1       1.259   1.370   6.913  1.00  0.00     0.348 HD
BRANCH  19  22
ATOM     22  C   UNL     1       2.841   0.460   7.195  1.00  0.00     0.265 C 
BRANCH  22  23
ATOM     23  C   UNL     1       3.768  -0.778   7.133  1.00  0.00     0.044 C 
ATOM     24  C   UNL     1       3.404  -2.003   7.977  1.00  0.00     0.009 C 
ATOM     25  C   UNL     1       4.078  -1.314   5.735  1.00  0.00     0.009 C 
ATOM     26  C   UNL     1       3.857  -3.228   7.178  1.00  0.00     0.001 C 
ATOM     27  C   UNL     1       4.641  -2.703   5.984  1.00  0.00     0.001 C 
ENDBRANCH  22  23
ENDBRANCH  19  22
ENDBRANCH  12  19
ENDBRANCH   5   8
ENDBRANCH   3   4
ENDBRANCH   2   3
ENDBRANCH   1   2
BRANCH   1  28
ATOM     28  C   UNL     1       5.272   3.222   1.433  1.00  0.00     0.002 C 
BRANCH  28  29
ATOM     29  C   UNL     1       6.013   3.718   2.680  1.00  0.00     0.021 C 
BRANCH  29  30
ATOM     30  C   UNL     1       7.375   3.066   2.898  1.00  0.00     0.116 C 
BRANCH  30  31
ATOM     31  N   UNL     1       8.274   3.337   1.788  1.00  0.00    -0.352 N 
ATOM     32  C   UNL     1       9.494   3.957   1.790  1.00  0.00     0.251 C 
ATOM     33  H   UNL     1       7.959   3.029   0.907  1.00  0.00     0.163 HD
ATOM     34  O   UNL     1       9.976   4.348   0.725  1.00  0.00    -0.269 OA
BRANCH  32  35
ATOM     35  C   UNL     1      10.224   4.161   3.058  1.00  0.00     0.039 A 
ATOM     36  C   UNL     1      10.890   5.371   3.268  1.00  0.00     0.014 A 
ATOM     37  C   UNL     1      10.284   3.149   4.021  1.00  0.00     0.014 A 
ATOM     38  C   UNL     1      11.582   5.580   4.462  1.00  0.00     0.010 A 
ATOM     39  C   UNL     1      10.917   3.385   5.239  1.00  0.00     0.010 A 
ATOM     40  C   UNL     1      11.582   4.599   5.467  1.00  0.00    -0.014 A 
BRANCH  40  41
ATOM     41  C   UNL     1      12.283   4.830   6.756  1.00  0.00     0.031 A 
ATOM     42  C   UNL     1      13.472   3.988   7.133  1.00  0.00     0.074 A 
ATOM     43  C   UNL     1      11.819   5.770   7.602  1.00  0.00     0.049 A 
ATOM     44  N   UNL     1      14.194   4.017   8.224  1.00  0.00    -0.248 NA
ATOM     45  C   UNL     1      13.884   2.958   6.168  1.00  0.00     0.031 C 
ATOM     46  C   UNL     1      10.646   6.615   7.362  1.00  0.00     0.029 A 
ATOM     47  N   UNL     1      12.271   6.174   8.832  1.00  0.00    -0.354 N 
ATOM     48  C   UNL     1      15.139   3.007   8.081  1.00  0.00     0.074 A 
ATOM     49  C   UNL     1      14.855   2.344   6.826  1.00  0.00     0.031 C 
ATOM     50  C   UNL     1      10.490   7.454   8.398  1.00  0.00     0.029 A 
ATOM     51  C   UNL     1      11.523   7.183   9.392  1.00  0.00     0.049 A 
ATOM     52  H   UNL     1      13.058   5.779   9.273  1.00  0.00     0.167 HD
ATOM     53  C   UNL     1      16.163   2.679   8.909  1.00  0.00     0.034 A 
ATOM     54  C   UNL     1      11.652   7.814  10.576  1.00  0.00     0.034 A 
ATOM     55  C   UNL     1      16.436   3.360  10.153  1.00  0.00     0.049 A 
ATOM     56  C   UNL     1      12.792   7.427  11.482  1.00  0.00     0.074 A 
ATOM     57  C   UNL     1      17.475   3.149  11.042  1.00  0.00     0.029 A 
ATOM     58  N   UNL     1      15.658   4.380  10.689  1.00  0.00    -0.354 N 
ATOM     59  N   UNL     1      13.714   6.507  11.306  1.00  0.00    -0.248 NA
ATOM     60  C   UNL     1      12.918   8.175  12.739  1.00  0.00     0.031 C 
ATOM     61  C   UNL     1      17.289   3.992  12.144  1.00  0.00     0.029 A 
ATOM     62  C   UNL     1      16.177   4.785  11.910  1.00  0.00     0.049 A 
ATOM     63  H   UNL     1      14.855   4.759  10.264  1.00  0.00     0.167 HD
ATOM     64  C   UNL     1      14.545   6.586  12.420  1.00  0.00     0.074 A 
ATOM     65  C   UNL     1      14.027   7.659  13.246  1.00  0.00     0.031 C 
ATOM     66  C   UNL     1      15.637   5.843  12.733  1.00  0.00     0.034 A 
BRANCH  53  67
ATOM     67  C   UNL     1      17.041   1.518   8.503  1.00  0.00     0.023 A 
ATOM     68  C   UNL     1      17.806   1.546   7.322  1.00  0.00     0.031 A 
ATOM     69  C   UNL     1      17.095   0.354   9.290  1.00  0.00     0.131 A 
ATOM     70  C   UNL     1      18.526   0.409   6.924  1.00  0.00     0.055 A 
ATOM     71  C   UNL     1      17.880  -0.744   8.931  1.00  0.00     0.041 A 
ATOM     72  F   UNL     1      16.372   0.257  10.417  1.00  0.00    -0.206 F 
ATOM     73  C   UNL     1      18.589  -0.727   7.733  1.00  0.00     0.022 A 
BRANCH  70  74
ATOM     74  S   UNL     1      19.257   0.383   5.264  1.00  0.00     0.124 S 
ATOM     75  O   UNL     1      18.080   0.583   4.421  1.00  0.00    -0.237 OA
ATOM     76  O   UNL     1      20.201   1.494   5.317  1.00  0.00    -0.237 OA
ATOM     77  O   UNL     1      19.859  -0.945   5.175  1.00  0.00    -0.744 OA
ENDBRANCH  70  74
ENDBRANCH  53  67
BRANCH  54  78
ATOM     78  C   UNL     1      10.683   8.874  10.976  1.00  0.00     0.023 A 
ATOM     79  C   UNL     1      11.095  10.204  11.147  1.00  0.00     0.031 A 
ATOM     80  C   UNL     1       9.336   8.562  11.233  1.00  0.00     0.131 A 
ATOM     81  C   UNL     1      10.183  11.166  11.609  1.00  0.00     0.055 A 
ATOM     82  C   UNL     1       8.419   9.533  11.641  1.00  0.00     0.041 A 
ATOM     83  F   UNL     1       8.888   7.306  11.078  1.00  0.00    -0.206 F 
ATOM     84  C   UNL     1       8.845  10.842  11.845  1.00  0.00     0.022 A 
BRANCH  81  85
ATOM     85  S   UNL     1      10.792  12.834  11.978  1.00  0.00     0.124 S 
ATOM     86  O   UNL     1      11.828  12.560  12.968  1.00  0.00    -0.237 OA
ATOM     87  O   UNL     1      11.258  13.282  10.670  1.00  0.00    -0.237 OA
ATOM     88  O   UNL     1       9.608  13.523  12.486  1.00  0.00    -0.744 OA
ENDBRANCH  81  85
ENDBRANCH  54  78
BRANCH  66  89
ATOM     89  C   UNL     1      16.357   6.198  14.012  1.00  0.00     0.023 A 
ATOM     90  C   UNL     1      15.751   6.037  15.270  1.00  0.00     0.031 A 
ATOM     91  C   UNL     1      17.655   6.739  13.968  1.00  0.00     0.131 A 
ATOM     92  C   UNL     1      16.412   6.476  16.427  1.00  0.00     0.055 A 
ATOM     93  C   UNL     1      18.335   7.112  15.128  1.00  0.00     0.041 A 
ATOM     94  F   UNL     1      18.282   6.918  12.795  1.00  0.00    -0.206 F 
ATOM     95  C   UNL     1      17.707   6.998  16.365  1.00  0.00     0.022 A 
BRANCH  92  96
ATOM     96  S   UNL     1      15.510   6.465  18.000  1.00  0.00     0.124 S 
ATOM     97  O   UNL     1      14.344   7.284  17.688  1.00  0.00    -0.237 OA
ATOM     98  O   UNL     1      15.254   5.043  18.202  1.00  0.00    -0.237 OA
ATOM     99  O   UNL     1      16.455   7.064  18.941  1.00  0.00    -0.744 OA
ENDBRANCH  92  96
ENDBRANCH  66  89
ENDBRANCH  40  41
ENDBRANCH  32  35
ENDBRANCH  30  31
ENDBRANCH  29  30
ENDBRANCH  28  29
ENDBRANCH   1  28
TORSDOF 21
