REMARK SMILES Cc1cccc(OC2(C(=O)NCCCCCCNC(=O)c3ccc(-c4c5nc(c(-c6cc(S(=O)(=O)[O-])ccc6F)c6ccc([nH]6)c(-c6cc(S(=O)(=O)[O-])ccc6F)c6nc(c(-c7cc(S(=O)(=O)[O-])ccc7F)c7ccc4[nH]7)C=C6)C=C5)cc3)CCN(C(=O)c3cnc[nH]c3=O)CC2)c1
REMARK SMILES IDX 15 1 14 2 13 3 12 4 11 5 9 6 10 7 8 9 84 10 97 11 85 12
REMARK SMILES IDX 96 13 86 14 87 15 88 16 7 17 6 18 1 19 2 20 3 21 98 22 4 23
REMARK SMILES IDX 5 24 89 25 90 26 94 27 91 28 93 29 95 30 92 31 16 33 17 34
REMARK SMILES IDX 18 35 19 36 20 38 21 39 22 40 83 41 23 42 82 43 24 44 25 45
REMARK SMILES IDX 26 46 76 47 27 48 81 49 75 50 77 51 28 52 80 53 74 54 73 55
REMARK SMILES IDX 29 57 61 58 41 59 60 60 42 61 45 62 59 63 78 64 43 65 44 66
REMARK SMILES IDX 58 68 79 69 46 70 30 71 31 72 39 73 32 74 38 75 40 76 37 77
REMARK SMILES IDX 33 78 34 79 35 80 36 81 62 82 63 83 71 84 64 85 70 86 72 87
REMARK SMILES IDX 69 88 65 89 66 90 67 91 68 92 47 93 48 94 56 95 49 96 55 97
REMARK SMILES IDX 57 98 54 99 50 100 51 101 52 102 53 103
REMARK H PARENT 11 8 93 32 18 37 77 56 45 67
REMARK Flexibility Score: inf
ROOT
ATOM      1  C   UNL     1       0.655   8.026  -4.191  1.00  0.00     0.002 C 
ENDROOT
BRANCH   1   2
ATOM      2  C   UNL     1       1.253   6.693  -3.728  1.00  0.00     0.002 C 
BRANCH   2   3
ATOM      3  C   UNL     1       1.104   6.334  -2.246  1.00  0.00     0.021 C 
BRANCH   3   4
ATOM      4  C   UNL     1      -0.309   6.402  -1.646  1.00  0.00     0.116 C 
BRANCH   4   5
ATOM      5  N   UNL     1      -1.138   5.244  -1.942  1.00  0.00    -0.353 N 
ATOM      6  C   UNL     1      -1.424   4.090  -1.270  1.00  0.00     0.264 C 
ATOM      7  O   UNL     1      -2.357   3.434  -1.756  1.00  0.00    -0.270 OA
ATOM      8  H   UNL     1      -1.590   5.305  -2.814  1.00  0.00     0.163 HD
BRANCH   6   9
ATOM      9  C   UNL     1      -0.716   3.621   0.050  1.00  0.00     0.190 C 
ATOM     10  C   UNL     1       0.790   3.921   0.057  1.00  0.00     0.080 C 
ATOM     11  C   UNL     1      -1.396   4.339   1.250  1.00  0.00     0.080 C 
ATOM     12  C   UNL     1       1.470   3.737   1.402  1.00  0.00     0.124 C 
ATOM     13  C   UNL     1      -0.662   4.019   2.561  1.00  0.00     0.124 C 
ATOM     14  N   UNL     1       0.722   4.446   2.421  1.00  0.00    -0.338 N 
ATOM     15  C   UNL     1       1.167   5.676   2.866  1.00  0.00     0.261 C 
ATOM     16  O   UNL     1       1.837   6.444   2.180  1.00  0.00    -0.269 OA
BRANCH   9  17
ATOM     17  O   UNL     1      -1.140   2.253   0.253  1.00  0.00    -0.477 OA
BRANCH  17  18
ATOM     18  C   UNL     1      -0.533   1.065   0.043  1.00  0.00     0.121 A 
ATOM     19  C   UNL     1       2.784  -0.789  -0.085  1.00  0.00     0.044 C 
ATOM     20  C   UNL     1       1.304  -0.529  -0.076  1.00  0.00    -0.047 A 
ATOM     21  C   UNL     1       0.401  -1.593  -0.032  1.00  0.00     0.003 A 
ATOM     22  C   UNL     1       0.822   0.791  -0.077  1.00  0.00     0.049 A 
ATOM     23  C   UNL     1      -0.965  -1.337   0.023  1.00  0.00     0.004 A 
ATOM     24  C   UNL     1      -1.421  -0.018   0.073  1.00  0.00     0.046 A 
ENDBRANCH  17  18
ENDBRANCH   9  17
BRANCH  15  25
ATOM     25  C   UNL     1       0.801   6.020   4.252  1.00  0.00     0.123 A 
ATOM     26  C   UNL     1       0.233   7.202   4.526  1.00  0.00     0.132 A 
ATOM     27  C   UNL     1       1.088   5.126   5.389  1.00  0.00     0.263 A 
ATOM     28  N   UNL     1      -0.139   7.630   5.781  1.00  0.00    -0.246 NA
ATOM     29  N   UNL     1       0.746   5.625   6.615  1.00  0.00    -0.312 N 
ATOM     30  O   UNL     1       1.589   4.014   5.280  1.00  0.00    -0.269 OA
ATOM     31  C   UNL     1       0.144   6.839   6.760  1.00  0.00     0.199 A 
ATOM     32  H   UNL     1       0.940   5.091   7.418  1.00  0.00     0.171 HD
ENDBRANCH  15  25
ENDBRANCH   6   9
ENDBRANCH   4   5
ENDBRANCH   3   4
ENDBRANCH   2   3
ENDBRANCH   1   2
BRANCH   1  33
ATOM     33  C   UNL     1       0.912   9.230  -3.288  1.00  0.00     0.021 C 
BRANCH  33  34
ATOM     34  C   UNL     1       2.352   9.726  -3.288  1.00  0.00     0.116 C 
BRANCH  34  35
ATOM     35  N   UNL     1       2.552  10.885  -4.145  1.00  0.00    -0.352 N 
ATOM     36  C   UNL     1       3.646  11.731  -4.274  1.00  0.00     0.251 C 
ATOM     37  H   UNL     1       1.789  11.104  -4.728  1.00  0.00     0.163 HD
ATOM     38  O   UNL     1       3.566  12.755  -4.907  1.00  0.00    -0.269 OA
BRANCH  36  39
ATOM     39  C   UNL     1       4.958  11.286  -3.736  1.00  0.00     0.039 A 
ATOM     40  C   UNL     1       6.057  11.359  -4.606  1.00  0.00     0.014 A 
ATOM     41  C   UNL     1       5.068  10.628  -2.518  1.00  0.00     0.014 A 
ATOM     42  C   UNL     1       7.183  10.579  -4.356  1.00  0.00     0.010 A 
ATOM     43  C   UNL     1       6.130   9.774  -2.324  1.00  0.00     0.010 A 
ATOM     44  C   UNL     1       7.159   9.710  -3.271  1.00  0.00    -0.014 A 
BRANCH  44  45
ATOM     45  C   UNL     1       8.107   8.627  -3.067  1.00  0.00     0.031 A 
ATOM     46  C   UNL     1       9.091   8.704  -1.974  1.00  0.00     0.074 A 
ATOM     47  C   UNL     1       7.942   7.483  -3.765  1.00  0.00     0.049 A 
ATOM     48  N   UNL     1      10.103   7.919  -1.845  1.00  0.00    -0.248 NA
ATOM     49  C   UNL     1       9.031   9.731  -0.940  1.00  0.00     0.031 C 
ATOM     50  C   UNL     1       8.489   6.165  -3.461  1.00  0.00     0.029 A 
ATOM     51  N   UNL     1       7.435   7.361  -5.057  1.00  0.00    -0.354 N 
ATOM     52  C   UNL     1      10.632   8.118  -0.590  1.00  0.00     0.074 A 
ATOM     53  C   UNL     1       9.981   9.309  -0.102  1.00  0.00     0.031 C 
ATOM     54  C   UNL     1       8.529   5.441  -4.590  1.00  0.00     0.029 A 
ATOM     55  C   UNL     1       8.169   6.333  -5.677  1.00  0.00     0.049 A 
ATOM     56  H   UNL     1       6.708   7.890  -5.457  1.00  0.00     0.167 HD
ATOM     57  C   UNL     1      11.453   7.162  -0.067  1.00  0.00     0.034 A 
ATOM     58  C   UNL     1       8.961   6.601  -6.756  1.00  0.00     0.034 A 
ATOM     59  C   UNL     1      11.758   6.130  -1.062  1.00  0.00     0.049 A 
ATOM     60  C   UNL     1      10.421   6.275  -6.531  1.00  0.00     0.074 A 
ATOM     61  C   UNL     1      11.296   4.840  -1.270  1.00  0.00     0.029 A 
ATOM     62  N   UNL     1      12.456   6.484  -2.211  1.00  0.00    -0.354 N 
ATOM     63  N   UNL     1      10.975   6.131  -5.357  1.00  0.00    -0.248 NA
ATOM     64  C   UNL     1      11.368   6.074  -7.619  1.00  0.00     0.031 C 
ATOM     65  C   UNL     1      11.690   4.438  -2.577  1.00  0.00     0.029 A 
ATOM     66  C   UNL     1      12.415   5.470  -3.148  1.00  0.00     0.049 A 
ATOM     67  H   UNL     1      12.919   7.343  -2.341  1.00  0.00     0.167 HD
ATOM     68  C   UNL     1      12.306   5.816  -5.503  1.00  0.00     0.074 A 
ATOM     69  C   UNL     1      12.494   5.785  -6.945  1.00  0.00     0.031 C 
ATOM     70  C   UNL     1      13.120   5.610  -4.419  1.00  0.00     0.034 A 
BRANCH  57  71
ATOM     71  C   UNL     1      11.746   7.000   1.412  1.00  0.00     0.023 A 
ATOM     72  C   UNL     1      12.063   5.717   1.909  1.00  0.00     0.031 A 
ATOM     73  C   UNL     1      11.677   8.014   2.387  1.00  0.00     0.131 A 
ATOM     74  C   UNL     1      12.188   5.466   3.289  1.00  0.00     0.055 A 
ATOM     75  C   UNL     1      11.748   7.759   3.764  1.00  0.00     0.041 A 
ATOM     76  F   UNL     1      11.599   9.308   2.061  1.00  0.00    -0.206 F 
ATOM     77  C   UNL     1      11.992   6.476   4.224  1.00  0.00     0.022 A 
BRANCH  74  78
ATOM     78  S   UNL     1      12.610   3.793   3.850  1.00  0.00     0.124 S 
ATOM     79  O   UNL     1      11.494   3.004   3.338  1.00  0.00    -0.237 OA
ATOM     80  O   UNL     1      13.905   3.572   3.216  1.00  0.00    -0.237 OA
ATOM     81  O   UNL     1      12.653   3.925   5.306  1.00  0.00    -0.744 OA
ENDBRANCH  74  78
ENDBRANCH  57  71
BRANCH  58  82
ATOM     82  C   UNL     1       8.423   7.700  -7.611  1.00  0.00     0.023 A 
ATOM     83  C   UNL     1       7.121   7.521  -8.129  1.00  0.00     0.031 A 
ATOM     84  C   UNL     1       8.931   9.005  -7.553  1.00  0.00     0.131 A 
ATOM     85  C   UNL     1       6.304   8.631  -8.387  1.00  0.00     0.055 A 
ATOM     86  C   UNL     1       8.135  10.109  -7.892  1.00  0.00     0.041 A 
ATOM     87  F   UNL     1      10.149   9.243  -7.046  1.00  0.00    -0.206 F 
ATOM     88  C   UNL     1       6.800   9.928  -8.263  1.00  0.00     0.022 A 
BRANCH  85  89
ATOM     89  S   UNL     1       4.521   8.340  -8.598  1.00  0.00     0.124 S 
ATOM     90  O   UNL     1       4.457   7.827  -9.962  1.00  0.00    -0.237 OA
ATOM     91  O   UNL     1       4.235   7.373  -7.540  1.00  0.00    -0.237 OA
ATOM     92  O   UNL     1       3.927   9.658  -8.394  1.00  0.00    -0.744 OA
ENDBRANCH  85  89
ENDBRANCH  58  82
BRANCH  70  93
ATOM     93  C   UNL     1      14.637   5.449  -4.415  1.00  0.00     0.023 A 
ATOM     94  C   UNL     1      15.446   5.556  -5.554  1.00  0.00     0.031 A 
ATOM     95  C   UNL     1      15.347   5.225  -3.203  1.00  0.00     0.131 A 
ATOM     96  C   UNL     1      16.845   5.399  -5.488  1.00  0.00     0.055 A 
ATOM     97  C   UNL     1      16.741   5.128  -3.127  1.00  0.00     0.041 A 
ATOM     98  F   UNL     1      14.724   5.104  -2.022  1.00  0.00    -0.206 F 
ATOM     99  C   UNL     1      17.502   5.205  -4.278  1.00  0.00     0.022 A 
BRANCH  96 100
ATOM    100  S   UNL     1      17.783   5.415  -7.038  1.00  0.00     0.124 S 
ATOM    101  O   UNL     1      17.238   4.251  -7.732  1.00  0.00    -0.237 OA
ATOM    102  O   UNL     1      17.427   6.712  -7.604  1.00  0.00    -0.237 OA
ATOM    103  O   UNL     1      19.172   5.285  -6.605  1.00  0.00    -0.744 OA
ENDBRANCH  96 100
ENDBRANCH  70  93
ENDBRANCH  44  45
ENDBRANCH  36  39
ENDBRANCH  34  35
ENDBRANCH  33  34
ENDBRANCH   1  33
TORSDOF 19
