REMARK SMILES COc1ncccc1C[N@@H+](CC(=O)NCCCCCCNC(=O)c1ccc(-c2c3nc(c(-c4cc(S(=O)(=O)[O-])ccc4F)c4ccc([nH]4)c(-c4cc(S(=O)(=O)[O-])ccc4F)c4nc(c(-c5cc(S(=O)(=O)[O-])ccc5F)c5ccc2[nH]5)C=C4)C=C3)cc1)C1CCCC1
REMARK SMILES IDX 17 1 16 2 15 3 14 4 12 5 13 6 11 8 10 9 9 11 8 12 3 13 4 14
REMARK SMILES IDX 5 15 7 16 6 17 2 18 1 19 87 20 88 21 91 22 89 23 90 24 18 25
REMARK SMILES IDX 19 26 20 27 21 28 22 29 23 31 24 32 25 33 86 34 26 35 85 36
REMARK SMILES IDX 27 37 28 38 29 39 79 40 30 41 84 42 78 43 80 44 31 45 83 46
REMARK SMILES IDX 77 47 76 48 32 50 64 51 44 52 63 53 45 54 48 55 62 56 81 57
REMARK SMILES IDX 46 58 47 59 61 61 82 62 49 63 33 64 34 65 42 66 35 67 41 68
REMARK SMILES IDX 43 69 40 70 36 71 37 72 38 73 39 74 65 75 66 76 74 77 67 78
REMARK SMILES IDX 73 79 75 80 72 81 68 82 69 83 70 84 71 85 50 86 51 87 59 88
REMARK SMILES IDX 52 89 58 90 60 91 57 92 53 93 54 94 55 95 56 96
REMARK H PARENT 14 7 10 10 21 30 80 49 48 60
REMARK Flexibility Score: inf
ROOT
ATOM      1  C   UNL     1       7.051   3.260  -2.245  1.00  0.00     0.002 C 
ENDROOT
BRANCH   1   2
ATOM      2  C   UNL     1       5.754   2.546  -1.877  1.00  0.00     0.021 C 
BRANCH   2   3
ATOM      3  C   UNL     1       5.921   1.121  -1.333  1.00  0.00     0.116 C 
BRANCH   3   4
ATOM      4  N   UNL     1       6.106   1.142   0.106  1.00  0.00    -0.351 N 
ATOM      5  C   UNL     1       5.241   0.859   1.122  1.00  0.00     0.275 C 
ATOM      6  O   UNL     1       5.651   1.047   2.274  1.00  0.00    -0.269 OA
ATOM      7  H   UNL     1       7.008   1.405   0.398  1.00  0.00     0.163 HD
BRANCH   5   8
ATOM      8  C   UNL     1       3.834   0.291   0.876  1.00  0.00     0.364 C 
BRANCH   8   9
ATOM      9  N   UNL     1       2.743   1.280   0.632  1.00  0.00    -0.321 N 
ATOM     10  H   UNL     1       1.831   0.875   0.842  1.00  0.00     0.349 HD
BRANCH   9  11
ATOM     11  C   UNL     1       2.630   1.578  -0.801  1.00  0.00     0.305 C 
BRANCH  11  12
ATOM     12  C   UNL     1       1.461   2.368  -1.317  1.00  0.00     0.068 A 
ATOM     13  C   UNL     1       0.220   1.809  -1.616  1.00  0.00     0.221 A 
ATOM     14  N   UNL     1      -0.802   2.510  -2.157  1.00  0.00    -0.222 NA
ATOM     15  C   UNL     1      -0.587   3.813  -2.438  1.00  0.00     0.115 A 
ATOM     16  C   UNL     1       1.643   3.723  -1.646  1.00  0.00     0.017 A 
ATOM     17  C   UNL     1       0.612   4.459  -2.212  1.00  0.00     0.021 A 
BRANCH  13  18
ATOM     18  O   UNL     1       0.007   0.457  -1.598  1.00  0.00    -0.481 OA
ATOM     19  C   UNL     1      -0.040  -0.085  -0.285  1.00  0.00     0.280 C 
ENDBRANCH  13  18
ENDBRANCH  11  12
ENDBRANCH   9  11
BRANCH   9  20
ATOM     20  C   UNL     1       2.732   2.379   1.610  1.00  0.00     0.184 C 
ATOM     21  C   UNL     1       3.636   3.597   1.384  1.00  0.00     0.065 C 
ATOM     22  C   UNL     1       1.338   2.979   1.892  1.00  0.00     0.065 C 
ATOM     23  C   UNL     1       3.061   4.647   2.321  1.00  0.00     0.006 C 
ATOM     24  C   UNL     1       1.557   4.458   2.213  1.00  0.00     0.006 C 
ENDBRANCH   9  20
ENDBRANCH   8   9
ENDBRANCH   5   8
ENDBRANCH   3   4
ENDBRANCH   2   3
ENDBRANCH   1   2
BRANCH   1  25
ATOM     25  C   UNL     1       7.768   2.697  -3.472  1.00  0.00     0.002 C 
BRANCH  25  26
ATOM     26  C   UNL     1       6.913   2.574  -4.739  1.00  0.00     0.021 C 
BRANCH  26  27
ATOM     27  C   UNL     1       6.197   3.853  -5.169  1.00  0.00     0.116 C 
BRANCH  27  28
ATOM     28  N   UNL     1       7.132   4.930  -5.449  1.00  0.00    -0.352 N 
ATOM     29  C   UNL     1       7.435   5.527  -6.644  1.00  0.00     0.251 C 
ATOM     30  H   UNL     1       7.617   5.281  -4.667  1.00  0.00     0.163 HD
ATOM     31  O   UNL     1       8.437   6.245  -6.730  1.00  0.00    -0.269 OA
BRANCH  29  32
ATOM     32  C   UNL     1       6.579   5.303  -7.826  1.00  0.00     0.039 A 
ATOM     33  C   UNL     1       7.174   5.017  -9.057  1.00  0.00     0.014 A 
ATOM     34  C   UNL     1       5.187   5.394  -7.723  1.00  0.00     0.014 A 
ATOM     35  C   UNL     1       6.372   4.763 -10.172  1.00  0.00     0.010 A 
ATOM     36  C   UNL     1       4.389   5.075  -8.819  1.00  0.00     0.010 A 
ATOM     37  C   UNL     1       4.972   4.760 -10.056  1.00  0.00    -0.014 A 
BRANCH  37  38
ATOM     38  C   UNL     1       4.100   4.437 -11.216  1.00  0.00     0.031 A 
ATOM     39  C   UNL     1       3.169   5.481 -11.770  1.00  0.00     0.074 A 
ATOM     40  C   UNL     1       4.097   3.188 -11.722  1.00  0.00     0.049 A 
ATOM     41  N   UNL     1       2.265   5.371 -12.709  1.00  0.00    -0.248 NA
ATOM     42  C   UNL     1       3.247   6.819 -11.165  1.00  0.00     0.031 C 
ATOM     43  C   UNL     1       4.930   2.082 -11.245  1.00  0.00     0.029 A 
ATOM     44  N   UNL     1       3.361   2.633 -12.739  1.00  0.00    -0.354 N 
ATOM     45  C   UNL     1       1.654   6.618 -12.797  1.00  0.00     0.074 A 
ATOM     46  C   UNL     1       2.255   7.450 -11.775  1.00  0.00     0.031 C 
ATOM     47  C   UNL     1       4.669   0.987 -11.978  1.00  0.00     0.029 A 
ATOM     48  C   UNL     1       3.619   1.297 -12.944  1.00  0.00     0.049 A 
ATOM     49  H   UNL     1       2.709   3.143 -13.273  1.00  0.00     0.167 HD
ATOM     50  C   UNL     1       0.696   7.034 -13.662  1.00  0.00     0.034 A 
ATOM     51  C   UNL     1       3.062   0.416 -13.799  1.00  0.00     0.034 A 
ATOM     52  C   UNL     1       0.118   6.194 -14.682  1.00  0.00     0.049 A 
ATOM     53  C   UNL     1       1.982   0.895 -14.736  1.00  0.00     0.074 A 
ATOM     54  C   UNL     1      -0.813   6.529 -15.650  1.00  0.00     0.029 A 
ATOM     55  N   UNL     1       0.409   4.847 -14.864  1.00  0.00    -0.354 N 
ATOM     56  N   UNL     1       1.450   2.092 -14.840  1.00  0.00    -0.248 NA
ATOM     57  C   UNL     1       1.434  -0.090 -15.676  1.00  0.00     0.031 C 
ATOM     58  C   UNL     1      -1.137   5.372 -16.368  1.00  0.00     0.029 A 
ATOM     59  C   UNL     1      -0.349   4.331 -15.904  1.00  0.00     0.049 A 
ATOM     60  H   UNL     1       1.059   4.334 -14.331  1.00  0.00     0.167 HD
ATOM     61  C   UNL     1       0.528   2.008 -15.880  1.00  0.00     0.074 A 
ATOM     62  C   UNL     1       0.586   0.649 -16.377  1.00  0.00     0.031 C 
ATOM     63  C   UNL     1      -0.288   2.969 -16.383  1.00  0.00     0.034 A 
BRANCH  50  64
ATOM     64  C   UNL     1       0.195   8.453 -13.517  1.00  0.00     0.023 A 
ATOM     65  C   UNL     1       1.043   9.559 -13.700  1.00  0.00     0.031 A 
ATOM     66  C   UNL     1      -1.145   8.703 -13.170  1.00  0.00     0.131 A 
ATOM     67  C   UNL     1       0.566  10.857 -13.459  1.00  0.00     0.055 A 
ATOM     68  C   UNL     1      -1.636  10.001 -13.015  1.00  0.00     0.041 A 
ATOM     69  F   UNL     1      -1.998   7.689 -12.963  1.00  0.00    -0.206 F 
ATOM     70  C   UNL     1      -0.775  11.087 -13.144  1.00  0.00     0.022 A 
BRANCH  67  71
ATOM     71  S   UNL     1       1.756  12.225 -13.421  1.00  0.00     0.124 S 
ATOM     72  O   UNL     1       2.666  11.794 -12.362  1.00  0.00    -0.237 OA
ATOM     73  O   UNL     1       2.298  12.209 -14.774  1.00  0.00    -0.237 OA
ATOM     74  O   UNL     1       0.933  13.386 -13.091  1.00  0.00    -0.744 OA
ENDBRANCH  67  71
ENDBRANCH  50  64
BRANCH  51  75
ATOM     75  C   UNL     1       3.496  -1.011 -13.803  1.00  0.00     0.023 A 
ATOM     76  C   UNL     1       4.129  -1.572 -14.923  1.00  0.00     0.031 A 
ATOM     77  C   UNL     1       3.250  -1.845 -12.698  1.00  0.00     0.131 A 
ATOM     78  C   UNL     1       4.454  -2.938 -14.932  1.00  0.00     0.055 A 
ATOM     79  C   UNL     1       3.623  -3.191 -12.691  1.00  0.00     0.041 A 
ATOM     80  F   UNL     1       2.653  -1.358 -11.598  1.00  0.00    -0.206 F 
ATOM     81  C   UNL     1       4.217  -3.747 -13.819  1.00  0.00     0.022 A 
BRANCH  78  82
ATOM     82  S   UNL     1       5.118  -3.662 -16.457  1.00  0.00     0.124 S 
ATOM     83  O   UNL     1       4.059  -3.363 -17.413  1.00  0.00    -0.237 OA
ATOM     84  O   UNL     1       6.364  -2.922 -16.625  1.00  0.00    -0.237 OA
ATOM     85  O   UNL     1       5.276  -5.076 -16.120  1.00  0.00    -0.744 OA
ENDBRANCH  78  82
ENDBRANCH  51  75
BRANCH  63  86
ATOM     86  C   UNL     1      -1.148   2.591 -17.564  1.00  0.00     0.023 A 
ATOM     87  C   UNL     1      -2.199   1.664 -17.451  1.00  0.00     0.031 A 
ATOM     88  C   UNL     1      -0.908   3.169 -18.824  1.00  0.00     0.131 A 
ATOM     89  C   UNL     1      -2.937   1.304 -18.589  1.00  0.00     0.055 A 
ATOM     90  C   UNL     1      -1.685   2.852 -19.939  1.00  0.00     0.041 A 
ATOM     91  F   UNL     1       0.084   4.059 -18.990  1.00  0.00    -0.206 F 
ATOM     92  C   UNL     1      -2.699   1.905 -19.828  1.00  0.00     0.022 A 
BRANCH  89  93
ATOM     93  S   UNL     1      -4.161  -0.028 -18.449  1.00  0.00     0.124 S 
ATOM     94  O   UNL     1      -3.341  -1.148 -18.001  1.00  0.00    -0.237 OA
ATOM     95  O   UNL     1      -5.097   0.510 -17.467  1.00  0.00    -0.237 OA
ATOM     96  O   UNL     1      -4.691  -0.151 -19.806  1.00  0.00    -0.744 OA
ENDBRANCH  89  93
ENDBRANCH  63  86
ENDBRANCH  37  38
ENDBRANCH  29  32
ENDBRANCH  27  28
ENDBRANCH  26  27
ENDBRANCH  25  26
ENDBRANCH   1  25
TORSDOF 21
