REMARK SMILES O=C(NCCCCCCNC(=O)c1cnn(Cc2ccccc2)c1-n1cccc1)c1ccc(-c2c3nc(c(-c4cc(S(=O)(=O)[O-])ccc4F)c4ccc([nH]4)c(-c4cc(S(=O)(=O)[O-])ccc4F)c4nc(c(-c5cc(S(=O)(=O)[O-])ccc5F)c5ccc2[nH]5)C=C4)C=C3)cc1
REMARK SMILES IDX 6 1 5 2 4 3 3 4 1 5 2 6 30 8 31 9 92 10 32 11 91 12 33 13
REMARK SMILES IDX 34 14 35 15 85 16 36 17 90 18 84 19 86 20 37 21 89 22 83 23
REMARK SMILES IDX 82 24 38 26 70 27 50 28 69 29 51 30 54 31 68 32 87 33 52 34
REMARK SMILES IDX 53 35 67 37 88 38 55 39 39 40 40 41 48 42 41 43 47 44 49 45
REMARK SMILES IDX 46 46 42 47 43 48 44 49 45 50 71 51 72 52 80 53 73 54 79 55
REMARK SMILES IDX 81 56 78 57 74 58 75 59 76 60 77 61 56 62 57 63 65 64 58 65
REMARK SMILES IDX 64 66 66 67 63 68 59 69 60 70 61 71 62 72 7 73 8 74 9 75
REMARK SMILES IDX 10 76 11 77 12 79 13 80 14 81 24 82 15 83 16 84 25 85 26 86
REMARK SMILES IDX 29 87 27 88 28 89 17 90 18 91 19 92 23 93 20 94 22 95 21 96
REMARK H PARENT 3 7 86 25 54 36 10 78
REMARK Flexibility Score: inf
ROOT
ATOM      1  C   UNL     1       4.370  -3.153   1.661  1.00  0.00     0.002 C 
ENDROOT
BRANCH   1   2
ATOM      2  C   UNL     1       4.852  -1.701   1.563  1.00  0.00     0.021 C 
BRANCH   2   3
ATOM      3  C   UNL     1       4.840  -1.110   0.156  1.00  0.00     0.116 C 
BRANCH   3   4
ATOM      4  N   UNL     1       3.521  -1.010  -0.437  1.00  0.00    -0.352 N 
ATOM      5  O   UNL     1       1.427  -0.437  -0.883  1.00  0.00    -0.269 OA
ATOM      6  C   UNL     1       2.431  -0.213  -0.201  1.00  0.00     0.251 C 
ATOM      7  H   UNL     1       3.376  -1.655  -1.166  1.00  0.00     0.163 HD
BRANCH   6   8
ATOM      8  C   UNL     1       2.374   0.865   0.827  1.00  0.00     0.039 A 
ATOM      9  C   UNL     1       3.464   1.620   1.258  1.00  0.00     0.014 A 
ATOM     10  C   UNL     1       1.102   1.196   1.326  1.00  0.00     0.014 A 
ATOM     11  C   UNL     1       3.297   2.637   2.212  1.00  0.00     0.010 A 
ATOM     12  C   UNL     1       0.930   2.237   2.248  1.00  0.00     0.010 A 
ATOM     13  C   UNL     1       2.031   2.954   2.726  1.00  0.00    -0.014 A 
BRANCH  13  14
ATOM     14  C   UNL     1       1.911   4.092   3.670  1.00  0.00     0.031 A 
ATOM     15  C   UNL     1       2.453   5.423   3.245  1.00  0.00     0.074 A 
ATOM     16  C   UNL     1       1.175   4.123   4.804  1.00  0.00     0.049 A 
ATOM     17  N   UNL     1       3.261   6.213   3.885  1.00  0.00    -0.248 NA
ATOM     18  C   UNL     1       1.982   5.958   1.958  1.00  0.00     0.031 C 
ATOM     19  C   UNL     1       0.249   3.101   5.290  1.00  0.00     0.029 A 
ATOM     20  N   UNL     1       1.025   5.146   5.716  1.00  0.00    -0.354 N 
ATOM     21  C   UNL     1       3.275   7.409   3.172  1.00  0.00     0.074 A 
ATOM     22  C   UNL     1       2.524   7.176   1.960  1.00  0.00     0.031 C 
ATOM     23  C   UNL     1      -0.509   3.626   6.276  1.00  0.00     0.029 A 
ATOM     24  C   UNL     1      -0.039   4.971   6.585  1.00  0.00     0.049 A 
ATOM     25  H   UNL     1       1.620   5.931   5.745  1.00  0.00     0.167 HD
ATOM     26  C   UNL     1       3.761   8.583   3.660  1.00  0.00     0.034 A 
ATOM     27  C   UNL     1      -0.545   5.838   7.495  1.00  0.00     0.034 A 
ATOM     28  C   UNL     1       4.518   8.466   4.870  1.00  0.00     0.049 A 
ATOM     29  C   UNL     1       0.460   6.863   7.866  1.00  0.00     0.074 A 
ATOM     30  C   UNL     1       5.776   8.033   5.224  1.00  0.00     0.029 A 
ATOM     31  N   UNL     1       3.849   8.736   6.034  1.00  0.00    -0.354 N 
ATOM     32  N   UNL     1       1.554   6.625   8.533  1.00  0.00    -0.248 NA
ATOM     33  C   UNL     1       0.300   8.241   7.408  1.00  0.00     0.031 C 
ATOM     34  C   UNL     1       5.750   7.820   6.633  1.00  0.00     0.029 A 
ATOM     35  C   UNL     1       4.458   8.082   7.079  1.00  0.00     0.049 A 
ATOM     36  H   UNL     1       3.053   9.311   6.111  1.00  0.00     0.167 HD
ATOM     37  C   UNL     1       2.361   7.718   8.299  1.00  0.00     0.074 A 
ATOM     38  C   UNL     1       1.492   8.738   7.745  1.00  0.00     0.031 C 
ATOM     39  C   UNL     1       3.710   7.572   8.210  1.00  0.00     0.034 A 
BRANCH  26  40
ATOM     40  C   UNL     1       3.333   9.935   3.164  1.00  0.00     0.023 A 
ATOM     41  C   UNL     1       4.222  11.027   3.228  1.00  0.00     0.031 A 
ATOM     42  C   UNL     1       1.989  10.222   2.849  1.00  0.00     0.131 A 
ATOM     43  C   UNL     1       3.776  12.332   2.951  1.00  0.00     0.055 A 
ATOM     44  C   UNL     1       1.552  11.514   2.546  1.00  0.00     0.041 A 
ATOM     45  F   UNL     1       1.046   9.266   2.891  1.00  0.00    -0.206 F 
ATOM     46  C   UNL     1       2.445  12.578   2.601  1.00  0.00     0.022 A 
BRANCH  43  47
ATOM     47  S   UNL     1       4.934  13.727   3.139  1.00  0.00     0.124 S 
ATOM     48  O   UNL     1       5.527  13.479   4.448  1.00  0.00    -0.237 OA
ATOM     49  O   UNL     1       5.819  13.543   1.993  1.00  0.00    -0.237 OA
ATOM     50  O   UNL     1       4.067  14.902   3.068  1.00  0.00    -0.744 OA
ENDBRANCH  43  47
ENDBRANCH  26  40
BRANCH  27  51
ATOM     51  C   UNL     1      -1.913   5.876   8.076  1.00  0.00     0.023 A 
ATOM     52  C   UNL     1      -2.160   6.545   9.290  1.00  0.00     0.031 A 
ATOM     53  C   UNL     1      -3.040   5.443   7.348  1.00  0.00     0.131 A 
ATOM     54  C   UNL     1      -3.479   6.753   9.736  1.00  0.00     0.055 A 
ATOM     55  C   UNL     1      -4.347   5.613   7.813  1.00  0.00     0.041 A 
ATOM     56  F   UNL     1      -2.915   4.913   6.121  1.00  0.00    -0.206 F 
ATOM     57  C   UNL     1      -4.572   6.278   9.009  1.00  0.00     0.022 A 
BRANCH  54  58
ATOM     58  S   UNL     1      -3.792   7.798  11.190  1.00  0.00     0.124 S 
ATOM     59  O   UNL     1      -3.711   6.834  12.281  1.00  0.00    -0.237 OA
ATOM     60  O   UNL     1      -2.722   8.787  11.117  1.00  0.00    -0.237 OA
ATOM     61  O   UNL     1      -5.130   8.330  10.928  1.00  0.00    -0.744 OA
ENDBRANCH  54  58
ENDBRANCH  27  51
BRANCH  39  62
ATOM     62  C   UNL     1       4.362   6.577   9.123  1.00  0.00     0.023 A 
ATOM     63  C   UNL     1       4.219   5.182   9.004  1.00  0.00     0.031 A 
ATOM     64  C   UNL     1       5.218   7.077  10.120  1.00  0.00     0.131 A 
ATOM     65  C   UNL     1       4.926   4.329   9.871  1.00  0.00     0.055 A 
ATOM     66  C   UNL     1       5.917   6.231  10.979  1.00  0.00     0.041 A 
ATOM     67  F   UNL     1       5.402   8.402  10.258  1.00  0.00    -0.206 F 
ATOM     68  C   UNL     1       5.771   4.851  10.860  1.00  0.00     0.022 A 
BRANCH  65  69
ATOM     69  S   UNL     1       4.747   2.522   9.715  1.00  0.00     0.124 S 
ATOM     70  O   UNL     1       3.305   2.324   9.636  1.00  0.00    -0.237 OA
ATOM     71  O   UNL     1       5.497   2.235   8.495  1.00  0.00    -0.237 OA
ATOM     72  O   UNL     1       5.365   2.010  10.940  1.00  0.00    -0.744 OA
ENDBRANCH  65  69
ENDBRANCH  39  62
ENDBRANCH  13  14
ENDBRANCH   6   8
ENDBRANCH   3   4
ENDBRANCH   2   3
ENDBRANCH   1   2
BRANCH   1  73
ATOM     73  C   UNL     1       5.109  -4.173   0.786  1.00  0.00     0.002 C 
BRANCH  73  74
ATOM     74  C   UNL     1       6.638  -4.199   0.922  1.00  0.00     0.021 C 
BRANCH  74  75
ATOM     75  C   UNL     1       7.164  -4.494   2.328  1.00  0.00     0.116 C 
BRANCH  75  76
ATOM     76  N   UNL     1       6.807  -5.835   2.760  1.00  0.00    -0.352 N 
ATOM     77  C   UNL     1       7.590  -6.949   2.913  1.00  0.00     0.256 C 
ATOM     78  H   UNL     1       5.855  -5.962   2.976  1.00  0.00     0.163 HD
ATOM     79  O   UNL     1       7.045  -8.036   3.089  1.00  0.00    -0.269 OA
BRANCH  77  80
ATOM     80  C   UNL     1       9.033  -6.811   2.883  1.00  0.00     0.102 A 
ATOM     81  C   UNL     1       9.816  -5.966   3.699  1.00  0.00     0.151 A 
ATOM     82  C   UNL     1       9.970  -7.601   2.225  1.00  0.00     0.148 A 
ATOM     83  N   UNL     1      11.124  -6.159   3.548  1.00  0.00    -0.178 NA
ATOM     84  N   UNL     1      11.208  -7.124   2.599  1.00  0.00    -0.244 N 
BRANCH  82  85
ATOM     85  N   UNL     1       9.727  -8.655   1.341  1.00  0.00    -0.308 N 
ATOM     86  C   UNL     1       8.652  -8.768   0.478  1.00  0.00     0.093 A 
ATOM     87  C   UNL     1      10.479  -9.806   1.180  1.00  0.00     0.093 A 
ATOM     88  C   UNL     1       8.756  -9.936  -0.245  1.00  0.00     0.020 A 
ATOM     89  C   UNL     1       9.916 -10.596   0.202  1.00  0.00     0.020 A 
ENDBRANCH  82  85
BRANCH  84  90
ATOM     90  C   UNL     1      12.539  -7.413   2.075  1.00  0.00     0.182 C 
BRANCH  90  91
ATOM     91  C   UNL     1      12.993  -6.404   1.046  1.00  0.00    -0.026 A 
ATOM     92  C   UNL     1      12.912  -6.687  -0.325  1.00  0.00     0.005 A 
ATOM     93  C   UNL     1      13.516  -5.166   1.452  1.00  0.00     0.005 A 
ATOM     94  C   UNL     1      13.362  -5.757  -1.266  1.00  0.00     0.000 A 
ATOM     95  C   UNL     1      13.962  -4.238   0.511  1.00  0.00     0.000 A 
ATOM     96  C   UNL     1      13.889  -4.535  -0.848  1.00  0.00     0.000 A 
ENDBRANCH  90  91
ENDBRANCH  84  90
ENDBRANCH  77  80
ENDBRANCH  75  76
ENDBRANCH  74  75
ENDBRANCH  73  74
ENDBRANCH   1  73
TORSDOF 19
