REMARK SMILES CC(=O)NCCNC(=O)C[N@H+]1CC[C@@H](C(=O)NCCCCCCNC(=O)c2ccc(-c3c4nc(c(-c5cc(S(=O)(=O)[O-])ccc5F)c5ccc([nH]5)c(-c5cc(S(=O)(=O)[O-])ccc5F)c5nc(c(-c6cc(S(=O)(=O)[O-])ccc6F)c6ccc3[nH]6)C=C5)C=C4)cc2)[C@H]1C
REMARK SMILES IDX 19 1 18 2 17 3 15 4 16 5 14 7 11 8 12 9 90 10 13 12 91 13
REMARK SMILES IDX 10 14 8 15 7 16 9 18 6 19 5 20 4 21 1 22 2 23 3 24 20 26
REMARK SMILES IDX 21 27 22 28 23 29 24 30 25 31 26 33 27 34 28 35 89 36 29 37
REMARK SMILES IDX 88 38 30 39 31 40 32 41 82 42 33 43 87 44 81 45 83 46 34 47
REMARK SMILES IDX 86 48 80 49 79 50 35 52 67 53 47 54 66 55 48 56 51 57 65 58
REMARK SMILES IDX 84 59 49 60 50 61 64 63 85 64 52 65 36 66 37 67 45 68 38 69
REMARK SMILES IDX 44 70 46 71 43 72 39 73 40 74 41 75 42 76 68 77 69 78 77 79
REMARK SMILES IDX 70 80 76 81 78 82 75 83 71 84 72 85 73 86 74 87 53 88 54 89
REMARK SMILES IDX 62 90 55 91 61 92 63 93 60 94 56 95 57 96 58 97 59 98
REMARK H PARENT 17 6 11 11 7 17 4 25 24 32 83 51 51 62
REMARK Flexibility Score: inf
ROOT
ATOM      1  C   UNL     1       0.412  -0.469   9.098  1.00  0.00     0.021 C 
ENDROOT
BRANCH   1   2
ATOM      2  C   UNL     1       0.863  -1.925   8.967  1.00  0.00     0.116 C 
BRANCH   2   3
ATOM      3  N   UNL     1      -0.155  -2.752   8.350  1.00  0.00    -0.356 N 
ATOM      4  C   UNL     1      -0.149  -3.477   7.205  1.00  0.00     0.229 C 
ATOM      5  O   UNL     1      -1.205  -4.040   6.894  1.00  0.00    -0.275 OA
ATOM      6  H   UNL     1      -1.001  -2.794   8.852  1.00  0.00     0.163 HD
BRANCH   4   7
ATOM      7  C   UNL     1       1.061  -3.605   6.292  1.00  0.00     0.142 C 
ATOM      8  N   UNL     1       2.979  -2.436   5.339  1.00  0.00    -0.324 N 
ATOM      9  C   UNL     1       3.399  -3.744   5.896  1.00  0.00     0.263 C 
ATOM     10  C   UNL     1       1.500  -2.381   5.474  1.00  0.00     0.194 C 
ATOM     11  H   UNL     1       3.142  -2.292   4.342  1.00  0.00     0.348 HD
ATOM     12  C   UNL     1       2.328  -4.181   6.885  1.00  0.00     0.081 C 
ATOM     13  C   UNL     1       0.835  -1.053   5.807  1.00  0.00     0.076 C 
BRANCH   8  14
ATOM     14  C   UNL     1       3.826  -1.370   5.921  1.00  0.00     0.363 C 
BRANCH  14  15
ATOM     15  C   UNL     1       3.505   0.078   5.545  1.00  0.00     0.275 C 
ATOM     16  N   UNL     1       3.320   0.487   4.260  1.00  0.00    -0.349 N 
ATOM     17  H   UNL     1       3.097   1.441   4.157  1.00  0.00     0.163 HD
ATOM     18  O   UNL     1       3.442   0.942   6.426  1.00  0.00    -0.269 OA
BRANCH  16  19
ATOM     19  C   UNL     1       3.401  -0.260   3.019  1.00  0.00     0.137 C 
BRANCH  19  20
ATOM     20  C   UNL     1       2.034  -0.548   2.381  1.00  0.00     0.137 C 
BRANCH  20  21
ATOM     21  N   UNL     1       1.233   0.646   2.148  1.00  0.00    -0.355 N 
ATOM     22  C   UNL     1       0.828   0.181  -0.232  1.00  0.00     0.114 C 
ATOM     23  C   UNL     1       0.575   0.998   1.005  1.00  0.00     0.216 C 
ATOM     24  O   UNL     1      -0.199   1.951   1.007  1.00  0.00    -0.275 OA
ATOM     25  H   UNL     1       1.157   1.272   2.903  1.00  0.00     0.163 HD
ENDBRANCH  20  21
ENDBRANCH  19  20
ENDBRANCH  16  19
ENDBRANCH  14  15
ENDBRANCH   8  14
ENDBRANCH   4   7
ENDBRANCH   2   3
ENDBRANCH   1   2
BRANCH   1  26
ATOM     26  C   UNL     1      -0.651  -0.200  10.158  1.00  0.00     0.002 C 
BRANCH  26  27
ATOM     27  C   UNL     1      -0.253  -0.571  11.584  1.00  0.00     0.002 C 
BRANCH  27  28
ATOM     28  C   UNL     1       1.099  -0.019  12.043  1.00  0.00     0.021 C 
BRANCH  28  29
ATOM     29  C   UNL     1       1.269   1.489  11.876  1.00  0.00     0.116 C 
BRANCH  29  30
ATOM     30  N   UNL     1       0.274   2.231  12.630  1.00  0.00    -0.352 N 
ATOM     31  C   UNL     1       0.453   3.101  13.677  1.00  0.00     0.251 C 
ATOM     32  H   UNL     1      -0.660   2.089  12.353  1.00  0.00     0.163 HD
ATOM     33  O   UNL     1      -0.506   3.444  14.357  1.00  0.00    -0.269 OA
BRANCH  31  34
ATOM     34  C   UNL     1       1.810   3.601  13.983  1.00  0.00     0.039 A 
ATOM     35  C   UNL     1       2.242   3.618  15.311  1.00  0.00     0.014 A 
ATOM     36  C   UNL     1       2.651   4.057  12.963  1.00  0.00     0.014 A 
ATOM     37  C   UNL     1       3.538   4.043  15.609  1.00  0.00     0.010 A 
ATOM     38  C   UNL     1       3.966   4.409  13.254  1.00  0.00     0.010 A 
ATOM     39  C   UNL     1       4.422   4.413  14.581  1.00  0.00    -0.014 A 
BRANCH  39  40
ATOM     40  C   UNL     1       5.819   4.825  14.879  1.00  0.00     0.031 A 
ATOM     41  C   UNL     1       6.269   6.228  14.570  1.00  0.00     0.074 A 
ATOM     42  C   UNL     1       6.688   3.929  15.386  1.00  0.00     0.049 A 
ATOM     43  N   UNL     1       7.459   6.760  14.687  1.00  0.00    -0.248 NA
ATOM     44  C   UNL     1       5.251   7.145  14.035  1.00  0.00     0.031 C 
ATOM     45  C   UNL     1       6.375   2.533  15.701  1.00  0.00     0.029 A 
ATOM     46  N   UNL     1       8.014   4.052  15.721  1.00  0.00    -0.354 N 
ATOM     47  C   UNL     1       7.332   8.073  14.244  1.00  0.00     0.074 A 
ATOM     48  C   UNL     1       5.968   8.229  13.786  1.00  0.00     0.031 C 
ATOM     49  C   UNL     1       7.469   1.939  16.203  1.00  0.00     0.029 A 
ATOM     50  C   UNL     1       8.575   2.891  16.200  1.00  0.00     0.049 A 
ATOM     51  H   UNL     1       8.516   4.894  15.627  1.00  0.00     0.167 HD
ATOM     52  C   UNL     1       8.257   9.064  14.248  1.00  0.00     0.034 A 
ATOM     53  C   UNL     1       9.841   2.620  16.578  1.00  0.00     0.034 A 
ATOM     54  C   UNL     1       9.614   8.892  14.706  1.00  0.00     0.049 A 
ATOM     55  C   UNL     1      10.868   3.725  16.518  1.00  0.00     0.074 A 
ATOM     56  C   UNL     1      10.630   9.831  14.769  1.00  0.00     0.029 A 
ATOM     57  N   UNL     1      10.149   7.699  15.177  1.00  0.00    -0.354 N 
ATOM     58  N   UNL     1      10.721   4.971  16.129  1.00  0.00    -0.248 NA
ATOM     59  C   UNL     1      12.228   3.392  16.960  1.00  0.00     0.031 C 
ATOM     60  C   UNL     1      11.792   9.192  15.215  1.00  0.00     0.029 A 
ATOM     61  C   UNL     1      11.484   7.874  15.509  1.00  0.00     0.049 A 
ATOM     62  H   UNL     1       9.652   6.853  15.263  1.00  0.00     0.167 HD
ATOM     63  C   UNL     1      11.961   5.577  16.319  1.00  0.00     0.074 A 
ATOM     64  C   UNL     1      12.836   4.565  16.873  1.00  0.00     0.031 C 
ATOM     65  C   UNL     1      12.343   6.854  16.062  1.00  0.00     0.034 A 
BRANCH  52  66
ATOM     66  C   UNL     1       7.828  10.416  13.730  1.00  0.00     0.023 A 
ATOM     67  C   UNL     1       6.811  11.154  14.362  1.00  0.00     0.031 A 
ATOM     68  C   UNL     1       8.424  10.969  12.583  1.00  0.00     0.131 A 
ATOM     69  C   UNL     1       6.371  12.364  13.804  1.00  0.00     0.055 A 
ATOM     70  C   UNL     1       8.039  12.214  12.081  1.00  0.00     0.041 A 
ATOM     71  F   UNL     1       9.384  10.304  11.923  1.00  0.00    -0.206 F 
ATOM     72  C   UNL     1       6.996  12.913  12.683  1.00  0.00     0.022 A 
BRANCH  69  73
ATOM     73  S   UNL     1       4.878  13.136  14.484  1.00  0.00     0.124 S 
ATOM     74  O   UNL     1       3.883  12.087  14.277  1.00  0.00    -0.237 OA
ATOM     75  O   UNL     1       5.257  13.393  15.868  1.00  0.00    -0.237 OA
ATOM     76  O   UNL     1       4.700  14.326  13.654  1.00  0.00    -0.744 OA
ENDBRANCH  69  73
ENDBRANCH  52  66
BRANCH  53  77
ATOM     77  C   UNL     1      10.228   1.250  17.028  1.00  0.00     0.023 A 
ATOM     78  C   UNL     1      10.731   1.029  18.320  1.00  0.00     0.031 A 
ATOM     79  C   UNL     1      10.174   0.154  16.149  1.00  0.00     0.131 A 
ATOM     80  C   UNL     1      11.225  -0.237  18.673  1.00  0.00     0.055 A 
ATOM     81  C   UNL     1      10.603  -1.120  16.527  1.00  0.00     0.041 A 
ATOM     82  F   UNL     1       9.702   0.305  14.901  1.00  0.00    -0.206 F 
ATOM     83  C   UNL     1      11.151  -1.316  17.791  1.00  0.00     0.022 A 
BRANCH  80  84
ATOM     84  S   UNL     1      12.086  -0.419  20.259  1.00  0.00     0.124 S 
ATOM     85  O   UNL     1      13.122   0.601  20.152  1.00  0.00    -0.237 OA
ATOM     86  O   UNL     1      11.017  -0.152  21.216  1.00  0.00    -0.237 OA
ATOM     87  O   UNL     1      12.564  -1.800  20.229  1.00  0.00    -0.744 OA
ENDBRANCH  80  84
ENDBRANCH  53  77
BRANCH  65  88
ATOM     88  C   UNL     1      13.755   7.237  16.437  1.00  0.00     0.023 A 
ATOM     89  C   UNL     1      14.873   6.678  15.795  1.00  0.00     0.031 A 
ATOM     90  C   UNL     1      13.982   8.171  17.465  1.00  0.00     0.131 A 
ATOM     91  C   UNL     1      16.166   7.009  16.227  1.00  0.00     0.055 A 
ATOM     92  C   UNL     1      15.271   8.547  17.846  1.00  0.00     0.041 A 
ATOM     93  F   UNL     1      12.952   8.736  18.115  1.00  0.00    -0.206 F 
ATOM     94  C   UNL     1      16.372   7.954  17.235  1.00  0.00     0.022 A 
BRANCH  91  95
ATOM     95  S   UNL     1      17.576   6.115  15.519  1.00  0.00     0.124 S 
ATOM     96  O   UNL     1      17.254   4.730  15.847  1.00  0.00    -0.237 OA
ATOM     97  O   UNL     1      17.494   6.470  14.106  1.00  0.00    -0.237 OA
ATOM     98  O   UNL     1      18.727   6.670  16.230  1.00  0.00    -0.744 OA
ENDBRANCH  91  95
ENDBRANCH  65  88
ENDBRANCH  39  40
ENDBRANCH  31  34
ENDBRANCH  29  30
ENDBRANCH  28  29
ENDBRANCH  27  28
ENDBRANCH  26  27
ENDBRANCH   1  26
TORSDOF 21
