REMARK SMILES O=C(Cc1ccc(-c2ccn(C(F)F)c(=O)c2)cc1)NCCCCCCNC(=O)c1ccc(-c2c3nc(c(-c4cc(S(=O)(=O)[O-])ccc4F)c4ccc([nH]4)c(-c4cc(S(=O)(=O)[O-])ccc4F)c4nc(c(-c5cc(S(=O)(=O)[O-])ccc5F)c5ccc2[nH]5)C=C4)C=C3)cc1
REMARK SMILES IDX 23 1 22 2 21 3 20 4 1 5 2 6 3 8 4 9 5 10 19 11 6 12 18 13
REMARK SMILES IDX 7 14 8 15 9 16 17 17 10 18 15 19 11 20 16 21 12 22 13 23
REMARK SMILES IDX 14 24 24 25 25 26 26 27 27 28 28 29 29 31 30 32 31 33 92 34
REMARK SMILES IDX 32 35 91 36 33 37 34 38 35 39 85 40 36 41 90 42 84 43 86 44
REMARK SMILES IDX 37 45 89 46 83 47 82 48 38 50 70 51 50 52 69 53 51 54 54 55
REMARK SMILES IDX 68 56 87 57 52 58 53 59 67 61 88 62 55 63 39 64 40 65 48 66
REMARK SMILES IDX 41 67 47 68 49 69 46 70 42 71 43 72 44 73 45 74 71 75 72 76
REMARK SMILES IDX 80 77 73 78 79 79 81 80 78 81 74 82 75 83 76 84 77 85 56 86
REMARK SMILES IDX 57 87 65 88 58 89 64 90 66 91 63 92 59 93 60 94 61 95 62 96
REMARK H PARENT 20 7 27 30 86 49 54 60
REMARK Flexibility Score: inf
ROOT
ATOM      1  C   UNL     1       4.173   3.503   1.303  1.00  0.00     0.002 C 
ENDROOT
BRANCH   1   2
ATOM      2  C   UNL     1       2.669   3.224   1.442  1.00  0.00     0.021 C 
BRANCH   2   3
ATOM      3  C   UNL     1       2.092   2.280   0.390  1.00  0.00     0.116 C 
BRANCH   3   4
ATOM      4  N   UNL     1       2.709   0.973   0.459  1.00  0.00    -0.356 N 
ATOM      5  O   UNL     1       0.948  -0.207  -0.435  1.00  0.00    -0.275 OA
ATOM      6  C   UNL     1       2.102  -0.168  -0.023  1.00  0.00     0.224 C 
ATOM      7  H   UNL     1       3.602   0.895   0.867  1.00  0.00     0.163 HD
BRANCH   6   8
ATOM      8  C   UNL     1       3.018  -1.381  -0.013  1.00  0.00     0.135 C 
BRANCH   8   9
ATOM      9  C   UNL     1       3.939  -1.488  -1.212  1.00  0.00    -0.039 A 
ATOM     10  C   UNL     1       4.342  -2.758  -1.656  1.00  0.00     0.005 A 
ATOM     11  C   UNL     1       4.461  -0.362  -1.863  1.00  0.00     0.005 A 
ATOM     12  C   UNL     1       5.209  -2.896  -2.746  1.00  0.00     0.009 A 
ATOM     13  C   UNL     1       5.328  -0.497  -2.947  1.00  0.00     0.009 A 
ATOM     14  C   UNL     1       5.699  -1.764  -3.404  1.00  0.00    -0.018 A 
BRANCH  14  15
ATOM     15  C   UNL     1       6.563  -1.855  -4.593  1.00  0.00    -0.011 A 
ATOM     16  C   UNL     1       7.912  -1.325  -4.625  1.00  0.00     0.027 A 
ATOM     17  C   UNL     1       6.022  -2.344  -5.723  1.00  0.00     0.080 A 
ATOM     18  C   UNL     1       8.589  -1.265  -5.778  1.00  0.00     0.095 A 
ATOM     19  C   UNL     1       6.779  -2.320  -7.004  1.00  0.00     0.255 A 
ATOM     20  N   UNL     1       8.034  -1.736  -6.953  1.00  0.00    -0.258 N 
ATOM     21  O   UNL     1       6.249  -2.789  -8.006  1.00  0.00    -0.269 OA
BRANCH  20  22
ATOM     22  C   UNL     1       8.744  -1.608  -8.199  1.00  0.00     0.451 C 
ATOM     23  F   UNL     1       8.949  -2.817  -8.776  1.00  0.00    -0.185 F 
ATOM     24  F   UNL     1       8.052  -0.837  -9.074  1.00  0.00    -0.185 F 
ENDBRANCH  20  22
ENDBRANCH  14  15
ENDBRANCH   8   9
ENDBRANCH   6   8
ENDBRANCH   3   4
ENDBRANCH   2   3
ENDBRANCH   1   2
BRANCH   1  25
ATOM     25  C   UNL     1       4.597   4.205   0.009  1.00  0.00     0.002 C 
BRANCH  25  26
ATOM     26  C   UNL     1       3.940   5.564  -0.237  1.00  0.00     0.021 C 
BRANCH  26  27
ATOM     27  C   UNL     1       4.102   6.574   0.895  1.00  0.00     0.116 C 
BRANCH  27  28
ATOM     28  N   UNL     1       5.492   6.934   1.127  1.00  0.00    -0.352 N 
ATOM     29  C   UNL     1       6.053   8.182   1.250  1.00  0.00     0.251 C 
ATOM     30  H   UNL     1       6.118   6.178   1.206  1.00  0.00     0.163 HD
ATOM     31  O   UNL     1       7.276   8.302   1.271  1.00  0.00    -0.269 OA
BRANCH  29  32
ATOM     32  C   UNL     1       5.181   9.376   1.324  1.00  0.00     0.039 A 
ATOM     33  C   UNL     1       5.496  10.495   0.550  1.00  0.00     0.014 A 
ATOM     34  C   UNL     1       4.046   9.385   2.140  1.00  0.00     0.014 A 
ATOM     35  C   UNL     1       4.636  11.596   0.542  1.00  0.00     0.010 A 
ATOM     36  C   UNL     1       3.151  10.450   2.070  1.00  0.00     0.010 A 
ATOM     37  C   UNL     1       3.435  11.568   1.270  1.00  0.00    -0.014 A 
BRANCH  37  38
ATOM     38  C   UNL     1       2.466  12.695   1.205  1.00  0.00     0.031 A 
ATOM     39  C   UNL     1       2.135  13.481   2.444  1.00  0.00     0.074 A 
ATOM     40  C   UNL     1       1.839  12.970   0.044  1.00  0.00     0.049 A 
ATOM     41  N   UNL     1       1.269  14.450   2.605  1.00  0.00    -0.248 NA
ATOM     42  C   UNL     1       2.852  13.107   3.671  1.00  0.00     0.031 C 
ATOM     43  C   UNL     1       2.044  12.253  -1.216  1.00  0.00     0.029 A 
ATOM     44  N   UNL     1       0.896  13.919  -0.265  1.00  0.00    -0.354 N 
ATOM     45  C   UNL     1       1.329  14.793   3.952  1.00  0.00     0.074 A 
ATOM     46  C   UNL     1       2.266  13.879   4.572  1.00  0.00     0.031 C 
ATOM     47  C   UNL     1       1.273  12.805  -2.166  1.00  0.00     0.029 A 
ATOM     48  C   UNL     1       0.479  13.878  -1.576  1.00  0.00     0.049 A 
ATOM     49  H   UNL     1       0.550  14.568   0.389  1.00  0.00     0.167 HD
ATOM     50  C   UNL     1       0.683  15.792   4.604  1.00  0.00     0.034 A 
ATOM     51  C   UNL     1      -0.447  14.610  -2.227  1.00  0.00     0.034 A 
ATOM     52  C   UNL     1      -0.248  16.693   3.967  1.00  0.00     0.049 A 
ATOM     53  C   UNL     1      -1.185  15.688  -1.475  1.00  0.00     0.074 A 
ATOM     54  C   UNL     1      -0.918  17.771   4.519  1.00  0.00     0.029 A 
ATOM     55  N   UNL     1      -0.653  16.615   2.640  1.00  0.00    -0.354 N 
ATOM     56  N   UNL     1      -1.077  16.037  -0.213  1.00  0.00    -0.248 NA
ATOM     57  C   UNL     1      -2.159  16.479  -2.237  1.00  0.00     0.031 C 
ATOM     58  C   UNL     1      -1.787  18.290   3.553  1.00  0.00     0.029 A 
ATOM     59  C   UNL     1      -1.593  17.599   2.368  1.00  0.00     0.049 A 
ATOM     60  H   UNL     1      -0.321  15.956   1.987  1.00  0.00     0.167 HD
ATOM     61  C   UNL     1      -1.949  17.109  -0.040  1.00  0.00     0.074 A 
ATOM     62  C   UNL     1      -2.562  17.356  -1.329  1.00  0.00     0.031 C 
ATOM     63  C   UNL     1      -2.212  17.828   1.082  1.00  0.00     0.034 A 
BRANCH  50  64
ATOM     64  C   UNL     1       0.942  15.932   6.088  1.00  0.00     0.023 A 
ATOM     65  C   UNL     1       2.229  16.189   6.593  1.00  0.00     0.031 A 
ATOM     66  C   UNL     1      -0.103  15.767   7.015  1.00  0.00     0.131 A 
ATOM     67  C   UNL     1       2.456  16.178   7.978  1.00  0.00     0.055 A 
ATOM     68  C   UNL     1       0.112  15.853   8.392  1.00  0.00     0.041 A 
ATOM     69  F   UNL     1      -1.350  15.498   6.599  1.00  0.00    -0.206 F 
ATOM     70  C   UNL     1       1.401  16.040   8.882  1.00  0.00     0.022 A 
BRANCH  67  71
ATOM     71  S   UNL     1       4.170  16.169   8.572  1.00  0.00     0.124 S 
ATOM     72  O   UNL     1       4.708  14.987   7.903  1.00  0.00    -0.237 OA
ATOM     73  O   UNL     1       4.674  17.454   8.102  1.00  0.00    -0.237 OA
ATOM     74  O   UNL     1       4.029  16.045  10.022  1.00  0.00    -0.744 OA
ENDBRANCH  67  71
ENDBRANCH  50  64
BRANCH  51  75
ATOM     75  C   UNL     1      -0.741  14.342  -3.665  1.00  0.00     0.023 A 
ATOM     76  C   UNL     1      -0.473  15.303  -4.652  1.00  0.00     0.031 A 
ATOM     77  C   UNL     1      -1.321  13.126  -4.070  1.00  0.00     0.131 A 
ATOM     78  C   UNL     1      -0.820  15.049  -5.989  1.00  0.00     0.055 A 
ATOM     79  C   UNL     1      -1.613  12.856  -5.408  1.00  0.00     0.041 A 
ATOM     80  F   UNL     1      -1.595  12.170  -3.167  1.00  0.00    -0.206 F 
ATOM     81  C   UNL     1      -1.373  13.826  -6.375  1.00  0.00     0.022 A 
BRANCH  78  82
ATOM     82  S   UNL     1      -0.609  16.374  -7.209  1.00  0.00     0.124 S 
ATOM     83  O   UNL     1      -1.452  17.426  -6.654  1.00  0.00    -0.237 OA
ATOM     84  O   UNL     1       0.830  16.609  -7.155  1.00  0.00    -0.237 OA
ATOM     85  O   UNL     1      -1.093  15.774  -8.450  1.00  0.00    -0.744 OA
ENDBRANCH  78  82
ENDBRANCH  51  75
BRANCH  63  86
ATOM     86  C   UNL     1      -3.174  18.986   0.949  1.00  0.00     0.023 A 
ATOM     87  C   UNL     1      -4.532  18.794   0.640  1.00  0.00     0.031 A 
ATOM     88  C   UNL     1      -2.719  20.305   1.129  1.00  0.00     0.131 A 
ATOM     89  C   UNL     1      -5.373  19.904   0.464  1.00  0.00     0.055 A 
ATOM     90  C   UNL     1      -3.575  21.401   1.020  1.00  0.00     0.041 A 
ATOM     91  F   UNL     1      -1.431  20.550   1.420  1.00  0.00    -0.206 F 
ATOM     92  C   UNL     1      -4.908  21.205   0.672  1.00  0.00     0.022 A 
BRANCH  89  93
ATOM     93  S   UNL     1      -7.062  19.632  -0.141  1.00  0.00     0.124 S 
ATOM     94  O   UNL     1      -6.823  18.943  -1.405  1.00  0.00    -0.237 OA
ATOM     95  O   UNL     1      -7.649  18.826   0.924  1.00  0.00    -0.237 OA
ATOM     96  O   UNL     1      -7.604  20.984  -0.264  1.00  0.00    -0.744 OA
ENDBRANCH  89  93
ENDBRANCH  63  86
ENDBRANCH  37  38
ENDBRANCH  29  32
ENDBRANCH  27  28
ENDBRANCH  26  27
ENDBRANCH  25  26
ENDBRANCH   1  25
TORSDOF 19
