REMARK SMILES CC1(C)C(NC(=O)[C@@H]2CCC[C@@H](C(=O)NCCCCCCNC(=O)c3ccc(-c4c5nc(c(-c6cc(S(=O)(=O)[O-])ccc6F)c6ccc([nH]6)c(-c6cc(S(=O)(=O)[O-])ccc6F)c6nc(c(-c7cc(S(=O)(=O)[O-])ccc7F)c7ccc4[nH]7)C=C6)C=C5)cc3)C2)C1(C)C
REMARK SMILES IDX 19 1 18 2 17 3 16 4 15 5 13 6 14 7 12 9 8 10 9 11 88 12
REMARK SMILES IDX 10 13 11 14 6 15 5 16 7 18 4 19 1 20 2 21 3 22 89 23 90 24
REMARK SMILES IDX 91 25 20 26 21 27 22 28 23 29 24 31 25 32 26 33 87 34 27 35
REMARK SMILES IDX 86 36 28 37 29 38 30 39 80 40 31 41 85 42 79 43 81 44 32 45
REMARK SMILES IDX 84 46 78 47 77 48 33 50 65 51 45 52 64 53 46 54 49 55 63 56
REMARK SMILES IDX 82 57 47 58 48 59 62 61 83 62 50 63 34 64 35 65 43 66 36 67
REMARK SMILES IDX 42 68 44 69 41 70 37 71 38 72 39 73 40 74 66 75 67 76 75 77
REMARK SMILES IDX 68 78 74 79 76 80 73 81 69 82 70 83 71 84 72 85 51 86 52 87
REMARK SMILES IDX 60 88 53 89 59 90 61 91 58 92 54 93 55 94 56 95 57 96
REMARK H PARENT 15 8 5 17 22 30 81 49 49 60
REMARK Flexibility Score: inf
ROOT
ATOM      1  C   UNL     1       0.130   6.505  -4.371  1.00  0.00     0.002 C 
ENDROOT
BRANCH   1   2
ATOM      2  C   UNL     1       1.099   7.685  -4.250  1.00  0.00     0.002 C 
BRANCH   2   3
ATOM      3  C   UNL     1       1.687   7.936  -2.861  1.00  0.00     0.021 C 
BRANCH   3   4
ATOM      4  C   UNL     1       2.343   6.734  -2.197  1.00  0.00     0.116 C 
BRANCH   4   5
ATOM      5  N   UNL     1       3.621   6.376  -2.779  1.00  0.00    -0.356 N 
ATOM      6  C   UNL     1       4.738   5.784  -2.285  1.00  0.00     0.223 C 
ATOM      7  O   UNL     1       5.583   5.479  -3.138  1.00  0.00    -0.275 OA
ATOM      8  H   UNL     1       3.695   6.610  -3.732  1.00  0.00     0.163 HD
BRANCH   6   9
ATOM      9  C   UNL     1       5.061   5.566  -0.789  1.00  0.00     0.079 C 
ATOM     10  C   UNL     1       3.006   4.380   0.041  1.00  0.00     0.079 C 
ATOM     11  C   UNL     1       3.797   3.113   0.362  1.00  0.00     0.013 C 
ATOM     12  C   UNL     1       3.948   5.572   0.258  1.00  0.00     0.027 C 
ATOM     13  C   UNL     1       4.971   2.996  -0.614  1.00  0.00     0.002 C 
ATOM     14  C   UNL     1       5.861   4.248  -0.610  1.00  0.00     0.013 C 
BRANCH  10  15
ATOM     15  C   UNL     1       1.690   4.540   0.790  1.00  0.00     0.223 C 
ATOM     16  N   UNL     1       0.646   3.714   0.461  1.00  0.00    -0.352 N 
ATOM     17  H   UNL     1      -0.223   3.943   0.863  1.00  0.00     0.163 HD
ATOM     18  O   UNL     1       1.510   5.434   1.616  1.00  0.00    -0.275 OA
BRANCH  16  19
ATOM     19  C   UNL     1       0.652   2.563  -0.391  1.00  0.00     0.094 C 
ATOM     20  C   UNL     1       1.181   0.008  -0.269  1.00  0.00     0.014 C 
ATOM     21  C   UNL     1       0.332   1.183   0.172  1.00  0.00    -0.007 C 
ATOM     22  C   UNL     1      -0.010   1.097   1.648  1.00  0.00     0.014 C 
ATOM     23  C   UNL     1      -0.617   1.865  -0.839  1.00  0.00    -0.007 C 
ATOM     24  C   UNL     1      -0.638   1.444  -2.297  1.00  0.00     0.014 C 
ATOM     25  C   UNL     1      -1.974   2.352  -0.386  1.00  0.00     0.014 C 
ENDBRANCH  16  19
ENDBRANCH  10  15
ENDBRANCH   6   9
ENDBRANCH   4   5
ENDBRANCH   3   4
ENDBRANCH   2   3
ENDBRANCH   1   2
BRANCH   1  26
ATOM     26  C   UNL     1      -0.998   6.442  -3.337  1.00  0.00     0.021 C 
BRANCH  26  27
ATOM     27  C   UNL     1      -1.843   7.704  -3.208  1.00  0.00     0.116 C 
BRANCH  27  28
ATOM     28  N   UNL     1      -2.468   8.082  -4.461  1.00  0.00    -0.352 N 
ATOM     29  C   UNL     1      -3.769   8.431  -4.711  1.00  0.00     0.251 C 
ATOM     30  H   UNL     1      -1.872   8.089  -5.244  1.00  0.00     0.163 HD
ATOM     31  O   UNL     1      -4.146   8.543  -5.880  1.00  0.00    -0.269 OA
BRANCH  29  32
ATOM     32  C   UNL     1      -4.718   8.651  -3.598  1.00  0.00     0.039 A 
ATOM     33  C   UNL     1      -6.032   8.194  -3.737  1.00  0.00     0.014 A 
ATOM     34  C   UNL     1      -4.338   9.336  -2.440  1.00  0.00     0.014 A 
ATOM     35  C   UNL     1      -6.953   8.404  -2.709  1.00  0.00     0.010 A 
ATOM     36  C   UNL     1      -5.235   9.472  -1.382  1.00  0.00     0.010 A 
ATOM     37  C   UNL     1      -6.560   9.034  -1.517  1.00  0.00    -0.014 A 
BRANCH  37  38
ATOM     38  C   UNL     1      -7.545   9.302  -0.436  1.00  0.00     0.031 A 
ATOM     39  C   UNL     1      -7.885  10.724  -0.071  1.00  0.00     0.074 A 
ATOM     40  C   UNL     1      -8.113   8.276   0.226  1.00  0.00     0.049 A 
ATOM     41  N   UNL     1      -8.691  11.173   0.857  1.00  0.00    -0.248 NA
ATOM     42  C   UNL     1      -7.200  11.782  -0.830  1.00  0.00     0.031 C 
ATOM     43  C   UNL     1      -7.836   6.858  -0.015  1.00  0.00     0.029 A 
ATOM     44  N   UNL     1      -9.043   8.264   1.234  1.00  0.00    -0.354 N 
ATOM     45  C   UNL     1      -8.601  12.561   0.799  1.00  0.00     0.074 A 
ATOM     46  C   UNL     1      -7.605  12.874  -0.202  1.00  0.00     0.031 C 
ATOM     47  C   UNL     1      -8.604   6.116   0.799  1.00  0.00     0.029 A 
ATOM     48  C   UNL     1      -9.397   7.000   1.647  1.00  0.00     0.049 A 
ATOM     49  H   UNL     1      -9.422   9.084   1.626  1.00  0.00     0.167 HD
ATOM     50  C   UNL     1      -9.305  13.489   1.495  1.00  0.00     0.034 A 
ATOM     51  C   UNL     1     -10.261   6.602   2.601  1.00  0.00     0.034 A 
ATOM     52  C   UNL     1     -10.304  13.158   2.482  1.00  0.00     0.049 A 
ATOM     53  C   UNL     1     -11.027   7.652   3.368  1.00  0.00     0.074 A 
ATOM     54  C   UNL     1     -11.101  14.011   3.225  1.00  0.00     0.029 A 
ATOM     55  N   UNL     1     -10.642  11.866   2.868  1.00  0.00    -0.354 N 
ATOM     56  N   UNL     1     -10.961   8.961   3.273  1.00  0.00    -0.248 NA
ATOM     57  C   UNL     1     -11.999   7.168   4.354  1.00  0.00     0.031 C 
ATOM     58  C   UNL     1     -11.871  13.240   4.104  1.00  0.00     0.029 A 
ATOM     59  C   UNL     1     -11.620  11.900   3.850  1.00  0.00     0.049 A 
ATOM     60  H   UNL     1     -10.245  11.045   2.496  1.00  0.00     0.167 HD
ATOM     61  C   UNL     1     -11.917   9.453   4.159  1.00  0.00     0.074 A 
ATOM     62  C   UNL     1     -12.553   8.299   4.760  1.00  0.00     0.031 C 
ATOM     63  C   UNL     1     -12.243  10.741   4.447  1.00  0.00     0.034 A 
BRANCH  50  64
ATOM     64  C   UNL     1      -8.992  14.944   1.223  1.00  0.00     0.023 A 
ATOM     65  C   UNL     1      -9.172  15.514  -0.051  1.00  0.00     0.031 A 
ATOM     66  C   UNL     1      -8.470  15.765   2.238  1.00  0.00     0.131 A 
ATOM     67  C   UNL     1      -8.752  16.831  -0.297  1.00  0.00     0.055 A 
ATOM     68  C   UNL     1      -8.140  17.103   2.009  1.00  0.00     0.041 A 
ATOM     69  F   UNL     1      -8.254  15.276   3.470  1.00  0.00    -0.206 F 
ATOM     70  C   UNL     1      -8.263  17.638   0.731  1.00  0.00     0.022 A 
BRANCH  67  71
ATOM     71  S   UNL     1      -8.704  17.417  -2.014  1.00  0.00     0.124 S 
ATOM     72  O   UNL     1      -7.795  16.452  -2.628  1.00  0.00    -0.237 OA
ATOM     73  O   UNL     1     -10.102  17.327  -2.418  1.00  0.00    -0.237 OA
ATOM     74  O   UNL     1      -8.173  18.774  -1.898  1.00  0.00    -0.744 OA
ENDBRANCH  67  71
ENDBRANCH  50  64
BRANCH  51  75
ATOM     75  C   UNL     1     -10.463   5.152   2.885  1.00  0.00     0.023 A 
ATOM     76  C   UNL     1     -11.709   4.538   2.676  1.00  0.00     0.031 A 
ATOM     77  C   UNL     1      -9.426   4.367   3.421  1.00  0.00     0.131 A 
ATOM     78  C   UNL     1     -11.903   3.200   3.053  1.00  0.00     0.055 A 
ATOM     79  C   UNL     1      -9.608   3.021   3.739  1.00  0.00     0.041 A 
ATOM     80  F   UNL     1      -8.212   4.901   3.634  1.00  0.00    -0.206 F 
ATOM     81  C   UNL     1     -10.858   2.433   3.571  1.00  0.00     0.022 A 
BRANCH  78  82
ATOM     82  S   UNL     1     -13.574   2.501   2.946  1.00  0.00     0.124 S 
ATOM     83  O   UNL     1     -14.333   3.414   3.792  1.00  0.00    -0.237 OA
ATOM     84  O   UNL     1     -13.843   2.580   1.514  1.00  0.00    -0.237 OA
ATOM     85  O   UNL     1     -13.411   1.148   3.473  1.00  0.00    -0.744 OA
ENDBRANCH  78  82
ENDBRANCH  51  75
BRANCH  63  86
ATOM     86  C   UNL     1     -13.386  10.957   5.413  1.00  0.00     0.023 A 
ATOM     87  C   UNL     1     -13.319  10.533   6.752  1.00  0.00     0.031 A 
ATOM     88  C   UNL     1     -14.578  11.559   4.971  1.00  0.00     0.131 A 
ATOM     89  C   UNL     1     -14.450  10.638   7.575  1.00  0.00     0.055 A 
ATOM     90  C   UNL     1     -15.673  11.732   5.817  1.00  0.00     0.041 A 
ATOM     91  F   UNL     1     -14.701  11.982   3.703  1.00  0.00    -0.206 F 
ATOM     92  C   UNL     1     -15.621  11.251   7.122  1.00  0.00     0.022 A 
BRANCH  89  93
ATOM     93  S   UNL     1     -14.418   9.833   9.201  1.00  0.00     0.124 S 
ATOM     94  O   UNL     1     -14.059   8.462   8.854  1.00  0.00    -0.237 OA
ATOM     95  O   UNL     1     -13.396  10.600   9.907  1.00  0.00    -0.237 OA
ATOM     96  O   UNL     1     -15.781  10.011   9.698  1.00  0.00    -0.744 OA
ENDBRANCH  89  93
ENDBRANCH  63  86
ENDBRANCH  37  38
ENDBRANCH  29  32
ENDBRANCH  27  28
ENDBRANCH  26  27
ENDBRANCH   1  26
TORSDOF 18
