REMARK SMILES COc1ccc2c(CC(=O)NCCCCCCNC(=O)c3ccc(-c4c5nc(c(-c6cc(S(=O)(=O)[O-])ccc6F)c6ccc([nH]6)c(-c6cc(S(=O)(=O)[O-])ccc6F)c6nc(c(-c7cc(S(=O)(=O)[O-])ccc7F)c7ccc4[nH]7)C=C6)C=C5)cc3)c(C(=O)c3cc(C)ccn3)[nH]c2c1
REMARK SMILES IDX 14 1 13 2 12 3 11 4 9 5 10 6 8 8 7 9 3 10 4 11 96 12 5 13
REMARK SMILES IDX 95 14 6 15 94 16 84 17 2 19 1 20 85 21 86 22 87 23 88 24
REMARK SMILES IDX 93 25 89 26 92 27 90 28 91 29 15 30 16 31 17 32 18 33 19 34
REMARK SMILES IDX 20 36 21 37 22 38 83 39 23 40 82 41 24 42 25 43 26 44 76 45
REMARK SMILES IDX 27 46 81 47 75 48 77 49 28 50 80 51 74 52 73 53 29 55 61 56
REMARK SMILES IDX 41 57 60 58 42 59 45 60 59 61 78 62 43 63 44 64 58 66 79 67
REMARK SMILES IDX 46 68 30 69 31 70 39 71 32 72 38 73 40 74 37 75 33 76 34 77
REMARK SMILES IDX 35 78 36 79 62 80 63 81 71 82 64 83 70 84 72 85 69 86 65 87
REMARK SMILES IDX 66 88 67 89 68 90 47 91 48 92 56 93 49 94 55 95 57 96 54 97
REMARK SMILES IDX 50 98 51 99 52 100 53 101
REMARK H PARENT 11 7 94 18 18 35 77 54 45 65
REMARK Flexibility Score: inf
ROOT
ATOM      1  C   UNL     1       2.741   1.087   8.418  1.00  0.00     0.002 C 
ENDROOT
BRANCH   1   2
ATOM      2  C   UNL     1       2.506   0.280   7.134  1.00  0.00     0.021 C 
BRANCH   2   3
ATOM      3  C   UNL     1       3.603  -0.736   6.821  1.00  0.00     0.116 C 
BRANCH   3   4
ATOM      4  N   UNL     1       3.611  -1.839   7.759  1.00  0.00    -0.356 N 
ATOM      5  C   UNL     1       3.272  -3.148   7.576  1.00  0.00     0.224 C 
ATOM      6  O   UNL     1       3.536  -3.926   8.499  1.00  0.00    -0.275 OA
ATOM      7  H   UNL     1       3.907  -1.608   8.669  1.00  0.00     0.163 HD
BRANCH   5   8
ATOM      8  C   UNL     1       2.736  -3.657   6.243  1.00  0.00     0.138 C 
BRANCH   8   9
ATOM      9  C   UNL     1       1.514  -2.951   5.715  1.00  0.00    -0.002 A 
ATOM     10  C   UNL     1       0.706  -0.619   2.287  1.00  0.00     0.120 A 
ATOM     11  C   UNL     1       1.980  -1.177   2.342  1.00  0.00     0.047 A 
ATOM     12  C   UNL     1      -0.207  -0.838   3.326  1.00  0.00     0.073 A 
ATOM     13  C   UNL     1       2.360  -1.982   3.426  1.00  0.00     0.014 A 
ATOM     14  C   UNL     1       0.185  -1.655   4.394  1.00  0.00     0.050 A 
ATOM     15  C   UNL     1       1.447  -2.229   4.474  1.00  0.00     0.004 A 
ATOM     16  N   UNL     1      -0.505  -2.039   5.516  1.00  0.00    -0.351 N 
ATOM     17  C   UNL     1       0.239  -2.912   6.284  1.00  0.00     0.093 A 
ATOM     18  H   UNL     1      -1.413  -1.732   5.743  1.00  0.00     0.167 HD
BRANCH  10  19
ATOM     19  O   UNL     1       0.236   0.183   1.280  1.00  0.00    -0.497 OA
ATOM     20  C   UNL     1       0.935   0.119   0.041  1.00  0.00     0.278 C 
ENDBRANCH  10  19
BRANCH  17  21
ATOM     21  C   UNL     1      -0.247  -3.613   7.468  1.00  0.00     0.227 C 
ATOM     22  O   UNL     1       0.442  -4.395   8.122  1.00  0.00    -0.285 OA
BRANCH  21  23
ATOM     23  C   UNL     1      -1.667  -3.448   7.878  1.00  0.00     0.113 A 
ATOM     24  C   UNL     1      -2.685  -3.909   7.047  1.00  0.00     0.036 A 
ATOM     25  N   UNL     1      -1.881  -2.867   9.085  1.00  0.00    -0.253 NA
ATOM     26  C   UNL     1      -4.006  -3.763   7.474  1.00  0.00    -0.047 A 
ATOM     27  C   UNL     1      -3.163  -2.761   9.484  1.00  0.00     0.112 A 
ATOM     28  C   UNL     1      -5.154  -4.235   6.633  1.00  0.00     0.044 C 
ATOM     29  C   UNL     1      -4.244  -3.184   8.724  1.00  0.00     0.023 A 
ENDBRANCH  21  23
ENDBRANCH  17  21
ENDBRANCH   8   9
ENDBRANCH   5   8
ENDBRANCH   3   4
ENDBRANCH   2   3
ENDBRANCH   1   2
BRANCH   1  30
ATOM     30  C   UNL     1       4.063   1.862   8.477  1.00  0.00     0.002 C 
BRANCH  30  31
ATOM     31  C   UNL     1       4.322   2.810   7.303  1.00  0.00     0.021 C 
BRANCH  31  32
ATOM     32  C   UNL     1       3.287   3.919   7.130  1.00  0.00     0.116 C 
BRANCH  32  33
ATOM     33  N   UNL     1       3.268   4.832   8.262  1.00  0.00    -0.352 N 
ATOM     34  C   UNL     1       3.397   6.198   8.285  1.00  0.00     0.251 C 
ATOM     35  H   UNL     1       3.145   4.407   9.142  1.00  0.00     0.163 HD
ATOM     36  O   UNL     1       3.554   6.774   9.360  1.00  0.00    -0.269 OA
BRANCH  34  37
ATOM     37  C   UNL     1       3.368   6.974   7.025  1.00  0.00     0.039 A 
ATOM     38  C   UNL     1       4.300   8.000   6.841  1.00  0.00     0.014 A 
ATOM     39  C   UNL     1       2.418   6.708   6.035  1.00  0.00     0.014 A 
ATOM     40  C   UNL     1       4.317   8.716   5.641  1.00  0.00     0.010 A 
ATOM     41  C   UNL     1       2.477   7.380   4.816  1.00  0.00     0.010 A 
ATOM     42  C   UNL     1       3.427   8.391   4.606  1.00  0.00    -0.014 A 
BRANCH  42  43
ATOM     43  C   UNL     1       3.474   9.097   3.298  1.00  0.00     0.031 A 
ATOM     44  C   UNL     1       2.314   9.945   2.854  1.00  0.00     0.074 A 
ATOM     45  C   UNL     1       4.534   8.921   2.483  1.00  0.00     0.049 A 
ATOM     46  N   UNL     1       2.128  10.568   1.718  1.00  0.00    -0.248 NA
ATOM     47  C   UNL     1       1.202  10.086   3.805  1.00  0.00     0.031 C 
ATOM     48  C   UNL     1       5.705   8.095   2.788  1.00  0.00     0.029 A 
ATOM     49  N   UNL     1       4.795   9.416   1.230  1.00  0.00    -0.354 N 
ATOM     50  C   UNL     1       0.875  11.164   1.811  1.00  0.00     0.074 A 
ATOM     51  C   UNL     1       0.325  10.778   3.094  1.00  0.00     0.031 C 
ATOM     52  C   UNL     1       6.564   8.154   1.758  1.00  0.00     0.029 A 
ATOM     53  C   UNL     1       5.991   8.984   0.703  1.00  0.00     0.049 A 
ATOM     54  H   UNL     1       4.184  10.023   0.753  1.00  0.00     0.167 HD
ATOM     55  C   UNL     1       0.251  11.975   0.919  1.00  0.00     0.034 A 
ATOM     56  C   UNL     1       6.555   9.218  -0.498  1.00  0.00     0.034 A 
ATOM     57  C   UNL     1       0.819  12.358  -0.351  1.00  0.00     0.049 A 
ATOM     58  C   UNL     1       5.833  10.103  -1.483  1.00  0.00     0.074 A 
ATOM     59  C   UNL     1       0.298  13.215  -1.306  1.00  0.00     0.029 A 
ATOM     60  N   UNL     1       2.034  11.905  -0.849  1.00  0.00    -0.354 N 
ATOM     61  N   UNL     1       4.668  10.696  -1.361  1.00  0.00    -0.248 NA
ATOM     62  C   UNL     1       6.509  10.359  -2.761  1.00  0.00     0.031 C 
ATOM     63  C   UNL     1       1.165  13.229  -2.405  1.00  0.00     0.029 A 
ATOM     64  C   UNL     1       2.264  12.439  -2.109  1.00  0.00     0.049 A 
ATOM     65  H   UNL     1       2.644  11.293  -0.377  1.00  0.00     0.167 HD
ATOM     66  C   UNL     1       4.486  11.418  -2.537  1.00  0.00     0.074 A 
ATOM     67  C   UNL     1       5.667  11.198  -3.346  1.00  0.00     0.031 C 
ATOM     68  C   UNL     1       3.440  12.199  -2.911  1.00  0.00     0.034 A 
BRANCH  55  69
ATOM     69  C   UNL     1      -1.128  12.473   1.283  1.00  0.00     0.023 A 
ATOM     70  C   UNL     1      -1.344  13.298   2.401  1.00  0.00     0.031 A 
ATOM     71  C   UNL     1      -2.247  12.096   0.520  1.00  0.00     0.131 A 
ATOM     72  C   UNL     1      -2.651  13.651   2.771  1.00  0.00     0.055 A 
ATOM     73  C   UNL     1      -3.537  12.520   0.845  1.00  0.00     0.041 A 
ATOM     74  F   UNL     1      -2.108  11.294  -0.548  1.00  0.00    -0.206 F 
ATOM     75  C   UNL     1      -3.747  13.289   1.986  1.00  0.00     0.022 A 
BRANCH  72  76
ATOM     76  S   UNL     1      -2.908  14.465   4.371  1.00  0.00     0.124 S 
ATOM     77  O   UNL     1      -2.350  13.481   5.295  1.00  0.00    -0.237 OA
ATOM     78  O   UNL     1      -2.151  15.703   4.221  1.00  0.00    -0.237 OA
ATOM     79  O   UNL     1      -4.359  14.625   4.445  1.00  0.00    -0.744 OA
ENDBRANCH  72  76
ENDBRANCH  55  69
BRANCH  56  80
ATOM     80  C   UNL     1       7.865   8.601  -0.850  1.00  0.00     0.023 A 
ATOM     81  C   UNL     1       9.004   9.394  -1.059  1.00  0.00     0.031 A 
ATOM     82  C   UNL     1       7.989   7.211  -1.020  1.00  0.00     0.131 A 
ATOM     83  C   UNL     1      10.206   8.798  -1.470  1.00  0.00     0.055 A 
ATOM     84  C   UNL     1       9.199   6.617  -1.380  1.00  0.00     0.041 A 
ATOM     85  F   UNL     1       6.931   6.406  -0.826  1.00  0.00    -0.206 F 
ATOM     86  C   UNL     1      10.315   7.413  -1.620  1.00  0.00     0.022 A 
BRANCH  83  87
ATOM     87  S   UNL     1      11.609   9.869  -1.886  1.00  0.00     0.124 S 
ATOM     88  O   UNL     1      11.044  10.701  -2.942  1.00  0.00    -0.237 OA
ATOM     89  O   UNL     1      11.869  10.534  -0.614  1.00  0.00    -0.237 OA
ATOM     90  O   UNL     1      12.640   8.927  -2.317  1.00  0.00    -0.744 OA
ENDBRANCH  83  87
ENDBRANCH  56  80
BRANCH  68  91
ATOM     91  C   UNL     1       3.555  12.903  -4.241  1.00  0.00     0.023 A 
ATOM     92  C   UNL     1       3.548  12.196  -5.456  1.00  0.00     0.031 A 
ATOM     93  C   UNL     1       3.691  14.302  -4.289  1.00  0.00     0.131 A 
ATOM     94  C   UNL     1       3.728  12.884  -6.665  1.00  0.00     0.055 A 
ATOM     95  C   UNL     1       3.812  14.987  -5.499  1.00  0.00     0.041 A 
ATOM     96  F   UNL     1       3.706  15.026  -3.159  1.00  0.00    -0.206 F 
ATOM     97  C   UNL     1       3.844  14.277  -6.695  1.00  0.00     0.022 A 
BRANCH  94  98
ATOM     98  S   UNL     1       3.896  11.926  -8.197  1.00  0.00     0.124 S 
ATOM     99  O   UNL     1       5.057  11.091  -7.906  1.00  0.00    -0.237 OA
ATOM    100  O   UNL     1       2.615  11.232  -8.273  1.00  0.00    -0.237 OA
ATOM    101  O   UNL     1       4.108  12.949  -9.220  1.00  0.00    -0.744 OA
ENDBRANCH  94  98
ENDBRANCH  68  91
ENDBRANCH  42  43
ENDBRANCH  34  37
ENDBRANCH  32  33
ENDBRANCH  31  32
ENDBRANCH  30  31
ENDBRANCH   1  30
TORSDOF 20
