REMARK SMILES C[C@@H]1CN(C(=O)N2CCC(CC(=O)NCCCCCCNC(=O)c3ccc(-c4c5nc(c(-c6cc(S(=O)(=O)[O-])ccc6F)c6ccc([nH]6)c(-c6cc(S(=O)(=O)[O-])ccc6F)c6nc(c(-c7cc(S(=O)(=O)[O-])ccc7F)c7ccc4[nH]7)C=C6)C=C5)cc3)CC2)C[C@@H](C)S1
REMARK SMILES IDX 18 1 17 2 16 3 15 4 14 5 12 6 13 7 11 9 10 10 1 11 2 12 3 13
REMARK SMILES IDX 92 14 4 15 90 16 5 17 89 18 91 19 6 20 7 21 8 22 88 23 9 24
REMARK SMILES IDX 87 25 19 26 20 27 21 28 22 29 23 31 24 32 25 33 86 34 26 35
REMARK SMILES IDX 85 36 27 37 28 38 29 39 79 40 30 41 84 42 78 43 80 44 31 45
REMARK SMILES IDX 83 46 77 47 76 48 32 50 64 51 44 52 63 53 45 54 48 55 62 56
REMARK SMILES IDX 81 57 46 58 47 59 61 61 82 62 49 63 33 64 34 65 42 66 35 67
REMARK SMILES IDX 41 68 43 69 40 70 36 71 37 72 38 73 39 74 65 75 66 76 74 77
REMARK SMILES IDX 67 78 73 79 75 80 72 81 68 82 69 83 70 84 71 85 50 86 51 87
REMARK SMILES IDX 59 88 52 89 58 90 60 91 57 92 53 93 54 94 55 95 56 96
REMARK H PARENT 14 8 21 30 80 49 48 60
REMARK Flexibility Score: inf
ROOT
ATOM      1  C   UNL     1      -6.041  -3.436  -1.351  1.00  0.00     0.002 C 
ENDROOT
BRANCH   1   2
ATOM      2  C   UNL     1      -5.592  -4.084  -0.039  1.00  0.00     0.002 C 
BRANCH   2   3
ATOM      3  C   UNL     1      -4.285  -3.534   0.532  1.00  0.00     0.021 C 
BRANCH   3   4
ATOM      4  C   UNL     1      -4.401  -2.131   1.139  1.00  0.00     0.116 C 
BRANCH   4   5
ATOM      5  N   UNL     1      -4.681  -2.214   2.565  1.00  0.00    -0.356 N 
ATOM      6  C   UNL     1      -3.873  -2.033   3.648  1.00  0.00     0.220 C 
ATOM      7  O   UNL     1      -4.325  -2.298   4.764  1.00  0.00    -0.275 OA
ATOM      8  H   UNL     1      -5.614  -2.440   2.785  1.00  0.00     0.163 HD
BRANCH   6   9
ATOM      9  C   UNL     1      -2.462  -1.491   3.497  1.00  0.00     0.103 C 
BRANCH   9  10
ATOM     10  C   UNL     1      -1.342  -2.560   3.500  1.00  0.00     0.002 C 
ATOM     11  C   UNL     1       0.853   0.143   0.177  1.00  0.00     0.021 C 
ATOM     12  C   UNL     1       0.454  -0.639  -1.072  1.00  0.00     0.063 C 
ATOM     13  C   UNL     1       0.225  -2.139  -0.799  1.00  0.00     0.135 C 
ATOM     14  S   UNL     1       1.676  -0.352  -2.403  1.00  0.00    -0.152 SA
ATOM     15  N   UNL     1       1.451  -2.860  -0.454  1.00  0.00    -0.322 N 
ATOM     16  C   UNL     1       3.001  -1.520  -1.872  1.00  0.00     0.063 C 
ATOM     17  C   UNL     1       1.903  -3.031   0.849  1.00  0.00     0.320 C 
ATOM     18  C   UNL     1       2.433  -2.911  -1.540  1.00  0.00     0.135 C 
ATOM     19  C   UNL     1       4.033  -1.598  -2.993  1.00  0.00     0.021 C 
ATOM     20  O   UNL     1       3.101  -3.003   1.127  1.00  0.00    -0.248 OA
ATOM     21  N   UNL     1       0.944  -3.154   1.833  1.00  0.00    -0.325 N 
ATOM     22  C   UNL     1       1.212  -2.679   3.176  1.00  0.00     0.121 C 
ATOM     23  C   UNL     1      -0.158  -4.094   1.756  1.00  0.00     0.121 C 
ATOM     24  C   UNL     1       0.022  -1.846   3.643  1.00  0.00     0.026 C 
ATOM     25  C   UNL     1      -1.443  -3.449   2.249  1.00  0.00     0.026 C 
ENDBRANCH   9  10
ENDBRANCH   6   9
ENDBRANCH   4   5
ENDBRANCH   3   4
ENDBRANCH   2   3
ENDBRANCH   1   2
BRANCH   1  26
ATOM     26  C   UNL     1      -5.025  -3.485  -2.497  1.00  0.00     0.021 C 
BRANCH  26  27
ATOM     27  C   UNL     1      -4.489  -4.875  -2.837  1.00  0.00     0.116 C 
BRANCH  27  28
ATOM     28  N   UNL     1      -5.546  -5.780  -3.254  1.00  0.00    -0.352 N 
ATOM     29  C   UNL     1      -5.741  -6.400  -4.464  1.00  0.00     0.251 C 
ATOM     30  H   UNL     1      -6.224  -5.978  -2.567  1.00  0.00     0.163 HD
ATOM     31  O   UNL     1      -6.817  -6.939  -4.703  1.00  0.00    -0.269 OA
BRANCH  29  32
ATOM     32  C   UNL     1      -4.663  -6.402  -5.478  1.00  0.00     0.039 A 
ATOM     33  C   UNL     1      -4.983  -6.116  -6.808  1.00  0.00     0.014 A 
ATOM     34  C   UNL     1      -3.346  -6.710  -5.124  1.00  0.00     0.014 A 
ATOM     35  C   UNL     1      -3.972  -6.081  -7.772  1.00  0.00     0.010 A 
ATOM     36  C   UNL     1      -2.331  -6.612  -6.073  1.00  0.00     0.010 A 
ATOM     37  C   UNL     1      -2.633  -6.300  -7.408  1.00  0.00    -0.014 A 
BRANCH  37  38
ATOM     38  C   UNL     1      -1.538  -6.215  -8.410  1.00  0.00     0.031 A 
ATOM     39  C   UNL     1      -0.734  -7.440  -8.754  1.00  0.00     0.074 A 
ATOM     40  C   UNL     1      -1.228  -5.025  -8.962  1.00  0.00     0.049 A 
ATOM     41  N   UNL     1       0.308  -7.555  -9.537  1.00  0.00    -0.248 NA
ATOM     42  C   UNL     1      -1.141  -8.696  -8.107  1.00  0.00     0.031 C 
ATOM     43  C   UNL     1      -1.912  -3.761  -8.680  1.00  0.00     0.029 A 
ATOM     44  N   UNL     1      -0.255  -4.680  -9.866  1.00  0.00    -0.354 N 
ATOM     45  C   UNL     1       0.691  -8.891  -9.467  1.00  0.00     0.074 A 
ATOM     46  C   UNL     1      -0.197  -9.529  -8.518  1.00  0.00     0.031 C 
ATOM     47  C   UNL     1      -1.349  -2.785  -9.411  1.00  0.00     0.029 A 
ATOM     48  C   UNL     1      -0.239  -3.340 -10.178  1.00  0.00     0.049 A 
ATOM     49  H   UNL     1       0.374  -5.331 -10.254  1.00  0.00     0.167 HD
ATOM     50  C   UNL     1       1.676  -9.529 -10.146  1.00  0.00     0.034 A 
ATOM     51  C   UNL     1       0.584  -2.637 -10.981  1.00  0.00     0.034 A 
ATOM     52  C   UNL     1       2.544  -8.879 -11.099  1.00  0.00     0.049 A 
ATOM     53  C   UNL     1       1.686  -3.364 -11.710  1.00  0.00     0.074 A 
ATOM     54  C   UNL     1       3.538  -9.439 -11.883  1.00  0.00     0.029 A 
ATOM     55  N   UNL     1       2.528  -7.521 -11.393  1.00  0.00    -0.354 N 
ATOM     56  N   UNL     1       2.005  -4.637 -11.669  1.00  0.00    -0.248 NA
ATOM     57  C   UNL     1       2.531  -2.560 -12.602  1.00  0.00     0.031 C 
ATOM     58  C   UNL     1       4.165  -8.413 -12.599  1.00  0.00     0.029 A 
ATOM     59  C   UNL     1       3.513  -7.221 -12.322  1.00  0.00     0.049 A 
ATOM     60  H   UNL     1       1.907  -6.866 -10.998  1.00  0.00     0.167 HD
ATOM     61  C   UNL     1       3.068  -4.790 -12.554  1.00  0.00     0.074 A 
ATOM     62  C   UNL     1       3.326  -3.483 -13.123  1.00  0.00     0.031 C 
ATOM     63  C   UNL     1       3.766  -5.910 -12.873  1.00  0.00     0.034 A 
BRANCH  50  64
ATOM     64  C   UNL     1       1.878 -10.999  -9.859  1.00  0.00     0.023 A 
ATOM     65  C   UNL     1       0.876 -11.948 -10.127  1.00  0.00     0.031 A 
ATOM     66  C   UNL     1       3.076 -11.455  -9.283  1.00  0.00     0.131 A 
ATOM     67  C   UNL     1       1.057 -13.286  -9.746  1.00  0.00     0.055 A 
ATOM     68  C   UNL     1       3.284 -12.803  -8.983  1.00  0.00     0.041 A 
ATOM     69  F   UNL     1       4.063 -10.595  -8.985  1.00  0.00    -0.206 F 
ATOM     70  C   UNL     1       2.264 -13.726  -9.199  1.00  0.00     0.022 A 
BRANCH  67  71
ATOM     71  S   UNL     1      -0.363 -14.412  -9.838  1.00  0.00     0.124 S 
ATOM     72  O   UNL     1      -1.325 -13.743  -8.965  1.00  0.00    -0.237 OA
ATOM     73  O   UNL     1      -0.679 -14.406 -11.261  1.00  0.00    -0.237 OA
ATOM     74  O   UNL     1       0.165 -15.672  -9.320  1.00  0.00    -0.744 OA
ENDBRANCH  67  71
ENDBRANCH  50  64
BRANCH  51  75
ATOM     75  C   UNL     1       0.412  -1.165 -11.136  1.00  0.00     0.023 A 
ATOM     76  C   UNL     1       0.051  -0.605 -12.372  1.00  0.00     0.031 A 
ATOM     77  C   UNL     1       0.644  -0.290 -10.059  1.00  0.00     0.131 A 
ATOM     78  C   UNL     1      -0.022   0.789 -12.515  1.00  0.00     0.055 A 
ATOM     79  C   UNL     1       0.520   1.094 -10.193  1.00  0.00     0.041 A 
ATOM     80  F   UNL     1       0.985  -0.774  -8.854  1.00  0.00    -0.206 F 
ATOM     81  C   UNL     1       0.198   1.642 -11.431  1.00  0.00     0.022 A 
BRANCH  78  82
ATOM     82  S   UNL     1      -0.331   1.478 -14.164  1.00  0.00     0.124 S 
ATOM     83  O   UNL     1       0.780   0.924 -14.930  1.00  0.00    -0.237 OA
ATOM     84  O   UNL     1      -1.653   0.943 -14.472  1.00  0.00    -0.237 OA
ATOM     85  O   UNL     1      -0.281   2.921 -13.945  1.00  0.00    -0.744 OA
ENDBRANCH  78  82
ENDBRANCH  51  75
BRANCH  63  86
ATOM     86  C   UNL     1       4.844  -5.771 -13.920  1.00  0.00     0.023 A 
ATOM     87  C   UNL     1       6.012  -5.025 -13.686  1.00  0.00     0.031 A 
ATOM     88  C   UNL     1       4.690  -6.385 -15.176  1.00  0.00     0.131 A 
ATOM     89  C   UNL     1       6.956  -4.865 -14.712  1.00  0.00     0.055 A 
ATOM     90  C   UNL     1       5.660  -6.272 -16.172  1.00  0.00     0.041 A 
ATOM     91  F   UNL     1       3.593  -7.107 -15.454  1.00  0.00    -0.206 F 
ATOM     92  C   UNL     1       6.795  -5.498 -15.948  1.00  0.00     0.022 A 
BRANCH  89  93
ATOM     93  S   UNL     1       8.356  -3.745 -14.442  1.00  0.00     0.124 S 
ATOM     94  O   UNL     1       7.684  -2.481 -14.162  1.00  0.00    -0.237 OA
ATOM     95  O   UNL     1       9.040  -4.367 -13.313  1.00  0.00    -0.237 OA
ATOM     96  O   UNL     1       9.084  -3.793 -15.709  1.00  0.00    -0.744 OA
ENDBRANCH  89  93
ENDBRANCH  63  86
ENDBRANCH  37  38
ENDBRANCH  29  32
ENDBRANCH  27  28
ENDBRANCH  26  27
ENDBRANCH   1  26
TORSDOF 17
