REMARK SMILES N#C/C(=C\c1ccc(-c2ccc(C(=O)NCCCCCCNC(=O)c3ccc(-c4c5nc(c(-c6cc(S(=O)(=O)[O-])ccc6F)c6ccc([nH]6)c(-c6cc(S(=O)(=O)[O-])ccc6F)c6nc(c(-c7cc(S(=O)(=O)[O-])ccc7F)c7ccc4[nH]7)C=C6)C=C5)cc3)cc2)o1)[C@@H]1N=c2cc(Br)cnc2=N1
REMARK SMILES IDX 18 1 17 2 16 3 15 4 13 5 14 6 12 8 9 9 10 10 89 11 11 12
REMARK SMILES IDX 88 13 8 14 5 15 6 16 90 17 7 18 4 19 3 20 2 21 1 22 91 23
REMARK SMILES IDX 92 24 100 25 93 26 99 27 94 28 98 29 95 30 97 31 96 32 19 33
REMARK SMILES IDX 20 34 21 35 22 36 23 37 24 39 25 40 26 41 87 42 27 43 86 44
REMARK SMILES IDX 28 45 29 46 30 47 80 48 31 49 85 50 79 51 81 52 32 53 84 54
REMARK SMILES IDX 78 55 77 56 33 58 65 59 45 60 64 61 46 62 49 63 63 64 82 65
REMARK SMILES IDX 47 66 48 67 62 69 83 70 50 71 34 72 35 73 43 74 36 75 42 76
REMARK SMILES IDX 44 77 41 78 37 79 38 80 39 81 40 82 66 83 67 84 75 85 68 86
REMARK SMILES IDX 74 87 76 88 73 89 69 90 70 91 71 92 72 93 51 94 52 95 60 96
REMARK SMILES IDX 53 97 59 98 61 99 58 100 54 101 55 102 56 103 57 104
REMARK H PARENT 15 7 22 38 81 57 49 68
REMARK Flexibility Score: inf
ROOT
ATOM      1  C   UNL     1      18.677  -2.888   0.580  1.00  0.00     0.002 C 
ENDROOT
BRANCH   1   2
ATOM      2  C   UNL     1      17.232  -2.520   0.939  1.00  0.00     0.021 C 
BRANCH   2   3
ATOM      3  C   UNL     1      16.857  -1.091   0.541  1.00  0.00     0.116 C 
BRANCH   3   4
ATOM      4  N   UNL     1      16.606  -1.022  -0.888  1.00  0.00    -0.352 N 
ATOM      5  C   UNL     1      15.442  -0.967  -1.612  1.00  0.00     0.251 C 
ATOM      6  O   UNL     1      15.520  -0.899  -2.838  1.00  0.00    -0.269 OA
ATOM      7  H   UNL     1      17.422  -1.012  -1.439  1.00  0.00     0.163 HD
BRANCH   5   8
ATOM      8  C   UNL     1      14.105  -0.913  -0.965  1.00  0.00     0.039 A 
ATOM      9  C   UNL     1      11.600  -0.553   0.242  1.00  0.00     0.017 A 
ATOM     10  C   UNL     1      11.862   0.026  -1.002  1.00  0.00     0.013 A 
ATOM     11  C   UNL     1      12.562  -1.370   0.841  1.00  0.00     0.013 A 
ATOM     12  C   UNL     1      13.114  -0.148  -1.598  1.00  0.00     0.014 A 
ATOM     13  C   UNL     1      13.792  -1.579   0.222  1.00  0.00     0.014 A 
BRANCH   9  14
ATOM     14  C   UNL     1      10.374  -0.286   0.953  1.00  0.00     0.134 A 
ATOM     15  C   UNL     1       8.211  -0.564   1.310  1.00  0.00     0.128 A 
ATOM     16  C   UNL     1       8.726   0.211   2.347  1.00  0.00     0.051 A 
ATOM     17  O   UNL     1       9.252  -0.877   0.469  1.00  0.00    -0.457 OA
ATOM     18  C   UNL     1      10.099   0.410   2.103  1.00  0.00     0.051 A 
BRANCH  15  19
ATOM     19  C   UNL     1       6.880  -1.020   1.089  1.00  0.00     0.066 C 
ATOM     20  C   UNL     1       5.807  -0.201   1.167  1.00  0.00     0.080 C 
BRANCH  20  21
ATOM     21  C   UNL     1       6.072   1.282   1.368  1.00  0.00     0.099 C 
ATOM     22  N   UNL     1       6.293   2.512   1.535  1.00  0.00    -0.193 NA
ENDBRANCH  20  21
BRANCH  20  23
ATOM     23  C   UNL     1       4.376  -0.663   1.061  1.00  0.00     0.265 C 
ATOM     24  N   UNL     1       3.758  -0.598   2.418  1.00  0.00    -0.249 NA
ATOM     25  N   UNL     1       4.298  -2.057   0.535  1.00  0.00    -0.232 NA
ATOM     26  C   UNL     1       3.466  -1.827   2.655  1.00  0.00     0.106 A 
ATOM     27  C   UNL     1       3.797  -2.716   1.521  1.00  0.00     0.175 A 
ATOM     28  C   UNL     1       2.873  -2.440   3.842  1.00  0.00     0.049 A 
ATOM     29  N   UNL     1       3.617  -4.066   1.511  1.00  0.00    -0.234 NA
ATOM     30  C   UNL     1       2.710  -3.770   3.824  1.00  0.00     0.038 A 
ATOM     31  C   UNL     1       3.120  -4.546   2.608  1.00  0.00     0.129 A 
ATOM     32  Br  UNL     1       1.978  -4.718   5.246  1.00  0.00    -0.049 Br
ENDBRANCH  20  23
ENDBRANCH  15  19
ENDBRANCH   9  14
ENDBRANCH   5   8
ENDBRANCH   3   4
ENDBRANCH   2   3
ENDBRANCH   1   2
BRANCH   1  33
ATOM     33  C   UNL     1      19.747  -2.079   1.322  1.00  0.00     0.002 C 
BRANCH  33  34
ATOM     34  C   UNL     1      19.642  -2.120   2.848  1.00  0.00     0.021 C 
BRANCH  34  35
ATOM     35  C   UNL     1      19.798  -3.514   3.446  1.00  0.00     0.116 C 
BRANCH  35  36
ATOM     36  N   UNL     1      21.151  -4.021   3.276  1.00  0.00    -0.352 N 
ATOM     37  C   UNL     1      22.013  -4.496   4.236  1.00  0.00     0.251 C 
ATOM     38  H   UNL     1      21.494  -4.023   2.353  1.00  0.00     0.163 HD
ATOM     39  O   UNL     1      23.194  -4.672   3.977  1.00  0.00    -0.269 OA
BRANCH  37  40
ATOM     40  C   UNL     1      21.486  -4.773   5.590  1.00  0.00     0.039 A 
ATOM     41  C   UNL     1      22.155  -4.263   6.705  1.00  0.00     0.014 A 
ATOM     42  C   UNL     1      20.315  -5.519   5.745  1.00  0.00     0.014 A 
ATOM     43  C   UNL     1      21.613  -4.453   7.980  1.00  0.00     0.010 A 
ATOM     44  C   UNL     1      19.747  -5.653   7.006  1.00  0.00     0.010 A 
ATOM     45  C   UNL     1      20.390  -5.123   8.137  1.00  0.00    -0.014 A 
BRANCH  45  46
ATOM     46  C   UNL     1      19.766  -5.332   9.470  1.00  0.00     0.031 A 
ATOM     47  C   UNL     1      19.590  -6.736   9.981  1.00  0.00     0.074 A 
ATOM     48  C   UNL     1      19.279  -4.287  10.167  1.00  0.00     0.049 A 
ATOM     49  N   UNL     1      18.887  -7.169  10.993  1.00  0.00    -0.248 NA
ATOM     50  C   UNL     1      20.273  -7.797   9.222  1.00  0.00     0.031 C 
ATOM     51  C   UNL     1      19.385  -2.881   9.772  1.00  0.00     0.029 A 
ATOM     52  N   UNL     1      18.571  -4.247  11.343  1.00  0.00    -0.354 N 
ATOM     53  C   UNL     1      19.025  -8.553  10.984  1.00  0.00     0.074 A 
ATOM     54  C   UNL     1      19.834  -8.887   9.832  1.00  0.00     0.031 C 
ATOM     55  C   UNL     1      18.763  -2.119  10.688  1.00  0.00     0.029 A 
ATOM     56  C   UNL     1      18.166  -2.981  11.703  1.00  0.00     0.049 A 
ATOM     57  H   UNL     1      18.372  -5.049  11.879  1.00  0.00     0.167 HD
ATOM     58  C   UNL     1      18.539  -9.459  11.868  1.00  0.00     0.034 A 
ATOM     59  C   UNL     1      17.376  -2.569  12.717  1.00  0.00     0.034 A 
ATOM     60  C   UNL     1      17.749  -9.106  13.020  1.00  0.00     0.049 A 
ATOM     61  C   UNL     1      16.817  -3.601  13.669  1.00  0.00     0.074 A 
ATOM     62  C   UNL     1      17.207  -9.939  13.984  1.00  0.00     0.029 A 
ATOM     63  N   UNL     1      17.395  -7.810  13.372  1.00  0.00    -0.354 N 
ATOM     64  N   UNL     1      16.953  -4.907  13.644  1.00  0.00    -0.248 NA
ATOM     65  C   UNL     1      16.006  -3.105  14.791  1.00  0.00     0.031 C 
ATOM     66  C   UNL     1      16.488  -9.153  14.890  1.00  0.00     0.029 A 
ATOM     67  C   UNL     1      16.639  -7.824  14.532  1.00  0.00     0.049 A 
ATOM     68  H   UNL     1      17.645  -7.001  12.870  1.00  0.00     0.167 HD
ATOM     69  C   UNL     1      16.288  -5.379  14.774  1.00  0.00     0.074 A 
ATOM     70  C   UNL     1      15.752  -4.222  15.457  1.00  0.00     0.031 C 
ATOM     71  C   UNL     1      16.140  -6.654  15.212  1.00  0.00     0.034 A 
BRANCH  58  72
ATOM     72  C   UNL     1      18.838 -10.913  11.608  1.00  0.00     0.023 A 
ATOM     73  C   UNL     1      20.154 -11.407  11.637  1.00  0.00     0.031 A 
ATOM     74  C   UNL     1      17.802 -11.816  11.313  1.00  0.00     0.131 A 
ATOM     75  C   UNL     1      20.406 -12.747  11.311  1.00  0.00     0.055 A 
ATOM     76  C   UNL     1      18.052 -13.168  11.068  1.00  0.00     0.041 A 
ATOM     77  F   UNL     1      16.528 -11.398  11.249  1.00  0.00    -0.206 F 
ATOM     78  C   UNL     1      19.362 -13.638  11.053  1.00  0.00     0.022 A 
BRANCH  75  79
ATOM     79  S   UNL     1      22.128 -13.277  11.107  1.00  0.00     0.124 S 
ATOM     80  O   UNL     1      22.562 -12.438   9.993  1.00  0.00    -0.237 OA
ATOM     81  O   UNL     1      22.711 -12.966  12.407  1.00  0.00    -0.237 OA
ATOM     82  O   UNL     1      22.013 -14.701  10.799  1.00  0.00    -0.744 OA
ENDBRANCH  75  79
ENDBRANCH  58  72
BRANCH  59  83
ATOM     83  C   UNL     1      17.033  -1.126  12.880  1.00  0.00     0.023 A 
ATOM     84  C   UNL     1      17.406  -0.422  14.036  1.00  0.00     0.031 A 
ATOM     85  C   UNL     1      16.260  -0.448  11.921  1.00  0.00     0.131 A 
ATOM     86  C   UNL     1      16.947   0.889  14.238  1.00  0.00     0.055 A 
ATOM     87  C   UNL     1      15.861   0.879  12.095  1.00  0.00     0.041 A 
ATOM     88  F   UNL     1      15.876  -1.070  10.794  1.00  0.00    -0.206 F 
ATOM     89  C   UNL     1      16.189   1.549  13.269  1.00  0.00     0.022 A 
BRANCH  86  90
ATOM     90  S   UNL     1      17.247   1.672  15.847  1.00  0.00     0.124 S 
ATOM     91  O   UNL     1      16.680   0.689  16.763  1.00  0.00    -0.237 OA
ATOM     92  O   UNL     1      18.700   1.797  15.855  1.00  0.00    -0.237 OA
ATOM     93  O   UNL     1      16.513   2.933  15.752  1.00  0.00    -0.744 OA
ENDBRANCH  86  90
ENDBRANCH  59  83
BRANCH  71  94
ATOM     94  C   UNL     1      15.451  -6.857  16.537  1.00  0.00     0.023 A 
ATOM     95  C   UNL     1      14.073  -6.639  16.704  1.00  0.00     0.031 A 
ATOM     96  C   UNL     1      16.193  -7.307  17.644  1.00  0.00     0.131 A 
ATOM     97  C   UNL     1      13.486  -6.839  17.963  1.00  0.00     0.055 A 
ATOM     98  C   UNL     1      15.594  -7.551  18.879  1.00  0.00     0.041 A 
ATOM     99  F   UNL     1      17.512  -7.532  17.534  1.00  0.00    -0.206 F 
ATOM    100  C   UNL     1      14.234  -7.309  19.046  1.00  0.00     0.022 A 
BRANCH  97 101
ATOM    101  S   UNL     1      11.732  -6.429  18.183  1.00  0.00     0.124 S 
ATOM    102  O   UNL     1      11.714  -5.000  17.888  1.00  0.00    -0.237 OA
ATOM    103  O   UNL     1      11.084  -7.290  17.198  1.00  0.00    -0.237 OA
ATOM    104  O   UNL     1      11.470  -6.780  19.577  1.00  0.00    -0.744 OA
ENDBRANCH  97 101
ENDBRANCH  71  94
ENDBRANCH  45  46
ENDBRANCH  37  40
ENDBRANCH  35  36
ENDBRANCH  34  35
ENDBRANCH  33  34
ENDBRANCH   1  33
TORSDOF 20
