REMARK SMILES O=C(Cn1c(-c2nc(-c3ccc(C(F)(F)F)cc3)no2)cc2ccccc21)NCCCCCCNC(=O)c1ccc(-c2c3nc(c(-c4cc(S(=O)(=O)[O-])ccc4F)c4ccc([nH]4)c(-c4cc(S(=O)(=O)[O-])ccc4F)c4nc(c(-c5cc(S(=O)(=O)[O-])ccc5F)c5ccc2[nH]5)C=C4)C=C3)cc1
REMARK SMILES IDX 31 1 30 2 29 3 28 4 1 5 2 6 3 8 4 9 5 10 27 11 21 12 22 13
REMARK SMILES IDX 26 14 23 15 25 16 24 17 6 18 7 19 20 20 8 21 19 22 9 23
REMARK SMILES IDX 10 24 18 25 11 26 17 27 12 28 13 29 14 30 15 31 16 32 32 33
REMARK SMILES IDX 33 34 34 35 35 36 36 37 37 39 38 40 39 41 100 42 40 43 99 44
REMARK SMILES IDX 41 45 42 46 43 47 93 48 44 49 98 50 92 51 94 52 45 53 97 54
REMARK SMILES IDX 91 55 90 56 46 58 78 59 58 60 77 61 59 62 62 63 76 64 95 65
REMARK SMILES IDX 60 66 61 67 75 69 96 70 63 71 47 72 48 73 56 74 49 75 55 76
REMARK SMILES IDX 57 77 54 78 50 79 51 80 52 81 53 82 79 83 80 84 88 85 81 86
REMARK SMILES IDX 87 87 89 88 86 89 82 90 83 91 84 92 85 93 64 94 65 95 73 96
REMARK SMILES IDX 66 97 72 98 74 99 71 100 67 101 68 102 69 103 70 104
REMARK H PARENT 28 7 35 38 94 57 62 68
REMARK Flexibility Score: inf
ROOT
ATOM      1  C   UNL     1       3.736   3.827   1.904  1.00  0.00     0.002 C 
ENDROOT
BRANCH   1   2
ATOM      2  C   UNL     1       2.280   3.375   1.698  1.00  0.00     0.021 C 
BRANCH   2   3
ATOM      3  C   UNL     1       1.992   2.516   0.465  1.00  0.00     0.116 C 
BRANCH   3   4
ATOM      4  N   UNL     1       2.712   1.257   0.457  1.00  0.00    -0.355 N 
ATOM      5  O   UNL     1       0.988  -0.003  -0.411  1.00  0.00    -0.273 OA
ATOM      6  C   UNL     1       2.161   0.099  -0.063  1.00  0.00     0.239 C 
ATOM      7  H   UNL     1       3.622   1.226   0.833  1.00  0.00     0.163 HD
BRANCH   6   8
ATOM      8  C   UNL     1       3.111  -1.076  -0.101  1.00  0.00     0.222 C 
BRANCH   8   9
ATOM      9  N   UNL     1       3.743  -1.361  -1.391  1.00  0.00    -0.327 N 
ATOM     10  C   UNL     1       4.364  -0.475  -2.253  1.00  0.00     0.109 A 
ATOM     11  C   UNL     1       4.026  -2.670  -1.803  1.00  0.00     0.049 A 
ATOM     12  C   UNL     1       5.001  -1.214  -3.229  1.00  0.00     0.042 A 
ATOM     13  C   UNL     1       4.828  -2.583  -2.944  1.00  0.00     0.000 A 
ATOM     14  C   UNL     1       3.681  -3.925  -1.263  1.00  0.00     0.027 A 
ATOM     15  C   UNL     1       5.314  -3.755  -3.553  1.00  0.00     0.010 A 
ATOM     16  C   UNL     1       4.170  -5.079  -1.889  1.00  0.00     0.002 A 
ATOM     17  C   UNL     1       4.982  -4.998  -3.015  1.00  0.00     0.001 A 
BRANCH  10  18
ATOM     18  C   UNL     1       4.493   0.944  -2.151  1.00  0.00     0.274 A 
ATOM     19  N   UNL     1       3.632   1.831  -2.602  1.00  0.00    -0.185 NA
ATOM     20  O   UNL     1       5.667   1.517  -1.747  1.00  0.00    -0.332 OA
ATOM     21  C   UNL     1       4.344   3.018  -2.537  1.00  0.00     0.202 A 
ATOM     22  N   UNL     1       5.568   2.874  -2.000  1.00  0.00    -0.057 NA
BRANCH  21  23
ATOM     23  C   UNL     1       3.769   4.336  -2.820  1.00  0.00     0.023 A 
ATOM     24  C   UNL     1       4.595   5.467  -2.943  1.00  0.00     0.013 A 
ATOM     25  C   UNL     1       2.381   4.521  -2.811  1.00  0.00     0.013 A 
ATOM     26  C   UNL     1       4.049   6.758  -2.961  1.00  0.00     0.014 A 
ATOM     27  C   UNL     1       1.835   5.811  -2.797  1.00  0.00     0.014 A 
ATOM     28  C   UNL     1       2.663   6.943  -2.836  1.00  0.00     0.056 A 
BRANCH  28  29
ATOM     29  C   UNL     1       2.084   8.317  -2.592  1.00  0.00     0.416 C 
ATOM     30  F   UNL     1       2.208   8.667  -1.274  1.00  0.00    -0.166 F 
ATOM     31  F   UNL     1       2.684   9.306  -3.296  1.00  0.00    -0.166 F 
ATOM     32  F   UNL     1       0.751   8.403  -2.853  1.00  0.00    -0.166 F 
ENDBRANCH  28  29
ENDBRANCH  21  23
ENDBRANCH  10  18
ENDBRANCH   8   9
ENDBRANCH   6   8
ENDBRANCH   3   4
ENDBRANCH   2   3
ENDBRANCH   1   2
BRANCH   1  33
ATOM     33  C   UNL     1       4.321   4.768   0.848  1.00  0.00     0.002 C 
BRANCH  33  34
ATOM     34  C   UNL     1       3.663   6.147   0.677  1.00  0.00     0.021 C 
BRANCH  34  35
ATOM     35  C   UNL     1       4.212   7.294   1.530  1.00  0.00     0.116 C 
BRANCH  35  36
ATOM     36  N   UNL     1       5.657   7.414   1.467  1.00  0.00    -0.352 N 
ATOM     37  C   UNL     1       6.590   8.246   0.918  1.00  0.00     0.251 C 
ATOM     38  H   UNL     1       6.091   6.682   1.963  1.00  0.00     0.163 HD
ATOM     39  O   UNL     1       7.755   7.981   1.241  1.00  0.00    -0.269 OA
BRANCH  37  40
ATOM     40  C   UNL     1       6.369   9.368  -0.039  1.00  0.00     0.039 A 
ATOM     41  C   UNL     1       5.172   9.710  -0.659  1.00  0.00     0.014 A 
ATOM     42  C   UNL     1       7.525  10.077  -0.417  1.00  0.00     0.014 A 
ATOM     43  C   UNL     1       5.174  10.592  -1.752  1.00  0.00     0.010 A 
ATOM     44  C   UNL     1       7.514  10.996  -1.463  1.00  0.00     0.010 A 
ATOM     45  C   UNL     1       6.366  11.163  -2.226  1.00  0.00    -0.014 A 
BRANCH  45  46
ATOM     46  C   UNL     1       6.379  11.874  -3.524  1.00  0.00     0.031 A 
ATOM     47  C   UNL     1       5.245  12.822  -3.779  1.00  0.00     0.074 A 
ATOM     48  C   UNL     1       7.365  11.751  -4.448  1.00  0.00     0.049 A 
ATOM     49  N   UNL     1       4.342  12.771  -4.709  1.00  0.00    -0.248 NA
ATOM     50  C   UNL     1       5.035  13.905  -2.807  1.00  0.00     0.031 C 
ATOM     51  C   UNL     1       8.663  11.071  -4.329  1.00  0.00     0.029 A 
ATOM     52  N   UNL     1       7.446  12.299  -5.698  1.00  0.00    -0.354 N 
ATOM     53  C   UNL     1       3.533  13.897  -4.535  1.00  0.00     0.074 A 
ATOM     54  C   UNL     1       3.931  14.485  -3.280  1.00  0.00     0.031 C 
ATOM     55  C   UNL     1       9.485  11.473  -5.325  1.00  0.00     0.029 A 
ATOM     56  C   UNL     1       8.720  12.280  -6.254  1.00  0.00     0.049 A 
ATOM     57  H   UNL     1       6.666  12.675  -6.166  1.00  0.00     0.167 HD
ATOM     58  C   UNL     1       2.686  14.365  -5.499  1.00  0.00     0.034 A 
ATOM     59  C   UNL     1       9.149  12.907  -7.379  1.00  0.00     0.034 A 
ATOM     60  C   UNL     1       2.446  13.391  -6.524  1.00  0.00     0.049 A 
ATOM     61  C   UNL     1       7.962  13.225  -8.201  1.00  0.00     0.074 A 
ATOM     62  C   UNL     1       1.809  12.169  -6.578  1.00  0.00     0.029 A 
ATOM     63  N   UNL     1       3.180  13.477  -7.680  1.00  0.00    -0.354 N 
ATOM     64  N   UNL     1       7.234  12.329  -8.805  1.00  0.00    -0.248 NA
ATOM     65  C   UNL     1       7.326  14.514  -7.981  1.00  0.00     0.031 C 
ATOM     66  C   UNL     1       2.575  11.396  -7.496  1.00  0.00     0.029 A 
ATOM     67  C   UNL     1       3.600  12.207  -7.985  1.00  0.00     0.049 A 
ATOM     68  H   UNL     1       3.371  14.295  -8.193  1.00  0.00     0.167 HD
ATOM     69  C   UNL     1       5.933  12.769  -8.624  1.00  0.00     0.074 A 
ATOM     70  C   UNL     1       6.057  14.159  -8.186  1.00  0.00     0.031 C 
ATOM     71  C   UNL     1       4.884  11.896  -8.577  1.00  0.00     0.034 A 
BRANCH  58  72
ATOM     72  C   UNL     1       2.285  15.814  -5.650  1.00  0.00     0.023 A 
ATOM     73  C   UNL     1       3.002  16.856  -5.034  1.00  0.00     0.031 A 
ATOM     74  C   UNL     1       1.313  16.211  -6.593  1.00  0.00     0.131 A 
ATOM     75  C   UNL     1       2.737  18.202  -5.319  1.00  0.00     0.055 A 
ATOM     76  C   UNL     1       1.095  17.555  -6.930  1.00  0.00     0.041 A 
ATOM     77  F   UNL     1       0.579  15.302  -7.254  1.00  0.00    -0.206 F 
ATOM     78  C   UNL     1       1.808  18.560  -6.289  1.00  0.00     0.022 A 
BRANCH  75  79
ATOM     79  S   UNL     1       3.612  19.513  -4.421  1.00  0.00     0.124 S 
ATOM     80  O   UNL     1       4.319  20.196  -5.505  1.00  0.00    -0.237 OA
ATOM     81  O   UNL     1       2.502  20.256  -3.828  1.00  0.00    -0.237 OA
ATOM     82  O   UNL     1       4.443  18.783  -3.476  1.00  0.00    -0.744 OA
ENDBRANCH  75  79
ENDBRANCH  58  72
BRANCH  59  83
ATOM     83  C   UNL     1      10.384  13.727  -7.471  1.00  0.00     0.023 A 
ATOM     84  C   UNL     1      10.857  14.388  -6.322  1.00  0.00     0.031 A 
ATOM     85  C   UNL     1      10.903  14.137  -8.712  1.00  0.00     0.131 A 
ATOM     86  C   UNL     1      11.766  15.449  -6.431  1.00  0.00     0.055 A 
ATOM     87  C   UNL     1      11.830  15.183  -8.818  1.00  0.00     0.041 A 
ATOM     88  F   UNL     1      10.465  13.578  -9.851  1.00  0.00    -0.206 F 
ATOM     89  C   UNL     1      12.253  15.856  -7.674  1.00  0.00     0.022 A 
BRANCH  86  90
ATOM     90  S   UNL     1      12.253  16.392  -4.960  1.00  0.00     0.124 S 
ATOM     91  O   UNL     1      13.709  16.408  -5.075  1.00  0.00    -0.237 OA
ATOM     92  O   UNL     1      11.589  17.669  -5.195  1.00  0.00    -0.237 OA
ATOM     93  O   UNL     1      11.730  15.595  -3.854  1.00  0.00    -0.744 OA
ENDBRANCH  86  90
ENDBRANCH  59  83
BRANCH  71  94
ATOM     94  C   UNL     1       5.126  10.443  -8.922  1.00  0.00     0.023 A 
ATOM     95  C   UNL     1       4.243   9.841  -9.834  1.00  0.00     0.031 A 
ATOM     96  C   UNL     1       6.017   9.599  -8.230  1.00  0.00     0.131 A 
ATOM     97  C   UNL     1       4.232   8.451 -10.000  1.00  0.00     0.055 A 
ATOM     98  C   UNL     1       6.052   8.217  -8.450  1.00  0.00     0.041 A 
ATOM     99  F   UNL     1       6.817  10.066  -7.264  1.00  0.00    -0.206 F 
ATOM    100  C   UNL     1       5.144   7.634  -9.326  1.00  0.00     0.022 A 
BRANCH  97 101
ATOM    101  S   UNL     1       2.928   7.660 -10.975  1.00  0.00     0.124 S 
ATOM    102  O   UNL     1       3.685   7.037 -12.056  1.00  0.00    -0.237 OA
ATOM    103  O   UNL     1       2.338   6.734 -10.009  1.00  0.00    -0.237 OA
ATOM    104  O   UNL     1       2.063   8.766 -11.374  1.00  0.00    -0.744 OA
ENDBRANCH  97 101
ENDBRANCH  71  94
ENDBRANCH  45  46
ENDBRANCH  37  40
ENDBRANCH  35  36
ENDBRANCH  34  35
ENDBRANCH  33  34
ENDBRANCH   1  33
TORSDOF 20
