REMARK SMILES Cc1cccc2c1[C@H]1c3c(C)cccc3[C@H](CC(=O)NCCCCCCNC(=O)c3ccc(-c4c5nc(c(-c6cc(S(=O)(=O)[O-])ccc6F)c6ccc([nH]6)c(-c6cc(S(=O)(=O)[O-])ccc6F)c6nc(c(-c7cc(S(=O)(=O)[O-])ccc7F)c7ccc4[nH]7)C=C6)C=C5)cc3)C[C@H]1CC2
REMARK SMILES IDX 24 1 23 2 22 3 21 4 20 5 18 6 19 7 17 9 16 10 1 11 2 12 3 13
REMARK SMILES IDX 7 14 4 15 6 16 8 17 5 18 96 19 9 20 94 21 95 22 10 23 15 24
REMARK SMILES IDX 93 25 12 26 11 27 14 28 13 29 25 30 26 31 27 32 28 33 29 35
REMARK SMILES IDX 30 36 31 37 92 38 32 39 91 40 33 41 34 42 35 43 85 44 36 45
REMARK SMILES IDX 90 46 84 47 86 48 37 49 89 50 83 51 82 52 38 54 70 55 50 56
REMARK SMILES IDX 69 57 51 58 54 59 68 60 87 61 52 62 53 63 67 65 88 66 55 67
REMARK SMILES IDX 39 68 40 69 48 70 41 71 47 72 49 73 46 74 42 75 43 76 44 77
REMARK SMILES IDX 45 78 71 79 72 80 80 81 73 82 79 83 81 84 78 85 74 86 75 87
REMARK SMILES IDX 76 88 77 89 56 90 57 91 65 92 58 93 64 94 66 95 63 96 59 97
REMARK SMILES IDX 60 98 61 99 62 100
REMARK H PARENT 20 8 27 34 86 53 54 64
REMARK Flexibility Score: inf
ROOT
ATOM      1  C   UNL     1       5.322   3.022   9.326  1.00  0.00     0.002 C 
ENDROOT
BRANCH   1   2
ATOM      2  C   UNL     1       5.487   2.540   7.882  1.00  0.00     0.002 C 
BRANCH   2   3
ATOM      3  C   UNL     1       4.771   1.225   7.556  1.00  0.00     0.021 C 
BRANCH   3   4
ATOM      4  C   UNL     1       3.267   1.258   7.800  1.00  0.00     0.116 C 
BRANCH   4   5
ATOM      5  N   UNL     1       2.630   2.196   6.895  1.00  0.00    -0.356 N 
ATOM      6  C   UNL     1       1.475   2.043   6.191  1.00  0.00     0.220 C 
ATOM      7  O   UNL     1       1.202   2.852   5.307  1.00  0.00    -0.275 OA
ATOM      8  H   UNL     1       3.093   3.056   6.774  1.00  0.00     0.163 HD
BRANCH   6   9
ATOM      9  C   UNL     1       0.550   0.915   6.576  1.00  0.00     0.108 C 
BRANCH   9  10
ATOM     10  C   UNL     1       0.387  -0.220   5.540  1.00  0.00     0.029 C 
ATOM     11  C   UNL     1       1.370  -0.107  -0.306  1.00  0.00     0.044 C 
ATOM     12  C   UNL     1       0.763  -1.435   0.068  1.00  0.00    -0.047 A 
ATOM     13  C   UNL     1       0.470  -2.327  -0.982  1.00  0.00     0.004 A 
ATOM     14  C   UNL     1       0.555  -1.843   1.411  1.00  0.00    -0.034 A 
ATOM     15  C   UNL     1       0.018  -3.616  -0.723  1.00  0.00     0.001 A 
ATOM     16  C   UNL     1       0.261  -3.204   1.655  1.00  0.00    -0.044 A 
ATOM     17  C   UNL     1       0.637  -0.871   2.596  1.00  0.00     0.053 C 
ATOM     18  C   UNL     1      -0.048  -4.063   0.588  1.00  0.00     0.004 A 
ATOM     19  C   UNL     1       0.425  -3.834   3.015  1.00  0.00     0.036 C 
ATOM     20  C   UNL     1      -0.699  -0.308   3.167  1.00  0.00    -0.034 A 
ATOM     21  C   UNL     1       1.462  -1.589   3.696  1.00  0.00     0.002 C 
ATOM     22  C   UNL     1       0.778  -2.889   4.156  1.00  0.00     0.009 C 
ATOM     23  C   UNL     1      -1.852  -0.008   2.383  1.00  0.00    -0.047 A 
ATOM     24  C   UNL     1      -0.778  -0.026   4.567  1.00  0.00    -0.040 A 
ATOM     25  C   UNL     1       1.701  -0.615   4.854  1.00  0.00     0.013 C 
ATOM     26  C   UNL     1      -3.042   0.432   3.002  1.00  0.00     0.004 A 
ATOM     27  C   UNL     1      -1.945  -0.129   0.888  1.00  0.00     0.044 C 
ATOM     28  C   UNL     1      -2.014   0.344   5.143  1.00  0.00     0.004 A 
ATOM     29  C   UNL     1      -3.134   0.584   4.371  1.00  0.00     0.001 A 
ENDBRANCH   9  10
ENDBRANCH   6   9
ENDBRANCH   4   5
ENDBRANCH   3   4
ENDBRANCH   2   3
ENDBRANCH   1   2
BRANCH   1  30
ATOM     30  C   UNL     1       5.730   2.002  10.389  1.00  0.00     0.021 C 
BRANCH  30  31
ATOM     31  C   UNL     1       7.138   1.448  10.218  1.00  0.00     0.116 C 
BRANCH  31  32
ATOM     32  N   UNL     1       8.153   2.484  10.330  1.00  0.00    -0.352 N 
ATOM     33  C   UNL     1       9.338   2.419  11.023  1.00  0.00     0.251 C 
ATOM     34  H   UNL     1       7.970   3.327   9.856  1.00  0.00     0.163 HD
ATOM     35  O   UNL     1      10.055   3.397  11.157  1.00  0.00    -0.269 OA
BRANCH  33  36
ATOM     36  C   UNL     1       9.702   1.122  11.622  1.00  0.00     0.039 A 
ATOM     37  C   UNL     1       9.808   1.023  13.009  1.00  0.00     0.014 A 
ATOM     38  C   UNL     1       9.818  -0.006  10.803  1.00  0.00     0.014 A 
ATOM     39  C   UNL     1       9.992  -0.232  13.587  1.00  0.00     0.010 A 
ATOM     40  C   UNL     1       9.950  -1.261  11.385  1.00  0.00     0.010 A 
ATOM     41  C   UNL     1      10.044  -1.382  12.780  1.00  0.00    -0.014 A 
BRANCH  41  42
ATOM     42  C   UNL     1      10.208  -2.721  13.390  1.00  0.00     0.031 A 
ATOM     43  C   UNL     1      11.499  -3.465  13.214  1.00  0.00     0.074 A 
ATOM     44  C   UNL     1       9.186  -3.275  14.068  1.00  0.00     0.049 A 
ATOM     45  N   UNL     1      11.851  -4.623  13.705  1.00  0.00    -0.248 NA
ATOM     46  C   UNL     1      12.521  -2.834  12.363  1.00  0.00     0.031 C 
ATOM     47  C   UNL     1       7.867  -2.667  14.247  1.00  0.00     0.029 A 
ATOM     48  N   UNL     1       9.094  -4.473  14.731  1.00  0.00    -0.354 N 
ATOM     49  C   UNL     1      13.136  -4.856  13.232  1.00  0.00     0.074 A 
ATOM     50  C   UNL     1      13.475  -3.753  12.361  1.00  0.00     0.031 C 
ATOM     51  C   UNL     1       7.105  -3.485  14.992  1.00  0.00     0.029 A 
ATOM     52  C   UNL     1       7.875  -4.680  15.331  1.00  0.00     0.049 A 
ATOM     53  H   UNL     1       9.832  -5.123  14.773  1.00  0.00     0.167 HD
ATOM     54  C   UNL     1      13.969  -5.880  13.526  1.00  0.00     0.034 A 
ATOM     55  C   UNL     1       7.433  -5.709  16.082  1.00  0.00     0.034 A 
ATOM     56  C   UNL     1      13.624  -6.965  14.403  1.00  0.00     0.049 A 
ATOM     57  C   UNL     1       8.382  -6.836  16.404  1.00  0.00     0.074 A 
ATOM     58  C   UNL     1      14.417  -8.024  14.808  1.00  0.00     0.029 A 
ATOM     59  N   UNL     1      12.389  -7.133  15.012  1.00  0.00    -0.354 N 
ATOM     60  N   UNL     1       9.633  -6.988  16.039  1.00  0.00    -0.248 NA
ATOM     61  C   UNL     1       7.870  -7.921  17.252  1.00  0.00     0.031 C 
ATOM     62  C   UNL     1      13.650  -8.851  15.631  1.00  0.00     0.029 A 
ATOM     63  C   UNL     1      12.392  -8.287  15.776  1.00  0.00     0.049 A 
ATOM     64  H   UNL     1      11.623  -6.522  14.914  1.00  0.00     0.167 HD
ATOM     65  C   UNL     1      10.065  -8.171  16.631  1.00  0.00     0.074 A 
ATOM     66  C   UNL     1       8.946  -8.684  17.395  1.00  0.00     0.031 C 
ATOM     67  C   UNL     1      11.275  -8.778  16.546  1.00  0.00     0.034 A 
BRANCH  54  68
ATOM     68  C   UNL     1      15.351  -5.859  12.932  1.00  0.00     0.023 A 
ATOM     69  C   UNL     1      15.742  -6.840  12.005  1.00  0.00     0.031 A 
ATOM     70  C   UNL     1      16.306  -4.917  13.355  1.00  0.00     0.131 A 
ATOM     71  C   UNL     1      17.064  -6.868  11.544  1.00  0.00     0.055 A 
ATOM     72  C   UNL     1      17.613  -4.929  12.868  1.00  0.00     0.041 A 
ATOM     73  F   UNL     1      15.974  -3.958  14.235  1.00  0.00    -0.206 F 
ATOM     74  C   UNL     1      17.998  -5.914  11.963  1.00  0.00     0.022 A 
BRANCH  71  75
ATOM     75  S   UNL     1      17.628  -8.154  10.398  1.00  0.00     0.124 S 
ATOM     76  O   UNL     1      18.213  -7.362   9.318  1.00  0.00    -0.237 OA
ATOM     77  O   UNL     1      18.584  -8.892  11.219  1.00  0.00    -0.237 OA
ATOM     78  O   UNL     1      16.407  -8.870  10.046  1.00  0.00    -0.744 OA
ENDBRANCH  71  75
ENDBRANCH  54  68
BRANCH  55  79
ATOM     79  C   UNL     1       6.056  -5.660  16.648  1.00  0.00     0.023 A 
ATOM     80  C   UNL     1       4.925  -5.705  15.813  1.00  0.00     0.031 A 
ATOM     81  C   UNL     1       5.858  -5.472  18.026  1.00  0.00     0.131 A 
ATOM     82  C   UNL     1       3.649  -5.517  16.362  1.00  0.00     0.055 A 
ATOM     83  C   UNL     1       4.581  -5.342  18.575  1.00  0.00     0.041 A 
ATOM     84  F   UNL     1       6.910  -5.408  18.856  1.00  0.00    -0.206 F 
ATOM     85  C   UNL     1       3.469  -5.353  17.739  1.00  0.00     0.022 A 
BRANCH  82  86
ATOM     86  S   UNL     1       2.187  -5.389  15.296  1.00  0.00     0.124 S 
ATOM     87  O   UNL     1       1.306  -6.409  15.857  1.00  0.00    -0.237 OA
ATOM     88  O   UNL     1       1.776  -4.005  15.524  1.00  0.00    -0.237 OA
ATOM     89  O   UNL     1       2.707  -5.670  13.962  1.00  0.00    -0.744 OA
ENDBRANCH  82  86
ENDBRANCH  55  79
BRANCH  67  90
ATOM     90  C   UNL     1      11.483 -10.071  17.293  1.00  0.00     0.023 A 
ATOM     91  C   UNL     1      12.410 -10.132  18.350  1.00  0.00     0.031 A 
ATOM     92  C   UNL     1      10.877 -11.264  16.864  1.00  0.00     0.131 A 
ATOM     93  C   UNL     1      12.731 -11.369  18.921  1.00  0.00     0.055 A 
ATOM     94  C   UNL     1      11.170 -12.489  17.464  1.00  0.00     0.041 A 
ATOM     95  F   UNL     1       9.994 -11.253  15.853  1.00  0.00    -0.206 F 
ATOM     96  C   UNL     1      12.111 -12.546  18.489  1.00  0.00     0.022 A 
BRANCH  93  97
ATOM     97  S   UNL     1      14.012 -11.507  20.198  1.00  0.00     0.124 S 
ATOM     98  O   UNL     1      13.273 -12.109  21.305  1.00  0.00    -0.237 OA
ATOM     99  O   UNL     1      14.992 -12.379  19.555  1.00  0.00    -0.237 OA
ATOM    100  O   UNL     1      14.444 -10.131  20.415  1.00  0.00    -0.744 OA
ENDBRANCH  93  97
ENDBRANCH  67  90
ENDBRANCH  41  42
ENDBRANCH  33  36
ENDBRANCH  31  32
ENDBRANCH  30  31
ENDBRANCH   1  30
TORSDOF 17
