REMARK SMILES Cc1cc(S(=O)(=O)Nc2ccc(Cl)cc2F)ccc1OCC(=O)NCCCCCCNC(=O)c1ccc(-c2c3nc(c(-c4cc(S(=O)(=O)[O-])ccc4F)c4ccc([nH]4)c(-c4cc(S(=O)(=O)[O-])ccc4F)c4nc(c(-c5cc(S(=O)(=O)[O-])ccc5F)c5ccc2[nH]5)C=C4)C=C3)cc1
REMARK SMILES IDX 26 1 25 2 24 3 22 4 23 5 21 7 20 8 19 9 1 10 2 11 3 12 4 13
REMARK SMILES IDX 18 14 17 15 5 16 6 17 7 18 8 19 9 21 10 22 15 23 11 24 14 25
REMARK SMILES IDX 16 26 12 27 13 28 27 29 28 30 29 31 30 32 31 33 32 34 33 36
REMARK SMILES IDX 34 37 35 38 96 39 36 40 95 41 37 42 38 43 39 44 89 45 40 46
REMARK SMILES IDX 94 47 88 48 90 49 41 50 93 51 87 52 86 53 42 55 74 56 54 57
REMARK SMILES IDX 73 58 55 59 58 60 72 61 91 62 56 63 57 64 71 66 92 67 59 68
REMARK SMILES IDX 43 69 44 70 52 71 45 72 51 73 53 74 50 75 46 76 47 77 48 78
REMARK SMILES IDX 49 79 75 80 76 81 84 82 77 83 83 84 85 85 82 86 78 87 79 88
REMARK SMILES IDX 80 89 81 90 60 91 61 92 69 93 62 94 68 95 70 96 67 97 63 98
REMARK SMILES IDX 64 99 65 100 66 101
REMARK H PARENT 24 6 8 20 31 35 90 54 58 65
REMARK Flexibility Score: inf
ROOT
ATOM      1  C   UNL     1       0.640   3.033   3.631  1.00  0.00     0.021 C 
ENDROOT
BRANCH   1   2
ATOM      2  C   UNL     1       1.702   3.456   2.620  1.00  0.00     0.116 C 
BRANCH   2   3
ATOM      3  N   UNL     1       2.723   2.449   2.409  1.00  0.00    -0.353 N 
ATOM      4  C   UNL     1       3.237   2.001   1.227  1.00  0.00     0.257 C 
ATOM      5  O   UNL     1       4.263   1.319   1.233  1.00  0.00    -0.271 OA
ATOM      6  H   UNL     1       3.094   2.036   3.222  1.00  0.00     0.163 HD
BRANCH   4   7
ATOM      7  C   UNL     1       2.570   2.420  -0.082  1.00  0.00     0.329 C 
BRANCH   7   8
ATOM      8  O   UNL     1       1.186   2.199  -0.243  1.00  0.00    -0.484 OA
BRANCH   8   9
ATOM      9  C   UNL     1       0.628   0.972  -0.032  1.00  0.00     0.123 A 
ATOM     10  C   UNL     1       2.519  -0.595  -0.832  1.00  0.00     0.048 C 
ATOM     11  C   UNL     1       1.124  -0.293  -0.373  1.00  0.00    -0.008 A 
ATOM     12  C   UNL     1       0.249  -1.399  -0.274  1.00  0.00     0.029 A 
ATOM     13  C   UNL     1      -1.067  -1.262   0.185  1.00  0.00     0.088 A 
ATOM     14  C   UNL     1      -0.668   1.080   0.500  1.00  0.00     0.048 A 
ATOM     15  C   UNL     1      -1.494  -0.033   0.662  1.00  0.00     0.026 A 
BRANCH  13  16
ATOM     16  S   UNL     1      -2.142  -2.668  -0.032  1.00  0.00     0.262 S 
ATOM     17  O   UNL     1      -2.086  -3.042  -1.429  1.00  0.00    -0.201 OA
ATOM     18  O   UNL     1      -1.760  -3.625   0.988  1.00  0.00    -0.201 OA
BRANCH  16  19
ATOM     19  N   UNL     1      -3.712  -2.233   0.350  1.00  0.00    -0.277 N 
ATOM     20  H   UNL     1      -4.218  -2.847   0.930  1.00  0.00     0.180 HD
BRANCH  19  21
ATOM     21  C   UNL     1      -4.387  -1.053  -0.087  1.00  0.00     0.085 A 
ATOM     22  C   UNL     1      -5.383  -0.568   0.770  1.00  0.00     0.031 A 
ATOM     23  C   UNL     1      -4.078  -0.316  -1.237  1.00  0.00     0.148 A 
ATOM     24  C   UNL     1      -5.960   0.687   0.552  1.00  0.00     0.023 A 
ATOM     25  C   UNL     1      -4.641   0.941  -1.455  1.00  0.00     0.062 A 
ATOM     26  F   UNL     1      -3.162  -0.742  -2.115  1.00  0.00    -0.205 F 
ATOM     27  C   UNL     1      -5.560   1.450  -0.543  1.00  0.00     0.044 A 
ATOM     28  Cl  UNL     1      -6.170   3.044  -0.749  1.00  0.00    -0.084 Cl
ENDBRANCH  19  21
ENDBRANCH  16  19
ENDBRANCH  13  16
ENDBRANCH   8   9
ENDBRANCH   7   8
ENDBRANCH   4   7
ENDBRANCH   2   3
ENDBRANCH   1   2
BRANCH   1  29
ATOM     29  C   UNL     1       1.154   2.612   5.011  1.00  0.00     0.002 C 
BRANCH  29  30
ATOM     30  C   UNL     1       2.167   3.543   5.694  1.00  0.00     0.002 C 
BRANCH  30  31
ATOM     31  C   UNL     1       1.784   5.018   5.798  1.00  0.00     0.021 C 
BRANCH  31  32
ATOM     32  C   UNL     1       0.495   5.287   6.565  1.00  0.00     0.116 C 
BRANCH  32  33
ATOM     33  N   UNL     1       0.689   5.964   7.839  1.00  0.00    -0.352 N 
ATOM     34  C   UNL     1      -0.267   6.445   8.721  1.00  0.00     0.251 C 
ATOM     35  H   UNL     1       1.625   6.098   8.112  1.00  0.00     0.163 HD
ATOM     36  O   UNL     1       0.042   7.046   9.735  1.00  0.00    -0.269 OA
BRANCH  34  37
ATOM     37  C   UNL     1      -1.689   6.083   8.485  1.00  0.00     0.039 A 
ATOM     38  C   UNL     1      -2.353   5.420   9.524  1.00  0.00     0.014 A 
ATOM     39  C   UNL     1      -2.264   6.163   7.220  1.00  0.00     0.014 A 
ATOM     40  C   UNL     1      -3.463   4.633   9.232  1.00  0.00     0.010 A 
ATOM     41  C   UNL     1      -3.311   5.315   6.909  1.00  0.00     0.010 A 
ATOM     42  C   UNL     1      -3.864   4.499   7.900  1.00  0.00    -0.014 A 
BRANCH  42  43
ATOM     43  C   UNL     1      -4.720   3.406   7.450  1.00  0.00     0.031 A 
ATOM     44  C   UNL     1      -6.133   3.633   7.095  1.00  0.00     0.074 A 
ATOM     45  C   UNL     1      -4.218   2.154   7.370  1.00  0.00     0.049 A 
ATOM     46  N   UNL     1      -7.067   2.759   7.271  1.00  0.00    -0.248 NA
ATOM     47  C   UNL     1      -6.613   4.889   6.530  1.00  0.00     0.031 C 
ATOM     48  C   UNL     1      -4.856   0.975   6.791  1.00  0.00     0.029 A 
ATOM     49  N   UNL     1      -3.105   1.652   8.031  1.00  0.00    -0.354 N 
ATOM     50  C   UNL     1      -8.181   3.207   6.606  1.00  0.00     0.074 A 
ATOM     51  C   UNL     1      -7.872   4.566   6.218  1.00  0.00     0.031 C 
ATOM     52  C   UNL     1      -4.290  -0.124   7.315  1.00  0.00     0.029 A 
ATOM     53  C   UNL     1      -3.355   0.308   8.340  1.00  0.00     0.049 A 
ATOM     54  H   UNL     1      -2.285   2.152   8.246  1.00  0.00     0.167 HD
ATOM     55  C   UNL     1      -9.197   2.348   6.314  1.00  0.00     0.034 A 
ATOM     56  C   UNL     1      -3.339  -0.127   9.634  1.00  0.00     0.034 A 
ATOM     57  C   UNL     1      -8.937   0.997   6.798  1.00  0.00     0.049 A 
ATOM     58  C   UNL     1      -4.673  -0.666  10.106  1.00  0.00     0.074 A 
ATOM     59  C   UNL     1      -8.465  -0.148   6.178  1.00  0.00     0.029 A 
ATOM     60  N   UNL     1      -8.887   0.752   8.166  1.00  0.00    -0.354 N 
ATOM     61  N   UNL     1      -5.796  -0.518   9.458  1.00  0.00    -0.248 NA
ATOM     62  C   UNL     1      -4.851  -1.389  11.363  1.00  0.00     0.031 C 
ATOM     63  C   UNL     1      -8.057  -1.058   7.187  1.00  0.00     0.029 A 
ATOM     64  C   UNL     1      -8.315  -0.481   8.418  1.00  0.00     0.049 A 
ATOM     65  H   UNL     1      -9.214   1.370   8.858  1.00  0.00     0.167 HD
ATOM     66  C   UNL     1      -6.827  -1.048  10.192  1.00  0.00     0.074 A 
ATOM     67  C   UNL     1      -6.175  -1.619  11.358  1.00  0.00     0.031 C 
ATOM     68  C   UNL     1      -8.130  -0.948   9.785  1.00  0.00     0.034 A 
BRANCH  55  69
ATOM     69  C   UNL     1     -10.257   2.689   5.301  1.00  0.00     0.023 A 
ATOM     70  C   UNL     1     -10.678   1.714   4.376  1.00  0.00     0.031 A 
ATOM     71  C   UNL     1     -10.847   3.960   5.170  1.00  0.00     0.131 A 
ATOM     72  C   UNL     1     -11.551   2.036   3.323  1.00  0.00     0.055 A 
ATOM     73  C   UNL     1     -11.679   4.296   4.093  1.00  0.00     0.041 A 
ATOM     74  F   UNL     1     -10.643   4.917   6.088  1.00  0.00    -0.206 F 
ATOM     75  C   UNL     1     -12.023   3.334   3.152  1.00  0.00     0.022 A 
BRANCH  72  76
ATOM     76  S   UNL     1     -12.040   0.726   2.168  1.00  0.00     0.124 S 
ATOM     77  O   UNL     1     -10.750   0.259   1.669  1.00  0.00    -0.237 OA
ATOM     78  O   UNL     1     -12.765  -0.194   3.037  1.00  0.00    -0.237 OA
ATOM     79  O   UNL     1     -12.865   1.430   1.187  1.00  0.00    -0.744 OA
ENDBRANCH  72  76
ENDBRANCH  55  69
BRANCH  56  80
ATOM     80  C   UNL     1      -2.338   0.590  10.478  1.00  0.00     0.023 A 
ATOM     81  C   UNL     1      -0.992   0.549  10.052  1.00  0.00     0.031 A 
ATOM     82  C   UNL     1      -2.703   1.581  11.398  1.00  0.00     0.131 A 
ATOM     83  C   UNL     1      -0.105   1.576  10.403  1.00  0.00     0.055 A 
ATOM     84  C   UNL     1      -1.790   2.564  11.806  1.00  0.00     0.041 A 
ATOM     85  F   UNL     1      -3.972   1.694  11.816  1.00  0.00    -0.206 F 
ATOM     86  C   UNL     1      -0.500   2.592  11.272  1.00  0.00     0.022 A 
BRANCH  83  87
ATOM     87  S   UNL     1       1.462   1.727   9.491  1.00  0.00     0.124 S 
ATOM     88  O   UNL     1       2.384   0.985  10.342  1.00  0.00    -0.237 OA
ATOM     89  O   UNL     1       1.148   1.112   8.203  1.00  0.00    -0.237 OA
ATOM     90  O   UNL     1       1.681   3.171   9.426  1.00  0.00    -0.744 OA
ENDBRANCH  83  87
ENDBRANCH  56  80
BRANCH  68  91
ATOM     91  C   UNL     1      -9.345  -1.347  10.596  1.00  0.00     0.023 A 
ATOM     92  C   UNL     1      -9.332  -1.489  11.991  1.00  0.00     0.031 A 
ATOM     93  C   UNL     1     -10.605  -1.533   9.974  1.00  0.00     0.131 A 
ATOM     94  C   UNL     1     -10.486  -1.885  12.694  1.00  0.00     0.055 A 
ATOM     95  C   UNL     1     -11.769  -1.843  10.684  1.00  0.00     0.041 A 
ATOM     96  F   UNL     1     -10.761  -1.417   8.646  1.00  0.00    -0.206 F 
ATOM     97  C   UNL     1     -11.712  -2.041  12.053  1.00  0.00     0.022 A 
BRANCH  94  98
ATOM     98  S   UNL     1     -10.326  -2.269  14.458  1.00  0.00     0.124 S 
ATOM     99  O   UNL     1      -9.377  -3.379  14.437  1.00  0.00    -0.237 OA
ATOM    100  O   UNL     1      -9.823  -1.014  15.007  1.00  0.00    -0.237 OA
ATOM    101  O   UNL     1     -11.686  -2.623  14.858  1.00  0.00    -0.744 OA
ENDBRANCH  94  98
ENDBRANCH  68  91
ENDBRANCH  42  43
ENDBRANCH  34  37
ENDBRANCH  32  33
ENDBRANCH  31  32
ENDBRANCH  30  31
ENDBRANCH  29  30
ENDBRANCH   1  29
TORSDOF 21
