REMARK SMILES O=C(Cc1ccccc1Nc1c(Cl)cccc1C(F)(F)F)NCCCCCCNC(=O)c1ccc(-c2c3nc(c(-c4cc(S(=O)(=O)[O-])ccc4F)c4ccc([nH]4)c(-c4cc(S(=O)(=O)[O-])ccc4F)c4nc(c(-c5cc(S(=O)(=O)[O-])ccc5F)c5ccc2[nH]5)C=C4)C=C3)cc1
REMARK SMILES IDX 25 1 24 2 23 3 22 4 1 5 2 6 3 8 4 9 5 10 9 11 6 12 8 13 7 14
REMARK SMILES IDX 10 15 11 17 12 18 17 19 13 20 14 21 16 22 15 23 18 24 19 25
REMARK SMILES IDX 20 26 21 27 26 28 27 29 28 30 29 31 30 32 31 34 32 35 33 36
REMARK SMILES IDX 94 37 34 38 93 39 35 40 36 41 37 42 87 43 38 44 92 45 86 46
REMARK SMILES IDX 88 47 39 48 91 49 85 50 84 51 40 53 72 54 52 55 71 56 53 57
REMARK SMILES IDX 56 58 70 59 89 60 54 61 55 62 69 64 90 65 57 66 41 67 42 68
REMARK SMILES IDX 50 69 43 70 49 71 51 72 48 73 44 74 45 75 46 76 47 77 73 78
REMARK SMILES IDX 74 79 82 80 75 81 81 82 83 83 80 84 76 85 77 86 78 87 79 88
REMARK SMILES IDX 58 89 59 90 67 91 60 92 66 93 68 94 65 95 61 96 62 97 63 98
REMARK SMILES IDX 64 99
REMARK H PARENT 22 7 10 16 29 33 88 52 56 63
REMARK Flexibility Score: inf
ROOT
ATOM      1  C   UNL     1       4.220   0.965   3.818  1.00  0.00     0.002 C 
ENDROOT
BRANCH   1   2
ATOM      2  C   UNL     1       2.730   0.628   3.701  1.00  0.00     0.021 C 
BRANCH   2   3
ATOM      3  C   UNL     1       2.077   0.913   2.352  1.00  0.00     0.116 C 
BRANCH   3   4
ATOM      4  N   UNL     1       2.760   0.304   1.228  1.00  0.00    -0.356 N 
ATOM      5  O   UNL     1       0.848  -0.225   0.082  1.00  0.00    -0.275 OA
ATOM      6  C   UNL     1       2.074  -0.191   0.142  1.00  0.00     0.224 C 
ATOM      7  H   UNL     1       3.742   0.243   1.242  1.00  0.00     0.163 HD
BRANCH   6   8
ATOM      8  C   UNL     1       2.940  -0.659  -1.000  1.00  0.00     0.137 C 
BRANCH   8   9
ATOM      9  C   UNL     1       3.842   0.357  -1.686  1.00  0.00    -0.015 A 
ATOM     10  C   UNL     1       4.927  -0.218  -2.394  1.00  0.00     0.006 A 
ATOM     11  C   UNL     1       3.651   1.760  -1.756  1.00  0.00     0.042 A 
ATOM     12  C   UNL     1       5.824   0.558  -3.122  1.00  0.00     0.000 A 
ATOM     13  C   UNL     1       4.588   2.520  -2.485  1.00  0.00     0.026 A 
ATOM     14  C   UNL     1       5.661   1.932  -3.156  1.00  0.00     0.002 A 
BRANCH  11  15
ATOM     15  N   UNL     1       2.533   2.410  -1.198  1.00  0.00    -0.354 N 
ATOM     16  H   UNL     1       2.057   1.887  -0.514  1.00  0.00     0.167 HD
BRANCH  15  17
ATOM     17  C   UNL     1       1.976   3.687  -1.452  1.00  0.00     0.070 A 
ATOM     18  C   UNL     1       1.901   4.642  -0.409  1.00  0.00     0.065 A 
ATOM     19  C   UNL     1       1.383   4.013  -2.687  1.00  0.00     0.080 A 
ATOM     20  Cl  UNL     1       2.705   4.401   1.094  1.00  0.00    -0.082 Cl
ATOM     21  C   UNL     1       1.218   5.850  -0.558  1.00  0.00     0.023 A 
ATOM     22  C   UNL     1       0.717   5.254  -2.825  1.00  0.00     0.015 A 
ATOM     23  C   UNL     1       0.616   6.154  -1.767  1.00  0.00     0.002 A 
BRANCH  19  24
ATOM     24  C   UNL     1       1.443   3.109  -3.894  1.00  0.00     0.418 C 
ATOM     25  F   UNL     1       0.429   3.362  -4.779  1.00  0.00    -0.166 F 
ATOM     26  F   UNL     1       2.586   3.289  -4.618  1.00  0.00    -0.166 F 
ATOM     27  F   UNL     1       1.349   1.777  -3.637  1.00  0.00    -0.166 F 
ENDBRANCH  19  24
ENDBRANCH  15  17
ENDBRANCH  11  15
ENDBRANCH   8   9
ENDBRANCH   6   8
ENDBRANCH   3   4
ENDBRANCH   2   3
ENDBRANCH   1   2
BRANCH   1  28
ATOM     28  C   UNL     1       4.620   2.407   3.499  1.00  0.00     0.002 C 
BRANCH  28  29
ATOM     29  C   UNL     1       3.911   3.495   4.311  1.00  0.00     0.021 C 
BRANCH  29  30
ATOM     30  C   UNL     1       4.053   3.382   5.826  1.00  0.00     0.116 C 
BRANCH  30  31
ATOM     31  N   UNL     1       5.436   3.454   6.265  1.00  0.00    -0.352 N 
ATOM     32  C   UNL     1       5.992   4.152   7.310  1.00  0.00     0.251 C 
ATOM     33  H   UNL     1       6.071   2.922   5.734  1.00  0.00     0.163 HD
ATOM     34  O   UNL     1       7.214   4.199   7.413  1.00  0.00    -0.269 OA
BRANCH  32  35
ATOM     35  C   UNL     1       5.136   4.868   8.286  1.00  0.00     0.039 A 
ATOM     36  C   UNL     1       5.550   6.123   8.740  1.00  0.00     0.014 A 
ATOM     37  C   UNL     1       3.951   4.310   8.776  1.00  0.00     0.014 A 
ATOM     38  C   UNL     1       4.753   6.838   9.636  1.00  0.00     0.010 A 
ATOM     39  C   UNL     1       3.120   5.057   9.612  1.00  0.00     0.010 A 
ATOM     40  C   UNL     1       3.513   6.328  10.054  1.00  0.00    -0.014 A 
BRANCH  40  41
ATOM     41  C   UNL     1       2.622   7.130  10.937  1.00  0.00     0.031 A 
ATOM     42  C   UNL     1       2.284   6.656  12.325  1.00  0.00     0.074 A 
ATOM     43  C   UNL     1       2.091   8.276  10.467  1.00  0.00     0.049 A 
ATOM     44  N   UNL     1       1.542   7.231  13.238  1.00  0.00    -0.248 NA
ATOM     45  C   UNL     1       2.827   5.352  12.728  1.00  0.00     0.031 C 
ATOM     46  C   UNL     1       2.305   8.815   9.122  1.00  0.00     0.029 A 
ATOM     47  N   UNL     1       1.272   9.200  11.066  1.00  0.00    -0.354 N 
ATOM     48  C   UNL     1       1.521   6.356  14.319  1.00  0.00     0.074 A 
ATOM     49  C   UNL     1       2.272   5.185  13.919  1.00  0.00     0.031 C 
ATOM     50  C   UNL     1       1.677   9.997   9.016  1.00  0.00     0.029 A 
ATOM     51  C   UNL     1       0.979  10.280  10.265  1.00  0.00     0.049 A 
ATOM     52  H   UNL     1       0.927   9.100  11.983  1.00  0.00     0.167 HD
ATOM     53  C   UNL     1       0.947   6.524  15.538  1.00  0.00     0.034 A 
ATOM     54  C   UNL     1       0.236  11.377  10.510  1.00  0.00     0.034 A 
ATOM     55  C   UNL     1       0.203   7.703  15.919  1.00  0.00     0.049 A 
ATOM     56  C   UNL     1      -0.409  11.530  11.863  1.00  0.00     0.074 A 
ATOM     57  C   UNL     1      -0.357   8.010  17.147  1.00  0.00     0.029 A 
ATOM     58  N   UNL     1      -0.100   8.764  15.073  1.00  0.00    -0.354 N 
ATOM     59  N   UNL     1      -0.356  10.729  12.902  1.00  0.00    -0.248 NA
ATOM     60  C   UNL     1      -1.204  12.745  12.076  1.00  0.00     0.031 C 
ATOM     61  C   UNL     1      -1.068   9.210  17.020  1.00  0.00     0.029 A 
ATOM     62  C   UNL     1      -0.878   9.702  15.739  1.00  0.00     0.049 A 
ATOM     63  H   UNL     1       0.195   8.840  14.137  1.00  0.00     0.167 HD
ATOM     64  C   UNL     1      -1.090  11.360  13.903  1.00  0.00     0.074 A 
ATOM     65  C   UNL     1      -1.548  12.618  13.348  1.00  0.00     0.031 C 
ATOM     66  C   UNL     1      -1.359  10.940  15.167  1.00  0.00     0.034 A 
BRANCH  53  67
ATOM     67  C   UNL     1       1.070   5.386  16.528  1.00  0.00     0.023 A 
ATOM     68  C   UNL     1       2.319   4.931  16.989  1.00  0.00     0.031 A 
ATOM     69  C   UNL     1      -0.078   4.718  16.992  1.00  0.00     0.131 A 
ATOM     70  C   UNL     1       2.396   3.793  17.806  1.00  0.00     0.055 A 
ATOM     71  C   UNL     1      -0.000   3.642  17.879  1.00  0.00     0.041 A 
ATOM     72  F   UNL     1      -1.300   5.088  16.575  1.00  0.00    -0.206 F 
ATOM     73  C   UNL     1       1.243   3.161  18.276  1.00  0.00     0.022 A 
BRANCH  70  74
ATOM     74  S   UNL     1       4.024   3.050  18.106  1.00  0.00     0.124 S 
ATOM     75  O   UNL     1       4.493   2.807  16.743  1.00  0.00    -0.237 OA
ATOM     76  O   UNL     1       4.718   4.098  18.844  1.00  0.00    -0.237 OA
ATOM     77  O   UNL     1       3.715   1.845  18.873  1.00  0.00    -0.744 OA
ENDBRANCH  70  74
ENDBRANCH  53  67
BRANCH  54  78
ATOM     78  C   UNL     1       0.067  12.425   9.462  1.00  0.00     0.023 A 
ATOM     79  C   UNL     1       0.567  13.723   9.655  1.00  0.00     0.031 A 
ATOM     80  C   UNL     1      -0.628  12.157   8.270  1.00  0.00     0.131 A 
ATOM     81  C   UNL     1       0.328  14.716   8.693  1.00  0.00     0.055 A 
ATOM     82  C   UNL     1      -0.816  13.134   7.290  1.00  0.00     0.041 A 
ATOM     83  F   UNL     1      -1.123  10.931   8.033  1.00  0.00    -0.206 F 
ATOM     84  C   UNL     1      -0.347  14.426   7.505  1.00  0.00     0.022 A 
BRANCH  81  85
ATOM     85  S   UNL     1       0.847  16.416   9.051  1.00  0.00     0.124 S 
ATOM     86  O   UNL     1       0.102  16.703  10.271  1.00  0.00    -0.237 OA
ATOM     87  O   UNL     1       2.291  16.267   9.200  1.00  0.00    -0.237 OA
ATOM     88  O   UNL     1       0.419  17.159   7.868  1.00  0.00    -0.744 OA
ENDBRANCH  81  85
ENDBRANCH  54  78
BRANCH  66  89
ATOM     89  C   UNL     1      -2.169  11.876  16.035  1.00  0.00     0.023 A 
ATOM     90  C   UNL     1      -3.492  12.226  15.709  1.00  0.00     0.031 A 
ATOM     91  C   UNL     1      -1.595  12.470  17.173  1.00  0.00     0.131 A 
ATOM     92  C   UNL     1      -4.164  13.204  16.457  1.00  0.00     0.055 A 
ATOM     93  C   UNL     1      -2.297  13.384  17.961  1.00  0.00     0.041 A 
ATOM     94  F   UNL     1      -0.335  12.180  17.535  1.00  0.00    -0.206 F 
ATOM     95  C   UNL     1      -3.581  13.772  17.593  1.00  0.00     0.022 A 
BRANCH  92  96
ATOM     96  S   UNL     1      -5.753  13.829  15.843  1.00  0.00     0.124 S 
ATOM     97  O   UNL     1      -5.402  14.279  14.500  1.00  0.00    -0.237 OA
ATOM     98  O   UNL     1      -6.603  12.645  15.917  1.00  0.00    -0.237 OA
ATOM     99  O   UNL     1      -6.090  14.895  16.785  1.00  0.00    -0.744 OA
ENDBRANCH  92  96
ENDBRANCH  66  89
ENDBRANCH  40  41
ENDBRANCH  32  35
ENDBRANCH  30  31
ENDBRANCH  29  30
ENDBRANCH  28  29
ENDBRANCH   1  28
TORSDOF 20
