REMARK SMILES O=C(/C=C/[C@@]12C=C(O)C(=O)C=C1C(=O)C1=Cc3cc(O)c(O)cc3O[C@@H](c3ccc(O)c(O)c3)[C@@H]12)NCCCCCCNC(=O)c1ccc(-c2c3nc(c(-c4cc(S(=O)(=O)[O-])ccc4F)c4ccc([nH]4)c(-c4cc(S(=O)(=O)[O-])ccc4F)c4nc(c(-c5cc(S(=O)(=O)[O-])ccc5F)c5ccc2[nH]5)C=C4)C=C3)cc1
REMARK SMILES IDX 38 1 37 2 36 3 1 4 2 5 3 7 4 8 5 9 6 10 12 11 35 12 7 13
REMARK SMILES IDX 11 14 13 15 15 16 9 18 14 19 16 20 10 21 8 22 17 24 18 25
REMARK SMILES IDX 24 26 19 27 23 28 21 29 25 30 26 31 27 33 28 34 34 35 29 36
REMARK SMILES IDX 32 37 30 38 33 39 31 41 20 43 22 45 39 47 40 48 41 49 42 50
REMARK SMILES IDX 43 51 44 52 45 54 46 55 47 56 108 57 48 58 107 59 49 60
REMARK SMILES IDX 50 61 51 62 101 63 52 64 106 65 100 66 102 67 53 68 105 69
REMARK SMILES IDX 99 70 98 71 54 73 86 74 66 75 85 76 67 77 70 78 84 79 103 80
REMARK SMILES IDX 68 81 69 82 83 84 104 85 71 86 55 87 56 88 64 89 57 90 63 91
REMARK SMILES IDX 65 92 62 93 58 94 59 95 60 96 61 97 87 98 88 99 96 100
REMARK SMILES IDX 89 101 95 102 97 103 94 104 90 105 91 106 92 107 93 108
REMARK SMILES IDX 72 109 73 110 81 111 74 112 80 113 82 114 79 115 75 116
REMARK SMILES IDX 76 117 77 118 78 119
REMARK H PARENT 36 6 8 23 33 40 31 42 20 44 22 46 43 53 102 72 70 83
REMARK Flexibility Score: 90.00
ROOT
ATOM      1  C   UNL     1       2.749   3.082  -1.956  1.00  0.00     0.021 C 
ENDROOT
BRANCH   1   2
ATOM      2  C   UNL     1       2.219   1.656  -2.078  1.00  0.00     0.116 C 
BRANCH   2   3
ATOM      3  N   UNL     1       2.806   0.795  -1.074  1.00  0.00    -0.353 N 
ATOM      4  O   UNL     1       1.130   1.084   0.480  1.00  0.00    -0.270 OA
ATOM      5  C   UNL     1       2.208   0.617   0.142  1.00  0.00     0.243 C 
ATOM      6  H   UNL     1       3.652   0.330  -1.270  1.00  0.00     0.163 HD
BRANCH   5   7
ATOM      7  C   UNL     1       2.915  -0.325   1.032  1.00  0.00     0.068 C 
ATOM      8  C   UNL     1       4.222  -0.270   1.364  1.00  0.00    -0.005 C 
BRANCH   8   9
ATOM      9  C   UNL     1       4.934  -1.344   2.230  1.00  0.00     0.051 C 
ATOM     10  C   UNL     1       3.926  -1.893   3.207  1.00  0.00     0.040 C 
ATOM     11  C   UNL     1       5.413  -2.409   1.273  1.00  0.00     0.018 C 
ATOM     12  C   UNL     1       6.307  -0.870   2.842  1.00  0.00     0.087 CG0
ATOM     13  C   UNL     1       3.350  -3.095   3.068  1.00  0.00     0.160 C 
ATOM     14  C   UNL     1       4.892  -3.627   1.101  1.00  0.00     0.065 C 
ATOM     15  C   UNL     1       6.685  -1.938   0.671  1.00  0.00     0.186 C 
ATOM     16  C   UNL     1       7.219  -0.929   1.627  1.00  0.00     0.009 C 
ATOM     17  G   UNL     1       7.010  -1.782   3.911  1.00  0.00     0.000 G0
ATOM     18  C   UNL     1       3.755  -4.023   1.965  1.00  0.00     0.220 C 
ATOM     19  O   UNL     1       7.209  -2.347  -0.335  1.00  0.00    -0.289 OA
ATOM     20  C   UNL     1       8.406  -0.325   1.522  1.00  0.00     0.020 C 
ATOM     21  O   UNL     1       3.191  -5.106   1.848  1.00  0.00    -0.286 OA
BRANCH  13  22
ATOM     22  O   UNL     1       2.358  -3.505   3.936  1.00  0.00    -0.504 OA
ATOM     23  H   UNL     1       2.085  -2.944   4.636  1.00  0.00     0.293 HD
ENDBRANCH  13  22
BRANCH  20  24
ATOM     24  C   UNL     1       8.944   0.362   2.704  1.00  0.00     0.021 A 
ATOM     25  C   UNL     1       9.553   1.618   2.563  1.00  0.00     0.062 A 
ATOM     26  C   UNL     1       8.916  -0.254   3.975  1.00  0.00     0.131 A 
ATOM     27  C   UNL     1      10.123   2.231   3.678  1.00  0.00     0.158 A 
ATOM     28  C   UNL     1       9.546   0.345   5.068  1.00  0.00     0.097 A 
ATOM     29  C   UNL     1      10.126   1.592   4.915  1.00  0.00     0.161 A 
BRANCH  26  30
ATOM     30  O   UNL     1       8.402  -1.502   4.212  1.00  0.00    -0.484 OA
BRANCH  30  31
ATOM     31  C   UNL     1       7.010  -1.782   3.911  1.00  0.00     0.213 CG0
ATOM     32  G   UNL     1       6.307  -0.870   2.842  1.00  0.00     0.000 G0
BRANCH  31  33
ATOM     33  C   UNL     1       6.275  -1.885   5.239  1.00  0.00    -0.003 A 
ATOM     34  C   UNL     1       5.540  -3.046   5.538  1.00  0.00     0.011 A 
ATOM     35  C   UNL     1       6.268  -0.832   6.165  1.00  0.00     0.057 A 
ATOM     36  C   UNL     1       4.690  -3.090   6.644  1.00  0.00     0.050 A 
ATOM     37  C   UNL     1       5.481  -0.915   7.313  1.00  0.00     0.157 A 
ATOM     38  C   UNL     1       4.647  -2.010   7.514  1.00  0.00     0.157 A 
BRANCH  37  39
ATOM     39  O   UNL     1       5.501   0.097   8.229  1.00  0.00    -0.504 OA
ATOM     40  H   UNL     1       4.972   0.041   9.001  1.00  0.00     0.293 HD
ENDBRANCH  37  39
BRANCH  38  41
ATOM     41  O   UNL     1       3.777  -2.022   8.565  1.00  0.00    -0.504 OA
ATOM     42  H   UNL     1       3.215  -2.760   8.700  1.00  0.00     0.293 HD
ENDBRANCH  38  41
ENDBRANCH  31  33
ENDBRANCH  30  31
ENDBRANCH  26  30
BRANCH  27  43
ATOM     43  O   UNL     1      10.708   3.466   3.610  1.00  0.00    -0.504 OA
ATOM     44  H   UNL     1      10.728   3.931   2.797  1.00  0.00     0.293 HD
ENDBRANCH  27  43
BRANCH  29  45
ATOM     45  O   UNL     1      10.704   2.192   5.997  1.00  0.00    -0.504 OA
ATOM     46  H   UNL     1      11.100   3.036   5.908  1.00  0.00     0.293 HD
ENDBRANCH  29  45
ENDBRANCH  20  24
ENDBRANCH   8   9
ENDBRANCH   5   7
ENDBRANCH   2   3
ENDBRANCH   1   2
BRANCH   1  47
ATOM     47  C   UNL     1       4.269   3.199  -2.129  1.00  0.00     0.002 C 
BRANCH  47  48
ATOM     48  C   UNL     1       4.824   2.658  -3.451  1.00  0.00     0.002 C 
BRANCH  48  49
ATOM     49  C   UNL     1       4.171   3.225  -4.711  1.00  0.00     0.021 C 
BRANCH  49  50
ATOM     50  C   UNL     1       4.199   4.744  -4.817  1.00  0.00     0.116 C 
BRANCH  50  51
ATOM     51  N   UNL     1       5.546   5.277  -4.953  1.00  0.00    -0.352 N 
ATOM     52  C   UNL     1       6.022   6.181  -5.877  1.00  0.00     0.251 C 
ATOM     53  H   UNL     1       6.204   4.949  -4.298  1.00  0.00     0.163 HD
ATOM     54  O   UNL     1       7.221   6.428  -5.941  1.00  0.00    -0.269 OA
BRANCH  52  55
ATOM     55  C   UNL     1       5.068   6.807  -6.819  1.00  0.00     0.039 A 
ATOM     56  C   UNL     1       3.876   7.359  -6.346  1.00  0.00     0.014 A 
ATOM     57  C   UNL     1       5.331   6.761  -8.190  1.00  0.00     0.014 A 
ATOM     58  C   UNL     1       2.871   7.692  -7.247  1.00  0.00     0.010 A 
ATOM     59  C   UNL     1       4.350   7.181  -9.093  1.00  0.00     0.010 A 
ATOM     60  C   UNL     1       3.090   7.593  -8.631  1.00  0.00    -0.014 A 
BRANCH  60  61
ATOM     61  C   UNL     1       1.985   7.914  -9.573  1.00  0.00     0.031 A 
ATOM     62  C   UNL     1       1.397   6.852 -10.465  1.00  0.00     0.074 A 
ATOM     63  C   UNL     1       1.473   9.160  -9.584  1.00  0.00     0.049 A 
ATOM     64  N   UNL     1       0.418   6.951 -11.328  1.00  0.00    -0.248 NA
ATOM     65  C   UNL     1       1.983   5.503 -10.383  1.00  0.00     0.031 C 
ATOM     66  C   UNL     1       1.955  10.265  -8.754  1.00  0.00     0.029 A 
ATOM     67  N   UNL     1       0.432   9.705 -10.293  1.00  0.00    -0.354 N 
ATOM     68  C   UNL     1       0.281   5.692 -11.901  1.00  0.00     0.074 A 
ATOM     69  C   UNL     1       1.301   4.851 -11.314  1.00  0.00     0.031 C 
ATOM     70  C   UNL     1       1.180  11.338  -8.960  1.00  0.00     0.029 A 
ATOM     71  C   UNL     1       0.194  11.026  -9.992  1.00  0.00     0.049 A 
ATOM     72  H   UNL     1      -0.094   9.199 -10.953  1.00  0.00     0.167 HD
ATOM     73  C   UNL     1      -0.623   5.274 -12.819  1.00  0.00     0.034 A 
ATOM     74  C   UNL     1      -0.704  11.898 -10.496  1.00  0.00     0.034 A 
ATOM     75  C   UNL     1      -1.649   6.119 -13.377  1.00  0.00     0.049 A 
ATOM     76  C   UNL     1      -1.673  11.419 -11.544  1.00  0.00     0.074 A 
ATOM     77  C   UNL     1      -2.632   5.777 -14.290  1.00  0.00     0.029 A 
ATOM     78  N   UNL     1      -1.833   7.462 -13.078  1.00  0.00    -0.354 N 
ATOM     79  N   UNL     1      -1.815  10.213 -12.044  1.00  0.00    -0.248 NA
ATOM     80  C   UNL     1      -2.605  12.410 -12.099  1.00  0.00     0.031 C 
ATOM     81  C   UNL     1      -3.368   6.924 -14.589  1.00  0.00     0.029 A 
ATOM     82  C   UNL     1      -2.894   7.968 -13.810  1.00  0.00     0.049 A 
ATOM     83  H   UNL     1      -1.290   7.978 -12.439  1.00  0.00     0.167 HD
ATOM     84  C   UNL     1      -2.860  10.297 -12.959  1.00  0.00     0.074 A 
ATOM     85  C   UNL     1      -3.334  11.665 -12.922  1.00  0.00     0.031 C 
ATOM     86  C   UNL     1      -3.372   9.330 -13.760  1.00  0.00     0.034 A 
BRANCH  73  87
ATOM     87  C   UNL     1      -0.576   3.839 -13.288  1.00  0.00     0.023 A 
ATOM     88  C   UNL     1      -0.316   3.549 -14.641  1.00  0.00     0.031 A 
ATOM     89  C   UNL     1      -0.925   2.777 -12.435  1.00  0.00     0.131 A 
ATOM     90  C   UNL     1      -0.445   2.235 -15.109  1.00  0.00     0.055 A 
ATOM     91  C   UNL     1      -1.013   1.463 -12.899  1.00  0.00     0.041 A 
ATOM     92  F   UNL     1      -1.183   3.001 -11.136  1.00  0.00    -0.206 F 
ATOM     93  C   UNL     1      -0.786   1.190 -14.244  1.00  0.00     0.022 A 
BRANCH  90  94
ATOM     94  S   UNL     1      -0.243   1.839 -16.868  1.00  0.00     0.124 S 
ATOM     95  O   UNL     1       0.854   0.874 -16.833  1.00  0.00    -0.237 OA
ATOM     96  O   UNL     1      -1.550   1.285 -17.208  1.00  0.00    -0.237 OA
ATOM     97  O   UNL     1       0.079   3.123 -17.482  1.00  0.00    -0.744 OA
ENDBRANCH  90  94
ENDBRANCH  73  87
BRANCH  74  98
ATOM     98  C   UNL     1      -0.731  13.294  -9.969  1.00  0.00     0.023 A 
ATOM     99  C   UNL     1       0.399  14.128 -10.075  1.00  0.00     0.031 A 
ATOM    100  C   UNL     1      -1.836  13.770  -9.245  1.00  0.00     0.131 A 
ATOM    101  C   UNL     1       0.428  15.352  -9.396  1.00  0.00     0.055 A 
ATOM    102  C   UNL     1      -1.832  15.026  -8.635  1.00  0.00     0.041 A 
ATOM    103  F   UNL     1      -2.932  13.007  -9.105  1.00  0.00    -0.206 F 
ATOM    104  C   UNL     1      -0.687  15.815  -8.691  1.00  0.00     0.022 A 
BRANCH 101 105
ATOM    105  S   UNL     1       1.966  16.309  -9.276  1.00  0.00     0.124 S 
ATOM    106  O   UNL     1       1.594  17.564  -9.921  1.00  0.00    -0.237 OA
ATOM    107  O   UNL     1       2.163  16.376  -7.830  1.00  0.00    -0.237 OA
ATOM    108  O   UNL     1       2.937  15.492  -9.995  1.00  0.00    -0.744 OA
ENDBRANCH 101 105
ENDBRANCH  74  98
BRANCH  86 109
ATOM    109  C   UNL     1      -4.513   9.684 -14.684  1.00  0.00     0.023 A 
ATOM    110  C   UNL     1      -5.761   9.049 -14.536  1.00  0.00     0.031 A 
ATOM    111  C   UNL     1      -4.318  10.517 -15.799  1.00  0.00     0.131 A 
ATOM    112  C   UNL     1      -6.750   9.219 -15.512  1.00  0.00     0.055 A 
ATOM    113  C   UNL     1      -5.324  10.723 -16.744  1.00  0.00     0.041 A 
ATOM    114  F   UNL     1      -3.143  11.137 -15.989  1.00  0.00    -0.206 F 
ATOM    115  C   UNL     1      -6.541  10.059 -16.611  1.00  0.00     0.022 A 
BRANCH 112 116
ATOM    116  S   UNL     1      -8.305   8.286 -15.444  1.00  0.00     0.124 S 
ATOM    117  O   UNL     1      -9.296   9.356 -15.374  1.00  0.00    -0.237 OA
ATOM    118  O   UNL     1      -8.274   7.546 -16.703  1.00  0.00    -0.237 OA
ATOM    119  O   UNL     1      -8.177   7.476 -14.237  1.00  0.00    -0.744 OA
ENDBRANCH 112 116
ENDBRANCH  86 109
ENDBRANCH  60  61
ENDBRANCH  52  55
ENDBRANCH  50  51
ENDBRANCH  49  50
ENDBRANCH  48  49
ENDBRANCH  47  48
ENDBRANCH   1  47
TORSDOF 23
