REMARK SMILES C[C@]1(C(=O)NCCCCCCNC(=O)c2ccc(-c3c4nc(c(-c5cc(S(=O)(=O)[O-])ccc5F)c5ccc([nH]5)c(-c5cc(S(=O)(=O)[O-])ccc5F)c5nc(c(-c6cc(S(=O)(=O)[O-])ccc6F)c6ccc3[nH]6)C=C5)C=C4)cc2)[NH2+]C2(C(=O)c3ccccc3C2=O)[C@@H]2C(=O)N(c3ccccc3)C(=O)[C@H]21
REMARK SMILES IDX 9 1 8 2 7 3 6 4 5 5 3 6 4 7 2 9 1 10 78 11 102 12 79 13
REMARK SMILES IDX 90 16 100 17 80 18 88 19 91 20 93 21 101 22 81 23 82 24
REMARK SMILES IDX 87 25 89 26 92 27 83 28 86 29 84 30 85 31 94 32 95 33 99 34
REMARK SMILES IDX 96 35 98 36 97 37 10 38 11 39 12 40 13 41 14 43 15 44 16 45
REMARK SMILES IDX 77 46 17 47 76 48 18 49 19 50 20 51 70 52 21 53 75 54 69 55
REMARK SMILES IDX 71 56 22 57 74 58 68 59 67 60 23 62 55 63 35 64 54 65 36 66
REMARK SMILES IDX 39 67 53 68 72 69 37 70 38 71 52 73 73 74 40 75 24 76 25 77
REMARK SMILES IDX 33 78 26 79 32 80 34 81 31 82 27 83 28 84 29 85 30 86 56 87
REMARK SMILES IDX 57 88 65 89 58 90 64 91 66 92 63 93 59 94 60 95 61 96 62 97
REMARK SMILES IDX 41 98 42 99 50 100 43 101 49 102 51 103 48 104 44 105 45 106
REMARK SMILES IDX 46 107 47 108
REMARK H PARENT 5 8 78 14 78 15 12 42 71 61 39 72
REMARK Flexibility Score: inf
ROOT
ATOM      1  C   UNL     1       1.624   1.076   7.643  1.00  0.00     0.002 C 
ENDROOT
BRANCH   1   2
ATOM      2  C   UNL     1       2.459  -0.049   7.018  1.00  0.00     0.002 C 
BRANCH   2   3
ATOM      3  C   UNL     1       1.845  -0.802   5.843  1.00  0.00     0.021 C 
BRANCH   3   4
ATOM      4  C   UNL     1       1.308   0.042   4.696  1.00  0.00     0.116 C 
BRANCH   4   5
ATOM      5  N   UNL     1       2.152   0.266   3.559  1.00  0.00    -0.351 N 
ATOM      6  C   UNL     1       1.868   0.279   2.223  1.00  0.00     0.281 C 
ATOM      7  O   UNL     1       2.858   0.517   1.512  1.00  0.00    -0.268 OA
ATOM      8  H   UNL     1       3.096   0.440   3.778  1.00  0.00     0.163 HD
BRANCH   6   9
ATOM      9  C   UNL     1       0.442   0.041   1.538  1.00  0.00     0.186 C 
ATOM     10  C   UNL     1       0.715   0.017   0.010  1.00  0.00     0.091 C 
ATOM     11  N   UNL     1      -0.226  -1.271   1.921  1.00  0.00    -0.314 N 
ATOM     12  C   UNL     1      -0.667   1.026   1.788  1.00  0.00     0.170 C 
ATOM     13  C   UNL     1      -1.527  -0.970   2.673  1.00  0.00     0.236 C 
ATOM     14  H   UNL     1       0.399  -1.810   2.522  1.00  0.00     0.348 HD
ATOM     15  H   UNL     1      -0.431  -1.810   1.081  1.00  0.00     0.348 HD
ATOM     16  C   UNL     1      -1.404   0.490   2.995  1.00  0.00     0.177 C 
ATOM     17  C   UNL     1      -0.509   2.456   2.154  1.00  0.00     0.244 C 
ATOM     18  C   UNL     1      -2.790  -1.363   1.898  1.00  0.00     0.232 C 
ATOM     19  C   UNL     1      -1.600  -1.918   3.889  1.00  0.00     0.232 C 
ATOM     20  C   UNL     1      -2.393   1.590   3.183  1.00  0.00     0.245 C 
ATOM     21  N   UNL     1      -1.668   2.746   2.874  1.00  0.00    -0.250 N 
ATOM     22  O   UNL     1       0.425   3.168   1.837  1.00  0.00    -0.273 OA
ATOM     23  O   UNL     1      -3.109  -0.972   0.789  1.00  0.00    -0.286 OA
ATOM     24  C   UNL     1      -3.544  -2.352   2.692  1.00  0.00     0.036 A 
ATOM     25  C   UNL     1      -2.828  -2.679   3.831  1.00  0.00     0.036 A 
ATOM     26  O   UNL     1      -0.804  -2.112   4.789  1.00  0.00    -0.286 OA
ATOM     27  O   UNL     1      -3.501   1.450   3.671  1.00  0.00    -0.273 OA
ATOM     28  C   UNL     1      -4.760  -2.960   2.445  1.00  0.00     0.013 A 
ATOM     29  C   UNL     1      -3.250  -3.622   4.753  1.00  0.00     0.013 A 
ATOM     30  C   UNL     1      -5.223  -3.908   3.375  1.00  0.00     0.001 A 
ATOM     31  C   UNL     1      -4.471  -4.241   4.517  1.00  0.00     0.001 A 
BRANCH  21  32
ATOM     32  C   UNL     1      -1.891   4.025   3.418  1.00  0.00     0.052 A 
ATOM     33  C   UNL     1      -1.750   5.168   2.620  1.00  0.00     0.027 A 
ATOM     34  C   UNL     1      -2.095   4.170   4.795  1.00  0.00     0.027 A 
ATOM     35  C   UNL     1      -1.819   6.440   3.190  1.00  0.00     0.002 A 
ATOM     36  C   UNL     1      -2.106   5.443   5.369  1.00  0.00     0.002 A 
ATOM     37  C   UNL     1      -1.977   6.576   4.567  1.00  0.00     0.000 A 
ENDBRANCH  21  32
ENDBRANCH   6   9
ENDBRANCH   4   5
ENDBRANCH   3   4
ENDBRANCH   2   3
ENDBRANCH   1   2
BRANCH   1  38
ATOM     38  C   UNL     1       0.167   0.772   8.007  1.00  0.00     0.021 C 
BRANCH  38  39
ATOM     39  C   UNL     1      -0.088  -0.445   8.892  1.00  0.00     0.116 C 
BRANCH  39  40
ATOM     40  N   UNL     1       0.678  -0.435  10.127  1.00  0.00    -0.352 N 
ATOM     41  C   UNL     1       0.267  -0.498  11.438  1.00  0.00     0.251 C 
ATOM     42  H   UNL     1       1.653  -0.373  10.006  1.00  0.00     0.163 HD
ATOM     43  O   UNL     1       1.094  -0.365  12.337  1.00  0.00    -0.269 OA
BRANCH  41  44
ATOM     44  C   UNL     1      -1.165  -0.678  11.771  1.00  0.00     0.039 A 
ATOM     45  C   UNL     1      -1.953  -1.613  11.098  1.00  0.00     0.014 A 
ATOM     46  C   UNL     1      -1.730   0.111  12.778  1.00  0.00     0.014 A 
ATOM     47  C   UNL     1      -3.331  -1.629  11.300  1.00  0.00     0.010 A 
ATOM     48  C   UNL     1      -3.102   0.033  13.040  1.00  0.00     0.010 A 
ATOM     49  C   UNL     1      -3.925  -0.796  12.263  1.00  0.00    -0.014 A 
BRANCH  49  50
ATOM     50  C   UNL     1      -5.404  -0.802  12.435  1.00  0.00     0.031 A 
ATOM     51  C   UNL     1      -6.219   0.430  12.134  1.00  0.00     0.074 A 
ATOM     52  C   UNL     1      -6.021  -1.937  12.819  1.00  0.00     0.049 A 
ATOM     53  N   UNL     1      -7.516   0.593  12.196  1.00  0.00    -0.248 NA
ATOM     54  C   UNL     1      -5.487   1.635  11.713  1.00  0.00     0.031 C 
ATOM     55  C   UNL     1      -5.337  -3.191  13.132  1.00  0.00     0.029 A 
ATOM     56  N   UNL     1      -7.351  -2.232  12.991  1.00  0.00    -0.354 N 
ATOM     57  C   UNL     1      -7.754   1.917  11.842  1.00  0.00     0.074 A 
ATOM     58  C   UNL     1      -6.465   2.525  11.600  1.00  0.00     0.031 C 
ATOM     59  C   UNL     1      -6.250  -4.133  13.405  1.00  0.00     0.029 A 
ATOM     60  C   UNL     1      -7.583  -3.538  13.360  1.00  0.00     0.049 A 
ATOM     61  H   UNL     1      -8.071  -1.572  12.864  1.00  0.00     0.167 HD
ATOM     62  C   UNL     1      -8.940   2.559  11.715  1.00  0.00     0.034 A 
ATOM     63  C   UNL     1      -8.733  -4.185  13.642  1.00  0.00     0.034 A 
ATOM     64  C   UNL     1     -10.219   1.931  11.932  1.00  0.00     0.049 A 
ATOM     65  C   UNL     1     -10.037  -3.438  13.525  1.00  0.00     0.074 A 
ATOM     66  C   UNL     1     -11.477   2.489  11.783  1.00  0.00     0.029 A 
ATOM     67  N   UNL     1     -10.411   0.620  12.341  1.00  0.00    -0.354 N 
ATOM     68  N   UNL     1     -10.245  -2.203  13.132  1.00  0.00    -0.248 NA
ATOM     69  C   UNL     1     -11.262  -4.164  13.887  1.00  0.00     0.031 C 
ATOM     70  C   UNL     1     -12.424   1.542  12.171  1.00  0.00     0.029 A 
ATOM     71  C   UNL     1     -11.765   0.362  12.481  1.00  0.00     0.049 A 
ATOM     72  H   UNL     1      -9.692  -0.032  12.506  1.00  0.00     0.167 HD
ATOM     73  C   UNL     1     -11.624  -2.013  13.177  1.00  0.00     0.074 A 
ATOM     74  C   UNL     1     -12.201  -3.268  13.610  1.00  0.00     0.031 C 
ATOM     75  C   UNL     1     -12.341  -0.897  12.893  1.00  0.00     0.034 A 
BRANCH  62  76
ATOM     76  C   UNL     1      -8.946   4.015  11.310  1.00  0.00     0.023 A 
ATOM     77  C   UNL     1      -9.490   4.981  12.178  1.00  0.00     0.031 A 
ATOM     78  C   UNL     1      -8.563   4.422  10.019  1.00  0.00     0.131 A 
ATOM     79  C   UNL     1      -9.678   6.295  11.729  1.00  0.00     0.055 A 
ATOM     80  C   UNL     1      -8.710   5.743   9.593  1.00  0.00     0.041 A 
ATOM     81  F   UNL     1      -8.041   3.538   9.152  1.00  0.00    -0.206 F 
ATOM     82  C   UNL     1      -9.284   6.682  10.444  1.00  0.00     0.022 A 
BRANCH  79  83
ATOM     83  S   UNL     1     -10.509   7.530  12.765  1.00  0.00     0.124 S 
ATOM     84  O   UNL     1      -9.489   8.572  12.865  1.00  0.00    -0.237 OA
ATOM     85  O   UNL     1     -11.674   7.874  11.953  1.00  0.00    -0.237 OA
ATOM     86  O   UNL     1     -10.791   6.817  14.005  1.00  0.00    -0.744 OA
ENDBRANCH  79  83
ENDBRANCH  62  76
BRANCH  63  87
ATOM     87  C   UNL     1      -8.682  -5.631  14.013  1.00  0.00     0.023 A 
ATOM     88  C   UNL     1      -7.960  -6.063  15.141  1.00  0.00     0.031 A 
ATOM     89  C   UNL     1      -9.258  -6.608  13.184  1.00  0.00     0.131 A 
ATOM     90  C   UNL     1      -7.763  -7.433  15.361  1.00  0.00     0.055 A 
ATOM     91  C   UNL     1      -9.127  -7.972  13.453  1.00  0.00     0.041 A 
ATOM     92  F   UNL     1      -9.945  -6.248  12.090  1.00  0.00    -0.206 F 
ATOM     93  C   UNL     1      -8.358  -8.390  14.535  1.00  0.00     0.022 A 
BRANCH  90  94
ATOM     94  S   UNL     1      -6.606  -8.011  16.633  1.00  0.00     0.124 S 
ATOM     95  O   UNL     1      -7.473  -8.808  17.494  1.00  0.00    -0.237 OA
ATOM     96  O   UNL     1      -5.642  -8.765  15.835  1.00  0.00    -0.237 OA
ATOM     97  O   UNL     1      -6.094  -6.777  17.219  1.00  0.00    -0.744 OA
ENDBRANCH  90  94
ENDBRANCH  63  87
BRANCH  75  98
ATOM     98  C   UNL     1     -13.846  -0.947  13.019  1.00  0.00     0.023 A 
ATOM     99  C   UNL     1     -14.652  -0.713  11.888  1.00  0.00     0.031 A 
ATOM    100  C   UNL     1     -14.474  -1.054  14.271  1.00  0.00     0.131 A 
ATOM    101  C   UNL     1     -16.034  -0.542  12.039  1.00  0.00     0.055 A 
ATOM    102  C   UNL     1     -15.858  -0.938  14.409  1.00  0.00     0.041 A 
ATOM    103  F   UNL     1     -13.749  -1.266  15.382  1.00  0.00    -0.206 F 
ATOM    104  C   UNL     1     -16.642  -0.663  13.292  1.00  0.00     0.022 A 
BRANCH 101 105
ATOM    105  S   UNL     1     -17.076  -0.058  10.635  1.00  0.00     0.124 S 
ATOM    106  O   UNL     1     -18.013  -1.176  10.555  1.00  0.00    -0.237 OA
ATOM    107  O   UNL     1     -17.649   1.204  11.098  1.00  0.00    -0.237 OA
ATOM    108  O   UNL     1     -16.140   0.049   9.521  1.00  0.00    -0.744 OA
ENDBRANCH 101 105
ENDBRANCH  75  98
ENDBRANCH  49  50
ENDBRANCH  41  44
ENDBRANCH  39  40
ENDBRANCH  38  39
ENDBRANCH   1  38
TORSDOF 17
