REMARK SMILES CC[C@H](C)[C@H](NC(=O)[C@H](C)Oc1ccc2c(C)c(C)c(=O)oc2c1C)C(=O)NCCCCCCNC(=O)c1ccc(-c2c3nc(c(-c4cc(S(=O)(=O)[O-])ccc4F)c4ccc([nH]4)c(-c4cc(S(=O)(=O)[O-])ccc4F)c4nc(c(-c5cc(S(=O)(=O)[O-])ccc5F)c5ccc2[nH]5)C=C4)C=C3)cc1
REMARK SMILES IDX 31 1 30 2 29 3 28 4 26 5 27 6 5 8 3 9 4 10 2 11 1 12 6 13
REMARK SMILES IDX 7 14 8 16 9 17 10 18 11 19 12 20 13 21 24 22 14 23 23 24
REMARK SMILES IDX 25 25 15 26 22 27 16 28 20 29 17 30 18 31 21 32 19 33 32 34
REMARK SMILES IDX 33 35 34 36 35 37 36 38 37 40 38 41 39 42 100 43 40 44 99 45
REMARK SMILES IDX 41 46 42 47 43 48 93 49 44 50 98 51 92 52 94 53 45 54 97 55
REMARK SMILES IDX 91 56 90 57 46 59 78 60 58 61 77 62 59 63 62 64 76 65 95 66
REMARK SMILES IDX 60 67 61 68 75 70 96 71 63 72 47 73 48 74 56 75 49 76 55 77
REMARK SMILES IDX 57 78 54 79 50 80 51 81 52 82 53 83 79 84 80 85 88 86 81 87
REMARK SMILES IDX 87 88 89 89 86 90 82 91 83 92 84 93 85 94 64 95 65 96 73 97
REMARK SMILES IDX 66 98 72 99 74 100 71 101 67 102 68 103 69 104 70 105
REMARK H PARENT 28 7 6 15 35 39 94 58 62 69
REMARK Flexibility Score: inf
ROOT
ATOM      1  C   UNL     1      -1.725   8.561   0.022  1.00  0.00     0.002 C 
ENDROOT
BRANCH   1   2
ATOM      2  C   UNL     1      -1.489   7.464  -1.023  1.00  0.00     0.021 C 
BRANCH   2   3
ATOM      3  C   UNL     1      -0.180   6.702  -0.883  1.00  0.00     0.116 C 
BRANCH   3   4
ATOM      4  N   UNL     1      -0.069   6.045   0.395  1.00  0.00    -0.354 N 
ATOM      5  C   UNL     1       0.583   4.904   0.717  1.00  0.00     0.242 C 
ATOM      6  O   UNL     1       0.723   4.660   1.921  1.00  0.00    -0.273 OA
ATOM      7  H   UNL     1      -0.535   6.489   1.139  1.00  0.00     0.163 HD
BRANCH   5   8
ATOM      8  C   UNL     1       1.212   3.979  -0.348  1.00  0.00     0.174 C 
BRANCH   8   9
ATOM      9  C   UNL     1       2.581   4.464  -0.937  1.00  0.00     0.018 C 
ATOM     10  C   UNL     1       2.536   5.209  -2.277  1.00  0.00     0.010 C 
BRANCH   9  11
ATOM     11  C   UNL     1       3.397   5.257   0.110  1.00  0.00     0.002 C 
ATOM     12  C   UNL     1       4.827   5.564  -0.311  1.00  0.00     0.004 C 
ENDBRANCH   9  11
ENDBRANCH   8   9
BRANCH   8  13
ATOM     13  N   UNL     1       0.273   3.477  -1.353  1.00  0.00    -0.341 N 
ATOM     14  C   UNL     1      -0.587   2.425  -1.362  1.00  0.00     0.261 C 
ATOM     15  H   UNL     1       0.263   4.003  -2.184  1.00  0.00     0.164 HD
ATOM     16  O   UNL     1      -1.141   2.201  -2.448  1.00  0.00    -0.271 OA
BRANCH  14  17
ATOM     17  C   UNL     1      -0.955   1.547  -0.124  1.00  0.00     0.258 C 
ATOM     18  C   UNL     1      -1.502   2.365   1.045  1.00  0.00     0.064 C 
BRANCH  17  19
ATOM     19  O   UNL     1      -0.214   0.411   0.328  1.00  0.00    -0.480 OA
BRANCH  19  20
ATOM     20  C   UNL     1       1.128   0.609   0.448  1.00  0.00     0.127 A 
ATOM     21  C   UNL     1       1.625   1.017   1.687  1.00  0.00     0.047 A 
ATOM     22  C   UNL     1       1.996   0.369  -0.618  1.00  0.00     0.035 A 
ATOM     23  C   UNL     1       2.975   1.358   1.827  1.00  0.00     0.016 A 
ATOM     24  C   UNL     1       3.350   0.712  -0.443  1.00  0.00     0.145 A 
ATOM     25  C   UNL     1       1.526  -0.213  -1.921  1.00  0.00     0.052 C 
ATOM     26  C   UNL     1       3.853   1.257   0.742  1.00  0.00     0.021 A 
ATOM     27  O   UNL     1       4.202   0.513  -1.546  1.00  0.00    -0.422 OA
ATOM     28  C   UNL     1       5.238   1.767   0.767  1.00  0.00    -0.030 A 
ATOM     29  C   UNL     1       5.538   0.871  -1.524  1.00  0.00     0.339 A 
ATOM     30  C   UNL     1       5.684   2.524   1.994  1.00  0.00     0.045 C 
ATOM     31  C   UNL     1       6.021   1.603  -0.322  1.00  0.00     0.038 A 
ATOM     32  O   UNL     1       6.277   0.596  -2.463  1.00  0.00    -0.246 OA
ATOM     33  C   UNL     1       7.423   2.142  -0.422  1.00  0.00     0.052 C 
ENDBRANCH  19  20
ENDBRANCH  17  19
ENDBRANCH  14  17
ENDBRANCH   8  13
ENDBRANCH   5   8
ENDBRANCH   3   4
ENDBRANCH   2   3
ENDBRANCH   1   2
BRANCH   1  34
ATOM     34  C   UNL     1      -0.586   9.566   0.220  1.00  0.00     0.002 C 
BRANCH  34  35
ATOM     35  C   UNL     1      -0.059  10.240  -1.047  1.00  0.00     0.021 C 
BRANCH  35  36
ATOM     36  C   UNL     1      -1.119  10.847  -1.954  1.00  0.00     0.116 C 
BRANCH  36  37
ATOM     37  N   UNL     1      -1.881  11.900  -1.306  1.00  0.00    -0.352 N 
ATOM     38  C   UNL     1      -2.233  13.122  -1.828  1.00  0.00     0.251 C 
ATOM     39  H   UNL     1      -2.180  11.717  -0.386  1.00  0.00     0.163 HD
ATOM     40  O   UNL     1      -2.800  13.962  -1.143  1.00  0.00    -0.269 OA
BRANCH  38  41
ATOM     41  C   UNL     1      -1.874  13.408  -3.231  1.00  0.00     0.039 A 
ATOM     42  C   UNL     1      -1.020  14.477  -3.500  1.00  0.00     0.014 A 
ATOM     43  C   UNL     1      -2.309  12.560  -4.256  1.00  0.00     0.014 A 
ATOM     44  C   UNL     1      -0.556  14.668  -4.801  1.00  0.00     0.010 A 
ATOM     45  C   UNL     1      -1.805  12.723  -5.543  1.00  0.00     0.010 A 
ATOM     46  C   UNL     1      -0.924  13.778  -5.825  1.00  0.00    -0.014 A 
BRANCH  46  47
ATOM     47  C   UNL     1      -0.381  13.947  -7.194  1.00  0.00     0.031 A 
ATOM     48  C   UNL     1      -1.276  14.406  -8.308  1.00  0.00     0.074 A 
ATOM     49  C   UNL     1       0.916  13.669  -7.433  1.00  0.00     0.049 A 
ATOM     50  N   UNL     1      -0.968  14.675  -9.549  1.00  0.00    -0.248 NA
ATOM     51  C   UNL     1      -2.704  14.573  -7.992  1.00  0.00     0.031 C 
ATOM     52  C   UNL     1       1.864  13.163  -6.439  1.00  0.00     0.029 A 
ATOM     53  N   UNL     1       1.661  13.777  -8.580  1.00  0.00    -0.354 N 
ATOM     54  C   UNL     1      -2.156  15.056 -10.159  1.00  0.00     0.074 A 
ATOM     55  C   UNL     1      -3.203  14.922  -9.170  1.00  0.00     0.031 C 
ATOM     56  C   UNL     1       3.072  13.034  -7.012  1.00  0.00     0.029 A 
ATOM     57  C   UNL     1       2.983  13.432  -8.415  1.00  0.00     0.049 A 
ATOM     58  H   UNL     1       1.286  14.074  -9.440  1.00  0.00     0.167 HD
ATOM     59  C   UNL     1      -2.349  15.510 -11.418  1.00  0.00     0.034 A 
ATOM     60  C   UNL     1       4.009  13.453  -9.290  1.00  0.00     0.034 A 
ATOM     61  C   UNL     1      -1.299  15.654 -12.391  1.00  0.00     0.049 A 
ATOM     62  C   UNL     1       3.765  13.962 -10.688  1.00  0.00     0.074 A 
ATOM     63  C   UNL     1      -1.388  16.155 -13.678  1.00  0.00     0.029 A 
ATOM     64  N   UNL     1       0.026  15.302 -12.188  1.00  0.00    -0.354 N 
ATOM     65  N   UNL     1       2.656  14.422 -11.216  1.00  0.00    -0.248 NA
ATOM     66  C   UNL     1       4.913  13.969 -11.606  1.00  0.00     0.031 C 
ATOM     67  C   UNL     1      -0.124  16.073 -14.265  1.00  0.00     0.029 A 
ATOM     68  C   UNL     1       0.763  15.559 -13.331  1.00  0.00     0.049 A 
ATOM     69  H   UNL     1       0.390  14.926 -11.354  1.00  0.00     0.167 HD
ATOM     70  C   UNL     1       2.978  14.797 -12.517  1.00  0.00     0.074 A 
ATOM     71  C   UNL     1       4.391  14.531 -12.689  1.00  0.00     0.031 C 
ATOM     72  C   UNL     1       2.174  15.307 -13.484  1.00  0.00     0.034 A 
BRANCH  59  73
ATOM     73  C   UNL     1      -3.736  15.936 -11.816  1.00  0.00     0.023 A 
ATOM     74  C   UNL     1      -4.445  15.225 -12.799  1.00  0.00     0.031 A 
ATOM     75  C   UNL     1      -4.302  17.116 -11.300  1.00  0.00     0.131 A 
ATOM     76  C   UNL     1      -5.673  15.719 -13.258  1.00  0.00     0.055 A 
ATOM     77  C   UNL     1      -5.540  17.585 -11.738  1.00  0.00     0.041 A 
ATOM     78  F   UNL     1      -3.661  17.823 -10.355  1.00  0.00    -0.206 F 
ATOM     79  C   UNL     1      -6.227  16.890 -12.729  1.00  0.00     0.022 A 
BRANCH  76  80
ATOM     80  S   UNL     1      -6.588  14.870 -14.573  1.00  0.00     0.124 S 
ATOM     81  O   UNL     1      -7.929  14.775 -13.999  1.00  0.00    -0.237 OA
ATOM     82  O   UNL     1      -6.450  15.802 -15.688  1.00  0.00    -0.237 OA
ATOM     83  O   UNL     1      -5.889  13.598 -14.718  1.00  0.00    -0.744 OA
ENDBRANCH  76  80
ENDBRANCH  59  73
BRANCH  60  84
ATOM     84  C   UNL     1       5.372  13.060  -8.835  1.00  0.00     0.023 A 
ATOM     85  C   UNL     1       5.659  11.741  -8.441  1.00  0.00     0.031 A 
ATOM     86  C   UNL     1       6.391  14.022  -8.724  1.00  0.00     0.131 A 
ATOM     87  C   UNL     1       6.922  11.431  -7.919  1.00  0.00     0.055 A 
ATOM     88  C   UNL     1       7.665  13.696  -8.257  1.00  0.00     0.041 A 
ATOM     89  F   UNL     1       6.157  15.296  -9.076  1.00  0.00    -0.206 F 
ATOM     90  C   UNL     1       7.932  12.396  -7.841  1.00  0.00     0.022 A 
BRANCH  87  91
ATOM     91  S   UNL     1       7.270   9.786  -7.237  1.00  0.00     0.124 S 
ATOM     92  O   UNL     1       8.397   9.349  -8.055  1.00  0.00    -0.237 OA
ATOM     93  O   UNL     1       7.584  10.101  -5.846  1.00  0.00    -0.237 OA
ATOM     94  O   UNL     1       6.022   9.058  -7.440  1.00  0.00    -0.744 OA
ENDBRANCH  87  91
ENDBRANCH  60  84
BRANCH  72  95
ATOM     95  C   UNL     1       2.783  15.622 -14.826  1.00  0.00     0.023 A 
ATOM     96  C   UNL     1       2.849  16.953 -15.278  1.00  0.00     0.031 A 
ATOM     97  C   UNL     1       3.171  14.597 -15.705  1.00  0.00     0.131 A 
ATOM     98  C   UNL     1       3.267  17.222 -16.587  1.00  0.00     0.055 A 
ATOM     99  C   UNL     1       3.623  14.873 -16.996  1.00  0.00     0.041 A 
ATOM    100  F   UNL     1       3.115  13.312 -15.320  1.00  0.00    -0.206 F 
ATOM    101  C   UNL     1       3.661  16.190 -17.445  1.00  0.00     0.022 A 
BRANCH  98 102
ATOM    102  S   UNL     1       3.253  18.911 -17.246  1.00  0.00     0.124 S 
ATOM    103  O   UNL     1       4.657  19.108 -17.602  1.00  0.00    -0.237 OA
ATOM    104  O   UNL     1       2.334  18.793 -18.375  1.00  0.00    -0.237 OA
ATOM    105  O   UNL     1       2.776  19.722 -16.131  1.00  0.00    -0.744 OA
ENDBRANCH  98 102
ENDBRANCH  72  95
ENDBRANCH  46  47
ENDBRANCH  38  41
ENDBRANCH  36  37
ENDBRANCH  35  36
ENDBRANCH  34  35
ENDBRANCH   1  34
TORSDOF 22
