REMARK SMILES O=C(NCCCCCCNC(=O)[C@@H]1[C@H](C(=O)Nc2ccc(Cn3cncn3)cc2)[C@@H]2C=C[C@H]1CC2)c1ccc(-c2c3nc(c(-c4cc(S(=O)(=O)[O-])ccc4F)c4ccc([nH]4)c(-c4cc(S(=O)(=O)[O-])ccc4F)c4nc(c(-c5cc(S(=O)(=O)[O-])ccc5F)c5ccc2[nH]5)C=C4)C=C3)cc1
REMARK SMILES IDX 7 1 6 2 5 3 4 4 3 5 1 6 2 7 36 9 37 10 98 11 38 12 97 13
REMARK SMILES IDX 39 14 40 15 41 16 91 17 42 18 96 19 90 20 92 21 43 22 95 23
REMARK SMILES IDX 89 24 88 25 44 27 76 28 56 29 75 30 57 31 60 32 74 33 93 34
REMARK SMILES IDX 58 35 59 36 73 38 94 39 61 40 45 41 46 42 54 43 47 44 53 45
REMARK SMILES IDX 55 46 52 47 48 48 49 49 50 50 51 51 77 52 78 53 86 54 79 55
REMARK SMILES IDX 85 56 87 57 84 58 80 59 81 60 82 61 83 62 62 63 63 64 71 65
REMARK SMILES IDX 64 66 70 67 72 68 69 69 65 70 66 71 67 72 68 73 8 74 9 75
REMARK SMILES IDX 10 76 11 77 12 79 13 80 14 81 33 82 30 83 32 84 34 85 31 86
REMARK SMILES IDX 35 87 15 88 16 89 17 90 18 92 19 93 29 94 20 95 28 96 21 97
REMARK SMILES IDX 22 98 23 99 24 100 27 101 25 102 26 103
REMARK H PARENT 3 8 92 26 60 37 10 78 17 91
REMARK Flexibility Score: inf
ROOT
ATOM      1  C   UNL     1       4.647   3.662   2.031  1.00  0.00     0.002 C 
ENDROOT
BRANCH   1   2
ATOM      2  C   UNL     1       4.119   3.524   0.607  1.00  0.00     0.002 C 
BRANCH   2   3
ATOM      3  C   UNL     1       4.641   2.326  -0.193  1.00  0.00     0.021 C 
BRANCH   3   4
ATOM      4  C   UNL     1       4.517   0.966   0.494  1.00  0.00     0.116 C 
BRANCH   4   5
ATOM      5  N   UNL     1       3.162   0.529   0.752  1.00  0.00    -0.352 N 
ATOM      6  O   UNL     1       1.151  -0.376   0.561  1.00  0.00    -0.269 OA
ATOM      7  C   UNL     1       2.169   0.001  -0.027  1.00  0.00     0.251 C 
ATOM      8  H   UNL     1       2.897   0.633   1.695  1.00  0.00     0.163 HD
BRANCH   7   9
ATOM      9  C   UNL     1       2.219  -0.090  -1.511  1.00  0.00     0.039 A 
ATOM     10  C   UNL     1       3.381  -0.110  -2.282  1.00  0.00     0.014 A 
ATOM     11  C   UNL     1       0.977  -0.180  -2.166  1.00  0.00     0.014 A 
ATOM     12  C   UNL     1       3.306  -0.138  -3.673  1.00  0.00     0.010 A 
ATOM     13  C   UNL     1       0.897  -0.239  -3.555  1.00  0.00     0.010 A 
ATOM     14  C   UNL     1       2.064  -0.193  -4.314  1.00  0.00    -0.014 A 
BRANCH  14  15
ATOM     15  C   UNL     1       2.050  -0.377  -5.767  1.00  0.00     0.031 A 
ATOM     16  C   UNL     1       2.682  -1.642  -6.255  1.00  0.00     0.074 A 
ATOM     17  C   UNL     1       1.390   0.420  -6.632  1.00  0.00     0.049 A 
ATOM     18  N   UNL     1       3.651  -1.791  -7.099  1.00  0.00    -0.248 NA
ATOM     19  C   UNL     1       2.222  -2.905  -5.656  1.00  0.00     0.031 C 
ATOM     20  C   UNL     1       0.480   1.525  -6.326  1.00  0.00     0.029 A 
ATOM     21  N   UNL     1       1.320   0.329  -7.993  1.00  0.00    -0.354 N 
ATOM     22  C   UNL     1       3.812  -3.165  -7.278  1.00  0.00     0.074 A 
ATOM     23  C   UNL     1       2.992  -3.797  -6.278  1.00  0.00     0.031 C 
ATOM     24  C   UNL     1      -0.210   1.856  -7.441  1.00  0.00     0.029 A 
ATOM     25  C   UNL     1       0.301   1.084  -8.563  1.00  0.00     0.049 A 
ATOM     26  H   UNL     1       1.938  -0.223  -8.525  1.00  0.00     0.167 HD
ATOM     27  C   UNL     1       4.494  -3.691  -8.336  1.00  0.00     0.034 A 
ATOM     28  C   UNL     1      -0.138   1.040  -9.849  1.00  0.00     0.034 A 
ATOM     29  C   UNL     1       5.378  -2.720  -8.929  1.00  0.00     0.049 A 
ATOM     30  C   UNL     1       0.954   0.467 -10.670  1.00  0.00     0.074 A 
ATOM     31  C   UNL     1       6.457  -1.990  -8.466  1.00  0.00     0.029 A 
ATOM     32  N   UNL     1       4.999  -2.102 -10.097  1.00  0.00    -0.354 N 
ATOM     33  N   UNL     1       2.098   1.061 -10.864  1.00  0.00    -0.248 NA
ATOM     34  C   UNL     1       0.953  -0.966 -10.918  1.00  0.00     0.031 C 
ATOM     35  C   UNL     1       6.316  -0.707  -9.072  1.00  0.00     0.029 A 
ATOM     36  C   UNL     1       5.202  -0.755  -9.913  1.00  0.00     0.049 A 
ATOM     37  H   UNL     1       4.650  -2.539 -10.907  1.00  0.00     0.167 HD
ATOM     38  C   UNL     1       3.041   0.046 -10.831  1.00  0.00     0.074 A 
ATOM     39  C   UNL     1       2.269  -1.187 -10.970  1.00  0.00     0.031 C 
ATOM     40  C   UNL     1       4.324   0.280 -10.425  1.00  0.00     0.034 A 
BRANCH  27  41
ATOM     41  C   UNL     1       4.179  -5.014  -8.998  1.00  0.00     0.023 A 
ATOM     42  C   UNL     1       5.026  -5.468 -10.031  1.00  0.00     0.031 A 
ATOM     43  C   UNL     1       2.959  -5.713  -8.855  1.00  0.00     0.131 A 
ATOM     44  C   UNL     1       4.630  -6.514 -10.887  1.00  0.00     0.055 A 
ATOM     45  C   UNL     1       2.599  -6.794  -9.665  1.00  0.00     0.041 A 
ATOM     46  F   UNL     1       2.010  -5.332  -7.991  1.00  0.00    -0.206 F 
ATOM     47  C   UNL     1       3.424  -7.185 -10.706  1.00  0.00     0.022 A 
BRANCH  44  48
ATOM     48  S   UNL     1       5.637  -6.872 -12.353  1.00  0.00     0.124 S 
ATOM     49  O   UNL     1       5.763  -5.553 -12.961  1.00  0.00    -0.237 OA
ATOM     50  O   UNL     1       6.848  -7.426 -11.757  1.00  0.00    -0.237 OA
ATOM     51  O   UNL     1       4.820  -7.826 -13.101  1.00  0.00    -0.744 OA
ENDBRANCH  44  48
ENDBRANCH  27  41
BRANCH  28  52
ATOM     52  C   UNL     1      -1.544   1.154 -10.321  1.00  0.00     0.023 A 
ATOM     53  C   UNL     1      -1.886   1.490 -11.648  1.00  0.00     0.031 A 
ATOM     54  C   UNL     1      -2.591   0.684  -9.495  1.00  0.00     0.131 A 
ATOM     55  C   UNL     1      -3.224   1.359 -12.092  1.00  0.00     0.055 A 
ATOM     56  C   UNL     1      -3.909   0.564  -9.936  1.00  0.00     0.041 A 
ATOM     57  F   UNL     1      -2.349   0.243  -8.250  1.00  0.00    -0.206 F 
ATOM     58  C   UNL     1      -4.231   0.894 -11.242  1.00  0.00     0.022 A 
BRANCH  55  59
ATOM     59  S   UNL     1      -3.658   1.701 -13.829  1.00  0.00     0.124 S 
ATOM     60  O   UNL     1      -3.483   3.150 -13.912  1.00  0.00    -0.237 OA
ATOM     61  O   UNL     1      -2.699   0.889 -14.561  1.00  0.00    -0.237 OA
ATOM     62  O   UNL     1      -5.048   1.248 -13.929  1.00  0.00    -0.744 OA
ENDBRANCH  55  59
ENDBRANCH  28  52
BRANCH  40  63
ATOM     63  C   UNL     1       4.782   1.718 -10.263  1.00  0.00     0.023 A 
ATOM     64  C   UNL     1       4.151   2.675  -9.433  1.00  0.00     0.031 A 
ATOM     65  C   UNL     1       5.985   2.095 -10.887  1.00  0.00     0.131 A 
ATOM     66  C   UNL     1       4.719   3.954  -9.267  1.00  0.00     0.055 A 
ATOM     67  C   UNL     1       6.556   3.355 -10.704  1.00  0.00     0.041 A 
ATOM     68  F   UNL     1       6.652   1.225 -11.664  1.00  0.00    -0.206 F 
ATOM     69  C   UNL     1       5.921   4.292  -9.898  1.00  0.00     0.022 A 
BRANCH  66  70
ATOM     70  S   UNL     1       3.898   5.208  -8.231  1.00  0.00     0.124 S 
ATOM     71  O   UNL     1       2.516   5.183  -8.693  1.00  0.00    -0.237 OA
ATOM     72  O   UNL     1       4.134   4.706  -6.880  1.00  0.00    -0.237 OA
ATOM     73  O   UNL     1       4.623   6.440  -8.552  1.00  0.00    -0.744 OA
ENDBRANCH  66  70
ENDBRANCH  40  63
ENDBRANCH  14  15
ENDBRANCH   7   9
ENDBRANCH   4   5
ENDBRANCH   3   4
ENDBRANCH   2   3
ENDBRANCH   1   2
BRANCH   1  74
ATOM     74  C   UNL     1       6.159   3.529   2.216  1.00  0.00     0.021 C 
BRANCH  74  75
ATOM     75  C   UNL     1       7.051   4.576   1.547  1.00  0.00     0.116 C 
BRANCH  75  76
ATOM     76  N   UNL     1       6.933   5.894   2.146  1.00  0.00    -0.356 N 
ATOM     77  C   UNL     1       7.856   6.700   2.740  1.00  0.00     0.224 C 
ATOM     78  H   UNL     1       6.024   6.271   2.119  1.00  0.00     0.163 HD
ATOM     79  O   UNL     1       7.548   7.891   2.863  1.00  0.00    -0.275 OA
BRANCH  77  80
ATOM     80  C   UNL     1       9.234   6.204   3.155  1.00  0.00     0.098 C 
ATOM     81  C   UNL     1       9.436   4.873   3.919  1.00  0.00     0.098 C 
ATOM     82  C   UNL     1      10.116   7.311   3.854  1.00  0.00     0.025 C 
ATOM     83  C   UNL     1      10.680   4.981   4.855  1.00  0.00     0.025 C 
ATOM     84  C   UNL     1      10.049   7.224   5.372  1.00  0.00    -0.027 C 
ATOM     85  C   UNL     1      11.594   6.965   3.544  1.00  0.00     0.009 C 
ATOM     86  C   UNL     1      10.378   6.031   5.891  1.00  0.00    -0.027 C 
ATOM     87  C   UNL     1      11.884   5.520   4.030  1.00  0.00     0.009 C 
BRANCH  81  88
ATOM     88  C   UNL     1       8.333   4.041   4.587  1.00  0.00     0.228 C 
ATOM     89  O   UNL     1       8.334   2.822   4.324  1.00  0.00    -0.274 OA
ATOM     90  N   UNL     1       7.445   4.385   5.556  1.00  0.00    -0.326 N 
ATOM     91  H   UNL     1       6.822   3.658   5.789  1.00  0.00     0.169 HD
BRANCH  90  92
ATOM     92  C   UNL     1       7.230   5.550   6.291  1.00  0.00     0.041 A 
ATOM     93  C   UNL     1       7.299   5.461   7.680  1.00  0.00     0.026 A 
ATOM     94  C   UNL     1       6.898   6.768   5.724  1.00  0.00     0.026 A 
ATOM     95  C   UNL     1       7.305   6.622   8.457  1.00  0.00     0.008 A 
ATOM     96  C   UNL     1       6.907   7.938   6.485  1.00  0.00     0.008 A 
ATOM     97  C   UNL     1       7.196   7.880   7.849  1.00  0.00    -0.026 A 
BRANCH  97  98
ATOM     98  C   UNL     1       7.412   9.146   8.633  1.00  0.00     0.181 C 
BRANCH  98  99
ATOM     99  N   UNL     1       6.168   9.740   9.070  1.00  0.00    -0.249 N 
ATOM    100  C   UNL     1       5.295   9.251   9.991  1.00  0.00     0.220 A 
ATOM    101  N   UNL     1       5.795  10.966   8.653  1.00  0.00    -0.160 NA
ATOM    102  N   UNL     1       4.323  10.114  10.176  1.00  0.00    -0.224 NA
ATOM    103  C   UNL     1       4.656  11.133   9.329  1.00  0.00     0.246 A 
ENDBRANCH  98  99
ENDBRANCH  97  98
ENDBRANCH  90  92
ENDBRANCH  81  88
ENDBRANCH  77  80
ENDBRANCH  75  76
ENDBRANCH  74  75
ENDBRANCH   1  74
TORSDOF 20
