REMARK SMILES CCCCc1nc(C[N@H+]2CC[NH2+][C@H](C(=O)NCCCCCCNC(=O)c3ccc(-c4c5nc(c(-c6cc(S(=O)(=O)[O-])ccc6F)c6ccc([nH]6)c(-c6cc(S(=O)(=O)[O-])ccc6F)c6nc(c(-c7cc(S(=O)(=O)[O-])ccc7F)c7ccc4[nH]7)C=C6)C=C5)cc3)C2)c(Cl)[nH]1
REMARK SMILES IDX 18 1 17 2 16 3 14 4 15 5 13 7 9 8 10 9 89 10 11 12 12 13
REMARK SMILES IDX 8 16 7 17 5 18 6 19 92 20 90 21 91 23 4 24 3 25 2 26 1 27
REMARK SMILES IDX 19 28 20 29 21 30 22 31 23 32 24 33 25 35 26 36 27 37 88 38
REMARK SMILES IDX 28 39 87 40 29 41 30 42 31 43 81 44 32 45 86 46 80 47 82 48
REMARK SMILES IDX 33 49 85 50 79 51 78 52 34 54 66 55 46 56 65 57 47 58 50 59
REMARK SMILES IDX 64 60 83 61 48 62 49 63 63 65 84 66 51 67 35 68 36 69 44 70
REMARK SMILES IDX 37 71 43 72 45 73 42 74 38 75 39 76 40 77 41 78 67 79 68 80
REMARK SMILES IDX 76 81 69 82 75 83 77 84 74 85 70 86 71 87 72 88 73 89 52 90
REMARK SMILES IDX 53 91 61 92 54 93 60 94 62 95 59 96 55 97 56 98 57 99 58 100
REMARK H PARENT 16 6 9 11 12 14 12 15 92 22 23 34 82 53 50 64
REMARK Flexibility Score: inf
ROOT
ATOM      1  C   UNL     1       1.145  -4.206  -3.806  1.00  0.00     0.021 C 
ENDROOT
BRANCH   1   2
ATOM      2  C   UNL     1       0.318  -5.458  -4.070  1.00  0.00     0.116 C 
BRANCH   2   3
ATOM      3  N   UNL     1       0.212  -6.320  -2.915  1.00  0.00    -0.351 N 
ATOM      4  C   UNL     1      -0.748  -6.396  -1.951  1.00  0.00     0.284 C 
ATOM      5  O   UNL     1      -0.629  -7.332  -1.149  1.00  0.00    -0.268 OA
ATOM      6  H   UNL     1       0.956  -6.956  -2.806  1.00  0.00     0.163 HD
BRANCH   4   7
ATOM      7  C   UNL     1      -1.849  -5.323  -1.780  1.00  0.00     0.328 C 
ATOM      8  N   UNL     1      -4.261  -5.122  -0.838  1.00  0.00    -0.320 N 
ATOM      9  C   UNL     1      -4.560  -4.325  -2.035  1.00  0.00     0.324 C 
ATOM     10  C   UNL     1      -3.041  -5.946  -0.994  1.00  0.00     0.339 C 
ATOM     11  H   UNL     1      -5.037  -5.779  -0.758  1.00  0.00     0.348 HD
ATOM     12  C   UNL     1      -3.342  -3.712  -2.754  1.00  0.00     0.323 C 
ATOM     13  N   UNL     1      -2.322  -4.726  -3.057  1.00  0.00    -0.327 N 
ATOM     14  H   UNL     1      -1.538  -4.290  -3.543  1.00  0.00     0.347 HD
ATOM     15  H   UNL     1      -2.719  -5.451  -3.654  1.00  0.00     0.347 HD
BRANCH   8  16
ATOM     16  C   UNL     1      -4.319  -4.375   0.433  1.00  0.00     0.323 C 
BRANCH  16  17
ATOM     17  C   UNL     1      -3.281  -3.315   0.578  1.00  0.00     0.132 A 
ATOM     18  C   UNL     1      -1.274  -2.519   0.653  1.00  0.00     0.107 A 
ATOM     19  N   UNL     1      -1.958  -3.639   0.808  1.00  0.00    -0.231 NA
ATOM     20  N   UNL     1      -2.129  -1.447   0.572  1.00  0.00    -0.333 N 
ATOM     21  C   UNL     1      -3.387  -1.953   0.466  1.00  0.00     0.135 A 
ATOM     22  H   UNL     1      -1.879  -0.495   0.587  1.00  0.00     0.169 HD
ATOM     23  Cl  UNL     1      -4.667  -0.898   0.140  1.00  0.00    -0.062 Cl
BRANCH  18  24
ATOM     24  C   UNL     1       0.207  -2.430   0.493  1.00  0.00     0.075 C 
BRANCH  24  25
ATOM     25  C   UNL     1       0.649  -1.776  -0.824  1.00  0.00     0.008 C 
BRANCH  25  26
ATOM     26  C   UNL     1       0.551  -0.249  -0.913  1.00  0.00    -0.003 C 
ATOM     27  C   UNL     1       1.140   0.485   0.279  1.00  0.00     0.004 C 
ENDBRANCH  25  26
ENDBRANCH  24  25
ENDBRANCH  18  24
ENDBRANCH  16  17
ENDBRANCH   8  16
ENDBRANCH   4   7
ENDBRANCH   2   3
ENDBRANCH   1   2
BRANCH   1  28
ATOM     28  C   UNL     1       2.639  -4.374  -4.093  1.00  0.00     0.002 C 
BRANCH  28  29
ATOM     29  C   UNL     1       2.989  -5.007  -5.449  1.00  0.00     0.002 C 
BRANCH  29  30
ATOM     30  C   UNL     1       2.248  -4.438  -6.670  1.00  0.00     0.021 C 
BRANCH  30  31
ATOM     31  C   UNL     1       2.627  -3.000  -6.988  1.00  0.00     0.116 C 
BRANCH  31  32
ATOM     32  N   UNL     1       4.023  -2.903  -7.388  1.00  0.00    -0.352 N 
ATOM     33  C   UNL     1       4.757  -1.782  -7.703  1.00  0.00     0.251 C 
ATOM     34  H   UNL     1       4.509  -3.757  -7.441  1.00  0.00     0.163 HD
ATOM     35  O   UNL     1       5.774  -1.893  -8.370  1.00  0.00    -0.269 OA
BRANCH  33  36
ATOM     36  C   UNL     1       4.290  -0.457  -7.247  1.00  0.00     0.039 A 
ATOM     37  C   UNL     1       4.423   0.646  -8.089  1.00  0.00     0.014 A 
ATOM     38  C   UNL     1       3.727  -0.314  -5.977  1.00  0.00     0.014 A 
ATOM     39  C   UNL     1       3.916   1.874  -7.674  1.00  0.00     0.010 A 
ATOM     40  C   UNL     1       3.129   0.876  -5.610  1.00  0.00     0.010 A 
ATOM     41  C   UNL     1       3.236   1.982  -6.444  1.00  0.00    -0.014 A 
BRANCH  41  42
ATOM     42  C   UNL     1       2.495   3.210  -6.143  1.00  0.00     0.031 A 
ATOM     43  C   UNL     1       1.619   3.656  -7.260  1.00  0.00     0.074 A 
ATOM     44  C   UNL     1       2.437   3.836  -4.947  1.00  0.00     0.049 A 
ATOM     45  N   UNL     1       1.809   4.666  -8.040  1.00  0.00    -0.248 NA
ATOM     46  C   UNL     1       0.511   2.783  -7.678  1.00  0.00     0.031 C 
ATOM     47  C   UNL     1       3.004   3.409  -3.666  1.00  0.00     0.029 A 
ATOM     48  N   UNL     1       1.777   4.985  -4.611  1.00  0.00    -0.354 N 
ATOM     49  C   UNL     1       0.709   4.707  -8.888  1.00  0.00     0.074 A 
ATOM     50  C   UNL     1       0.067   3.426  -8.760  1.00  0.00     0.031 C 
ATOM     51  C   UNL     1       2.494   4.164  -2.665  1.00  0.00     0.029 A 
ATOM     52  C   UNL     1       1.697   5.234  -3.241  1.00  0.00     0.049 A 
ATOM     53  H   UNL     1       1.388   5.589  -5.284  1.00  0.00     0.167 HD
ATOM     54  C   UNL     1       0.290   5.886  -9.424  1.00  0.00     0.034 A 
ATOM     55  C   UNL     1       1.036   6.248  -2.617  1.00  0.00     0.034 A 
ATOM     56  C   UNL     1       1.340   6.883  -9.361  1.00  0.00     0.049 A 
ATOM     57  C   UNL     1       0.905   7.341  -3.609  1.00  0.00     0.074 A 
ATOM     58  C   UNL     1       2.646   6.936  -9.816  1.00  0.00     0.029 A 
ATOM     59  N   UNL     1       1.254   7.863  -8.397  1.00  0.00    -0.354 N 
ATOM     60  N   UNL     1       1.925   7.999  -4.086  1.00  0.00    -0.248 NA
ATOM     61  C   UNL     1      -0.300   7.391  -4.420  1.00  0.00     0.031 C 
ATOM     62  C   UNL     1       3.379   7.551  -8.757  1.00  0.00     0.029 A 
ATOM     63  C   UNL     1       2.473   7.928  -7.764  1.00  0.00     0.049 A 
ATOM     64  H   UNL     1       0.464   8.416  -8.197  1.00  0.00     0.167 HD
ATOM     65  C   UNL     1       1.646   8.157  -5.433  1.00  0.00     0.074 A 
ATOM     66  C   UNL     1       0.221   7.854  -5.559  1.00  0.00     0.031 C 
ATOM     67  C   UNL     1       2.647   8.251  -6.358  1.00  0.00     0.034 A 
BRANCH  54  68
ATOM     68  C   UNL     1      -1.163   6.249  -9.645  1.00  0.00     0.023 A 
ATOM     69  C   UNL     1      -1.438   7.523 -10.178  1.00  0.00     0.031 A 
ATOM     70  C   UNL     1      -2.276   5.561  -9.106  1.00  0.00     0.131 A 
ATOM     71  C   UNL     1      -2.719   8.094 -10.067  1.00  0.00     0.055 A 
ATOM     72  C   UNL     1      -3.562   6.105  -9.062  1.00  0.00     0.041 A 
ATOM     73  F   UNL     1      -2.176   4.369  -8.509  1.00  0.00    -0.206 F 
ATOM     74  C   UNL     1      -3.785   7.392  -9.513  1.00  0.00     0.022 A 
BRANCH  71  75
ATOM     75  S   UNL     1      -2.919   9.842 -10.493  1.00  0.00     0.124 S 
ATOM     76  O   UNL     1      -1.919  10.465  -9.634  1.00  0.00    -0.237 OA
ATOM     77  O   UNL     1      -2.629   9.837 -11.923  1.00  0.00    -0.237 OA
ATOM     78  O   UNL     1      -4.309  10.119 -10.140  1.00  0.00    -0.744 OA
ENDBRANCH  71  75
ENDBRANCH  54  68
BRANCH  55  79
ATOM     79  C   UNL     1       0.273   6.219  -1.336  1.00  0.00     0.023 A 
ATOM     80  C   UNL     1      -0.132   7.395  -0.660  1.00  0.00     0.031 A 
ATOM     81  C   UNL     1      -0.313   5.010  -0.901  1.00  0.00     0.131 A 
ATOM     82  C   UNL     1      -1.090   7.329   0.382  1.00  0.00     0.055 A 
ATOM     83  C   UNL     1      -1.262   4.953   0.123  1.00  0.00     0.041 A 
ATOM     84  F   UNL     1      -0.052   3.848  -1.521  1.00  0.00    -0.206 F 
ATOM     85  C   UNL     1      -1.664   6.115   0.761  1.00  0.00     0.022 A 
BRANCH  82  86
ATOM     86  S   UNL     1      -1.690   8.848   1.199  1.00  0.00     0.124 S 
ATOM     87  O   UNL     1      -0.535   9.247   1.995  1.00  0.00    -0.237 OA
ATOM     88  O   UNL     1      -2.029   9.703   0.068  1.00  0.00    -0.237 OA
ATOM     89  O   UNL     1      -2.839   8.382   1.978  1.00  0.00    -0.744 OA
ENDBRANCH  82  86
ENDBRANCH  55  79
BRANCH  67  90
ATOM     90  C   UNL     1       4.063   8.518  -5.875  1.00  0.00     0.023 A 
ATOM     91  C   UNL     1       4.774   7.740  -4.931  1.00  0.00     0.031 A 
ATOM     92  C   UNL     1       4.755   9.578  -6.490  1.00  0.00     0.131 A 
ATOM     93  C   UNL     1       6.119   8.047  -4.630  1.00  0.00     0.055 A 
ATOM     94  C   UNL     1       6.091   9.862  -6.209  1.00  0.00     0.041 A 
ATOM     95  F   UNL     1       4.146  10.348  -7.408  1.00  0.00    -0.206 F 
ATOM     96  C   UNL     1       6.776   9.101  -5.272  1.00  0.00     0.022 A 
BRANCH  93  97
ATOM     97  S   UNL     1       7.038   7.097  -3.372  1.00  0.00     0.124 S 
ATOM     98  O   UNL     1       6.120   7.045  -2.241  1.00  0.00    -0.237 OA
ATOM     99  O   UNL     1       7.288   5.829  -4.052  1.00  0.00    -0.237 OA
ATOM    100  O   UNL     1       8.237   7.907  -3.144  1.00  0.00    -0.744 OA
ENDBRANCH  93  97
ENDBRANCH  67  90
ENDBRANCH  41  42
ENDBRANCH  33  36
ENDBRANCH  31  32
ENDBRANCH  30  31
ENDBRANCH  29  30
ENDBRANCH  28  29
ENDBRANCH   1  28
TORSDOF 21
