REMARK SMILES C[NH2+][C@]1(C(=O)NCCCCCCNC(=O)c2ccc(-c3c4nc(c(-c5cc(S(=O)(=O)[O-])ccc5F)c5ccc([nH]5)c(-c5cc(S(=O)(=O)[O-])ccc5F)c5nc(c(-c6cc(S(=O)(=O)[O-])ccc6F)c6ccc3[nH]6)C=C5)C=C4)cc2)CCC[C@@H](Sc2nncs2)C1
REMARK SMILES IDX 10 1 9 2 8 3 7 4 6 5 4 6 5 7 3 9 79 10 89 11 80 12 82 13
REMARK SMILES IDX 81 14 2 15 1 16 83 19 84 20 85 21 88 22 86 23 87 24 11 25
REMARK SMILES IDX 12 26 13 27 14 28 15 30 16 31 17 32 78 33 18 34 77 35 19 36
REMARK SMILES IDX 20 37 21 38 71 39 22 40 76 41 70 42 72 43 23 44 75 45 69 46
REMARK SMILES IDX 68 47 24 49 56 50 36 51 55 52 37 53 40 54 54 55 73 56 38 57
REMARK SMILES IDX 39 58 53 60 74 61 41 62 25 63 26 64 34 65 27 66 33 67 35 68
REMARK SMILES IDX 32 69 28 70 29 71 30 72 31 73 57 74 58 75 66 76 59 77 65 78
REMARK SMILES IDX 67 79 64 80 60 81 61 82 62 83 63 84 42 85 43 86 51 87 44 88
REMARK SMILES IDX 50 89 52 90 49 91 45 92 46 93 47 94 48 95
REMARK H PARENT 6 8 2 17 2 18 13 29 72 48 40 59
REMARK Flexibility Score: inf
ROOT
ATOM      1  C   UNL     1       3.160   0.428   3.078  1.00  0.00     0.002 C 
ENDROOT
BRANCH   1   2
ATOM      2  C   UNL     1       2.782  -0.987   2.627  1.00  0.00     0.002 C 
BRANCH   2   3
ATOM      3  C   UNL     1       1.285  -1.220   2.404  1.00  0.00     0.021 C 
BRANCH   3   4
ATOM      4  C   UNL     1       0.639  -0.258   1.413  1.00  0.00     0.116 C 
BRANCH   4   5
ATOM      5  N   UNL     1       1.123  -0.474   0.060  1.00  0.00    -0.351 N 
ATOM      6  C   UNL     1       0.460  -0.676  -1.112  1.00  0.00     0.281 C 
ATOM      7  O   UNL     1       1.161  -0.892  -2.111  1.00  0.00    -0.268 OA
ATOM      8  H   UNL     1       2.104  -0.476  -0.024  1.00  0.00     0.163 HD
BRANCH   6   9
ATOM      9  C   UNL     1      -1.118  -0.705  -1.215  1.00  0.00     0.176 C 
ATOM     10  C   UNL     1      -1.600  -1.963  -0.445  1.00  0.00     0.079 C 
ATOM     11  C   UNL     1      -1.693   0.640  -0.694  1.00  0.00     0.094 C 
ATOM     12  C   UNL     1      -3.058  -1.945   0.003  1.00  0.00     0.008 C 
ATOM     13  C   UNL     1      -3.143   0.570  -0.203  1.00  0.00     0.061 C 
ATOM     14  C   UNL     1      -3.429  -0.639   0.690  1.00  0.00     0.015 C 
BRANCH   9  15
ATOM     15  N   UNL     1      -1.411  -0.738  -2.684  1.00  0.00    -0.336 N 
ATOM     16  C   UNL     1      -2.580  -1.444  -3.158  1.00  0.00     0.331 C 
ATOM     17  H   UNL     1      -1.505   0.231  -2.990  1.00  0.00     0.346 HD
ATOM     18  H   UNL     1      -0.634  -1.271  -3.073  1.00  0.00     0.346 HD
ENDBRANCH   9  15
BRANCH  13  19
ATOM     19  S   UNL     1      -3.680   2.145   0.582  1.00  0.00    -0.090 SA
BRANCH  19  20
ATOM     20  C   UNL     1      -2.973   2.049   2.179  1.00  0.00     0.174 A 
ATOM     21  N   UNL     1      -1.700   1.780   2.378  1.00  0.00    -0.132 NA
ATOM     22  S   UNL     1      -3.880   2.264   3.618  1.00  0.00    -0.094 S 
ATOM     23  N   UNL     1      -1.384   1.704   3.721  1.00  0.00    -0.146 NA
ATOM     24  C   UNL     1      -2.432   1.946   4.481  1.00  0.00     0.203 A 
ENDBRANCH  19  20
ENDBRANCH  13  19
ENDBRANCH   6   9
ENDBRANCH   4   5
ENDBRANCH   3   4
ENDBRANCH   2   3
ENDBRANCH   1   2
BRANCH   1  25
ATOM     25  C   UNL     1       2.411   0.943   4.310  1.00  0.00     0.021 C 
BRANCH  25  26
ATOM     26  C   UNL     1       2.513   0.050   5.541  1.00  0.00     0.116 C 
BRANCH  26  27
ATOM     27  N   UNL     1       3.886  -0.104   5.995  1.00  0.00    -0.352 N 
ATOM     28  C   UNL     1       4.416   0.110   7.242  1.00  0.00     0.251 C 
ATOM     29  H   UNL     1       4.525  -0.404   5.309  1.00  0.00     0.163 HD
ATOM     30  O   UNL     1       5.637   0.121   7.391  1.00  0.00    -0.269 OA
BRANCH  28  31
ATOM     31  C   UNL     1       3.521   0.350   8.393  1.00  0.00     0.039 A 
ATOM     32  C   UNL     1       3.830   1.377   9.287  1.00  0.00     0.014 A 
ATOM     33  C   UNL     1       2.379  -0.433   8.591  1.00  0.00     0.014 A 
ATOM     34  C   UNL     1       2.963   1.658  10.345  1.00  0.00     0.010 A 
ATOM     35  C   UNL     1       1.478  -0.102   9.600  1.00  0.00     0.010 A 
ATOM     36  C   UNL     1       1.760   0.946  10.490  1.00  0.00    -0.014 A 
BRANCH  36  37
ATOM     37  C   UNL     1       0.792   1.284  11.566  1.00  0.00     0.031 A 
ATOM     38  C   UNL     1       0.466   0.276  12.635  1.00  0.00     0.074 A 
ATOM     39  C   UNL     1       0.167   2.478  11.550  1.00  0.00     0.049 A 
ATOM     40  N   UNL     1      -0.397   0.358  13.615  1.00  0.00    -0.248 NA
ATOM     41  C   UNL     1       1.187  -1.005  12.575  1.00  0.00     0.031 C 
ATOM     42  C   UNL     1       0.375   3.526  10.547  1.00  0.00     0.029 A 
ATOM     43  N   UNL     1      -0.771   3.015  12.397  1.00  0.00    -0.354 N 
ATOM     44  C   UNL     1      -0.329  -0.860  14.284  1.00  0.00     0.074 A 
ATOM     45  C   UNL     1       0.610  -1.685  13.555  1.00  0.00     0.031 C 
ATOM     46  C   UNL     1      -0.388   4.587  10.854  1.00  0.00     0.029 A 
ATOM     47  C   UNL     1      -1.181   4.279  12.041  1.00  0.00     0.049 A 
ATOM     48  H   UNL     1      -1.119   2.538  13.185  1.00  0.00     0.167 HD
ATOM     49  C   UNL     1      -0.974  -1.245  15.414  1.00  0.00     0.034 A 
ATOM     50  C   UNL     1      -2.099   5.094  12.597  1.00  0.00     0.034 A 
ATOM     51  C   UNL     1      -1.903  -0.406  16.132  1.00  0.00     0.049 A 
ATOM     52  C   UNL     1      -2.834   4.628  13.829  1.00  0.00     0.074 A 
ATOM     53  C   UNL     1      -2.572  -0.677  17.312  1.00  0.00     0.029 A 
ATOM     54  N   UNL     1      -2.303   0.864  15.733  1.00  0.00    -0.354 N 
ATOM     55  N   UNL     1      -2.724   3.490  14.476  1.00  0.00    -0.248 NA
ATOM     56  C   UNL     1      -3.808   5.559  14.412  1.00  0.00     0.031 C 
ATOM     57  C   UNL     1      -3.436   0.389  17.582  1.00  0.00     0.029 A 
ATOM     58  C   UNL     1      -3.239   1.370  16.623  1.00  0.00     0.049 A 
ATOM     59  H   UNL     1      -1.971   1.335  14.936  1.00  0.00     0.167 HD
ATOM     60  C   UNL     1      -3.591   3.586  15.562  1.00  0.00     0.074 A 
ATOM     61  C   UNL     1      -4.202   4.897  15.489  1.00  0.00     0.031 C 
ATOM     62  C   UNL     1      -3.853   2.675  16.534  1.00  0.00     0.034 A 
BRANCH  49  63
ATOM     63  C   UNL     1      -0.716  -2.646  15.921  1.00  0.00     0.023 A 
ATOM     64  C   UNL     1       0.565  -3.063  16.325  1.00  0.00     0.031 A 
ATOM     65  C   UNL     1      -1.761  -3.584  15.985  1.00  0.00     0.131 A 
ATOM     66  C   UNL     1       0.783  -4.398  16.698  1.00  0.00     0.055 A 
ATOM     67  C   UNL     1      -1.556  -4.888  16.442  1.00  0.00     0.041 A 
ATOM     68  F   UNL     1      -3.002  -3.254  15.592  1.00  0.00    -0.206 F 
ATOM     69  C   UNL     1      -0.274  -5.306  16.787  1.00  0.00     0.022 A 
BRANCH  66  70
ATOM     70  S   UNL     1       2.491  -4.968  16.916  1.00  0.00     0.124 S 
ATOM     71  O   UNL     1       3.069  -4.670  15.607  1.00  0.00    -0.237 OA
ATOM     72  O   UNL     1       2.959  -4.145  18.024  1.00  0.00    -0.237 OA
ATOM     73  O   UNL     1       2.342  -6.391  17.212  1.00  0.00    -0.744 OA
ENDBRANCH  66  70
ENDBRANCH  49  63
BRANCH  50  74
ATOM     74  C   UNL     1      -2.394   6.427  11.992  1.00  0.00     0.023 A 
ATOM     75  C   UNL     1      -2.153   7.614  12.702  1.00  0.00     0.031 A 
ATOM     76  C   UNL     1      -2.966   6.531  10.711  1.00  0.00     0.131 A 
ATOM     77  C   UNL     1      -2.530   8.848  12.150  1.00  0.00     0.055 A 
ATOM     78  C   UNL     1      -3.282   7.765  10.141  1.00  0.00     0.041 A 
ATOM     79  F   UNL     1      -3.217   5.428   9.987  1.00  0.00    -0.206 F 
ATOM     80  C   UNL     1      -3.078   8.933  10.868  1.00  0.00     0.022 A 
BRANCH  77  81
ATOM     81  S   UNL     1      -2.386  10.338  13.176  1.00  0.00     0.124 S 
ATOM     82  O   UNL     1      -3.214   9.986  14.324  1.00  0.00    -0.237 OA
ATOM     83  O   UNL     1      -0.949  10.402  13.415  1.00  0.00    -0.237 OA
ATOM     84  O   UNL     1      -2.922  11.393  12.318  1.00  0.00    -0.744 OA
ENDBRANCH  77  81
ENDBRANCH  50  74
BRANCH  62  85
ATOM     85  C   UNL     1      -4.811   3.089  17.626  1.00  0.00     0.023 A 
ATOM     86  C   UNL     1      -6.168   3.347  17.366  1.00  0.00     0.031 A 
ATOM     87  C   UNL     1      -4.354   3.234  18.949  1.00  0.00     0.131 A 
ATOM     88  C   UNL     1      -7.006   3.794  18.399  1.00  0.00     0.055 A 
ATOM     89  C   UNL     1      -5.208   3.612  19.986  1.00  0.00     0.041 A 
ATOM     90  F   UNL     1      -3.067   3.005  19.257  1.00  0.00    -0.206 F 
ATOM     91  C   UNL     1      -6.540   3.908  19.711  1.00  0.00     0.022 A 
BRANCH  88  92
ATOM     92  S   UNL     1      -8.691   4.324  17.986  1.00  0.00     0.124 S 
ATOM     93  O   UNL     1      -8.445   5.379  17.008  1.00  0.00    -0.237 OA
ATOM     94  O   UNL     1      -9.285   3.098  17.464  1.00  0.00    -0.237 OA
ATOM     95  O   UNL     1      -9.232   4.778  19.266  1.00  0.00    -0.744 OA
ENDBRANCH  88  92
ENDBRANCH  62  85
ENDBRANCH  36  37
ENDBRANCH  28  31
ENDBRANCH  26  27
ENDBRANCH  25  26
ENDBRANCH   1  25
TORSDOF 19
