REMARK SMILES NC(=O)[C@@H]1CCCCN1C(=O)N[C@H]1C=C[C@@H](C(=O)NCCCCCCNC(=O)c2ccc(-c3c4nc(c(-c5cc(S(=O)(=O)[O-])ccc5F)c5ccc([nH]5)c(-c5cc(S(=O)(=O)[O-])ccc5F)c5nc(c(-c6cc(S(=O)(=O)[O-])ccc6F)c6ccc3[nH]6)C=C5)C=C4)cc2)C1
REMARK SMILES IDX 22 1 21 2 20 3 19 4 17 5 18 6 16 8 13 9 14 10 92 11 15 12
REMARK SMILES IDX 12 13 10 14 11 15 9 17 4 18 5 19 6 20 8 21 7 22 2 23 1 24
REMARK SMILES IDX 3 27 23 28 24 29 25 30 26 31 27 32 28 34 29 35 30 36 91 37
REMARK SMILES IDX 31 38 90 39 32 40 33 41 34 42 84 43 35 44 89 45 83 46 85 47
REMARK SMILES IDX 36 48 88 49 82 50 81 51 37 53 69 54 49 55 68 56 50 57 53 58
REMARK SMILES IDX 67 59 86 60 51 61 52 62 66 64 87 65 54 66 38 67 39 68 47 69
REMARK SMILES IDX 40 70 46 71 48 72 45 73 41 74 42 75 43 76 44 77 70 78 71 79
REMARK SMILES IDX 79 80 72 81 78 82 80 83 77 84 73 85 74 86 75 87 76 88 55 89
REMARK SMILES IDX 56 90 64 91 57 92 63 93 65 94 62 95 58 96 59 97 60 98 61 99
REMARK H PARENT 19 7 12 16 1 25 1 26 26 33 85 52 53 63
REMARK Flexibility Score: inf
ROOT
ATOM      1  C   UNL     1       1.282   6.287   5.593  1.00  0.00     0.002 C 
ENDROOT
BRANCH   1   2
ATOM      2  C   UNL     1       0.909   5.963   4.146  1.00  0.00     0.021 C 
BRANCH   2   3
ATOM      3  C   UNL     1       0.481   7.173   3.326  1.00  0.00     0.116 C 
BRANCH   3   4
ATOM      4  N   UNL     1       1.593   8.060   3.043  1.00  0.00    -0.356 N 
ATOM      5  C   UNL     1       1.999   8.616   1.868  1.00  0.00     0.227 C 
ATOM      6  O   UNL     1       2.991   9.351   1.895  1.00  0.00    -0.274 OA
ATOM      7  H   UNL     1       2.142   8.298   3.825  1.00  0.00     0.163 HD
BRANCH   5   8
ATOM      8  C   UNL     1       1.286   8.334   0.541  1.00  0.00     0.103 C 
ATOM      9  C   UNL     1       0.028   6.443  -0.412  1.00  0.00     0.107 C 
ATOM     10  C   UNL     1      -0.876   7.514   0.115  1.00  0.00    -0.006 C 
ATOM     11  C   UNL     1       1.421   6.884   0.071  1.00  0.00     0.047 C 
ATOM     12  C   UNL     1      -0.193   8.565   0.585  1.00  0.00    -0.016 C 
BRANCH   9  13
ATOM     13  N   UNL     1      -0.314   5.150   0.132  1.00  0.00    -0.332 N 
ATOM     14  C   UNL     1       0.086   3.883  -0.109  1.00  0.00     0.318 C 
ATOM     15  O   UNL     1      -0.181   3.084   0.793  1.00  0.00    -0.249 OA
ATOM     16  H   UNL     1      -0.995   5.205   0.841  1.00  0.00     0.165 HD
BRANCH  14  17
ATOM     17  N   UNL     1       0.725   3.492  -1.256  1.00  0.00    -0.313 N 
ATOM     18  C   UNL     1       1.077   2.059  -1.424  1.00  0.00     0.176 C 
ATOM     19  C   UNL     1       2.588   1.855  -1.214  1.00  0.00     0.035 C 
ATOM     20  C   UNL     1       3.392   2.776  -2.140  1.00  0.00     0.004 C 
ATOM     21  C   UNL     1       1.413   4.318  -2.242  1.00  0.00     0.122 C 
ATOM     22  C   UNL     1       2.924   4.224  -2.019  1.00  0.00     0.022 C 
BRANCH  18  23
ATOM     23  C   UNL     1       0.159   0.957  -0.834  1.00  0.00     0.240 C 
ATOM     24  N   UNL     1       0.695   0.129   0.111  1.00  0.00    -0.368 N 
ATOM     25  H   UNL     1       0.146  -0.584   0.510  1.00  0.00     0.159 HD
ATOM     26  H   UNL     1       1.631   0.245   0.393  1.00  0.00     0.159 HD
ATOM     27  O   UNL     1      -1.005   0.799  -1.200  1.00  0.00    -0.273 OA
ENDBRANCH  18  23
ENDBRANCH  14  17
ENDBRANCH   9  13
ENDBRANCH   5   8
ENDBRANCH   3   4
ENDBRANCH   2   3
ENDBRANCH   1   2
BRANCH   1  28
ATOM     28  C   UNL     1       0.190   7.003   6.395  1.00  0.00     0.002 C 
BRANCH  28  29
ATOM     29  C   UNL     1      -1.173   6.306   6.402  1.00  0.00     0.021 C 
BRANCH  29  30
ATOM     30  C   UNL     1      -1.149   4.873   6.922  1.00  0.00     0.116 C 
BRANCH  30  31
ATOM     31  N   UNL     1      -0.695   4.807   8.302  1.00  0.00    -0.352 N 
ATOM     32  C   UNL     1      -1.316   4.251   9.391  1.00  0.00     0.251 C 
ATOM     33  H   UNL     1       0.181   5.219   8.479  1.00  0.00     0.163 HD
ATOM     34  O   UNL     1      -0.893   4.489  10.521  1.00  0.00    -0.269 OA
BRANCH  32  35
ATOM     35  C   UNL     1      -2.501   3.389   9.200  1.00  0.00     0.039 A 
ATOM     36  C   UNL     1      -3.603   3.554  10.041  1.00  0.00     0.014 A 
ATOM     37  C   UNL     1      -2.524   2.421   8.192  1.00  0.00     0.014 A 
ATOM     38  C   UNL     1      -4.751   2.786   9.834  1.00  0.00     0.010 A 
ATOM     39  C   UNL     1      -3.695   1.713   7.937  1.00  0.00     0.010 A 
ATOM     40  C   UNL     1      -4.819   1.883   8.759  1.00  0.00    -0.014 A 
BRANCH  40  41
ATOM     41  C   UNL     1      -6.053   1.100   8.488  1.00  0.00     0.031 A 
ATOM     42  C   UNL     1      -6.025  -0.402   8.576  1.00  0.00     0.074 A 
ATOM     43  C   UNL     1      -7.180   1.736   8.112  1.00  0.00     0.049 A 
ATOM     44  N   UNL     1      -6.971  -1.266   8.310  1.00  0.00    -0.248 NA
ATOM     45  C   UNL     1      -4.755  -1.014   8.994  1.00  0.00     0.031 C 
ATOM     46  C   UNL     1      -7.321   3.186   7.962  1.00  0.00     0.029 A 
ATOM     47  N   UNL     1      -8.420   1.248   7.782  1.00  0.00    -0.354 N 
ATOM     48  C   UNL     1      -6.410  -2.521   8.520  1.00  0.00     0.074 A 
ATOM     49  C   UNL     1      -5.021  -2.304   8.866  1.00  0.00     0.031 C 
ATOM     50  C   UNL     1      -8.582   3.470   7.601  1.00  0.00     0.029 A 
ATOM     51  C   UNL     1      -9.326   2.225   7.438  1.00  0.00     0.049 A 
ATOM     52  H   UNL     1      -8.640   0.288   7.790  1.00  0.00     0.167 HD
ATOM     53  C   UNL     1      -7.003  -3.739   8.454  1.00  0.00     0.034 A 
ATOM     54  C   UNL     1     -10.605   2.128   7.024  1.00  0.00     0.034 A 
ATOM     55  C   UNL     1      -8.390  -3.935   8.106  1.00  0.00     0.049 A 
ATOM     56  C   UNL     1     -11.228   0.759   6.904  1.00  0.00     0.074 A 
ATOM     57  C   UNL     1      -9.104  -5.119   8.047  1.00  0.00     0.029 A 
ATOM     58  N   UNL     1      -9.271  -2.923   7.744  1.00  0.00    -0.354 N 
ATOM     59  N   UNL     1     -10.696  -0.417   7.149  1.00  0.00    -0.248 NA
ATOM     60  C   UNL     1     -12.627   0.705   6.461  1.00  0.00     0.031 C 
ATOM     61  C   UNL     1     -10.390  -4.833   7.575  1.00  0.00     0.029 A 
ATOM     62  C   UNL     1     -10.510  -3.461   7.427  1.00  0.00     0.049 A 
ATOM     63  H   UNL     1      -9.049  -1.965   7.716  1.00  0.00     0.167 HD
ATOM     64  C   UNL     1     -11.710  -1.346   6.926  1.00  0.00     0.074 A 
ATOM     65  C   UNL     1     -12.884  -0.592   6.540  1.00  0.00     0.031 C 
ATOM     66  C   UNL     1     -11.674  -2.699   7.036  1.00  0.00     0.034 A 
BRANCH  53  67
ATOM     67  C   UNL     1      -6.141  -4.948   8.739  1.00  0.00     0.023 A 
ATOM     68  C   UNL     1      -5.516  -5.132   9.985  1.00  0.00     0.031 A 
ATOM     69  C   UNL     1      -5.915  -5.915   7.743  1.00  0.00     0.131 A 
ATOM     70  C   UNL     1      -4.632  -6.205  10.175  1.00  0.00     0.055 A 
ATOM     71  C   UNL     1      -5.105  -7.030   7.969  1.00  0.00     0.041 A 
ATOM     72  F   UNL     1      -6.464  -5.785   6.525  1.00  0.00    -0.206 F 
ATOM     73  C   UNL     1      -4.444  -7.171   9.186  1.00  0.00     0.022 A 
BRANCH  70  74
ATOM     74  S   UNL     1      -3.610  -6.228  11.674  1.00  0.00     0.124 S 
ATOM     75  O   UNL     1      -2.903  -4.953  11.568  1.00  0.00    -0.237 OA
ATOM     76  O   UNL     1      -4.606  -6.320  12.735  1.00  0.00    -0.237 OA
ATOM     77  O   UNL     1      -2.771  -7.412  11.499  1.00  0.00    -0.744 OA
ENDBRANCH  70  74
ENDBRANCH  53  67
BRANCH  54  78
ATOM     78  C   UNL     1     -11.386   3.352   6.681  1.00  0.00     0.023 A 
ATOM     79  C   UNL     1     -12.538   3.701   7.404  1.00  0.00     0.031 A 
ATOM     80  C   UNL     1     -11.022   4.165   5.592  1.00  0.00     0.131 A 
ATOM     81  C   UNL     1     -13.313   4.799   7.000  1.00  0.00     0.055 A 
ATOM     82  C   UNL     1     -11.763   5.292   5.232  1.00  0.00     0.041 A 
ATOM     83  F   UNL     1      -9.930   3.880   4.866  1.00  0.00    -0.206 F 
ATOM     84  C   UNL     1     -12.925   5.606   5.929  1.00  0.00     0.022 A 
BRANCH  81  85
ATOM     85  S   UNL     1     -14.895   5.098   7.836  1.00  0.00     0.124 S 
ATOM     86  O   UNL     1     -15.593   3.837   7.610  1.00  0.00    -0.237 OA
ATOM     87  O   UNL     1     -14.469   5.360   9.206  1.00  0.00    -0.237 OA
ATOM     88  O   UNL     1     -15.442   6.251   7.124  1.00  0.00    -0.744 OA
ENDBRANCH  81  85
ENDBRANCH  54  78
BRANCH  66  89
ATOM     89  C   UNL     1     -12.965  -3.445   6.790  1.00  0.00     0.023 A 
ATOM     90  C   UNL     1     -13.583  -3.470   5.527  1.00  0.00     0.031 A 
ATOM     91  C   UNL     1     -13.590  -4.137   7.843  1.00  0.00     0.131 A 
ATOM     92  C   UNL     1     -14.815  -4.122   5.364  1.00  0.00     0.055 A 
ATOM     93  C   UNL     1     -14.780  -4.842   7.659  1.00  0.00     0.041 A 
ATOM     94  F   UNL     1     -13.049  -4.144   9.073  1.00  0.00    -0.206 F 
ATOM     95  C   UNL     1     -15.406  -4.825   6.417  1.00  0.00     0.022 A 
BRANCH  92  96
ATOM     96  S   UNL     1     -15.688  -3.954   3.783  1.00  0.00     0.124 S 
ATOM     97  O   UNL     1     -15.838  -2.506   3.672  1.00  0.00    -0.237 OA
ATOM     98  O   UNL     1     -14.758  -4.573   2.845  1.00  0.00    -0.237 OA
ATOM     99  O   UNL     1     -16.933  -4.691   3.999  1.00  0.00    -0.744 OA
ENDBRANCH  92  96
ENDBRANCH  66  89
ENDBRANCH  40  41
ENDBRANCH  32  35
ENDBRANCH  30  31
ENDBRANCH  29  30
ENDBRANCH  28  29
ENDBRANCH   1  28
TORSDOF 19
