REMARK SMILES COc1ccc2c(c1)c(CC(=O)NCCCCCCNC(=O)c1ccc(-c3c4nc(c(-c5cc(S(=O)(=O)[O-])ccc5F)c5ccc([nH]5)c(-c5cc(S(=O)(=O)[O-])ccc5F)c5nc(c(-c6cc(S(=O)(=O)[O-])ccc6F)c6ccc3[nH]6)C=C5)C=C4)cc1)c(C)n2C(=O)c1ccc(Cl)cc1
REMARK SMILES IDX 16 1 15 2 14 3 13 4 11 5 12 6 10 8 9 9 3 10 4 11 8 12 5 13
REMARK SMILES IDX 7 14 6 15 88 16 86 17 87 18 2 19 1 20 89 21 90 22 91 23
REMARK SMILES IDX 92 24 97 25 93 26 96 27 94 28 95 29 17 30 18 31 19 32 20 33
REMARK SMILES IDX 21 34 22 36 23 37 24 38 85 39 25 40 84 41 26 42 27 43 28 44
REMARK SMILES IDX 78 45 29 46 83 47 77 48 79 49 30 50 82 51 76 52 75 53 31 55
REMARK SMILES IDX 63 56 43 57 62 58 44 59 47 60 61 61 80 62 45 63 46 64 60 66
REMARK SMILES IDX 81 67 48 68 32 69 33 70 41 71 34 72 40 73 42 74 39 75 35 76
REMARK SMILES IDX 36 77 37 78 38 79 64 80 65 81 73 82 66 83 72 84 74 85 71 86
REMARK SMILES IDX 67 87 68 88 69 89 70 90 49 91 50 92 58 93 51 94 57 95 59 96
REMARK SMILES IDX 56 97 52 98 53 99 54 100 55 101
REMARK H PARENT 13 7 20 35 79 54 47 65
REMARK Flexibility Score: inf
ROOT
ATOM      1  C   UNL     1       0.489  -5.115   6.648  1.00  0.00     0.002 C 
ENDROOT
BRANCH   1   2
ATOM      2  C   UNL     1       0.452  -5.719   5.239  1.00  0.00     0.021 C 
BRANCH   2   3
ATOM      3  C   UNL     1      -0.915  -6.282   4.851  1.00  0.00     0.116 C 
BRANCH   3   4
ATOM      4  N   UNL     1      -1.849  -5.223   4.522  1.00  0.00    -0.356 N 
ATOM      5  C   UNL     1      -2.316  -4.853   3.293  1.00  0.00     0.224 C 
ATOM      6  O   UNL     1      -3.077  -3.885   3.219  1.00  0.00    -0.275 OA
ATOM      7  H   UNL     1      -2.190  -4.701   5.284  1.00  0.00     0.163 HD
BRANCH   5   8
ATOM      8  C   UNL     1      -1.948  -5.664   2.061  1.00  0.00     0.138 C 
BRANCH   8   9
ATOM      9  C   UNL     1      -0.497  -5.569   1.675  1.00  0.00    -0.009 A 
ATOM     10  C   UNL     1       0.769  -2.024   1.028  1.00  0.00     0.119 A 
ATOM     11  C   UNL     1       2.037  -2.393   0.608  1.00  0.00     0.048 A 
ATOM     12  C   UNL     1      -0.137  -3.005   1.433  1.00  0.00     0.057 A 
ATOM     13  C   UNL     1       2.417  -3.739   0.578  1.00  0.00     0.031 A 
ATOM     14  C   UNL     1       0.224  -4.372   1.411  1.00  0.00     0.008 A 
ATOM     15  C   UNL     1       1.519  -4.731   1.024  1.00  0.00     0.057 A 
ATOM     16  N   UNL     1       1.654  -6.119   1.210  1.00  0.00    -0.280 N 
ATOM     17  C   UNL     1       0.368  -6.631   1.431  1.00  0.00     0.028 A 
ATOM     18  C   UNL     1       0.025  -8.090   1.438  1.00  0.00     0.065 C 
BRANCH  10  19
ATOM     19  O   UNL     1       0.319  -0.734   1.103  1.00  0.00    -0.497 OA
ATOM     20  C   UNL     1       0.839   0.142   0.110  1.00  0.00     0.278 C 
ENDBRANCH  10  19
BRANCH  16  21
ATOM     21  C   UNL     1       2.868  -6.865   1.184  1.00  0.00     0.262 C 
ATOM     22  O   UNL     1       2.832  -8.080   1.376  1.00  0.00    -0.268 OA
BRANCH  21  23
ATOM     23  C   UNL     1       4.207  -6.302   0.943  1.00  0.00     0.040 A 
ATOM     24  C   UNL     1       4.811  -5.460   1.882  1.00  0.00     0.015 A 
ATOM     25  C   UNL     1       4.845  -6.606  -0.265  1.00  0.00     0.015 A 
ATOM     26  C   UNL     1       6.028  -4.848   1.567  1.00  0.00     0.021 A 
ATOM     27  C   UNL     1       6.064  -5.998  -0.570  1.00  0.00     0.021 A 
ATOM     28  C   UNL     1       6.640  -5.108   0.339  1.00  0.00     0.041 A 
ATOM     29  Cl  UNL     1       8.104  -4.304  -0.073  1.00  0.00    -0.084 Cl
ENDBRANCH  21  23
ENDBRANCH  16  21
ENDBRANCH   8   9
ENDBRANCH   5   8
ENDBRANCH   3   4
ENDBRANCH   2   3
ENDBRANCH   1   2
BRANCH   1  30
ATOM     30  C   UNL     1       0.208  -6.106   7.785  1.00  0.00     0.002 C 
BRANCH  30  31
ATOM     31  C   UNL     1       1.128  -7.332   7.832  1.00  0.00     0.021 C 
BRANCH  31  32
ATOM     32  C   UNL     1       2.618  -7.001   7.929  1.00  0.00     0.116 C 
BRANCH  32  33
ATOM     33  N   UNL     1       2.949  -6.168   9.066  1.00  0.00    -0.352 N 
ATOM     34  C   UNL     1       3.204  -6.394  10.391  1.00  0.00     0.251 C 
ATOM     35  H   UNL     1       3.002  -5.213   8.831  1.00  0.00     0.163 HD
ATOM     36  O   UNL     1       3.518  -5.398  11.049  1.00  0.00    -0.269 OA
BRANCH  34  37
ATOM     37  C   UNL     1       3.087  -7.710  11.083  1.00  0.00     0.039 A 
ATOM     38  C   UNL     1       2.788  -8.928  10.474  1.00  0.00     0.014 A 
ATOM     39  C   UNL     1       3.256  -7.689  12.482  1.00  0.00     0.014 A 
ATOM     40  C   UNL     1       2.580 -10.070  11.243  1.00  0.00     0.010 A 
ATOM     41  C   UNL     1       3.070  -8.834  13.254  1.00  0.00     0.010 A 
ATOM     42  C   UNL     1       2.688 -10.018  12.636  1.00  0.00    -0.014 A 
BRANCH  42  43
ATOM     43  C   UNL     1       2.437 -11.252  13.378  1.00  0.00     0.031 A 
ATOM     44  C   UNL     1       3.356 -12.383  13.073  1.00  0.00     0.074 A 
ATOM     45  C   UNL     1       1.491 -11.384  14.328  1.00  0.00     0.049 A 
ATOM     46  N   UNL     1       3.090 -13.484  12.449  1.00  0.00    -0.248 NA
ATOM     47  C   UNL     1       4.776 -12.213  13.407  1.00  0.00     0.031 C 
ATOM     48  C   UNL     1       0.725 -10.320  14.983  1.00  0.00     0.029 A 
ATOM     49  N   UNL     1       1.083 -12.512  14.982  1.00  0.00    -0.354 N 
ATOM     50  C   UNL     1       4.265 -14.239  12.473  1.00  0.00     0.074 A 
ATOM     51  C   UNL     1       5.298 -13.349  12.941  1.00  0.00     0.031 C 
ATOM     52  C   UNL     1       0.126 -10.821  16.087  1.00  0.00     0.029 A 
ATOM     53  C   UNL     1       0.325 -12.260  16.113  1.00  0.00     0.049 A 
ATOM     54  H   UNL     1       1.307 -13.420  14.677  1.00  0.00     0.167 HD
ATOM     55  C   UNL     1       4.250 -15.593  12.300  1.00  0.00     0.034 A 
ATOM     56  C   UNL     1      -0.069 -13.160  17.044  1.00  0.00     0.034 A 
ATOM     57  C   UNL     1       2.959 -16.043  11.860  1.00  0.00     0.049 A 
ATOM     58  C   UNL     1      -0.034 -14.513  16.449  1.00  0.00     0.074 A 
ATOM     59  C   UNL     1       2.237 -16.043  10.690  1.00  0.00     0.029 A 
ATOM     60  N   UNL     1       2.098 -16.365  12.876  1.00  0.00    -0.354 N 
ATOM     61  N   UNL     1      -0.852 -14.925  15.521  1.00  0.00    -0.248 NA
ATOM     62  C   UNL     1       1.131 -15.360  16.674  1.00  0.00     0.031 C 
ATOM     63  C   UNL     1       0.870 -16.122  11.081  1.00  0.00     0.029 A 
ATOM     64  C   UNL     1       0.804 -16.182  12.475  1.00  0.00     0.049 A 
ATOM     65  H   UNL     1       2.372 -16.682  13.767  1.00  0.00     0.167 HD
ATOM     66  C   UNL     1      -0.092 -15.795  14.762  1.00  0.00     0.074 A 
ATOM     67  C   UNL     1       1.024 -16.171  15.619  1.00  0.00     0.031 C 
ATOM     68  C   UNL     1      -0.263 -15.880  13.412  1.00  0.00     0.034 A 
BRANCH  55  69
ATOM     69  C   UNL     1       5.229 -16.576  12.919  1.00  0.00     0.023 A 
ATOM     70  C   UNL     1       6.190 -16.212  13.876  1.00  0.00     0.031 A 
ATOM     71  C   UNL     1       5.030 -17.969  12.752  1.00  0.00     0.131 A 
ATOM     72  C   UNL     1       6.872 -17.175  14.636  1.00  0.00     0.055 A 
ATOM     73  C   UNL     1       5.667 -18.927  13.551  1.00  0.00     0.041 A 
ATOM     74  F   UNL     1       4.158 -18.444  11.849  1.00  0.00    -0.206 F 
ATOM     75  C   UNL     1       6.589 -18.531  14.508  1.00  0.00     0.022 A 
BRANCH  72  76
ATOM     76  S   UNL     1       8.130 -16.667  15.839  1.00  0.00     0.124 S 
ATOM     77  O   UNL     1       7.558 -17.148  17.092  1.00  0.00    -0.237 OA
ATOM     78  O   UNL     1       9.306 -17.390  15.361  1.00  0.00    -0.237 OA
ATOM     79  O   UNL     1       8.188 -15.217  15.678  1.00  0.00    -0.744 OA
ENDBRANCH  72  76
ENDBRANCH  55  69
BRANCH  56  80
ATOM     80  C   UNL     1      -0.089 -12.959  18.508  1.00  0.00     0.023 A 
ATOM     81  C   UNL     1       0.872 -12.119  19.099  1.00  0.00     0.031 A 
ATOM     82  C   UNL     1      -0.812 -13.819  19.352  1.00  0.00     0.131 A 
ATOM     83  C   UNL     1       1.134 -12.200  20.472  1.00  0.00     0.055 A 
ATOM     84  C   UNL     1      -0.561 -13.884  20.727  1.00  0.00     0.041 A 
ATOM     85  F   UNL     1      -1.723 -14.663  18.844  1.00  0.00    -0.206 F 
ATOM     86  C   UNL     1       0.429 -13.085  21.290  1.00  0.00     0.022 A 
BRANCH  83  87
ATOM     87  S   UNL     1       2.470 -11.219  21.208  1.00  0.00     0.124 S 
ATOM     88  O   UNL     1       1.824 -10.657  22.392  1.00  0.00    -0.237 OA
ATOM     89  O   UNL     1       3.479 -12.241  21.467  1.00  0.00    -0.237 OA
ATOM     90  O   UNL     1       2.797 -10.251  20.166  1.00  0.00    -0.744 OA
ENDBRANCH  83  87
ENDBRANCH  56  80
BRANCH  68  91
ATOM     91  C   UNL     1      -1.568 -15.421  12.820  1.00  0.00     0.023 A 
ATOM     92  C   UNL     1      -2.240 -16.334  11.988  1.00  0.00     0.031 A 
ATOM     93  C   UNL     1      -2.063 -14.107  12.887  1.00  0.00     0.131 A 
ATOM     94  C   UNL     1      -3.331 -15.920  11.220  1.00  0.00     0.055 A 
ATOM     95  C   UNL     1      -3.204 -13.717  12.177  1.00  0.00     0.041 A 
ATOM     96  F   UNL     1      -1.421 -13.148  13.569  1.00  0.00    -0.206 F 
ATOM     97  C   UNL     1      -3.832 -14.620  11.324  1.00  0.00     0.022 A 
BRANCH  94  98
ATOM     98  S   UNL     1      -4.014 -17.011   9.946  1.00  0.00     0.124 S 
ATOM     99  O   UNL     1      -5.363 -17.260  10.443  1.00  0.00    -0.237 OA
ATOM    100  O   UNL     1      -3.931 -16.177   8.748  1.00  0.00    -0.237 OA
ATOM    101  O   UNL     1      -3.121 -18.166   9.953  1.00  0.00    -0.744 OA
ENDBRANCH  94  98
ENDBRANCH  68  91
ENDBRANCH  42  43
ENDBRANCH  34  37
ENDBRANCH  32  33
ENDBRANCH  31  32
ENDBRANCH  30  31
ENDBRANCH   1  30
TORSDOF 20
