REMARK SMILES O=C(C[NH+]1CCN(c2ncc(C(F)(F)F)cc2Cl)CC1)NCCCCCCNC(=O)c1ccc(-c2c3nc(c(-c4cc(S(=O)(=O)[O-])ccc4F)c4ccc([nH]4)c(-c4cc(S(=O)(=O)[O-])ccc4F)c4nc(c(-c5cc(S(=O)(=O)[O-])ccc5F)c5ccc2[nH]5)C=C4)C=C3)cc1
REMARK SMILES IDX 24 1 23 2 22 3 21 4 1 5 2 6 3 8 4 9 5 10 20 11 6 13 19 14
REMARK SMILES IDX 7 15 8 16 9 17 17 18 10 19 16 20 18 21 11 22 12 23 13 24
REMARK SMILES IDX 14 25 15 26 25 27 26 28 27 29 28 30 29 31 30 33 31 34 32 35
REMARK SMILES IDX 93 36 33 37 92 38 34 39 35 40 36 41 86 42 37 43 91 44 85 45
REMARK SMILES IDX 87 46 38 47 90 48 84 49 83 50 39 52 71 53 51 54 70 55 52 56
REMARK SMILES IDX 55 57 69 58 88 59 53 60 54 61 68 63 89 64 56 65 40 66 41 67
REMARK SMILES IDX 49 68 42 69 48 70 50 71 47 72 43 73 44 74 45 75 46 76 72 77
REMARK SMILES IDX 73 78 81 79 74 80 80 81 82 82 79 83 75 84 76 85 77 86 78 87
REMARK SMILES IDX 57 88 58 89 66 90 59 91 65 92 67 93 64 94 60 95 61 96 62 97
REMARK SMILES IDX 63 98
REMARK H PARENT 21 7 4 12 28 32 87 51 55 62
REMARK Flexibility Score: inf
ROOT
ATOM      1  C   UNL     1       3.537  -0.554   3.839  1.00  0.00     0.002 C 
ENDROOT
BRANCH   1   2
ATOM      2  C   UNL     1       2.093  -0.914   3.476  1.00  0.00     0.021 C 
BRANCH   2   3
ATOM      3  C   UNL     1       1.487  -0.027   2.390  1.00  0.00     0.116 C 
BRANCH   3   4
ATOM      4  N   UNL     1       2.160  -0.192   1.119  1.00  0.00    -0.351 N 
ATOM      5  O   UNL     1       0.775   1.220  -0.033  1.00  0.00    -0.269 OA
ATOM      6  C   UNL     1       1.743   0.464  -0.015  1.00  0.00     0.275 C 
ATOM      7  H   UNL     1       2.939  -0.791   1.065  1.00  0.00     0.163 HD
BRANCH   6   8
ATOM      8  C   UNL     1       2.542   0.129  -1.274  1.00  0.00     0.363 C 
BRANCH   8   9
ATOM      9  N   UNL     1       3.889   0.703  -1.363  1.00  0.00    -0.324 N 
ATOM     10  C   UNL     1       4.216   1.922  -0.614  1.00  0.00     0.284 C 
ATOM     11  C   UNL     1       5.004  -0.241  -1.422  1.00  0.00     0.284 C 
ATOM     12  H   UNL     1       3.769   1.068  -2.308  1.00  0.00     0.348 HD
ATOM     13  C   UNL     1       5.002   1.726   0.714  1.00  0.00     0.179 C 
ATOM     14  C   UNL     1       5.674  -0.525  -0.065  1.00  0.00     0.179 C 
ATOM     15  N   UNL     1       6.091   0.734   0.569  1.00  0.00    -0.344 N 
BRANCH  15  16
ATOM     16  C   UNL     1       6.989   0.635   1.635  1.00  0.00     0.147 A 
ATOM     17  N   UNL     1       6.599   1.147   2.829  1.00  0.00    -0.237 NA
ATOM     18  C   UNL     1       8.253   0.022   1.531  1.00  0.00     0.084 A 
ATOM     19  C   UNL     1       7.390   0.983   3.921  1.00  0.00     0.126 A 
ATOM     20  C   UNL     1       9.032  -0.170   2.679  1.00  0.00     0.039 A 
ATOM     21  Cl  UNL     1       8.972  -0.448   0.027  1.00  0.00    -0.080 Cl
ATOM     22  C   UNL     1       8.589   0.303   3.912  1.00  0.00     0.075 A 
BRANCH  22  23
ATOM     23  C   UNL     1       9.335   0.061   5.189  1.00  0.00     0.417 C 
ATOM     24  F   UNL     1       9.309   1.127   6.029  1.00  0.00    -0.166 F 
ATOM     25  F   UNL     1       8.833  -1.000   5.871  1.00  0.00    -0.166 F 
ATOM     26  F   UNL     1      10.652  -0.220   4.981  1.00  0.00    -0.166 F 
ENDBRANCH  22  23
ENDBRANCH  15  16
ENDBRANCH   8   9
ENDBRANCH   6   8
ENDBRANCH   3   4
ENDBRANCH   2   3
ENDBRANCH   1   2
BRANCH   1  27
ATOM     27  C   UNL     1       3.696   0.803   4.526  1.00  0.00     0.002 C 
BRANCH  27  28
ATOM     28  C   UNL     1       3.101   0.907   5.926  1.00  0.00     0.021 C 
BRANCH  28  29
ATOM     29  C   UNL     1       3.569  -0.163   6.906  1.00  0.00     0.116 C 
BRANCH  29  30
ATOM     30  N   UNL     1       5.019  -0.214   7.062  1.00  0.00    -0.352 N 
ATOM     31  C   UNL     1       5.780  -0.142   8.207  1.00  0.00     0.251 C 
ATOM     32  H   UNL     1       5.528  -0.316   6.225  1.00  0.00     0.163 HD
ATOM     33  O   UNL     1       7.001  -0.040   8.123  1.00  0.00    -0.269 OA
BRANCH  31  34
ATOM     34  C   UNL     1       5.107  -0.142   9.525  1.00  0.00     0.039 A 
ATOM     35  C   UNL     1       5.478   0.798  10.489  1.00  0.00     0.014 A 
ATOM     36  C   UNL     1       4.052  -1.022   9.774  1.00  0.00     0.014 A 
ATOM     37  C   UNL     1       4.711   0.934  11.650  1.00  0.00     0.010 A 
ATOM     38  C   UNL     1       3.231  -0.814  10.874  1.00  0.00     0.010 A 
ATOM     39  C   UNL     1       3.541   0.175  11.820  1.00  0.00    -0.014 A 
BRANCH  39  40
ATOM     40  C   UNL     1       2.610   0.401  12.960  1.00  0.00     0.031 A 
ATOM     41  C   UNL     1       2.283  -0.731  13.898  1.00  0.00     0.074 A 
ATOM     42  C   UNL     1       1.972   1.583  13.082  1.00  0.00     0.049 A 
ATOM     43  N   UNL     1       1.391  -0.788  14.853  1.00  0.00    -0.248 NA
ATOM     44  C   UNL     1       3.029  -1.982  13.697  1.00  0.00     0.031 C 
ATOM     45  C   UNL     1       2.153   2.741  12.203  1.00  0.00     0.029 A 
ATOM     46  N   UNL     1       1.030   2.004  13.988  1.00  0.00    -0.354 N 
ATOM     47  C   UNL     1       1.443  -2.090  15.341  1.00  0.00     0.074 A 
ATOM     48  C   UNL     1       2.404  -2.802  14.526  1.00  0.00     0.031 C 
ATOM     49  C   UNL     1       1.379   3.750  12.636  1.00  0.00     0.029 A 
ATOM     50  C   UNL     1       0.607   3.299  13.788  1.00  0.00     0.049 A 
ATOM     51  H   UNL     1       0.690   1.433  14.714  1.00  0.00     0.167 HD
ATOM     52  C   UNL     1       0.773  -2.634  16.389  1.00  0.00     0.034 A 
ATOM     53  C   UNL     1      -0.306   4.035  14.451  1.00  0.00     0.034 A 
ATOM     54  C   UNL     1      -0.155  -1.898  17.213  1.00  0.00     0.049 A 
ATOM     55  C   UNL     1      -1.036   3.414  15.614  1.00  0.00     0.074 A 
ATOM     56  C   UNL     1      -0.828  -2.321  18.346  1.00  0.00     0.029 A 
ATOM     57  N   UNL     1      -0.542  -0.582  16.991  1.00  0.00    -0.354 N 
ATOM     58  N   UNL     1      -0.936   2.198  16.099  1.00  0.00    -0.248 NA
ATOM     59  C   UNL     1      -1.998   4.268  16.322  1.00  0.00     0.031 C 
ATOM     60  C   UNL     1      -1.665  -1.283  18.773  1.00  0.00     0.029 A 
ATOM     61  C   UNL     1      -1.464  -0.188  17.948  1.00  0.00     0.049 A 
ATOM     62  H   UNL     1      -0.211  -0.012  16.260  1.00  0.00     0.167 HD
ATOM     63  C   UNL     1      -1.798   2.154  17.191  1.00  0.00     0.074 A 
ATOM     64  C   UNL     1      -2.401   3.467  17.297  1.00  0.00     0.031 C 
ATOM     65  C   UNL     1      -2.063   1.124  18.035  1.00  0.00     0.034 A 
BRANCH  52  66
ATOM     66  C   UNL     1       1.012  -4.099  16.676  1.00  0.00     0.023 A 
ATOM     67  C   UNL     1       2.290  -4.589  16.999  1.00  0.00     0.031 A 
ATOM     68  C   UNL     1      -0.036  -5.030  16.567  1.00  0.00     0.131 A 
ATOM     69  C   UNL     1       2.509  -5.971  17.096  1.00  0.00     0.055 A 
ATOM     70  C   UNL     1       0.169  -6.398  16.762  1.00  0.00     0.041 A 
ATOM     71  F   UNL     1      -1.276  -4.629  16.245  1.00  0.00    -0.206 F 
ATOM     72  C   UNL     1       1.452  -6.878  17.006  1.00  0.00     0.022 A 
BRANCH  69  73
ATOM     73  S   UNL     1       4.221  -6.569  17.158  1.00  0.00     0.124 S 
ATOM     74  O   UNL     1       4.771  -6.013  15.924  1.00  0.00    -0.237 OA
ATOM     75  O   UNL     1       4.715  -5.985  18.399  1.00  0.00    -0.237 OA
ATOM     76  O   UNL     1       4.075  -8.024  17.165  1.00  0.00    -0.744 OA
ENDBRANCH  69  73
ENDBRANCH  52  66
BRANCH  53  77
ATOM     77  C   UNL     1      -0.581   5.444  14.049  1.00  0.00     0.023 A 
ATOM     78  C   UNL     1      -0.252   6.508  14.904  1.00  0.00     0.031 A 
ATOM     79  C   UNL     1      -1.207   5.748  12.828  1.00  0.00     0.131 A 
ATOM     80  C   UNL     1      -0.589   7.823  14.548  1.00  0.00     0.055 A 
ATOM     81  C   UNL     1      -1.497   7.062  12.457  1.00  0.00     0.041 A 
ATOM     82  F   UNL     1      -1.535   4.768  11.971  1.00  0.00    -0.206 F 
ATOM     83  C   UNL     1      -1.199   8.108  13.325  1.00  0.00     0.022 A 
BRANCH  80  84
ATOM     84  S   UNL     1      -0.282   9.150  15.745  1.00  0.00     0.124 S 
ATOM     85  O   UNL     1      -1.077   8.711  16.887  1.00  0.00    -0.237 OA
ATOM     86  O   UNL     1       1.166   9.084  15.907  1.00  0.00    -0.237 OA
ATOM     87  O   UNL     1      -0.776  10.344  15.062  1.00  0.00    -0.744 OA
ENDBRANCH  80  84
ENDBRANCH  53  77
BRANCH  65  88
ATOM     88  C   UNL     1      -3.011   1.403  19.174  1.00  0.00     0.023 A 
ATOM     89  C   UNL     1      -4.376   1.657  18.957  1.00  0.00     0.031 A 
ATOM     90  C   UNL     1      -2.533   1.432  20.497  1.00  0.00     0.131 A 
ATOM     91  C   UNL     1      -5.206   1.984  20.041  1.00  0.00     0.055 A 
ATOM     92  C   UNL     1      -3.375   1.701  21.576  1.00  0.00     0.041 A 
ATOM     93  F   UNL     1      -1.237   1.199  20.760  1.00  0.00    -0.206 F 
ATOM     94  C   UNL     1      -4.717   1.992  21.350  1.00  0.00     0.022 A 
BRANCH  91  95
ATOM     95  S   UNL     1      -6.917   2.486  19.708  1.00  0.00     0.124 S 
ATOM     96  O   UNL     1      -6.730   3.644  18.839  1.00  0.00    -0.237 OA
ATOM     97  O   UNL     1      -7.473   1.296  19.072  1.00  0.00    -0.237 OA
ATOM     98  O   UNL     1      -7.452   2.785  21.035  1.00  0.00    -0.744 OA
ENDBRANCH  91  95
ENDBRANCH  65  88
ENDBRANCH  39  40
ENDBRANCH  31  34
ENDBRANCH  29  30
ENDBRANCH  28  29
ENDBRANCH  27  28
ENDBRANCH   1  27
TORSDOF 19
