REMARK SMILES CC(C)[C@@H]([NH3+])C(=O)N[C@@H](C)C(=O)N1CCC[C@@H]1C(=O)NCC(=O)NCCCCCCNC(=O)c1ccc(-c2c3nc(c(-c4cc(S(=O)(=O)[O-])ccc4F)c4ccc([nH]4)c(-c4cc(S(=O)(=O)[O-])ccc4F)c4nc(c(-c5cc(S(=O)(=O)[O-])ccc5F)c5ccc2[nH]5)C=C4)C=C3)cc1
REMARK SMILES IDX 25 1 24 2 22 3 23 4 21 6 20 7 18 8 19 9 17 11 13 12 14 13
REMARK SMILES IDX 15 14 16 15 11 16 12 17 9 18 10 19 8 20 6 21 7 22 4 24 2 25
REMARK SMILES IDX 1 26 3 27 5 28 26 32 27 33 28 34 29 35 30 36 31 37 32 38
REMARK SMILES IDX 33 40 34 41 35 42 96 43 36 44 95 45 37 46 38 47 39 48 89 49
REMARK SMILES IDX 40 50 94 51 88 52 90 53 41 54 93 55 87 56 86 57 42 59 74 60
REMARK SMILES IDX 54 61 73 62 55 63 58 64 72 65 91 66 56 67 57 68 71 70 92 71
REMARK SMILES IDX 59 72 43 73 44 74 52 75 45 76 51 77 53 78 50 79 46 80 47 81
REMARK SMILES IDX 48 82 49 83 75 84 76 85 84 86 77 87 83 88 85 89 82 90 78 91
REMARK SMILES IDX 79 92 80 93 81 94 60 95 61 96 69 97 62 98 68 99 70 100
REMARK SMILES IDX 67 101 63 102 64 103 65 104 66 105
REMARK H PARENT 24 5 20 10 8 23 5 29 5 30 5 31 31 39 90 58 58 69
REMARK Flexibility Score: inf
ROOT
ATOM      1  C   UNL     1       0.845  -7.959   6.581  1.00  0.00     0.116 C 
ENDROOT
BRANCH   1   2
ATOM      2  N   UNL     1       1.893  -7.002   6.827  1.00  0.00    -0.355 N 
ATOM      3  C   UNL     1       2.294  -5.971   6.035  1.00  0.00     0.239 C 
ATOM      4  O   UNL     1       3.128  -5.184   6.493  1.00  0.00    -0.273 OA
ATOM      5  H   UNL     1       2.382  -7.107   7.675  1.00  0.00     0.163 HD
BRANCH   3   6
ATOM      6  C   UNL     1       1.569  -5.663   4.715  1.00  0.00     0.216 C 
BRANCH   6   7
ATOM      7  N   UNL     1       1.232  -6.774   3.842  1.00  0.00    -0.345 N 
ATOM      8  C   UNL     1       0.053  -7.231   3.326  1.00  0.00     0.243 C 
ATOM      9  O   UNL     1       0.099  -8.373   2.850  1.00  0.00    -0.273 OA
ATOM     10  H   UNL     1       2.012  -7.307   3.566  1.00  0.00     0.164 HD
BRANCH   8  11
ATOM     11  C   UNL     1      -1.325  -6.516   3.473  1.00  0.00     0.174 C 
ATOM     12  N   UNL     1      -1.287  -5.056   3.514  1.00  0.00    -0.329 N 
ATOM     13  C   UNL     1      -1.963  -4.539   4.692  1.00  0.00     0.120 C 
ATOM     14  C   UNL     1      -2.022  -5.720   5.649  1.00  0.00     0.024 C 
ATOM     15  C   UNL     1      -2.117  -6.925   4.719  1.00  0.00     0.037 C 
BRANCH  12  16
ATOM     16  C   UNL     1      -0.924  -4.391   2.364  1.00  0.00     0.245 C 
ATOM     17  O   UNL     1      -0.704  -5.033   1.330  1.00  0.00    -0.272 OA
BRANCH  16  18
ATOM     18  C   UNL     1      -0.483  -2.917   2.419  1.00  0.00     0.168 C 
ATOM     19  C   UNL     1       0.850  -2.852   3.164  1.00  0.00     0.041 C 
BRANCH  18  20
ATOM     20  N   UNL     1      -1.385  -1.915   2.965  1.00  0.00    -0.339 N 
ATOM     21  C   UNL     1      -1.589  -0.646   2.500  1.00  0.00     0.279 C 
ATOM     22  O   UNL     1      -2.275   0.114   3.190  1.00  0.00    -0.268 OA
ATOM     23  H   UNL     1      -1.905  -2.180   3.757  1.00  0.00     0.164 HD
BRANCH  21  24
ATOM     24  C   UNL     1      -1.015  -0.171   1.130  1.00  0.00     0.273 C 
BRANCH  24  25
ATOM     25  C   UNL     1       0.531  -0.070   1.075  1.00  0.00     0.051 C 
ATOM     26  C   UNL     1       1.054   0.409  -0.283  1.00  0.00     0.014 C 
ATOM     27  C   UNL     1       1.070   0.842   2.182  1.00  0.00     0.014 C 
ENDBRANCH  24  25
BRANCH  24  28
ATOM     28  N   UNL     1      -1.568  -1.039   0.070  1.00  0.00    -0.347 N 
ATOM     29  H   UNL     1      -1.265  -2.000   0.226  1.00  0.00     0.345 HD
ATOM     30  H   UNL     1      -1.234  -0.720  -0.839  1.00  0.00     0.345 HD
ATOM     31  H   UNL     1      -2.587  -0.996   0.092  1.00  0.00     0.345 HD
ENDBRANCH  24  28
ENDBRANCH  21  24
ENDBRANCH  18  20
ENDBRANCH  16  18
ENDBRANCH  12  16
ENDBRANCH   8  11
ENDBRANCH   6   7
ENDBRANCH   3   6
ENDBRANCH   1   2
BRANCH   1  32
ATOM     32  C   UNL     1       1.401  -9.346   6.307  1.00  0.00     0.021 C 
BRANCH  32  33
ATOM     33  C   UNL     1       1.796 -10.069   7.594  1.00  0.00     0.002 C 
BRANCH  33  34
ATOM     34  C   UNL     1       0.656 -10.199   8.613  1.00  0.00     0.002 C 
BRANCH  34  35
ATOM     35  C   UNL     1      -0.619 -10.845   8.064  1.00  0.00     0.021 C 
BRANCH  35  36
ATOM     36  C   UNL     1      -0.405 -12.241   7.491  1.00  0.00     0.116 C 
BRANCH  36  37
ATOM     37  N   UNL     1       0.177 -13.135   8.479  1.00  0.00    -0.352 N 
ATOM     38  C   UNL     1      -0.277 -14.352   8.921  1.00  0.00     0.251 C 
ATOM     39  H   UNL     1       1.016 -12.823   8.889  1.00  0.00     0.163 HD
ATOM     40  O   UNL     1       0.194 -14.853   9.931  1.00  0.00    -0.269 OA
BRANCH  38  41
ATOM     41  C   UNL     1      -1.349 -15.031   8.165  1.00  0.00     0.039 A 
ATOM     42  C   UNL     1      -2.417 -15.598   8.862  1.00  0.00     0.014 A 
ATOM     43  C   UNL     1      -1.297 -15.095   6.769  1.00  0.00     0.014 A 
ATOM     44  C   UNL     1      -3.466 -16.183   8.151  1.00  0.00     0.010 A 
ATOM     45  C   UNL     1      -2.377 -15.609   6.063  1.00  0.00     0.010 A 
ATOM     46  C   UNL     1      -3.470 -16.164   6.747  1.00  0.00    -0.014 A 
BRANCH  46  47
ATOM     47  C   UNL     1      -4.594 -16.739   5.966  1.00  0.00     0.031 A 
ATOM     48  C   UNL     1      -4.346 -17.914   5.060  1.00  0.00     0.074 A 
ATOM     49  C   UNL     1      -5.812 -16.167   6.024  1.00  0.00     0.049 A 
ATOM     50  N   UNL     1      -5.157 -18.492   4.213  1.00  0.00    -0.248 NA
ATOM     51  C   UNL     1      -2.995 -18.496   5.094  1.00  0.00     0.031 C 
ATOM     52  C   UNL     1      -6.166 -15.012   6.852  1.00  0.00     0.029 A 
ATOM     53  N   UNL     1      -6.978 -16.472   5.367  1.00  0.00    -0.354 N 
ATOM     54  C   UNL     1      -4.414 -19.500   3.607  1.00  0.00     0.074 A 
ATOM     55  C   UNL     1      -3.069 -19.405   4.135  1.00  0.00     0.031 C 
ATOM     56  C   UNL     1      -7.466 -14.724   6.672  1.00  0.00     0.029 A 
ATOM     57  C   UNL     1      -8.024 -15.633   5.677  1.00  0.00     0.049 A 
ATOM     58  H   UNL     1      -7.059 -17.222   4.734  1.00  0.00     0.167 HD
ATOM     59  C   UNL     1      -4.823 -20.435   2.715  1.00  0.00     0.034 A 
ATOM     60  C   UNL     1      -9.283 -15.591   5.197  1.00  0.00     0.034 A 
ATOM     61  C   UNL     1      -6.169 -20.516   2.203  1.00  0.00     0.049 A 
ATOM     62  C   UNL     1      -9.697 -16.603   4.155  1.00  0.00     0.074 A 
ATOM     63  C   UNL     1      -6.700 -21.436   1.317  1.00  0.00     0.029 A 
ATOM     64  N   UNL     1      -7.197 -19.640   2.529  1.00  0.00    -0.354 N 
ATOM     65  N   UNL     1      -8.991 -17.568   3.613  1.00  0.00    -0.248 NA
ATOM     66  C   UNL     1     -11.080 -16.524   3.667  1.00  0.00     0.031 C 
ATOM     67  C   UNL     1      -8.026 -21.077   1.053  1.00  0.00     0.029 A 
ATOM     68  C   UNL     1      -8.350 -19.983   1.840  1.00  0.00     0.049 A 
ATOM     69  H   UNL     1      -7.119 -18.886   3.157  1.00  0.00     0.167 HD
ATOM     70  C   UNL     1      -9.859 -18.237   2.754  1.00  0.00     0.074 A 
ATOM     71  C   UNL     1     -11.140 -17.570   2.857  1.00  0.00     0.031 C 
ATOM     72  C   UNL     1      -9.622 -19.311   1.958  1.00  0.00     0.034 A 
BRANCH  59  73
ATOM     73  C   UNL     1      -3.794 -21.426   2.226  1.00  0.00     0.023 A 
ATOM     74  C   UNL     1      -3.158 -22.320   3.106  1.00  0.00     0.031 A 
ATOM     75  C   UNL     1      -3.424 -21.465   0.870  1.00  0.00     0.131 A 
ATOM     76  C   UNL     1      -2.135 -23.157   2.638  1.00  0.00     0.055 A 
ATOM     77  C   UNL     1      -2.466 -22.362   0.394  1.00  0.00     0.041 A 
ATOM     78  F   UNL     1      -3.979 -20.622  -0.015  1.00  0.00    -0.206 F 
ATOM     79  C   UNL     1      -1.804 -23.205   1.282  1.00  0.00     0.022 A 
BRANCH  76  80
ATOM     80  S   UNL     1      -1.145 -24.073   3.850  1.00  0.00     0.124 S 
ATOM     81  O   UNL     1      -0.598 -22.988   4.663  1.00  0.00    -0.237 OA
ATOM     82  O   UNL     1      -2.140 -24.917   4.499  1.00  0.00    -0.237 OA
ATOM     83  O   UNL     1      -0.165 -24.780   3.028  1.00  0.00    -0.744 OA
ENDBRANCH  76  80
ENDBRANCH  59  73
BRANCH  60  84
ATOM     84  C   UNL     1     -10.248 -14.559   5.676  1.00  0.00     0.023 A 
ATOM     85  C   UNL     1     -11.431 -14.931   6.335  1.00  0.00     0.031 A 
ATOM     86  C   UNL     1     -10.037 -13.191   5.428  1.00  0.00     0.131 A 
ATOM     87  C   UNL     1     -12.386 -13.958   6.664  1.00  0.00     0.055 A 
ATOM     88  C   UNL     1     -10.962 -12.219   5.816  1.00  0.00     0.041 A 
ATOM     89  F   UNL     1      -8.923 -12.776   4.804  1.00  0.00    -0.206 F 
ATOM     90  C   UNL     1     -12.153 -12.602   6.423  1.00  0.00     0.022 A 
BRANCH  87  91
ATOM     91  S   UNL     1     -13.991 -14.503   7.310  1.00  0.00     0.124 S 
ATOM     92  O   UNL     1     -14.447 -15.396   6.250  1.00  0.00    -0.237 OA
ATOM     93  O   UNL     1     -13.611 -15.139   8.566  1.00  0.00    -0.237 OA
ATOM     94  O   UNL     1     -14.743 -13.258   7.445  1.00  0.00    -0.744 OA
ENDBRANCH  87  91
ENDBRANCH  60  84
BRANCH  72  95
ATOM     95  C   UNL     1     -10.793 -19.873   1.189  1.00  0.00     0.023 A 
ATOM     96  C   UNL     1     -11.416 -19.161   0.150  1.00  0.00     0.031 A 
ATOM     97  C   UNL     1     -11.287 -21.153   1.503  1.00  0.00     0.131 A 
ATOM     98  C   UNL     1     -12.527 -19.712  -0.505  1.00  0.00     0.055 A 
ATOM     99  C   UNL     1     -12.352 -21.722   0.805  1.00  0.00     0.041 A 
ATOM    100  F   UNL     1     -10.732 -21.877   2.488  1.00  0.00    -0.206 F 
ATOM    101  C   UNL     1     -12.987 -20.995  -0.198  1.00  0.00     0.022 A 
BRANCH  98 102
ATOM    102  S   UNL     1     -13.420 -18.695  -1.714  1.00  0.00     0.124 S 
ATOM    103  O   UNL     1     -13.829 -17.552  -0.905  1.00  0.00    -0.237 OA
ATOM    104  O   UNL     1     -12.395 -18.432  -2.719  1.00  0.00    -0.237 OA
ATOM    105  O   UNL     1     -14.510 -19.564  -2.155  1.00  0.00    -0.744 OA
ENDBRANCH  98 102
ENDBRANCH  72  95
ENDBRANCH  46  47
ENDBRANCH  38  41
ENDBRANCH  36  37
ENDBRANCH  35  36
ENDBRANCH  34  35
ENDBRANCH  33  34
ENDBRANCH  32  33
ENDBRANCH   1  32
TORSDOF 24
