REMARK SMILES C[C@@H]1[C@@H](C(=O)NCCCCCCNC(=O)c2ccc(-c3c4nc(c(-c5cc(S(=O)(=O)[O-])ccc5F)c5ccc([nH]5)c(-c5cc(S(=O)(=O)[O-])ccc5F)c5nc(c(-c6cc(S(=O)(=O)[O-])ccc6F)c6ccc3[nH]6)C=C5)C=C4)cc2)CCN1C(=O)CCCC1CCCCC1
REMARK SMILES IDX 8 1 7 2 6 3 4 4 5 5 3 7 1 8 2 9 81 10 79 11 80 12 82 13
REMARK SMILES IDX 83 14 84 15 85 16 86 17 87 18 88 19 92 20 89 21 91 22 90 23
REMARK SMILES IDX 9 24 10 25 11 26 12 27 13 28 14 29 15 31 16 32 17 33 78 34
REMARK SMILES IDX 18 35 77 36 19 37 20 38 21 39 71 40 22 41 76 42 70 43 72 44
REMARK SMILES IDX 23 45 75 46 69 47 68 48 24 50 56 51 36 52 55 53 37 54 40 55
REMARK SMILES IDX 54 56 73 57 38 58 39 59 53 61 74 62 41 63 25 64 26 65 34 66
REMARK SMILES IDX 27 67 33 68 35 69 32 70 28 71 29 72 30 73 31 74 57 75 58 76
REMARK SMILES IDX 66 77 59 78 65 79 67 80 64 81 60 82 61 83 62 84 63 85 42 86
REMARK SMILES IDX 43 87 51 88 44 89 50 90 52 91 49 92 45 93 46 94 47 95 48 96
REMARK H PARENT 6 6 13 30 72 49 40 60
REMARK Flexibility Score: inf
ROOT
ATOM      1  C   UNL     1      -2.971   4.382  -1.453  1.00  0.00     0.021 C 
ENDROOT
BRANCH   1   2
ATOM      2  C   UNL     1      -2.642   3.020  -0.861  1.00  0.00     0.116 C 
BRANCH   2   3
ATOM      3  N   UNL     1      -1.880   2.189  -1.763  1.00  0.00    -0.356 N 
ATOM      4  C   UNL     1      -1.069   1.139  -1.450  1.00  0.00     0.225 C 
ATOM      5  O   UNL     1      -0.541   0.529  -2.377  1.00  0.00    -0.275 OA
ATOM      6  H   UNL     1      -1.954   2.408  -2.720  1.00  0.00     0.163 HD
BRANCH   4   7
ATOM      7  C   UNL     1      -0.840   0.805   0.023  1.00  0.00     0.102 C 
ATOM      8  C   UNL     1       0.778  -0.284   1.620  1.00  0.00     0.032 C 
ATOM      9  C   UNL     1       0.171  -0.334   0.215  1.00  0.00     0.094 C 
ATOM     10  N   UNL     1      -0.627  -1.531  -0.003  1.00  0.00    -0.339 N 
ATOM     11  C   UNL     1      -2.092   0.212   0.677  1.00  0.00     0.037 C 
ATOM     12  C   UNL     1      -2.022  -1.269   0.316  1.00  0.00     0.120 C 
BRANCH  10  13
ATOM     13  C   UNL     1      -0.293  -2.649  -0.743  1.00  0.00     0.222 C 
ATOM     14  O   UNL     1      -1.160  -3.457  -1.094  1.00  0.00    -0.275 OA
BRANCH  13  15
ATOM     15  C   UNL     1       1.173  -2.969  -1.022  1.00  0.00     0.100 C 
BRANCH  15  16
ATOM     16  C   UNL     1       1.851  -2.445  -2.298  1.00  0.00     0.010 C 
BRANCH  16  17
ATOM     17  C   UNL     1       2.486  -1.041  -2.389  1.00  0.00     0.004 C 
BRANCH  17  18
ATOM     18  C   UNL     1       3.647  -0.587  -1.453  1.00  0.00    -0.011 C 
ATOM     19  C   UNL     1       3.491   0.918  -1.121  1.00  0.00     0.003 C 
ATOM     20  C   UNL     1       3.846  -1.425  -0.193  1.00  0.00     0.003 C 
ATOM     21  C   UNL     1       4.465   1.450  -0.070  1.00  0.00     0.000 C 
ATOM     22  C   UNL     1       4.904  -0.878   0.755  1.00  0.00     0.000 C 
ATOM     23  C   UNL     1       4.573   0.552   1.155  1.00  0.00     0.000 C 
ENDBRANCH  17  18
ENDBRANCH  16  17
ENDBRANCH  15  16
ENDBRANCH  13  15
ENDBRANCH  10  13
ENDBRANCH   4   7
ENDBRANCH   2   3
ENDBRANCH   1   2
BRANCH   1  24
ATOM     24  C   UNL     1      -3.862   4.350  -2.699  1.00  0.00     0.002 C 
BRANCH  24  25
ATOM     25  C   UNL     1      -5.136   3.505  -2.596  1.00  0.00     0.002 C 
BRANCH  25  26
ATOM     26  C   UNL     1      -6.034   3.786  -1.389  1.00  0.00     0.021 C 
BRANCH  26  27
ATOM     27  C   UNL     1      -6.404   5.248  -1.176  1.00  0.00     0.116 C 
BRANCH  27  28
ATOM     28  N   UNL     1      -7.098   5.814  -2.316  1.00  0.00    -0.352 N 
ATOM     29  C   UNL     1      -8.264   6.537  -2.352  1.00  0.00     0.251 C 
ATOM     30  H   UNL     1      -6.672   5.656  -3.189  1.00  0.00     0.163 HD
ATOM     31  O   UNL     1      -8.788   6.781  -3.433  1.00  0.00    -0.269 OA
BRANCH  29  32
ATOM     32  C   UNL     1      -8.896   6.992  -1.093  1.00  0.00     0.039 A 
ATOM     33  C   UNL     1     -10.284   6.893  -0.971  1.00  0.00     0.014 A 
ATOM     34  C   UNL     1      -8.139   7.528  -0.046  1.00  0.00     0.014 A 
ATOM     35  C   UNL     1     -10.906   7.293   0.213  1.00  0.00     0.010 A 
ATOM     36  C   UNL     1      -8.752   7.849   1.164  1.00  0.00     0.010 A 
ATOM     37  C   UNL     1     -10.144   7.749   1.302  1.00  0.00    -0.014 A 
BRANCH  37  38
ATOM     38  C   UNL     1     -10.802   8.145   2.575  1.00  0.00     0.031 A 
ATOM     39  C   UNL     1     -10.731   9.571   3.053  1.00  0.00     0.074 A 
ATOM     40  C   UNL     1     -11.443   7.215   3.310  1.00  0.00     0.049 A 
ATOM     41  N   UNL     1     -11.228  10.105   4.139  1.00  0.00    -0.248 NA
ATOM     42  C   UNL     1      -9.979  10.514   2.211  1.00  0.00     0.031 C 
ATOM     43  C   UNL     1     -11.546   5.794   2.969  1.00  0.00     0.029 A 
ATOM     44  N   UNL     1     -12.132   7.321   4.492  1.00  0.00    -0.354 N 
ATOM     45  C   UNL     1     -10.847  11.443   4.113  1.00  0.00     0.074 A 
ATOM     46  C   UNL     1     -10.018  11.618   2.940  1.00  0.00     0.031 C 
ATOM     47  C   UNL     1     -12.288   5.171   3.898  1.00  0.00     0.029 A 
ATOM     48  C   UNL     1     -12.673   6.132   4.926  1.00  0.00     0.049 A 
ATOM     49  H   UNL     1     -12.231   8.168   4.983  1.00  0.00     0.167 HD
ATOM     50  C   UNL     1     -11.182  12.439   4.971  1.00  0.00     0.034 A 
ATOM     51  C   UNL     1     -13.392   5.847   6.031  1.00  0.00     0.034 A 
ATOM     52  C   UNL     1     -12.017  12.247   6.132  1.00  0.00     0.049 A 
ATOM     53  C   UNL     1     -13.720   6.964   6.990  1.00  0.00     0.074 A 
ATOM     54  C   UNL     1     -12.460  13.192   7.041  1.00  0.00     0.029 A 
ATOM     55  N   UNL     1     -12.529  11.025   6.552  1.00  0.00    -0.354 N 
ATOM     56  N   UNL     1     -13.399   8.236   6.920  1.00  0.00    -0.248 NA
ATOM     57  C   UNL     1     -14.518   6.609   8.170  1.00  0.00     0.031 C 
ATOM     58  C   UNL     1     -13.171  12.533   8.049  1.00  0.00     0.029 A 
ATOM     59  C   UNL     1     -13.250  11.188   7.726  1.00  0.00     0.049 A 
ATOM     60  H   UNL     1     -12.400  10.169   6.085  1.00  0.00     0.167 HD
ATOM     61  C   UNL     1     -13.983   8.836   8.033  1.00  0.00     0.074 A 
ATOM     62  C   UNL     1     -14.692   7.791   8.742  1.00  0.00     0.031 C 
ATOM     63  C   UNL     1     -13.939  10.133   8.433  1.00  0.00     0.034 A 
BRANCH  50  64
ATOM     64  C   UNL     1     -10.621  13.815   4.696  1.00  0.00     0.023 A 
ATOM     65  C   UNL     1     -10.931  14.518   3.518  1.00  0.00     0.031 A 
ATOM     66  C   UNL     1      -9.746  14.425   5.612  1.00  0.00     0.131 A 
ATOM     67  C   UNL     1     -10.313  15.749   3.252  1.00  0.00     0.055 A 
ATOM     68  C   UNL     1      -9.202  15.691   5.381  1.00  0.00     0.041 A 
ATOM     69  F   UNL     1      -9.393  13.796   6.744  1.00  0.00    -0.206 F 
ATOM     70  C   UNL     1      -9.472  16.354   4.188  1.00  0.00     0.022 A 
BRANCH  67  71
ATOM     71  S   UNL     1     -10.505  16.475   1.601  1.00  0.00     0.124 S 
ATOM     72  O   UNL     1      -9.971  15.415   0.749  1.00  0.00    -0.237 OA
ATOM     73  O   UNL     1     -11.944  16.697   1.519  1.00  0.00    -0.237 OA
ATOM     74  O   UNL     1      -9.688  17.686   1.661  1.00  0.00    -0.744 OA
ENDBRANCH  67  71
ENDBRANCH  50  64
BRANCH  51  75
ATOM     75  C   UNL     1     -13.845   4.452   6.302  1.00  0.00     0.023 A 
ATOM     76  C   UNL     1     -15.210   4.132   6.367  1.00  0.00     0.031 A 
ATOM     77  C   UNL     1     -12.916   3.425   6.553  1.00  0.00     0.131 A 
ATOM     78  C   UNL     1     -15.610   2.835   6.726  1.00  0.00     0.055 A 
ATOM     79  C   UNL     1     -13.319   2.122   6.850  1.00  0.00     0.041 A 
ATOM     80  F   UNL     1     -11.598   3.674   6.503  1.00  0.00    -0.206 F 
ATOM     81  C   UNL     1     -14.674   1.824   6.953  1.00  0.00     0.022 A 
BRANCH  78  82
ATOM     82  S   UNL     1     -17.375   2.513   6.991  1.00  0.00     0.124 S 
ATOM     83  O   UNL     1     -17.702   3.489   8.024  1.00  0.00    -0.237 OA
ATOM     84  O   UNL     1     -17.931   2.768   5.666  1.00  0.00    -0.237 OA
ATOM     85  O   UNL     1     -17.405   1.116   7.419  1.00  0.00    -0.744 OA
ENDBRANCH  78  82
ENDBRANCH  51  75
BRANCH  63  86
ATOM     86  C   UNL     1     -14.715  10.493   9.678  1.00  0.00     0.023 A 
ATOM     87  C   UNL     1     -14.368   9.980  10.940  1.00  0.00     0.031 A 
ATOM     88  C   UNL     1     -15.829  11.347   9.596  1.00  0.00     0.131 A 
ATOM     89  C   UNL     1     -15.164  10.275  12.057  1.00  0.00     0.055 A 
ATOM     90  C   UNL     1     -16.576  11.692  10.723  1.00  0.00     0.041 A 
ATOM     91  F   UNL     1     -16.210  11.864   8.417  1.00  0.00    -0.206 F 
ATOM     92  C   UNL     1     -16.254  11.143  11.961  1.00  0.00     0.022 A 
BRANCH  89  93
ATOM     93  S   UNL     1     -14.817   9.422  13.620  1.00  0.00     0.124 S 
ATOM     94  O   UNL     1     -14.941   8.020  13.234  1.00  0.00    -0.237 OA
ATOM     95  O   UNL     1     -13.467   9.879  13.933  1.00  0.00    -0.237 OA
ATOM     96  O   UNL     1     -15.861   9.913  14.518  1.00  0.00    -0.744 OA
ENDBRANCH  89  93
ENDBRANCH  63  86
ENDBRANCH  37  38
ENDBRANCH  29  32
ENDBRANCH  27  28
ENDBRANCH  26  27
ENDBRANCH  25  26
ENDBRANCH  24  25
ENDBRANCH   1  24
TORSDOF 21
