REMARK SMILES CC1=C(CC(=O)NCCCCCCNC(=O)c2ccc(-c3c4nc(c(-c5cc(S(=O)(=O)[O-])ccc5F)c5ccc([nH]5)c(-c5cc(S(=O)(=O)[O-])ccc5F)c5nc(c(-c6cc(S(=O)(=O)[O-])ccc6F)c6ccc3[nH]6)C=C5)C=C4)cc2)c2cc(F)ccc2/C1=C\c1cccc(OCc2ccccc2)c1
REMARK SMILES IDX 9 1 8 2 7 3 5 4 6 5 4 7 3 8 1 9 2 10 87 11 80 12 86 13 88 14
REMARK SMILES IDX 81 15 85 16 82 17 84 18 83 19 89 20 90 21 102 22 91 23 93 24
REMARK SMILES IDX 92 25 94 26 95 27 96 28 97 29 101 30 98 31 100 32 99 33
REMARK SMILES IDX 10 34 11 35 12 36 13 37 14 38 15 39 16 41 17 42 18 43 79 44
REMARK SMILES IDX 19 45 78 46 20 47 21 48 22 49 72 50 23 51 77 52 71 53 73 54
REMARK SMILES IDX 24 55 76 56 70 57 69 58 25 60 57 61 37 62 56 63 38 64 41 65
REMARK SMILES IDX 55 66 74 67 39 68 40 69 54 71 75 72 42 73 26 74 27 75 35 76
REMARK SMILES IDX 28 77 34 78 36 79 33 80 29 81 30 82 31 83 32 84 58 85 59 86
REMARK SMILES IDX 67 87 60 88 66 89 68 90 65 91 61 92 62 93 63 94 64 95 43 96
REMARK SMILES IDX 44 97 52 98 45 99 51 100 53 101 50 102 46 103 47 104 48 105
REMARK SMILES IDX 49 106
REMARK H PARENT 7 6 14 40 73 59 41 70
REMARK Flexibility Score: inf
ROOT
ATOM      1  C   UNL     1       1.017  -2.087   3.600  1.00  0.00     0.021 C 
ENDROOT
BRANCH   1   2
ATOM      2  C   UNL     1       2.343  -1.669   2.961  1.00  0.00     0.116 C 
BRANCH   2   3
ATOM      3  N   UNL     1       3.136  -2.822   2.584  1.00  0.00    -0.356 N 
ATOM      4  C   UNL     1       3.318  -3.372   1.350  1.00  0.00     0.224 C 
ATOM      5  O   UNL     1       3.974  -4.414   1.264  1.00  0.00    -0.275 OA
ATOM      6  H   UNL     1       3.610  -3.270   3.322  1.00  0.00     0.163 HD
BRANCH   4   7
ATOM      7  C   UNL     1       2.768  -2.681   0.104  1.00  0.00     0.136 C 
BRANCH   7   8
ATOM      8  C   UNL     1       1.278  -2.687   0.016  1.00  0.00    -0.027 C 
ATOM      9  C   UNL     1       0.751  -0.180  -0.121  1.00  0.00     0.045 C 
ATOM     10  C   UNL     1       0.424  -1.638  -0.055  1.00  0.00    -0.039 C 
ATOM     11  C   UNL     1      -0.961  -2.132  -0.080  1.00  0.00    -0.014 C 
ATOM     12  C   UNL     1       0.475  -3.922  -0.042  1.00  0.00    -0.011 A 
ATOM     13  C   UNL     1      -0.893  -3.601  -0.131  1.00  0.00    -0.010 A 
ATOM     14  C   UNL     1      -2.042  -1.335  -0.030  1.00  0.00     0.017 C 
ATOM     15  C   UNL     1       0.890  -5.247  -0.038  1.00  0.00     0.048 A 
ATOM     16  C   UNL     1      -1.853  -4.598  -0.241  1.00  0.00     0.012 A 
ATOM     17  C   UNL     1      -0.082  -6.241  -0.125  1.00  0.00     0.123 A 
ATOM     18  C   UNL     1      -1.439  -5.931  -0.231  1.00  0.00     0.040 A 
ATOM     19  F   UNL     1       0.293  -7.527  -0.116  1.00  0.00    -0.207 F 
BRANCH  14  20
ATOM     20  C   UNL     1      -3.437  -1.766  -0.103  1.00  0.00    -0.021 A 
ATOM     21  C   UNL     1      -4.119  -2.261   1.009  1.00  0.00     0.008 A 
ATOM     22  C   UNL     1      -4.083  -1.682  -1.342  1.00  0.00     0.054 A 
ATOM     23  C   UNL     1      -5.436  -2.695   0.872  1.00  0.00     0.004 A 
ATOM     24  C   UNL     1      -5.412  -2.073  -1.476  1.00  0.00     0.120 A 
ATOM     25  C   UNL     1      -6.077  -2.603  -0.368  1.00  0.00     0.046 A 
BRANCH  24  26
ATOM     26  O   UNL     1      -6.154  -1.989  -2.624  1.00  0.00    -0.489 OA
BRANCH  26  27
ATOM     27  C   UNL     1      -5.650  -1.176  -3.693  1.00  0.00     0.265 C 
BRANCH  27  28
ATOM     28  C   UNL     1      -5.698   0.304  -3.388  1.00  0.00    -0.011 A 
ATOM     29  C   UNL     1      -6.910   0.912  -3.031  1.00  0.00     0.007 A 
ATOM     30  C   UNL     1      -4.536   1.089  -3.437  1.00  0.00     0.007 A 
ATOM     31  C   UNL     1      -6.955   2.269  -2.710  1.00  0.00     0.000 A 
ATOM     32  C   UNL     1      -4.580   2.444  -3.103  1.00  0.00     0.000 A 
ATOM     33  C   UNL     1      -5.789   3.033  -2.738  1.00  0.00     0.000 A 
ENDBRANCH  27  28
ENDBRANCH  26  27
ENDBRANCH  24  26
ENDBRANCH  14  20
ENDBRANCH   7   8
ENDBRANCH   4   7
ENDBRANCH   2   3
ENDBRANCH   1   2
BRANCH   1  34
ATOM     34  C   UNL     1       1.164  -2.701   4.998  1.00  0.00     0.002 C 
BRANCH  34  35
ATOM     35  C   UNL     1       1.843  -1.806   6.041  1.00  0.00     0.002 C 
BRANCH  35  36
ATOM     36  C   UNL     1       1.228  -0.415   6.206  1.00  0.00     0.021 C 
BRANCH  36  37
ATOM     37  C   UNL     1      -0.233  -0.413   6.638  1.00  0.00     0.116 C 
BRANCH  37  38
ATOM     38  N   UNL     1      -0.411  -0.924   7.989  1.00  0.00    -0.352 N 
ATOM     39  C   UNL     1      -1.052  -0.341   9.058  1.00  0.00     0.251 C 
ATOM     40  H   UNL     1      -0.019  -1.810   8.163  1.00  0.00     0.163 HD
ATOM     41  O   UNL     1      -0.954  -0.835  10.177  1.00  0.00    -0.269 OA
BRANCH  39  42
ATOM     42  C   UNL     1      -1.828   0.902   8.851  1.00  0.00     0.039 A 
ATOM     43  C   UNL     1      -2.702   1.018   7.768  1.00  0.00     0.014 A 
ATOM     44  C   UNL     1      -1.658   1.971   9.735  1.00  0.00     0.014 A 
ATOM     45  C   UNL     1      -3.279   2.250   7.478  1.00  0.00     0.010 A 
ATOM     46  C   UNL     1      -2.306   3.185   9.488  1.00  0.00     0.010 A 
ATOM     47  C   UNL     1      -3.087   3.349   8.333  1.00  0.00    -0.014 A 
BRANCH  47  48
ATOM     48  C   UNL     1      -3.735   4.647   8.010  1.00  0.00     0.031 A 
ATOM     49  C   UNL     1      -2.914   5.860   7.669  1.00  0.00     0.074 A 
ATOM     50  C   UNL     1      -5.081   4.711   7.979  1.00  0.00     0.049 A 
ATOM     51  N   UNL     1      -3.320   7.056   7.327  1.00  0.00    -0.248 NA
ATOM     52  C   UNL     1      -1.450   5.718   7.719  1.00  0.00     0.031 C 
ATOM     53  C   UNL     1      -5.974   3.594   8.288  1.00  0.00     0.029 A 
ATOM     54  N   UNL     1      -5.932   5.738   7.655  1.00  0.00    -0.354 N 
ATOM     55  C   UNL     1      -2.169   7.811   7.133  1.00  0.00     0.074 A 
ATOM     56  C   UNL     1      -1.046   6.948   7.429  1.00  0.00     0.031 C 
ATOM     57  C   UNL     1      -7.241   3.977   8.086  1.00  0.00     0.029 A 
ATOM     58  C   UNL     1      -7.261   5.387   7.706  1.00  0.00     0.049 A 
ATOM     59  H   UNL     1      -5.621   6.639   7.409  1.00  0.00     0.167 HD
ATOM     60  C   UNL     1      -2.062   9.100   6.731  1.00  0.00     0.034 A 
ATOM     61  C   UNL     1      -8.375   6.116   7.486  1.00  0.00     0.034 A 
ATOM     62  C   UNL     1      -3.192   9.941   6.424  1.00  0.00     0.049 A 
ATOM     63  C   UNL     1      -8.229   7.557   7.078  1.00  0.00     0.074 A 
ATOM     64  C   UNL     1      -3.184  11.250   5.973  1.00  0.00     0.029 A 
ATOM     65  N   UNL     1      -4.524   9.567   6.534  1.00  0.00    -0.354 N 
ATOM     66  N   UNL     1      -7.131   8.241   6.851  1.00  0.00    -0.248 NA
ATOM     67  C   UNL     1      -9.464   8.332   6.899  1.00  0.00     0.031 C 
ATOM     68  C   UNL     1      -4.505  11.685   5.869  1.00  0.00     0.029 A 
ATOM     69  C   UNL     1      -5.344  10.629   6.189  1.00  0.00     0.049 A 
ATOM     70  H   UNL     1      -4.839   8.678   6.815  1.00  0.00     0.167 HD
ATOM     71  C   UNL     1      -7.543   9.521   6.495  1.00  0.00     0.074 A 
ATOM     72  C   UNL     1      -8.992   9.507   6.504  1.00  0.00     0.031 C 
ATOM     73  C   UNL     1      -6.788  10.608   6.197  1.00  0.00     0.034 A 
BRANCH  60  74
ATOM     74  C   UNL     1      -0.687   9.701   6.576  1.00  0.00     0.023 A 
ATOM     75  C   UNL     1      -0.296  10.787   7.384  1.00  0.00     0.031 A 
ATOM     76  C   UNL     1       0.178   9.295   5.545  1.00  0.00     0.131 A 
ATOM     77  C   UNL     1       0.910  11.449   7.125  1.00  0.00     0.055 A 
ATOM     78  C   UNL     1       1.397   9.935   5.315  1.00  0.00     0.041 A 
ATOM     79  F   UNL     1      -0.149   8.266   4.746  1.00  0.00    -0.206 F 
ATOM     80  C   UNL     1       1.761  11.026   6.099  1.00  0.00     0.022 A 
BRANCH  77  81
ATOM     81  S   UNL     1       1.395  12.923   8.065  1.00  0.00     0.124 S 
ATOM     82  O   UNL     1       2.671  12.503   8.641  1.00  0.00    -0.237 OA
ATOM     83  O   UNL     1       1.487  13.936   7.018  1.00  0.00    -0.237 OA
ATOM     84  O   UNL     1       0.310  13.101   9.023  1.00  0.00    -0.744 OA
ENDBRANCH  77  81
ENDBRANCH  60  74
BRANCH  61  85
ATOM     85  C   UNL     1      -9.707   5.456   7.616  1.00  0.00     0.023 A 
ATOM     86  C   UNL     1     -10.114   4.885   8.836  1.00  0.00     0.031 A 
ATOM     87  C   UNL     1     -10.532   5.274   6.494  1.00  0.00     0.131 A 
ATOM     88  C   UNL     1     -11.264   4.088   8.885  1.00  0.00     0.055 A 
ATOM     89  C   UNL     1     -11.720   4.543   6.566  1.00  0.00     0.041 A 
ATOM     90  F   UNL     1     -10.182   5.790   5.306  1.00  0.00    -0.206 F 
ATOM     91  C   UNL     1     -12.079   3.926   7.761  1.00  0.00     0.022 A 
BRANCH  88  92
ATOM     92  S   UNL     1     -11.651   3.108  10.363  1.00  0.00     0.124 S 
ATOM     93  O   UNL     1     -12.944   3.656  10.760  1.00  0.00    -0.237 OA
ATOM     94  O   UNL     1     -11.678   1.751   9.822  1.00  0.00    -0.237 OA
ATOM     95  O   UNL     1     -10.540   3.392  11.265  1.00  0.00    -0.744 OA
ENDBRANCH  88  92
ENDBRANCH  61  85
BRANCH  73  96
ATOM     96  C   UNL     1      -7.491  11.902   5.864  1.00  0.00     0.023 A 
ATOM     97  C   UNL     1      -7.342  12.478   4.588  1.00  0.00     0.031 A 
ATOM     98  C   UNL     1      -8.171  12.635   6.851  1.00  0.00     0.131 A 
ATOM     99  C   UNL     1      -7.828  13.769   4.346  1.00  0.00     0.055 A 
ATOM    100  C   UNL     1      -8.694  13.902   6.591  1.00  0.00     0.041 A 
ATOM    101  F   UNL     1      -8.330  12.131   8.085  1.00  0.00    -0.206 F 
ATOM    102  C   UNL     1      -8.509  14.481   5.338  1.00  0.00     0.022 A 
BRANCH  99 103
ATOM    103  S   UNL     1      -7.515  14.606   2.767  1.00  0.00     0.124 S 
ATOM    104  O   UNL     1      -8.871  14.852   2.282  1.00  0.00    -0.237 OA
ATOM    105  O   UNL     1      -6.779  15.794   3.189  1.00  0.00    -0.237 OA
ATOM    106  O   UNL     1      -6.748  13.632   1.997  1.00  0.00    -0.744 OA
ENDBRANCH  99 103
ENDBRANCH  73  96
ENDBRANCH  47  48
ENDBRANCH  39  42
ENDBRANCH  37  38
ENDBRANCH  36  37
ENDBRANCH  35  36
ENDBRANCH  34  35
ENDBRANCH   1  34
TORSDOF 21
