REMARK SMILES Cc1n[nH]c(C[N@H+]2CCC[C@H](c3cccc(C(=O)NCCCCCCNC(=O)c4ccc(-c5c6nc(c(-c7cc(S(=O)(=O)[O-])ccc7F)c7ccc([nH]7)c(-c7cc(S(=O)(=O)[O-])ccc7F)c7nc(c(-c8cc(S(=O)(=O)[O-])ccc8F)c8ccc5[nH]8)C=C7)C=C6)cc4)c3)C2)n1
REMARK SMILES IDX 22 1 21 2 20 3 19 4 17 5 18 6 16 8 12 9 13 10 92 11 14 12
REMARK SMILES IDX 15 13 11 14 7 15 8 16 93 17 9 19 10 20 6 21 5 22 1 23 2 24
REMARK SMILES IDX 3 25 94 26 4 27 23 29 24 30 25 31 26 32 27 33 28 35 29 36
REMARK SMILES IDX 30 37 91 38 31 39 90 40 32 41 33 42 34 43 84 44 35 45 89 46
REMARK SMILES IDX 83 47 85 48 36 49 88 50 82 51 81 52 37 54 69 55 49 56 68 57
REMARK SMILES IDX 50 58 53 59 67 60 86 61 51 62 52 63 66 65 87 66 54 67 38 68
REMARK SMILES IDX 39 69 47 70 40 71 46 72 48 73 45 74 41 75 42 76 43 77 44 78
REMARK SMILES IDX 70 79 71 80 79 81 72 82 78 83 80 84 77 85 73 86 74 87 75 88
REMARK SMILES IDX 76 89 55 90 56 91 64 92 57 93 63 94 65 95 62 96 58 97 59 98
REMARK SMILES IDX 60 99 61 100
REMARK H PARENT 19 7 7 18 4 28 26 34 85 53 53 64
REMARK Flexibility Score: inf
ROOT
ATOM      1  C   UNL     1       1.815   5.153  10.466  1.00  0.00     0.002 C 
ENDROOT
BRANCH   1   2
ATOM      2  C   UNL     1       1.088   4.470   9.312  1.00  0.00     0.021 C 
BRANCH   2   3
ATOM      3  C   UNL     1       0.907   2.962   9.407  1.00  0.00     0.116 C 
BRANCH   3   4
ATOM      4  N   UNL     1       0.097   2.491  10.523  1.00  0.00    -0.352 N 
ATOM      5  C   UNL     1      -0.814   1.454  10.609  1.00  0.00     0.251 C 
ATOM      6  O   UNL     1      -1.363   1.234  11.688  1.00  0.00    -0.269 OA
ATOM      7  H   UNL     1       0.218   2.998  11.358  1.00  0.00     0.163 HD
BRANCH   5   8
ATOM      8  C   UNL     1      -1.196   0.637   9.422  1.00  0.00     0.040 A 
ATOM      9  C   UNL     1      -0.753  -0.035   7.120  1.00  0.00    -0.039 A 
ATOM     10  C   UNL     1      -2.070  -0.508   7.035  1.00  0.00     0.004 A 
ATOM     11  C   UNL     1      -0.311   0.412   8.370  1.00  0.00     0.018 A 
ATOM     12  C   UNL     1      -2.922  -0.467   8.142  1.00  0.00     0.001 A 
ATOM     13  C   UNL     1      -2.499   0.142   9.323  1.00  0.00     0.014 A 
BRANCH   9  14
ATOM     14  C   UNL     1       0.134   0.211   5.896  1.00  0.00     0.074 C 
ATOM     15  N   UNL     1      -0.117  -1.964   4.720  1.00  0.00    -0.328 N 
ATOM     16  C   UNL     1       1.296  -2.302   4.935  1.00  0.00     0.262 C 
ATOM     17  C   UNL     1      -0.303  -0.504   4.606  1.00  0.00     0.270 C 
ATOM     18  H   UNL     1      -0.616  -2.290   5.548  1.00  0.00     0.348 HD
ATOM     19  C   UNL     1       1.876  -1.590   6.163  1.00  0.00     0.062 C 
ATOM     20  C   UNL     1       1.635  -0.086   6.093  1.00  0.00     0.020 C 
BRANCH  15  21
ATOM     21  C   UNL     1      -0.722  -2.674   3.579  1.00  0.00     0.340 C 
BRANCH  21  22
ATOM     22  C   UNL     1      -0.149  -2.316   2.250  1.00  0.00     0.179 A 
ATOM     23  C   UNL     1       1.045  -0.201  -0.303  1.00  0.00     0.092 C 
ATOM     24  C   UNL     1       0.651  -1.325   0.570  1.00  0.00     0.147 A 
ATOM     25  N   UNL     1       1.117  -2.572   0.424  1.00  0.00    -0.159 NA
ATOM     26  N   UNL     1      -0.171  -1.147   1.646  1.00  0.00    -0.211 NA
ATOM     27  N   UNL     1       0.579  -3.184   1.491  1.00  0.00    -0.258 N 
ATOM     28  H   UNL     1       0.695  -4.140   1.699  1.00  0.00     0.192 HD
ENDBRANCH  21  22
ENDBRANCH  15  21
ENDBRANCH   9  14
ENDBRANCH   5   8
ENDBRANCH   3   4
ENDBRANCH   2   3
ENDBRANCH   1   2
BRANCH   1  29
ATOM     29  C   UNL     1       3.176   4.580  10.876  1.00  0.00     0.002 C 
BRANCH  29  30
ATOM     30  C   UNL     1       4.227   4.367   9.777  1.00  0.00     0.021 C 
BRANCH  30  31
ATOM     31  C   UNL     1       4.589   5.607   8.970  1.00  0.00     0.116 C 
BRANCH  31  32
ATOM     32  N   UNL     1       5.213   6.652   9.774  1.00  0.00    -0.352 N 
ATOM     33  C   UNL     1       5.603   7.918   9.373  1.00  0.00     0.251 C 
ATOM     34  H   UNL     1       5.377   6.429  10.719  1.00  0.00     0.163 HD
ATOM     35  O   UNL     1       6.448   8.530  10.007  1.00  0.00    -0.269 OA
BRANCH  33  36
ATOM     36  C   UNL     1       4.991   8.508   8.162  1.00  0.00     0.039 A 
ATOM     37  C   UNL     1       5.757   9.253   7.262  1.00  0.00     0.014 A 
ATOM     38  C   UNL     1       3.635   8.295   7.924  1.00  0.00     0.014 A 
ATOM     39  C   UNL     1       5.166   9.697   6.080  1.00  0.00     0.010 A 
ATOM     40  C   UNL     1       3.089   8.617   6.703  1.00  0.00     0.010 A 
ATOM     41  C   UNL     1       3.835   9.349   5.787  1.00  0.00    -0.014 A 
BRANCH  41  42
ATOM     42  C   UNL     1       3.279   9.603   4.456  1.00  0.00     0.031 A 
ATOM     43  C   UNL     1       4.129   9.105   3.342  1.00  0.00     0.074 A 
ATOM     44  C   UNL     1       2.022  10.045   4.219  1.00  0.00     0.049 A 
ATOM     45  N   UNL     1       4.799   9.808   2.491  1.00  0.00    -0.248 NA
ATOM     46  C   UNL     1       4.404   7.660   3.260  1.00  0.00     0.031 C 
ATOM     47  C   UNL     1       0.962  10.310   5.196  1.00  0.00     0.029 A 
ATOM     48  N   UNL     1       1.385  10.249   3.029  1.00  0.00    -0.354 N 
ATOM     49  C   UNL     1       5.353   8.896   1.600  1.00  0.00     0.074 A 
ATOM     50  C   UNL     1       5.272   7.614   2.247  1.00  0.00     0.031 C 
ATOM     51  C   UNL     1      -0.228  10.407   4.564  1.00  0.00     0.029 A 
ATOM     52  C   UNL     1      -0.001  10.382   3.130  1.00  0.00     0.049 A 
ATOM     53  H   UNL     1       1.863  10.298   2.170  1.00  0.00     0.167 HD
ATOM     54  C   UNL     1       5.568   9.237   0.298  1.00  0.00     0.034 A 
ATOM     55  C   UNL     1      -0.908  10.457   2.118  1.00  0.00     0.034 A 
ATOM     56  C   UNL     1       5.550  10.675   0.127  1.00  0.00     0.049 A 
ATOM     57  C   UNL     1      -0.172  10.933   0.923  1.00  0.00     0.074 A 
ATOM     58  C   UNL     1       6.230  11.725   0.719  1.00  0.00     0.029 A 
ATOM     59  N   UNL     1       4.447  11.247  -0.466  1.00  0.00    -0.354 N 
ATOM     60  N   UNL     1       0.370  12.117   0.843  1.00  0.00    -0.248 NA
ATOM     61  C   UNL     1       0.380   9.938   0.018  1.00  0.00     0.031 C 
ATOM     62  C   UNL     1       5.242  12.738   0.907  1.00  0.00     0.029 A 
ATOM     63  C   UNL     1       4.050  12.295   0.329  1.00  0.00     0.049 A 
ATOM     64  H   UNL     1       4.020  10.958  -1.306  1.00  0.00     0.167 HD
ATOM     65  C   UNL     1       1.598  11.905   0.239  1.00  0.00     0.074 A 
ATOM     66  C   UNL     1       1.503  10.566  -0.343  1.00  0.00     0.031 C 
ATOM     67  C   UNL     1       2.670  12.709   0.507  1.00  0.00     0.034 A 
BRANCH  54  68
ATOM     68  C   UNL     1       5.404   8.285  -0.868  1.00  0.00     0.023 A 
ATOM     69  C   UNL     1       5.701   8.776  -2.153  1.00  0.00     0.031 A 
ATOM     70  C   UNL     1       4.708   7.053  -0.830  1.00  0.00     0.131 A 
ATOM     71  C   UNL     1       5.234   8.118  -3.304  1.00  0.00     0.055 A 
ATOM     72  C   UNL     1       4.311   6.365  -1.979  1.00  0.00     0.041 A 
ATOM     73  F   UNL     1       4.284   6.493   0.308  1.00  0.00    -0.206 F 
ATOM     74  C   UNL     1       4.543   6.912  -3.227  1.00  0.00     0.022 A 
BRANCH  71  75
ATOM     75  S   UNL     1       5.381   8.966  -4.898  1.00  0.00     0.124 S 
ATOM     76  O   UNL     1       4.700  10.226  -4.620  1.00  0.00    -0.237 OA
ATOM     77  O   UNL     1       6.828   9.038  -5.066  1.00  0.00    -0.237 OA
ATOM     78  O   UNL     1       4.689   8.071  -5.822  1.00  0.00    -0.744 OA
ENDBRANCH  71  75
ENDBRANCH  54  68
BRANCH  55  79
ATOM     79  C   UNL     1      -2.277   9.867   2.064  1.00  0.00     0.023 A 
ATOM     80  C   UNL     1      -3.250  10.259   1.117  1.00  0.00     0.031 A 
ATOM     81  C   UNL     1      -2.560   8.699   2.808  1.00  0.00     0.131 A 
ATOM     82  C   UNL     1      -4.430   9.494   0.943  1.00  0.00     0.055 A 
ATOM     83  C   UNL     1      -3.726   7.949   2.633  1.00  0.00     0.041 A 
ATOM     84  F   UNL     1      -1.666   8.192   3.673  1.00  0.00    -0.206 F 
ATOM     85  C   UNL     1      -4.662   8.338   1.691  1.00  0.00     0.022 A 
BRANCH  82  86
ATOM     86  S   UNL     1      -5.650   9.938  -0.340  1.00  0.00     0.124 S 
ATOM     87  O   UNL     1      -6.219  11.173   0.186  1.00  0.00    -0.237 OA
ATOM     88  O   UNL     1      -4.822  10.060  -1.534  1.00  0.00    -0.237 OA
ATOM     89  O   UNL     1      -6.567   8.797  -0.349  1.00  0.00    -0.744 OA
ENDBRANCH  82  86
ENDBRANCH  55  79
BRANCH  67  90
ATOM     90  C   UNL     1       2.430  14.032   1.215  1.00  0.00     0.023 A 
ATOM     91  C   UNL     1       1.792  14.190   2.467  1.00  0.00     0.031 A 
ATOM     92  C   UNL     1       2.982  15.181   0.619  1.00  0.00     0.131 A 
ATOM     93  C   UNL     1       1.716  15.466   3.065  1.00  0.00     0.055 A 
ATOM     94  C   UNL     1       2.925  16.436   1.224  1.00  0.00     0.041 A 
ATOM     95  F   UNL     1       3.620  15.097  -0.560  1.00  0.00    -0.206 F 
ATOM     96  C   UNL     1       2.286  16.584   2.447  1.00  0.00     0.022 A 
BRANCH  93  97
ATOM     97  S   UNL     1       0.851  15.708   4.653  1.00  0.00     0.124 S 
ATOM     98  O   UNL     1      -0.407  14.993   4.471  1.00  0.00    -0.237 OA
ATOM     99  O   UNL     1       1.784  15.127   5.614  1.00  0.00    -0.237 OA
ATOM    100  O   UNL     1       0.714  17.164   4.746  1.00  0.00    -0.744 OA
ENDBRANCH  93  97
ENDBRANCH  67  90
ENDBRANCH  41  42
ENDBRANCH  33  36
ENDBRANCH  31  32
ENDBRANCH  30  31
ENDBRANCH  29  30
ENDBRANCH   1  29
TORSDOF 19
