REMARK SMILES COc1ccc(NC(=O)[C@@H]2[C@@H](C(=O)NCCCCCCNC(=O)c3ccc(-c4c5nc(c(-c6cc(S(=O)(=O)[O-])ccc6F)c6ccc([nH]6)c(-c6cc(S(=O)(=O)[O-])ccc6F)c6nc(c(-c7cc(S(=O)(=O)[O-])ccc7F)c7ccc4[nH]7)C=C6)C=C5)cc3)[C@H]3C=C[C@@H]2C3)cc1O
REMARK SMILES IDX 17 1 16 2 15 3 14 4 12 5 13 6 11 8 10 9 90 10 87 11 89 12
REMARK SMILES IDX 91 13 88 14 8 15 7 16 9 18 6 19 3 20 4 21 93 22 5 23 92 24
REMARK SMILES IDX 2 25 1 26 94 27 18 29 19 30 20 31 21 32 22 33 23 35 24 36
REMARK SMILES IDX 25 37 86 38 26 39 85 40 27 41 28 42 29 43 79 44 30 45 84 46
REMARK SMILES IDX 78 47 80 48 31 49 83 50 77 51 76 52 32 54 64 55 44 56 63 57
REMARK SMILES IDX 45 58 48 59 62 60 81 61 46 62 47 63 61 65 82 66 49 67 33 68
REMARK SMILES IDX 34 69 42 70 35 71 41 72 43 73 40 74 36 75 37 76 38 77 39 78
REMARK SMILES IDX 65 79 66 80 74 81 67 82 73 83 75 84 72 85 68 86 69 87 70 88
REMARK SMILES IDX 71 89 50 90 51 91 59 92 52 93 58 94 60 95 57 96 53 97 54 98
REMARK SMILES IDX 55 99 56 100
REMARK H PARENT 14 7 7 17 94 28 21 34 80 53 48 64
REMARK Flexibility Score: inf
ROOT
ATOM      1  C   UNL     1      -3.041  -1.284   1.397  1.00  0.00     0.002 C 
ENDROOT
BRANCH   1   2
ATOM      2  C   UNL     1      -1.709  -2.021   1.543  1.00  0.00     0.021 C 
BRANCH   2   3
ATOM      3  C   UNL     1      -1.215  -2.303   2.972  1.00  0.00     0.116 C 
BRANCH   3   4
ATOM      4  N   UNL     1      -1.679  -3.592   3.454  1.00  0.00    -0.356 N 
ATOM      5  C   UNL     1      -1.063  -4.788   3.660  1.00  0.00     0.224 C 
ATOM      6  O   UNL     1      -1.808  -5.703   4.025  1.00  0.00    -0.275 OA
ATOM      7  H   UNL     1      -2.637  -3.603   3.679  1.00  0.00     0.163 HD
BRANCH   5   8
ATOM      8  C   UNL     1       0.449  -5.005   3.461  1.00  0.00     0.098 C 
ATOM      9  C   UNL     1       0.735  -6.446   2.897  1.00  0.00     0.099 C 
ATOM     10  C   UNL     1       1.693  -7.020   4.003  1.00  0.00     0.025 C 
ATOM     11  C   UNL     1       1.252  -4.981   4.797  1.00  0.00     0.025 C 
ATOM     12  C   UNL     1       0.924  -7.190   5.296  1.00  0.00    -0.027 C 
ATOM     13  C   UNL     1       2.498  -5.773   4.382  1.00  0.00     0.017 C 
ATOM     14  C   UNL     1       0.681  -5.965   5.783  1.00  0.00    -0.027 C 
BRANCH   9  15
ATOM     15  C   UNL     1       1.319  -6.867   1.532  1.00  0.00     0.228 C 
ATOM     16  N   UNL     1       1.720  -6.169   0.448  1.00  0.00    -0.326 N 
ATOM     17  H   UNL     1       2.052  -6.776  -0.252  1.00  0.00     0.169 HD
ATOM     18  O   UNL     1       1.499  -8.095   1.380  1.00  0.00    -0.274 OA
BRANCH  16  19
ATOM     19  C   UNL     1       1.801  -4.841   0.028  1.00  0.00     0.045 A 
ATOM     20  C   UNL     1       2.352  -2.151  -0.617  1.00  0.00     0.160 A 
ATOM     21  C   UNL     1       1.434  -2.479   0.363  1.00  0.00     0.052 A 
ATOM     22  C   UNL     1       2.936  -3.191  -1.332  1.00  0.00     0.159 A 
ATOM     23  C   UNL     1       1.082  -3.813   0.588  1.00  0.00     0.030 A 
ATOM     24  C   UNL     1       2.679  -4.526  -1.015  1.00  0.00     0.076 A 
BRANCH  20  25
ATOM     25  O   UNL     1       2.732  -0.879  -0.945  1.00  0.00    -0.493 OA
ATOM     26  C   UNL     1       1.831   0.157  -0.553  1.00  0.00     0.278 C 
ENDBRANCH  20  25
BRANCH  22  27
ATOM     27  O   UNL     1       3.797  -2.914  -2.356  1.00  0.00    -0.504 OA
ATOM     28  H   UNL     1       3.983  -2.024  -2.584  1.00  0.00     0.293 HD
ENDBRANCH  22  27
ENDBRANCH  16  19
ENDBRANCH   9  15
ENDBRANCH   5   8
ENDBRANCH   3   4
ENDBRANCH   2   3
ENDBRANCH   1   2
BRANCH   1  29
ATOM     29  C   UNL     1      -3.050   0.168   1.893  1.00  0.00     0.002 C 
BRANCH  29  30
ATOM     30  C   UNL     1      -1.966   1.105   1.334  1.00  0.00     0.021 C 
BRANCH  30  31
ATOM     31  C   UNL     1      -1.948   1.304  -0.185  1.00  0.00     0.116 C 
BRANCH  31  32
ATOM     32  N   UNL     1      -3.192   1.862  -0.680  1.00  0.00    -0.352 N 
ATOM     33  C   UNL     1      -3.474   3.068  -1.272  1.00  0.00     0.251 C 
ATOM     34  H   UNL     1      -3.971   1.271  -0.573  1.00  0.00     0.163 HD
ATOM     35  O   UNL     1      -4.654   3.401  -1.372  1.00  0.00    -0.269 OA
BRANCH  33  36
ATOM     36  C   UNL     1      -2.415   3.975  -1.784  1.00  0.00     0.039 A 
ATOM     37  C   UNL     1      -2.612   5.355  -1.657  1.00  0.00     0.014 A 
ATOM     38  C   UNL     1      -1.295   3.507  -2.478  1.00  0.00     0.014 A 
ATOM     39  C   UNL     1      -1.683   6.256  -2.189  1.00  0.00     0.010 A 
ATOM     40  C   UNL     1      -0.338   4.409  -2.966  1.00  0.00     0.010 A 
ATOM     41  C   UNL     1      -0.523   5.794  -2.832  1.00  0.00    -0.014 A 
BRANCH  41  42
ATOM     42  C   UNL     1       0.488   6.764  -3.344  1.00  0.00     0.031 A 
ATOM     43  C   UNL     1       0.737   6.921  -4.822  1.00  0.00     0.074 A 
ATOM     44  C   UNL     1       1.201   7.498  -2.464  1.00  0.00     0.049 A 
ATOM     45  N   UNL     1       1.559   7.732  -5.440  1.00  0.00    -0.248 NA
ATOM     46  C   UNL     1      -0.020   6.039  -5.723  1.00  0.00     0.031 C 
ATOM     47  C   UNL     1       1.088   7.407  -1.006  1.00  0.00     0.029 A 
ATOM     48  N   UNL     1       2.160   8.462  -2.659  1.00  0.00    -0.354 N 
ATOM     49  C   UNL     1       1.431   7.452  -6.798  1.00  0.00     0.074 A 
ATOM     50  C   UNL     1       0.478   6.367  -6.908  1.00  0.00     0.031 C 
ATOM     51  C   UNL     1       1.925   8.293  -0.442  1.00  0.00     0.029 A 
ATOM     52  C   UNL     1       2.659   8.993  -1.491  1.00  0.00     0.049 A 
ATOM     53  H   UNL     1       2.462   8.747  -3.552  1.00  0.00     0.167 HD
ATOM     54  C   UNL     1       2.040   8.052  -7.851  1.00  0.00     0.034 A 
ATOM     55  C   UNL     1       3.603   9.934  -1.284  1.00  0.00     0.034 A 
ATOM     56  C   UNL     1       2.967   9.153  -7.731  1.00  0.00     0.049 A 
ATOM     57  C   UNL     1       4.249  10.594  -2.477  1.00  0.00     0.074 A 
ATOM     58  C   UNL     1       3.562   9.891  -8.741  1.00  0.00     0.029 A 
ATOM     59  N   UNL     1       3.444   9.668  -6.534  1.00  0.00    -0.354 N 
ATOM     60  N   UNL     1       4.042  10.377  -3.755  1.00  0.00    -0.248 NA
ATOM     61  C   UNL     1       5.242  11.640  -2.197  1.00  0.00     0.031 C 
ATOM     62  C   UNL     1       4.451  10.801  -8.158  1.00  0.00     0.029 A 
ATOM     63  C   UNL     1       4.356  10.685  -6.781  1.00  0.00     0.049 A 
ATOM     64  H   UNL     1       3.175   9.358  -5.639  1.00  0.00     0.167 HD
ATOM     65  C   UNL     1       4.860  11.280  -4.429  1.00  0.00     0.074 A 
ATOM     66  C   UNL     1       5.537  12.063  -3.417  1.00  0.00     0.031 C 
ATOM     67  C   UNL     1       5.039  11.448  -5.764  1.00  0.00     0.034 A 
BRANCH  54  68
ATOM     68  C   UNL     1       1.752   7.517  -9.235  1.00  0.00     0.023 A 
ATOM     69  C   UNL     1       0.481   7.622  -9.825  1.00  0.00     0.031 A 
ATOM     70  C   UNL     1       2.780   6.917  -9.986  1.00  0.00     0.131 A 
ATOM     71  C   UNL     1       0.258   7.092 -11.106  1.00  0.00     0.055 A 
ATOM     72  C   UNL     1       2.568   6.453 -11.286  1.00  0.00     0.041 A 
ATOM     73  F   UNL     1       4.010   6.775  -9.468  1.00  0.00    -0.206 F 
ATOM     74  C   UNL     1       1.299   6.531 -11.850  1.00  0.00     0.022 A 
BRANCH  71  75
ATOM     75  S   UNL     1      -1.437   7.061 -11.752  1.00  0.00     0.124 S 
ATOM     76  O   UNL     1      -2.112   6.222 -10.765  1.00  0.00    -0.237 OA
ATOM     77  O   UNL     1      -1.803   8.471 -11.750  1.00  0.00    -0.237 OA
ATOM     78  O   UNL     1      -1.288   6.456 -13.075  1.00  0.00    -0.744 OA
ENDBRANCH  71  75
ENDBRANCH  54  68
BRANCH  55  79
ATOM     79  C   UNL     1       4.013  10.312   0.100  1.00  0.00     0.023 A 
ATOM     80  C   UNL     1       3.830  11.619   0.580  1.00  0.00     0.031 A 
ATOM     81  C   UNL     1       4.666   9.390   0.938  1.00  0.00     0.131 A 
ATOM     82  C   UNL     1       4.351  11.986   1.831  1.00  0.00     0.055 A 
ATOM     83  C   UNL     1       5.129   9.744   2.206  1.00  0.00     0.041 A 
ATOM     84  F   UNL     1       4.863   8.125   0.532  1.00  0.00    -0.206 F 
ATOM     85  C   UNL     1       4.989  11.054   2.652  1.00  0.00     0.022 A 
BRANCH  82  86
ATOM     86  S   UNL     1       4.288  13.733   2.318  1.00  0.00     0.124 S 
ATOM     87  O   UNL     1       4.931  14.382   1.181  1.00  0.00    -0.237 OA
ATOM     88  O   UNL     1       2.853  13.954   2.457  1.00  0.00    -0.237 OA
ATOM     89  O   UNL     1       5.046  13.764   3.567  1.00  0.00    -0.744 OA
ENDBRANCH  82  86
ENDBRANCH  55  79
BRANCH  67  90
ATOM     90  C   UNL     1       5.985  12.545  -6.191  1.00  0.00     0.023 A 
ATOM     91  C   UNL     1       7.359  12.488  -5.895  1.00  0.00     0.031 A 
ATOM     92  C   UNL     1       5.501  13.682  -6.861  1.00  0.00     0.131 A 
ATOM     93  C   UNL     1       8.186  13.579  -6.199  1.00  0.00     0.055 A 
ATOM     94  C   UNL     1       6.342  14.737  -7.221  1.00  0.00     0.041 A 
ATOM     95  F   UNL     1       4.198  13.793  -7.167  1.00  0.00    -0.206 F 
ATOM     96  C   UNL     1       7.689  14.697  -6.874  1.00  0.00     0.022 A 
BRANCH  93  97
ATOM     97  S   UNL     1       9.896  13.568  -5.592  1.00  0.00     0.124 S 
ATOM     98  O   UNL     1       9.707  13.395  -4.156  1.00  0.00    -0.237 OA
ATOM     99  O   UNL     1      10.470  12.430  -6.301  1.00  0.00    -0.237 OA
ATOM    100  O   UNL     1      10.412  14.875  -5.997  1.00  0.00    -0.744 OA
ENDBRANCH  93  97
ENDBRANCH  67  90
ENDBRANCH  41  42
ENDBRANCH  33  36
ENDBRANCH  31  32
ENDBRANCH  30  31
ENDBRANCH  29  30
ENDBRANCH   1  29
TORSDOF 20
