REMARK SMILES CCNC(=O)c1cccc(-c2ccc(Cl)c(C(=O)NCCCCCCNC(=O)c3ccc(-c4c5nc(c(-c6cc(S(=O)(=O)[O-])ccc6F)c6ccc([nH]6)c(-c6cc(S(=O)(=O)[O-])ccc6F)c6nc(c(-c7cc(S(=O)(=O)[O-])ccc7F)c7ccc4[nH]7)C=C6)C=C5)cc3)c2)c1
REMARK SMILES IDX 22 1 21 2 20 3 19 4 17 5 18 6 16 8 11 9 12 10 92 11 13 12
REMARK SMILES IDX 14 13 15 14 10 15 6 16 7 17 93 18 8 19 9 20 4 21 3 22 5 24
REMARK SMILES IDX 2 25 1 26 23 27 24 28 25 29 26 30 27 31 28 33 29 34 30 35
REMARK SMILES IDX 91 36 31 37 90 38 32 39 33 40 34 41 84 42 35 43 89 44 83 45
REMARK SMILES IDX 85 46 36 47 88 48 82 49 81 50 37 52 69 53 49 54 68 55 50 56
REMARK SMILES IDX 53 57 67 58 86 59 51 60 52 61 66 63 87 64 54 65 38 66 39 67
REMARK SMILES IDX 47 68 40 69 46 70 48 71 45 72 41 73 42 74 43 75 44 76 70 77
REMARK SMILES IDX 71 78 79 79 72 80 78 81 80 82 77 83 73 84 74 85 75 86 76 87
REMARK SMILES IDX 55 88 56 89 64 90 57 91 63 92 65 93 62 94 58 95 59 96 60 97
REMARK SMILES IDX 61 98
REMARK H PARENT 19 7 3 23 26 32 85 51 53 62
REMARK Flexibility Score: inf
ROOT
ATOM      1  C   UNL     1      -2.419  -2.411   9.148  1.00  0.00     0.002 C 
ENDROOT
BRANCH   1   2
ATOM      2  C   UNL     1      -3.125  -1.730   7.979  1.00  0.00     0.021 C 
BRANCH   2   3
ATOM      3  C   UNL     1      -2.817  -2.265   6.588  1.00  0.00     0.116 C 
BRANCH   3   4
ATOM      4  N   UNL     1      -3.202  -3.653   6.356  1.00  0.00    -0.352 N 
ATOM      5  C   UNL     1      -3.732  -4.304   5.255  1.00  0.00     0.252 C 
ATOM      6  O   UNL     1      -3.847  -5.525   5.322  1.00  0.00    -0.269 OA
ATOM      7  H   UNL     1      -3.056  -4.240   7.133  1.00  0.00     0.163 HD
BRANCH   5   8
ATOM      8  C   UNL     1      -4.166  -3.570   4.027  1.00  0.00     0.059 A 
ATOM      9  C   UNL     1      -3.979  -1.502   2.710  1.00  0.00    -0.017 A 
ATOM     10  C   UNL     1      -5.079  -1.903   1.950  1.00  0.00     0.010 A 
ATOM     11  C   UNL     1      -3.470  -2.420   3.643  1.00  0.00     0.024 A 
ATOM     12  C   UNL     1      -5.689  -3.139   2.188  1.00  0.00     0.022 A 
ATOM     13  C   UNL     1      -5.266  -3.954   3.249  1.00  0.00     0.053 A 
ATOM     14  Cl  UNL     1      -6.196  -5.383   3.527  1.00  0.00    -0.083 Cl
BRANCH   9  15
ATOM     15  C   UNL     1      -3.416  -0.139   2.649  1.00  0.00    -0.018 A 
ATOM     16  C   UNL     1      -1.494   1.364   2.808  1.00  0.00     0.040 A 
ATOM     17  C   UNL     1      -2.337   2.474   2.763  1.00  0.00     0.014 A 
ATOM     18  C   UNL     1      -2.039   0.076   2.800  1.00  0.00     0.022 A 
ATOM     19  C   UNL     1      -3.712   2.290   2.640  1.00  0.00     0.001 A 
ATOM     20  C   UNL     1      -4.242   0.996   2.568  1.00  0.00     0.009 A 
BRANCH  16  21
ATOM     21  C   UNL     1      -0.038   1.561   2.961  1.00  0.00     0.251 C 
ATOM     22  N   UNL     1       0.855   0.792   2.258  1.00  0.00    -0.352 N 
ATOM     23  H   UNL     1       1.798   0.920   2.512  1.00  0.00     0.163 HD
ATOM     24  O   UNL     1       0.369   2.418   3.740  1.00  0.00    -0.269 OA
BRANCH  22  25
ATOM     25  C   UNL     1       0.639  -0.181   1.200  1.00  0.00     0.112 C 
ATOM     26  C   UNL     1       1.309   0.238  -0.092  1.00  0.00     0.027 C 
ENDBRANCH  22  25
ENDBRANCH  16  21
ENDBRANCH   9  15
ENDBRANCH   5   8
ENDBRANCH   3   4
ENDBRANCH   2   3
ENDBRANCH   1   2
BRANCH   1  27
ATOM     27  C   UNL     1      -0.892  -2.489   9.073  1.00  0.00     0.002 C 
BRANCH  27  28
ATOM     28  C   UNL     1      -0.156  -1.174   8.805  1.00  0.00     0.021 C 
BRANCH  28  29
ATOM     29  C   UNL     1      -0.482  -0.028   9.756  1.00  0.00     0.116 C 
BRANCH  29  30
ATOM     30  N   UNL     1      -0.132  -0.327  11.134  1.00  0.00    -0.352 N 
ATOM     31  C   UNL     1       0.636   0.403  12.012  1.00  0.00     0.251 C 
ATOM     32  H   UNL     1      -0.495  -1.171  11.490  1.00  0.00     0.163 HD
ATOM     33  O   UNL     1       0.974  -0.086  13.081  1.00  0.00    -0.269 OA
BRANCH  31  34
ATOM     34  C   UNL     1       1.069   1.770  11.641  1.00  0.00     0.039 A 
ATOM     35  C   UNL     1       2.399   2.145  11.851  1.00  0.00     0.014 A 
ATOM     36  C   UNL     1       0.165   2.676  11.081  1.00  0.00     0.014 A 
ATOM     37  C   UNL     1       2.836   3.408  11.440  1.00  0.00     0.010 A 
ATOM     38  C   UNL     1       0.619   3.901  10.603  1.00  0.00     0.010 A 
ATOM     39  C   UNL     1       1.958   4.285  10.784  1.00  0.00    -0.014 A 
BRANCH  39  40
ATOM     40  C   UNL     1       2.391   5.626  10.310  1.00  0.00     0.031 A 
ATOM     41  C   UNL     1       1.752   6.857  10.892  1.00  0.00     0.074 A 
ATOM     42  C   UNL     1       3.289   5.738   9.312  1.00  0.00     0.049 A 
ATOM     43  N   UNL     1       1.865   8.107  10.523  1.00  0.00    -0.248 NA
ATOM     44  C   UNL     1       0.834   6.643  12.020  1.00  0.00     0.031 C 
ATOM     45  C   UNL     1       3.970   4.619   8.658  1.00  0.00     0.029 A 
ATOM     46  N   UNL     1       3.772   6.846   8.661  1.00  0.00    -0.354 N 
ATOM     47  C   UNL     1       1.017   8.826  11.360  1.00  0.00     0.074 A 
ATOM     48  C   UNL     1       0.347   7.859  12.205  1.00  0.00     0.031 C 
ATOM     49  C   UNL     1       4.795   5.100   7.714  1.00  0.00     0.029 A 
ATOM     50  C   UNL     1       4.660   6.552   7.652  1.00  0.00     0.049 A 
ATOM     51  H   UNL     1       3.507   7.765   8.894  1.00  0.00     0.167 HD
ATOM     52  C   UNL     1       0.831  10.168  11.432  1.00  0.00     0.034 A 
ATOM     53  C   UNL     1       5.276   7.359   6.764  1.00  0.00     0.034 A 
ATOM     54  C   UNL     1       1.510  11.114  10.580  1.00  0.00     0.049 A 
ATOM     55  C   UNL     1       5.008   8.843   6.816  1.00  0.00     0.074 A 
ATOM     56  C   UNL     1       1.424  12.495  10.584  1.00  0.00     0.029 A 
ATOM     57  N   UNL     1       2.395  10.776   9.563  1.00  0.00    -0.354 N 
ATOM     58  N   UNL     1       4.218   9.513   7.624  1.00  0.00    -0.248 NA
ATOM     59  C   UNL     1       5.718   9.680   5.841  1.00  0.00     0.031 C 
ATOM     60  C   UNL     1       2.193  12.986   9.525  1.00  0.00     0.029 A 
ATOM     61  C   UNL     1       2.837  11.920   8.916  1.00  0.00     0.049 A 
ATOM     62  H   UNL     1       2.668   9.858   9.335  1.00  0.00     0.167 HD
ATOM     63  C   UNL     1       4.376  10.854   7.284  1.00  0.00     0.074 A 
ATOM     64  C   UNL     1       5.330  10.897   6.196  1.00  0.00     0.031 C 
ATOM     65  C   UNL     1       3.795  11.951   7.834  1.00  0.00     0.034 A 
BRANCH  52  66
ATOM     66  C   UNL     1      -0.172  10.673  12.444  1.00  0.00     0.023 A 
ATOM     67  C   UNL     1      -0.020  10.425  13.821  1.00  0.00     0.031 A 
ATOM     68  C   UNL     1      -1.325  11.362  12.028  1.00  0.00     0.131 A 
ATOM     69  C   UNL     1      -1.046  10.768  14.713  1.00  0.00     0.055 A 
ATOM     70  C   UNL     1      -2.296  11.791  12.935  1.00  0.00     0.041 A 
ATOM     71  F   UNL     1      -1.541  11.612  10.727  1.00  0.00    -0.206 F 
ATOM     72  C   UNL     1      -2.171  11.475  14.285  1.00  0.00     0.022 A 
BRANCH  69  73
ATOM     73  S   UNL     1      -0.976  10.109  16.402  1.00  0.00     0.124 S 
ATOM     74  O   UNL     1      -0.905   8.671  16.154  1.00  0.00    -0.237 OA
ATOM     75  O   UNL     1       0.234  10.727  16.931  1.00  0.00    -0.237 OA
ATOM     76  O   UNL     1      -2.227  10.568  17.002  1.00  0.00    -0.744 OA
ENDBRANCH  69  73
ENDBRANCH  52  66
BRANCH  53  77
ATOM     77  C   UNL     1       6.202   6.787   5.744  1.00  0.00     0.023 A 
ATOM     78  C   UNL     1       7.569   7.109   5.751  1.00  0.00     0.031 A 
ATOM     79  C   UNL     1       5.732   5.937   4.727  1.00  0.00     0.131 A 
ATOM     80  C   UNL     1       8.409   6.620   4.739  1.00  0.00     0.055 A 
ATOM     81  C   UNL     1       6.582   5.407   3.755  1.00  0.00     0.041 A 
ATOM     82  F   UNL     1       4.435   5.597   4.673  1.00  0.00    -0.206 F 
ATOM     83  C   UNL     1       7.929   5.758   3.751  1.00  0.00     0.022 A 
BRANCH  80  84
ATOM     84  S   UNL     1      10.129   7.193   4.684  1.00  0.00     0.124 S 
ATOM     85  O   UNL     1       9.956   8.634   4.546  1.00  0.00    -0.237 OA
ATOM     86  O   UNL     1      10.646   6.727   5.967  1.00  0.00    -0.237 OA
ATOM     87  O   UNL     1      10.677   6.515   3.511  1.00  0.00    -0.744 OA
ENDBRANCH  80  84
ENDBRANCH  53  77
BRANCH  65  88
ATOM     88  C   UNL     1       4.236  13.303   7.324  1.00  0.00     0.023 A 
ATOM     89  C   UNL     1       3.947  13.748   6.023  1.00  0.00     0.031 A 
ATOM     90  C   UNL     1       4.943  14.170   8.178  1.00  0.00     0.131 A 
ATOM     91  C   UNL     1       4.398  15.009   5.601  1.00  0.00     0.055 A 
ATOM     92  C   UNL     1       5.335  15.445   7.773  1.00  0.00     0.041 A 
ATOM     93  F   UNL     1       5.251  13.794   9.431  1.00  0.00    -0.206 F 
ATOM     94  C   UNL     1       5.072  15.868   6.474  1.00  0.00     0.022 A 
BRANCH  91  95
ATOM     95  S   UNL     1       4.159  15.490   3.868  1.00  0.00     0.124 S 
ATOM     96  O   UNL     1       4.878  14.436   3.159  1.00  0.00    -0.237 OA
ATOM     97  O   UNL     1       2.706  15.471   3.735  1.00  0.00    -0.237 OA
ATOM     98  O   UNL     1       4.769  16.816   3.792  1.00  0.00    -0.744 OA
ENDBRANCH  91  95
ENDBRANCH  65  88
ENDBRANCH  39  40
ENDBRANCH  31  34
ENDBRANCH  29  30
ENDBRANCH  28  29
ENDBRANCH  27  28
ENDBRANCH   1  27
TORSDOF 19
