REMARK SMILES O=C(NCCCCCCNC(=O)c1[nH]ncc1C[N@H+]1CCC[C@@H](C(=O)c2ccc(Oc3ccccc3)cc2)C1)c1ccc(-c2c3nc(c(-c4cc(S(=O)(=O)[O-])ccc4F)c4ccc([nH]4)c(-c4cc(S(=O)(=O)[O-])ccc4F)c4nc(c(-c5cc(S(=O)(=O)[O-])ccc5F)c5ccc2[nH]5)C=C4)C=C3)cc1
REMARK SMILES IDX 8 1 7 2 6 3 5 4 4 5 3 6 1 7 2 8 40 10 41 11 102 12 42 13
REMARK SMILES IDX 101 14 43 15 44 16 45 17 95 18 46 19 100 20 94 21 96 22
REMARK SMILES IDX 47 23 99 24 93 25 92 26 48 28 80 29 60 30 79 31 61 32 64 33
REMARK SMILES IDX 78 34 97 35 62 36 63 37 77 39 98 40 65 41 49 42 50 43 58 44
REMARK SMILES IDX 51 45 57 46 59 47 56 48 52 49 53 50 54 51 55 52 81 53 82 54
REMARK SMILES IDX 90 55 83 56 89 57 91 58 88 59 84 60 85 61 86 62 87 63 66 64
REMARK SMILES IDX 67 65 75 66 68 67 74 68 76 69 73 70 69 71 70 72 71 73 72 74
REMARK SMILES IDX 9 75 10 76 11 77 12 79 13 80 14 81 17 82 15 83 16 85 18 86
REMARK SMILES IDX 19 87 20 88 39 89 21 91 23 92 22 93 24 94 25 95 26 96 27 97
REMARK SMILES IDX 38 98 28 99 37 100 29 101 30 102 31 103 32 104 36 105 33 106
REMARK SMILES IDX 35 107 34 108
REMARK H PARENT 3 9 96 27 64 38 10 78 14 84 19 90
REMARK Flexibility Score: inf
ROOT
ATOM      1  C   UNL     1       6.070   3.165  -3.015  1.00  0.00     0.021 C 
ENDROOT
BRANCH   1   2
ATOM      2  C   UNL     1       4.560   2.989  -3.189  1.00  0.00     0.002 C 
BRANCH   2   3
ATOM      3  C   UNL     1       4.093   1.597  -3.626  1.00  0.00     0.002 C 
BRANCH   3   4
ATOM      4  C   UNL     1       4.607   0.429  -2.786  1.00  0.00     0.021 C 
BRANCH   4   5
ATOM      5  C   UNL     1       4.370   0.554  -1.290  1.00  0.00     0.116 C 
BRANCH   5   6
ATOM      6  N   UNL     1       2.961   0.586  -0.934  1.00  0.00    -0.352 N 
ATOM      7  O   UNL     1       1.084  -0.086   0.129  1.00  0.00    -0.269 OA
ATOM      8  C   UNL     1       2.306  -0.140   0.034  1.00  0.00     0.251 C 
ATOM      9  H   UNL     1       2.402   1.209  -1.453  1.00  0.00     0.163 HD
BRANCH   8  10
ATOM     10  C   UNL     1       3.093  -1.007   0.940  1.00  0.00     0.039 A 
ATOM     11  C   UNL     1       4.273  -0.531   1.513  1.00  0.00     0.014 A 
ATOM     12  C   UNL     1       2.668  -2.315   1.189  1.00  0.00     0.014 A 
ATOM     13  C   UNL     1       5.108  -1.407   2.191  1.00  0.00     0.010 A 
ATOM     14  C   UNL     1       3.460  -3.165   1.971  1.00  0.00     0.010 A 
ATOM     15  C   UNL     1       4.702  -2.726   2.456  1.00  0.00    -0.014 A 
BRANCH  15  16
ATOM     16  C   UNL     1       5.573  -3.574   3.312  1.00  0.00     0.031 A 
ATOM     17  C   UNL     1       6.213  -4.832   2.792  1.00  0.00     0.074 A 
ATOM     18  C   UNL     1       5.838  -3.143   4.562  1.00  0.00     0.049 A 
ATOM     19  N   UNL     1       7.048  -5.638   3.397  1.00  0.00    -0.248 NA
ATOM     20  C   UNL     1       5.866  -5.245   1.425  1.00  0.00     0.031 C 
ATOM     21  C   UNL     1       5.255  -1.943   5.174  1.00  0.00     0.029 A 
ATOM     22  N   UNL     1       6.681  -3.626   5.528  1.00  0.00    -0.354 N 
ATOM     23  C   UNL     1       7.328  -6.655   2.490  1.00  0.00     0.074 A 
ATOM     24  C   UNL     1       6.536  -6.384   1.307  1.00  0.00     0.031 C 
ATOM     25  C   UNL     1       5.809  -1.747   6.377  1.00  0.00     0.029 A 
ATOM     26  C   UNL     1       6.718  -2.849   6.663  1.00  0.00     0.049 A 
ATOM     27  H   UNL     1       7.208  -4.450   5.421  1.00  0.00     0.167 HD
ATOM     28  C   UNL     1       8.174  -7.707   2.631  1.00  0.00     0.034 A 
ATOM     29  C   UNL     1       7.390  -3.011   7.818  1.00  0.00     0.034 A 
ATOM     30  C   UNL     1       8.947  -7.964   3.826  1.00  0.00     0.049 A 
ATOM     31  C   UNL     1       8.298  -4.202   7.955  1.00  0.00     0.074 A 
ATOM     32  C   UNL     1       9.831  -9.001   4.076  1.00  0.00     0.029 A 
ATOM     33  N   UNL     1       8.928  -7.180   4.974  1.00  0.00    -0.354 N 
ATOM     34  N   UNL     1       8.553  -5.149   7.080  1.00  0.00    -0.248 NA
ATOM     35  C   UNL     1       9.014  -4.342   9.226  1.00  0.00     0.031 C 
ATOM     36  C   UNL     1      10.295  -8.879   5.391  1.00  0.00     0.029 A 
ATOM     37  C   UNL     1       9.764  -7.723   5.940  1.00  0.00     0.049 A 
ATOM     38  H   UNL     1       8.397  -6.359   5.086  1.00  0.00     0.167 HD
ATOM     39  C   UNL     1       9.467  -5.995   7.699  1.00  0.00     0.074 A 
ATOM     40  C   UNL     1       9.750  -5.418   8.998  1.00  0.00     0.031 C 
ATOM     41  C   UNL     1      10.015  -7.150   7.242  1.00  0.00     0.034 A 
BRANCH  28  42
ATOM     42  C   UNL     1       8.281  -8.679   1.478  1.00  0.00     0.023 A 
ATOM     43  C   UNL     1       8.807  -8.292   0.233  1.00  0.00     0.031 A 
ATOM     44  C   UNL     1       7.858 -10.012   1.625  1.00  0.00     0.131 A 
ATOM     45  C   UNL     1       8.846  -9.210  -0.830  1.00  0.00     0.055 A 
ATOM     46  C   UNL     1       7.966 -10.940   0.587  1.00  0.00     0.041 A 
ATOM     47  F   UNL     1       7.328 -10.437   2.784  1.00  0.00    -0.206 F 
ATOM     48  C   UNL     1       8.452 -10.538  -0.653  1.00  0.00     0.022 A 
BRANCH  45  49
ATOM     49  S   UNL     1       9.309  -8.612  -2.479  1.00  0.00     0.124 S 
ATOM     50  O   UNL     1       8.290  -7.594  -2.722  1.00  0.00    -0.237 OA
ATOM     51  O   UNL     1      10.665  -8.119  -2.268  1.00  0.00    -0.237 OA
ATOM     52  O   UNL     1       9.203  -9.803  -3.319  1.00  0.00    -0.744 OA
ENDBRANCH  45  49
ENDBRANCH  28  42
BRANCH  29  53
ATOM     53  C   UNL     1       7.192  -2.055   8.945  1.00  0.00     0.023 A 
ATOM     54  C   UNL     1       8.257  -1.300   9.460  1.00  0.00     0.031 A 
ATOM     55  C   UNL     1       5.930  -1.913   9.553  1.00  0.00     0.131 A 
ATOM     56  C   UNL     1       8.053  -0.479  10.579  1.00  0.00     0.055 A 
ATOM     57  C   UNL     1       5.717  -1.044  10.622  1.00  0.00     0.041 A 
ATOM     58  F   UNL     1       4.876  -2.610   9.100  1.00  0.00    -0.206 F 
ATOM     59  C   UNL     1       6.787  -0.333  11.153  1.00  0.00     0.022 A 
BRANCH  56  60
ATOM     60  S   UNL     1       9.491   0.315  11.346  1.00  0.00     0.124 S 
ATOM     61  O   UNL     1      10.362  -0.827  11.600  1.00  0.00    -0.237 OA
ATOM     62  O   UNL     1       9.925   1.232  10.297  1.00  0.00    -0.237 OA
ATOM     63  O   UNL     1       8.933   0.952  12.537  1.00  0.00    -0.744 OA
ENDBRANCH  56  60
ENDBRANCH  29  53
BRANCH  41  64
ATOM     64  C   UNL     1      10.991  -7.840   8.164  1.00  0.00     0.023 A 
ATOM     65  C   UNL     1      10.583  -8.365   9.404  1.00  0.00     0.031 A 
ATOM     66  C   UNL     1      12.353  -7.920   7.829  1.00  0.00     0.131 A 
ATOM     67  C   UNL     1      11.538  -8.871  10.297  1.00  0.00     0.055 A 
ATOM     68  C   UNL     1      13.289  -8.491   8.692  1.00  0.00     0.041 A 
ATOM     69  F   UNL     1      12.800  -7.433   6.660  1.00  0.00    -0.206 F 
ATOM     70  C   UNL     1      12.887  -8.953   9.943  1.00  0.00     0.022 A 
BRANCH  67  71
ATOM     71  S   UNL     1      11.011  -9.301  11.979  1.00  0.00     0.124 S 
ATOM     72  O   UNL     1      10.430  -8.046  12.443  1.00  0.00    -0.237 OA
ATOM     73  O   UNL     1      10.071 -10.390  11.742  1.00  0.00    -0.237 OA
ATOM     74  O   UNL     1      12.257  -9.689  12.639  1.00  0.00    -0.744 OA
ENDBRANCH  67  71
ENDBRANCH  41  64
ENDBRANCH  15  16
ENDBRANCH   8  10
ENDBRANCH   5   6
ENDBRANCH   4   5
ENDBRANCH   3   4
ENDBRANCH   2   3
ENDBRANCH   1   2
BRANCH   1  75
ATOM     75  C   UNL     1       6.912   2.719  -4.203  1.00  0.00     0.116 C 
BRANCH  75  76
ATOM     76  N   UNL     1       6.622   3.476  -5.410  1.00  0.00    -0.351 N 
ATOM     77  C   UNL     1       7.497   4.128  -6.235  1.00  0.00     0.269 C 
ATOM     78  H   UNL     1       5.673   3.527  -5.666  1.00  0.00     0.163 HD
ATOM     79  O   UNL     1       7.051   4.894  -7.094  1.00  0.00    -0.268 OA
BRANCH  77  80
ATOM     80  C   UNL     1       8.899   3.952  -6.016  1.00  0.00     0.131 A 
ATOM     81  N   UNL     1       9.753   5.015  -5.928  1.00  0.00    -0.272 N 
ATOM     82  C   UNL     1       9.693   2.819  -5.877  1.00  0.00     0.057 A 
ATOM     83  N   UNL     1      10.990   4.684  -5.534  1.00  0.00    -0.183 NA
ATOM     84  H   UNL     1       9.484   5.939  -6.135  1.00  0.00     0.190 HD
ATOM     85  C   UNL     1      10.952   3.351  -5.493  1.00  0.00     0.145 A 
BRANCH  82  86
ATOM     86  C   UNL     1       9.291   1.379  -6.024  1.00  0.00     0.303 C 
BRANCH  86  87
ATOM     87  N   UNL     1       9.896   0.688  -7.173  1.00  0.00    -0.330 N 
ATOM     88  C   UNL     1       9.579   1.316  -8.459  1.00  0.00     0.262 C 
ATOM     89  C   UNL     1      11.328   0.454  -6.983  1.00  0.00     0.274 C 
ATOM     90  H   UNL     1       9.459  -0.232  -7.215  1.00  0.00     0.348 HD
ATOM     91  C   UNL     1      10.155   0.512  -9.626  1.00  0.00     0.062 C 
ATOM     92  C   UNL     1      11.970  -0.336  -8.126  1.00  0.00     0.116 C 
ATOM     93  C   UNL     1      11.661   0.320  -9.471  1.00  0.00     0.023 C 
BRANCH  92  94
ATOM     94  C   UNL     1      13.467  -0.348  -7.856  1.00  0.00     0.171 C 
ATOM     95  O   UNL     1      14.106   0.655  -7.548  1.00  0.00    -0.294 OA
BRANCH  94  96
ATOM     96  C   UNL     1      14.181  -1.633  -7.943  1.00  0.00     0.018 A 
ATOM     97  C   UNL     1      15.043  -1.998  -6.906  1.00  0.00     0.015 A 
ATOM     98  C   UNL     1      14.030  -2.447  -9.065  1.00  0.00     0.015 A 
ATOM     99  C   UNL     1      15.773  -3.182  -7.003  1.00  0.00     0.048 A 
ATOM    100  C   UNL     1      14.763  -3.628  -9.156  1.00  0.00     0.048 A 
ATOM    101  C   UNL     1      15.656  -3.988  -8.139  1.00  0.00     0.127 A 
BRANCH 101 102
ATOM    102  O   UNL     1      16.459  -5.111  -8.150  1.00  0.00    -0.457 OA
BRANCH 102 103
ATOM    103  C   UNL     1      16.494  -5.856  -9.301  1.00  0.00     0.127 A 
ATOM    104  C   UNL     1      15.901  -7.117  -9.282  1.00  0.00     0.047 A 
ATOM    105  C   UNL     1      17.122  -5.378 -10.453  1.00  0.00     0.047 A 
ATOM    106  C   UNL     1      15.884  -7.884 -10.445  1.00  0.00     0.004 A 
ATOM    107  C   UNL     1      17.092  -6.143 -11.618  1.00  0.00     0.004 A 
ATOM    108  C   UNL     1      16.469  -7.392 -11.615  1.00  0.00     0.000 A 
ENDBRANCH 102 103
ENDBRANCH 101 102
ENDBRANCH  94  96
ENDBRANCH  92  94
ENDBRANCH  86  87
ENDBRANCH  82  86
ENDBRANCH  77  80
ENDBRANCH  75  76
ENDBRANCH   1  75
TORSDOF 22
