REMARK SMILES N#C/C(=C/c1cc(Br)ccc1OCC(=O)NCCCCCCNC(=O)c1ccc(-c2c3nc(c(-c4cc(S(=O)(=O)[O-])ccc4F)c4ccc([nH]4)c(-c4cc(S(=O)(=O)[O-])ccc4F)c4nc(c(-c5cc(S(=O)(=O)[O-])ccc5F)c5ccc2[nH]5)C=C4)C=C3)cc1)c1ccc(F)cc1
REMARK SMILES IDX 19 1 18 2 17 3 16 4 14 5 15 6 13 8 12 9 11 10 5 11 6 12 7 13
REMARK SMILES IDX 10 14 8 15 9 16 4 17 3 18 2 19 1 20 89 21 90 22 95 23 91 24
REMARK SMILES IDX 94 25 92 26 93 27 20 28 21 29 22 30 23 31 24 32 25 34 26 35
REMARK SMILES IDX 27 36 88 37 28 38 87 39 29 40 30 41 31 42 81 43 32 44 86 45
REMARK SMILES IDX 80 46 82 47 33 48 85 49 79 50 78 51 34 53 66 54 46 55 65 56
REMARK SMILES IDX 47 57 50 58 64 59 83 60 48 61 49 62 63 64 84 65 51 66 35 67
REMARK SMILES IDX 36 68 44 69 37 70 43 71 45 72 42 73 38 74 39 75 40 76 41 77
REMARK SMILES IDX 67 78 68 79 76 80 69 81 75 82 77 83 74 84 70 85 71 86 72 87
REMARK SMILES IDX 73 88 52 89 53 90 61 91 54 92 60 93 62 94 59 95 55 96 56 97
REMARK SMILES IDX 57 98 58 99
REMARK H PARENT 16 7 23 33 82 52 50 63
REMARK Flexibility Score: inf
ROOT
ATOM      1  C   UNL     1       6.144   3.405  -5.690  1.00  0.00     0.002 C 
ENDROOT
BRANCH   1   2
ATOM      2  C   UNL     1       6.593   3.907  -4.312  1.00  0.00     0.021 C 
BRANCH   2   3
ATOM      3  C   UNL     1       5.528   4.645  -3.505  1.00  0.00     0.116 C 
BRANCH   3   4
ATOM      4  N   UNL     1       4.340   3.851  -3.285  1.00  0.00    -0.353 N 
ATOM      5  C   UNL     1       3.810   3.446  -2.101  1.00  0.00     0.257 C 
ATOM      6  O   UNL     1       2.665   2.986  -2.100  1.00  0.00    -0.271 OA
ATOM      7  H   UNL     1       3.854   3.570  -4.094  1.00  0.00     0.163 HD
BRANCH   5   8
ATOM      8  C   UNL     1       4.619   3.570  -0.802  1.00  0.00     0.329 C 
BRANCH   8   9
ATOM      9  O   UNL     1       6.007   3.310  -0.806  1.00  0.00    -0.483 OA
BRANCH   9  10
ATOM     10  C   UNL     1       6.559   2.074  -0.981  1.00  0.00     0.127 A 
ATOM     11  C   UNL     1       5.949   0.822  -1.179  1.00  0.00     0.019 A 
ATOM     12  C   UNL     1       6.761  -0.318  -1.355  1.00  0.00     0.027 A 
ATOM     13  C   UNL     1       8.149  -0.227  -1.261  1.00  0.00     0.018 A 
ATOM     14  C   UNL     1       7.963   2.140  -0.919  1.00  0.00     0.048 A 
ATOM     15  Br  UNL     1       9.204  -1.791  -1.367  1.00  0.00    -0.051 Br
ATOM     16  C   UNL     1       8.757   1.000  -1.040  1.00  0.00     0.019 A 
BRANCH  11  17
ATOM     17  C   UNL     1       4.498   0.616  -1.087  1.00  0.00     0.032 C 
ATOM     18  C   UNL     1       3.845   0.061  -0.046  1.00  0.00     0.060 C 
BRANCH  18  19
ATOM     19  C   UNL     1       2.325   0.061  -0.046  1.00  0.00     0.100 C 
ATOM     20  N   UNL     1       1.064   0.061  -0.046  1.00  0.00    -0.192 NA
ENDBRANCH  18  19
BRANCH  18  21
ATOM     21  C   UNL     1       4.542  -0.795   0.949  1.00  0.00    -0.008 A 
ATOM     22  C   UNL     1       5.606  -0.333   1.739  1.00  0.00     0.012 A 
ATOM     23  C   UNL     1       4.235  -2.170   0.965  1.00  0.00     0.012 A 
ATOM     24  C   UNL     1       6.396  -1.237   2.458  1.00  0.00     0.040 A 
ATOM     25  C   UNL     1       5.013  -3.067   1.699  1.00  0.00     0.040 A 
ATOM     26  C   UNL     1       6.099  -2.594   2.421  1.00  0.00     0.123 A 
ATOM     27  F   UNL     1       6.882  -3.462   3.075  1.00  0.00    -0.207 F 
ENDBRANCH  18  21
ENDBRANCH  11  17
ENDBRANCH   9  10
ENDBRANCH   8   9
ENDBRANCH   5   8
ENDBRANCH   3   4
ENDBRANCH   2   3
ENDBRANCH   1   2
BRANCH   1  28
ATOM     28  C   UNL     1       5.426   4.429  -6.573  1.00  0.00     0.002 C 
BRANCH  28  29
ATOM     29  C   UNL     1       6.162   5.754  -6.776  1.00  0.00     0.021 C 
BRANCH  29  30
ATOM     30  C   UNL     1       7.553   5.627  -7.381  1.00  0.00     0.116 C 
BRANCH  30  31
ATOM     31  N   UNL     1       7.515   5.105  -8.735  1.00  0.00    -0.352 N 
ATOM     32  C   UNL     1       8.035   5.646  -9.887  1.00  0.00     0.251 C 
ATOM     33  H   UNL     1       7.053   4.243  -8.843  1.00  0.00     0.163 HD
ATOM     34  O   UNL     1       7.728   5.173 -10.974  1.00  0.00    -0.269 OA
BRANCH  32  35
ATOM     35  C   UNL     1       8.939   6.816  -9.804  1.00  0.00     0.039 A 
ATOM     36  C   UNL     1       8.757   7.876 -10.695  1.00  0.00     0.014 A 
ATOM     37  C   UNL     1       9.958   6.871  -8.849  1.00  0.00     0.014 A 
ATOM     38  C   UNL     1       9.558   9.015 -10.587  1.00  0.00     0.010 A 
ATOM     39  C   UNL     1      10.699   8.039  -8.690  1.00  0.00     0.010 A 
ATOM     40  C   UNL     1      10.512   9.123  -9.562  1.00  0.00    -0.014 A 
BRANCH  40  41
ATOM     41  C   UNL     1      11.329  10.354  -9.394  1.00  0.00     0.031 A 
ATOM     42  C   UNL     1      12.826  10.291  -9.544  1.00  0.00     0.074 A 
ATOM     43  C   UNL     1      10.731  11.515  -9.059  1.00  0.00     0.049 A 
ATOM     44  N   UNL     1      13.716  11.235  -9.370  1.00  0.00    -0.248 NA
ATOM     45  C   UNL     1      13.398   8.987  -9.909  1.00  0.00     0.031 C 
ATOM     46  C   UNL     1       9.292  11.694  -8.854  1.00  0.00     0.029 A 
ATOM     47  N   UNL     1      11.255  12.762  -8.825  1.00  0.00    -0.354 N 
ATOM     48  C   UNL     1      14.952  10.638  -9.597  1.00  0.00     0.074 A 
ATOM     49  C   UNL     1      14.698   9.236  -9.851  1.00  0.00     0.031 C 
ATOM     50  C   UNL     1       9.047  12.981  -8.558  1.00  0.00     0.029 A 
ATOM     51  C   UNL     1      10.311  13.708  -8.496  1.00  0.00     0.049 A 
ATOM     52  H   UNL     1      12.217  12.962  -8.888  1.00  0.00     0.167 HD
ATOM     53  C   UNL     1      16.181  11.210  -9.618  1.00  0.00     0.034 A 
ATOM     54  C   UNL     1      10.447  15.008  -8.167  1.00  0.00     0.034 A 
ATOM     55  C   UNL     1      16.416  12.612  -9.367  1.00  0.00     0.049 A 
ATOM     56  C   UNL     1      11.830  15.612  -8.150  1.00  0.00     0.074 A 
ATOM     57  C   UNL     1      17.613  13.305  -9.406  1.00  0.00     0.029 A 
ATOM     58  N   UNL     1      15.437  13.535  -9.021  1.00  0.00    -0.354 N 
ATOM     59  N   UNL     1      12.985  15.043  -8.412  1.00  0.00    -0.248 NA
ATOM     60  C   UNL     1      11.927  17.035  -7.802  1.00  0.00     0.031 C 
ATOM     61  C   UNL     1      17.372  14.623  -9.007  1.00  0.00     0.029 A 
ATOM     62  C   UNL     1      16.009  14.780  -8.808  1.00  0.00     0.049 A 
ATOM     63  H   UNL     1      14.476  13.335  -8.940  1.00  0.00     0.167 HD
ATOM     64  C   UNL     1      13.939  16.050  -8.296  1.00  0.00     0.074 A 
ATOM     65  C   UNL     1      13.223  17.262  -7.955  1.00  0.00     0.031 C 
ATOM     66  C   UNL     1      15.286  15.981  -8.460  1.00  0.00     0.034 A 
BRANCH  53  67
ATOM     67  C   UNL     1      17.364  10.311  -9.895  1.00  0.00     0.023 A 
ATOM     68  C   UNL     1      17.495   9.614 -11.109  1.00  0.00     0.031 A 
ATOM     69  C   UNL     1      18.365  10.130  -8.924  1.00  0.00     0.131 A 
ATOM     70  C   UNL     1      18.553   8.711 -11.290  1.00  0.00     0.055 A 
ATOM     71  C   UNL     1      19.465   9.298  -9.145  1.00  0.00     0.041 A 
ATOM     72  F   UNL     1      18.286  10.748  -7.735  1.00  0.00    -0.206 F 
ATOM     73  C   UNL     1      19.555   8.569 -10.328  1.00  0.00     0.022 A 
BRANCH  70  74
ATOM     74  S   UNL     1      18.515   7.612 -12.731  1.00  0.00     0.124 S 
ATOM     75  O   UNL     1      17.242   6.919 -12.539  1.00  0.00    -0.237 OA
ATOM     76  O   UNL     1      18.570   8.550 -13.846  1.00  0.00    -0.237 OA
ATOM     77  O   UNL     1      19.702   6.777 -12.557  1.00  0.00    -0.744 OA
ENDBRANCH  70  74
ENDBRANCH  53  67
BRANCH  54  78
ATOM     78  C   UNL     1       9.254  15.831  -7.813  1.00  0.00     0.023 A 
ATOM     79  C   UNL     1       8.890  16.947  -8.584  1.00  0.00     0.031 A 
ATOM     80  C   UNL     1       8.489  15.546  -6.667  1.00  0.00     0.131 A 
ATOM     81  C   UNL     1       7.828  17.767  -8.170  1.00  0.00     0.055 A 
ATOM     82  C   UNL     1       7.395  16.329  -6.295  1.00  0.00     0.041 A 
ATOM     83  F   UNL     1       8.792  14.491  -5.894  1.00  0.00    -0.206 F 
ATOM     84  C   UNL     1       7.069  17.457  -7.040  1.00  0.00     0.022 A 
BRANCH  81  85
ATOM     85  S   UNL     1       7.520  19.309  -9.075  1.00  0.00     0.124 S 
ATOM     86  O   UNL     1       8.806  19.986  -8.953  1.00  0.00    -0.237 OA
ATOM     87  O   UNL     1       7.177  18.816 -10.405  1.00  0.00    -0.237 OA
ATOM     88  O   UNL     1       6.419  19.922  -8.336  1.00  0.00    -0.744 OA
ENDBRANCH  81  85
ENDBRANCH  54  78
BRANCH  66  89
ATOM     89  C   UNL     1      16.064  17.269  -8.325  1.00  0.00     0.023 A 
ATOM     90  C   UNL     1      16.151  17.961  -7.104  1.00  0.00     0.031 A 
ATOM     91  C   UNL     1      16.723  17.815  -9.441  1.00  0.00     0.131 A 
ATOM     92  C   UNL     1      16.829  19.188  -7.043  1.00  0.00     0.055 A 
ATOM     93  C   UNL     1      17.454  19.001  -9.357  1.00  0.00     0.041 A 
ATOM     94  F   UNL     1      16.671  17.201 -10.634  1.00  0.00    -0.206 F 
ATOM     95  C   UNL     1      17.498  19.702  -8.156  1.00  0.00     0.022 A 
BRANCH  92  96
ATOM     96  S   UNL     1      16.738  20.157  -5.512  1.00  0.00     0.124 S 
ATOM     97  O   UNL     1      15.299  20.338  -5.353  1.00  0.00    -0.237 OA
ATOM     98  O   UNL     1      17.379  19.273  -4.544  1.00  0.00    -0.237 OA
ATOM     99  O   UNL     1      17.485  21.372  -5.830  1.00  0.00    -0.744 OA
ENDBRANCH  92  96
ENDBRANCH  66  89
ENDBRANCH  40  41
ENDBRANCH  32  35
ENDBRANCH  30  31
ENDBRANCH  29  30
ENDBRANCH  28  29
ENDBRANCH   1  28
TORSDOF 21
