REMARK SMILES O=C(NCCCCCCNC(=O)[C@@H]1CCCN(c2ccc3cc(S(=O)(=O)N4CCCCC4)ccc3n2)C1)c1ccc(-c2c3nc(c(-c4cc(S(=O)(=O)[O-])ccc4F)c4ccc([nH]4)c(-c4cc(S(=O)(=O)[O-])ccc4F)c4nc(c(-c5cc(S(=O)(=O)[O-])ccc5F)c5ccc2[nH]5)C=C4)C=C3)cc1
REMARK SMILES IDX 6 1 5 2 4 3 3 4 1 5 2 6 38 8 39 9 100 10 40 11 99 12 41 13
REMARK SMILES IDX 42 14 43 15 93 16 44 17 98 18 92 19 94 20 45 21 97 22 91 23
REMARK SMILES IDX 90 24 46 26 78 27 58 28 77 29 59 30 62 31 76 32 95 33 60 34
REMARK SMILES IDX 61 35 75 37 96 38 63 39 47 40 48 41 56 42 49 43 55 44 57 45
REMARK SMILES IDX 54 46 50 47 51 48 52 49 53 50 79 51 80 52 88 53 81 54 87 55
REMARK SMILES IDX 89 56 86 57 82 58 83 59 84 60 85 61 64 62 65 63 73 64 66 65
REMARK SMILES IDX 72 66 74 67 71 68 67 69 68 70 69 71 70 72 7 73 8 74 9 75
REMARK SMILES IDX 10 76 11 77 12 79 13 80 14 81 37 82 15 83 17 84 16 85 18 86
REMARK SMILES IDX 19 87 36 88 20 89 35 90 21 91 34 92 22 93 33 94 23 95 24 96
REMARK SMILES IDX 25 97 26 98 27 99 28 100 32 101 29 102 31 103 30 104
REMARK H PARENT 3 7 94 25 62 36 10 78
REMARK Flexibility Score: inf
ROOT
ATOM      1  C   UNL     1       3.735  -3.580  -1.369  1.00  0.00     0.002 C 
ENDROOT
BRANCH   1   2
ATOM      2  C   UNL     1       4.274  -2.618  -0.308  1.00  0.00     0.021 C 
BRANCH   2   3
ATOM      3  C   UNL     1       4.255  -1.149  -0.719  1.00  0.00     0.116 C 
BRANCH   3   4
ATOM      4  N   UNL     1       2.898  -0.651  -0.894  1.00  0.00    -0.352 N 
ATOM      5  O   UNL     1       1.016   0.454  -0.320  1.00  0.00    -0.269 OA
ATOM      6  C   UNL     1       2.227   0.312  -0.180  1.00  0.00     0.251 C 
ATOM      7  H   UNL     1       2.389  -1.062  -1.629  1.00  0.00     0.163 HD
BRANCH   6   8
ATOM      8  C   UNL     1       2.972   1.169   0.768  1.00  0.00     0.039 A 
ATOM      9  C   UNL     1       4.192   1.736   0.394  1.00  0.00     0.014 A 
ATOM     10  C   UNL     1       2.449   1.406   2.042  1.00  0.00     0.014 A 
ATOM     11  C   UNL     1       4.959   2.406   1.339  1.00  0.00     0.010 A 
ATOM     12  C   UNL     1       3.182   2.160   2.963  1.00  0.00     0.010 A 
ATOM     13  C   UNL     1       4.462   2.634   2.633  1.00  0.00    -0.014 A 
BRANCH  13  14
ATOM     14  C   UNL     1       5.294   3.394   3.603  1.00  0.00     0.031 A 
ATOM     15  C   UNL     1       5.806   2.745   4.861  1.00  0.00     0.074 A 
ATOM     16  C   UNL     1       5.626   4.668   3.314  1.00  0.00     0.049 A 
ATOM     17  N   UNL     1       6.578   3.246   5.793  1.00  0.00    -0.248 NA
ATOM     18  C   UNL     1       5.389   1.358   5.112  1.00  0.00     0.031 C 
ATOM     19  C   UNL     1       5.181   5.402   2.126  1.00  0.00     0.029 A 
ATOM     20  N   UNL     1       6.430   5.562   3.973  1.00  0.00    -0.354 N 
ATOM     21  C   UNL     1       6.721   2.247   6.751  1.00  0.00     0.074 A 
ATOM     22  C   UNL     1       5.927   1.123   6.300  1.00  0.00     0.031 C 
ATOM     23  C   UNL     1       5.764   6.609   2.111  1.00  0.00     0.029 A 
ATOM     24  C   UNL     1       6.568   6.764   3.317  1.00  0.00     0.049 A 
ATOM     25  H   UNL     1       6.867   5.363   4.832  1.00  0.00     0.167 HD
ATOM     26  C   UNL     1       7.454   2.265   7.894  1.00  0.00     0.034 A 
ATOM     27  C   UNL     1       7.254   7.872   3.653  1.00  0.00     0.034 A 
ATOM     28  C   UNL     1       8.248   3.395   8.322  1.00  0.00     0.049 A 
ATOM     29  C   UNL     1       8.042   7.873   4.935  1.00  0.00     0.074 A 
ATOM     30  C   UNL     1       9.052   3.510   9.443  1.00  0.00     0.029 A 
ATOM     31  N   UNL     1       8.334   4.609   7.651  1.00  0.00    -0.354 N 
ATOM     32  N   UNL     1       8.183   6.912   5.819  1.00  0.00    -0.248 NA
ATOM     33  C   UNL     1       8.769   9.105   5.260  1.00  0.00     0.031 C 
ATOM     34  C   UNL     1       9.568   4.810   9.486  1.00  0.00     0.029 A 
ATOM     35  C   UNL     1       9.153   5.486   8.349  1.00  0.00     0.049 A 
ATOM     36  H   UNL     1       7.879   4.818   6.803  1.00  0.00     0.167 HD
ATOM     37  C   UNL     1       9.039   7.417   6.792  1.00  0.00     0.074 A 
ATOM     38  C   UNL     1       9.396   8.758   6.373  1.00  0.00     0.031 C 
ATOM     39  C   UNL     1       9.491   6.825   7.928  1.00  0.00     0.034 A 
BRANCH  26  40
ATOM     40  C   UNL     1       7.387   1.045   8.784  1.00  0.00     0.023 A 
ATOM     41  C   UNL     1       7.854  -0.212   8.362  1.00  0.00     0.031 A 
ATOM     42  C   UNL     1       6.824   1.136  10.070  1.00  0.00     0.131 A 
ATOM     43  C   UNL     1       7.683  -1.338   9.184  1.00  0.00     0.055 A 
ATOM     44  C   UNL     1       6.729   0.028  10.915  1.00  0.00     0.041 A 
ATOM     45  F   UNL     1       6.342   2.304  10.524  1.00  0.00    -0.206 F 
ATOM     46  C   UNL     1       7.145  -1.222  10.468  1.00  0.00     0.022 A 
BRANCH  43  47
ATOM     47  S   UNL     1       8.037  -2.978   8.494  1.00  0.00     0.124 S 
ATOM     48  O   UNL     1       7.157  -3.007   7.328  1.00  0.00    -0.237 OA
ATOM     49  O   UNL     1       9.466  -2.900   8.212  1.00  0.00    -0.237 OA
ATOM     50  O   UNL     1       7.662  -3.893   9.571  1.00  0.00    -0.744 OA
ENDBRANCH  43  47
ENDBRANCH  26  40
BRANCH  27  51
ATOM     51  C   UNL     1       7.216   9.075   2.775  1.00  0.00     0.023 A 
ATOM     52  C   UNL     1       8.377   9.552   2.147  1.00  0.00     0.031 A 
ATOM     53  C   UNL     1       6.017   9.784   2.571  1.00  0.00     0.131 A 
ATOM     54  C   UNL     1       8.325  10.726   1.381  1.00  0.00     0.055 A 
ATOM     55  C   UNL     1       5.960  10.919   1.764  1.00  0.00     0.041 A 
ATOM     56  F   UNL     1       4.877   9.367   3.144  1.00  0.00    -0.206 F 
ATOM     57  C   UNL     1       7.122  11.405   1.173  1.00  0.00     0.022 A 
BRANCH  54  58
ATOM     58  S   UNL     1       9.873  11.401   0.720  1.00  0.00     0.124 S 
ATOM     59  O   UNL     1      10.659  11.588   1.934  1.00  0.00    -0.237 OA
ATOM     60  O   UNL     1      10.313  10.331  -0.170  1.00  0.00    -0.237 OA
ATOM     61  O   UNL     1       9.451  12.630   0.053  1.00  0.00    -0.744 OA
ENDBRANCH  54  58
ENDBRANCH  27  51
BRANCH  39  62
ATOM     62  C   UNL     1      10.465   7.620   8.764  1.00  0.00     0.023 A 
ATOM     63  C   UNL     1      10.088   8.809   9.413  1.00  0.00     0.031 A 
ATOM     64  C   UNL     1      11.802   7.200   8.878  1.00  0.00     0.131 A 
ATOM     65  C   UNL     1      11.052   9.573  10.087  1.00  0.00     0.055 A 
ATOM     66  C   UNL     1      12.742   7.931   9.606  1.00  0.00     0.041 A 
ATOM     67  F   UNL     1      12.219   6.075   8.276  1.00  0.00    -0.206 F 
ATOM     68  C   UNL     1      12.373   9.134  10.201  1.00  0.00     0.022 A 
BRANCH  65  69
ATOM     69  S   UNL     1      10.583  11.210  10.714  1.00  0.00     0.124 S 
ATOM     70  O   UNL     1      10.093  11.868   9.508  1.00  0.00    -0.237 OA
ATOM     71  O   UNL     1       9.575  10.882  11.716  1.00  0.00    -0.237 OA
ATOM     72  O   UNL     1      11.835  11.745  11.247  1.00  0.00    -0.744 OA
ENDBRANCH  65  69
ENDBRANCH  39  62
ENDBRANCH  13  14
ENDBRANCH   6   8
ENDBRANCH   3   4
ENDBRANCH   2   3
ENDBRANCH   1   2
BRANCH   1  73
ATOM     73  C   UNL     1       4.450  -3.523  -2.725  1.00  0.00     0.002 C 
BRANCH  73  74
ATOM     74  C   UNL     1       5.978  -3.620  -2.655  1.00  0.00     0.021 C 
BRANCH  74  75
ATOM     75  C   UNL     1       6.499  -4.936  -2.084  1.00  0.00     0.116 C 
BRANCH  75  76
ATOM     76  N   UNL     1       6.564  -5.990  -3.072  1.00  0.00    -0.356 N 
ATOM     77  C   UNL     1       7.588  -6.567  -3.738  1.00  0.00     0.224 C 
ATOM     78  H   UNL     1       5.683  -6.362  -3.308  1.00  0.00     0.163 HD
ATOM     79  O   UNL     1       7.267  -7.509  -4.482  1.00  0.00    -0.275 OA
BRANCH  77  80
ATOM     80  C   UNL     1       9.050  -6.115  -3.745  1.00  0.00     0.098 C 
ATOM     81  C   UNL     1       9.735  -5.448  -2.547  1.00  0.00     0.017 C 
ATOM     82  C   UNL     1       9.317  -5.351  -5.036  1.00  0.00     0.131 C 
ATOM     83  C   UNL     1       9.798  -3.907  -2.542  1.00  0.00     0.022 C 
ATOM     84  N   UNL     1       8.961  -3.958  -4.838  1.00  0.00    -0.356 N 
ATOM     85  C   UNL     1       9.799  -3.215  -3.911  1.00  0.00     0.118 C 
BRANCH  84  86
ATOM     86  C   UNL     1       8.146  -3.299  -5.732  1.00  0.00     0.129 A 
ATOM     87  C   UNL     1       7.015  -3.925  -6.261  1.00  0.00     0.047 A 
ATOM     88  N   UNL     1       8.413  -2.011  -6.027  1.00  0.00    -0.231 NA
ATOM     89  C   UNL     1       6.128  -3.215  -7.062  1.00  0.00     0.014 A 
ATOM     90  C   UNL     1       7.582  -1.330  -6.832  1.00  0.00     0.073 A 
ATOM     91  C   UNL     1       6.404  -1.887  -7.363  1.00  0.00     0.002 A 
ATOM     92  C   UNL     1       7.889  -0.022  -7.166  1.00  0.00     0.030 A 
ATOM     93  C   UNL     1       5.545  -1.122  -8.168  1.00  0.00     0.032 A 
ATOM     94  C   UNL     1       7.058   0.743  -7.992  1.00  0.00     0.024 A 
ATOM     95  C   UNL     1       5.872   0.200  -8.480  1.00  0.00     0.083 A 
BRANCH  95  96
ATOM     96  S   UNL     1       4.723   1.079  -9.527  1.00  0.00     0.243 S 
ATOM     97  O   UNL     1       4.584   0.272 -10.722  1.00  0.00    -0.207 OA
ATOM     98  O   UNL     1       3.577   1.388  -8.697  1.00  0.00    -0.207 OA
BRANCH  96  99
ATOM     99  N   UNL     1       5.457   2.549  -9.988  1.00  0.00    -0.198 NA
ATOM    100  C   UNL     1       5.493   3.613  -8.952  1.00  0.00     0.102 C 
ATOM    101  C   UNL     1       6.606   2.426 -10.917  1.00  0.00     0.102 C 
ATOM    102  C   UNL     1       6.051   4.927  -9.484  1.00  0.00     0.017 C 
ATOM    103  C   UNL     1       7.095   3.780 -11.409  1.00  0.00     0.017 C 
ATOM    104  C   UNL     1       7.351   4.720 -10.243  1.00  0.00     0.003 C 
ENDBRANCH  96  99
ENDBRANCH  95  96
ENDBRANCH  84  86
ENDBRANCH  77  80
ENDBRANCH  75  76
ENDBRANCH  74  75
ENDBRANCH  73  74
ENDBRANCH   1  73
TORSDOF 19
