REMARK SMILES CC[C@@H](Oc1cc(Cl)ccc1Cl)C(=O)NNC(=O)[C@@H]1[C@@H]2CC[C@@H](C2)[C@@H]1C(=O)NCCCCCCNC(=O)c1ccc(-c2c3nc(c(-c4cc(S(=O)(=O)[O-])ccc4F)c4ccc([nH]4)c(-c4cc(S(=O)(=O)[O-])ccc4F)c4nc(c(-c5cc(S(=O)(=O)[O-])ccc5F)c5ccc2[nH]5)C=C4)C=C3)cc1
REMARK SMILES IDX 30 1 29 2 28 3 26 4 27 5 25 7 19 8 20 9 21 10 24 11 23 12
REMARK SMILES IDX 22 13 17 14 16 15 18 17 15 18 13 19 14 20 3 22 2 23 1 24
REMARK SMILES IDX 4 25 5 26 6 27 11 28 7 29 10 30 12 31 8 32 9 33 31 34 32 35
REMARK SMILES IDX 33 36 34 37 35 38 36 39 37 41 38 42 39 43 100 44 40 45 99 46
REMARK SMILES IDX 41 47 42 48 43 49 93 50 44 51 98 52 92 53 94 54 45 55 97 56
REMARK SMILES IDX 91 57 90 58 46 60 78 61 58 62 77 63 59 64 62 65 76 66 95 67
REMARK SMILES IDX 60 68 61 69 75 71 96 72 63 73 47 74 48 75 56 76 49 77 55 78
REMARK SMILES IDX 57 79 54 80 50 81 51 82 52 83 53 84 79 85 80 86 88 87 81 88
REMARK SMILES IDX 87 89 89 90 86 91 82 92 83 93 84 94 85 95 64 96 65 97 73 98
REMARK SMILES IDX 66 99 72 100 74 101 71 102 67 103 68 104 69 105 70 106
REMARK H PARENT 28 6 16 16 15 21 35 40 94 59 62 70
REMARK Flexibility Score: inf
ROOT
ATOM      1  C   UNL     1      -6.534  -8.408   1.973  1.00  0.00     0.021 C 
ENDROOT
BRANCH   1   2
ATOM      2  C   UNL     1      -6.040  -6.966   1.994  1.00  0.00     0.116 C 
BRANCH   2   3
ATOM      3  N   UNL     1      -4.989  -6.740   2.953  1.00  0.00    -0.356 N 
ATOM      4  C   UNL     1      -3.857  -6.010   2.883  1.00  0.00     0.224 C 
ATOM      5  O   UNL     1      -3.286  -5.819   3.967  1.00  0.00    -0.275 OA
ATOM      6  H   UNL     1      -5.120  -7.202   3.813  1.00  0.00     0.163 HD
BRANCH   4   7
ATOM      7  C   UNL     1      -3.205  -5.454   1.614  1.00  0.00     0.094 C 
ATOM      8  C   UNL     1      -3.812  -4.353   0.709  1.00  0.00     0.096 C 
ATOM      9  C   UNL     1      -3.444  -4.861  -0.710  1.00  0.00     0.002 C 
ATOM     10  C   UNL     1      -4.193  -6.141  -1.119  1.00  0.00     0.005 C 
ATOM     11  C   UNL     1      -2.040  -5.442  -0.450  1.00  0.00     0.009 C 
ATOM     12  C   UNL     1      -2.547  -6.439   0.607  1.00  0.00     0.002 C 
ATOM     13  C   UNL     1      -3.530  -7.230  -0.261  1.00  0.00     0.005 C 
BRANCH   8  14
ATOM     14  C   UNL     1      -5.252  -3.924   0.951  1.00  0.00     0.242 C 
ATOM     15  N   UNL     1      -5.473  -2.820   1.736  1.00  0.00    -0.267 N 
ATOM     16  H   UNL     1      -6.110  -2.892   2.483  1.00  0.00     0.191 HD
ATOM     17  O   UNL     1      -6.232  -4.537   0.537  1.00  0.00    -0.273 OA
BRANCH  15  18
ATOM     18  N   UNL     1      -4.830  -1.593   1.517  1.00  0.00    -0.264 N 
ATOM     19  C   UNL     1      -5.486  -0.376   1.582  1.00  0.00     0.279 C 
ATOM     20  O   UNL     1      -4.848   0.660   1.373  1.00  0.00    -0.269 OA
ATOM     21  H   UNL     1      -3.868  -1.597   1.307  1.00  0.00     0.191 HD
BRANCH  19  22
ATOM     22  C   UNL     1      -7.012  -0.337   1.841  1.00  0.00     0.263 C 
BRANCH  22  23
ATOM     23  C   UNL     1      -7.755  -0.649   0.528  1.00  0.00     0.052 C 
ATOM     24  C   UNL     1      -9.039   0.160   0.360  1.00  0.00     0.008 C 
ENDBRANCH  22  23
BRANCH  22  25
ATOM     25  O   UNL     1      -7.317  -1.328   2.844  1.00  0.00    -0.479 OA
BRANCH  25  26
ATOM     26  C   UNL     1      -8.417  -1.043   3.602  1.00  0.00     0.140 A 
ATOM     27  C   UNL     1      -9.630  -1.619   3.221  1.00  0.00     0.068 A 
ATOM     28  C   UNL     1      -8.328  -0.315   4.792  1.00  0.00     0.083 A 
ATOM     29  C   UNL     1     -10.771  -1.392   3.985  1.00  0.00     0.044 A 
ATOM     30  C   UNL     1      -9.472  -0.109   5.567  1.00  0.00     0.026 A 
ATOM     31  Cl  UNL     1      -6.824   0.318   5.350  1.00  0.00    -0.080 Cl
ATOM     32  Cl  UNL     1     -12.278  -2.045   3.478  1.00  0.00    -0.084 Cl
ATOM     33  C   UNL     1     -10.699  -0.637   5.154  1.00  0.00     0.022 A 
ENDBRANCH  25  26
ENDBRANCH  22  25
ENDBRANCH  19  22
ENDBRANCH  15  18
ENDBRANCH   8  14
ENDBRANCH   4   7
ENDBRANCH   2   3
ENDBRANCH   1   2
BRANCH   1  34
ATOM     34  C   UNL     1      -7.736  -8.666   2.884  1.00  0.00     0.002 C 
BRANCH  34  35
ATOM     35  C   UNL     1      -8.951  -7.760   2.643  1.00  0.00     0.002 C 
BRANCH  35  36
ATOM     36  C   UNL     1      -9.427  -7.662   1.190  1.00  0.00     0.021 C 
BRANCH  36  37
ATOM     37  C   UNL     1      -9.769  -8.996   0.535  1.00  0.00     0.116 C 
BRANCH  37  38
ATOM     38  N   UNL     1     -10.750  -9.743   1.304  1.00  0.00    -0.352 N 
ATOM     39  C   UNL     1     -11.956 -10.264   0.910  1.00  0.00     0.251 C 
ATOM     40  H   UNL     1     -10.514  -9.898   2.247  1.00  0.00     0.163 HD
ATOM     41  O   UNL     1     -12.748 -10.669   1.753  1.00  0.00    -0.269 OA
BRANCH  39  42
ATOM     42  C   UNL     1     -12.295 -10.320  -0.527  1.00  0.00     0.039 A 
ATOM     43  C   UNL     1     -13.575  -9.940  -0.935  1.00  0.00     0.014 A 
ATOM     44  C   UNL     1     -11.357 -10.763  -1.464  1.00  0.00     0.014 A 
ATOM     45  C   UNL     1     -13.899  -9.956  -2.292  1.00  0.00     0.010 A 
ATOM     46  C   UNL     1     -11.659 -10.711  -2.822  1.00  0.00     0.010 A 
ATOM     47  C   UNL     1     -12.935 -10.314  -3.248  1.00  0.00    -0.014 A 
BRANCH  47  48
ATOM     48  C   UNL     1     -13.246 -10.292  -4.700  1.00  0.00     0.031 A 
ATOM     49  C   UNL     1     -13.232 -11.573  -5.489  1.00  0.00     0.074 A 
ATOM     50  C   UNL     1     -13.477  -9.115  -5.313  1.00  0.00     0.049 A 
ATOM     51  N   UNL     1     -13.391 -11.756  -6.774  1.00  0.00    -0.248 NA
ATOM     52  C   UNL     1     -12.975 -12.808  -4.733  1.00  0.00     0.031 C 
ATOM     53  C   UNL     1     -13.481  -7.807  -4.654  1.00  0.00     0.029 A 
ATOM     54  N   UNL     1     -13.743  -8.824  -6.627  1.00  0.00    -0.354 N 
ATOM     55  C   UNL     1     -13.240 -13.123  -6.984  1.00  0.00     0.074 A 
ATOM     56  C   UNL     1     -12.915 -13.709  -5.701  1.00  0.00     0.031 C 
ATOM     57  C   UNL     1     -13.758  -6.858  -5.563  1.00  0.00     0.029 A 
ATOM     58  C   UNL     1     -13.902  -7.480  -6.875  1.00  0.00     0.049 A 
ATOM     59  H   UNL     1     -13.813  -9.512  -7.328  1.00  0.00     0.167 HD
ATOM     60  C   UNL     1     -13.381 -13.823  -8.136  1.00  0.00     0.034 A 
ATOM     61  C   UNL     1     -14.123  -6.823  -8.031  1.00  0.00     0.034 A 
ATOM     62  C   UNL     1     -13.716 -13.218  -9.402  1.00  0.00     0.049 A 
ATOM     63  C   UNL     1     -14.247  -7.620  -9.305  1.00  0.00     0.074 A 
ATOM     64  C   UNL     1     -13.938 -13.835 -10.621  1.00  0.00     0.029 A 
ATOM     65  N   UNL     1     -13.869 -11.853  -9.616  1.00  0.00    -0.354 N 
ATOM     66  N   UNL     1     -14.149  -8.918  -9.479  1.00  0.00    -0.248 NA
ATOM     67  C   UNL     1     -14.522  -6.866 -10.534  1.00  0.00     0.031 C 
ATOM     68  C   UNL     1     -14.152 -12.841 -11.583  1.00  0.00     0.029 A 
ATOM     69  C   UNL     1     -14.148 -11.607 -10.952  1.00  0.00     0.049 A 
ATOM     70  H   UNL     1     -13.791 -11.161  -8.920  1.00  0.00     0.167 HD
ATOM     71  C   UNL     1     -14.383  -9.137 -10.834  1.00  0.00     0.074 A 
ATOM     72  C   UNL     1     -14.639  -7.839 -11.425  1.00  0.00     0.031 C 
ATOM     73  C   UNL     1     -14.391 -10.305 -11.527  1.00  0.00     0.034 A 
BRANCH  60  74
ATOM     74  C   UNL     1     -13.143 -15.314  -8.079  1.00  0.00     0.023 A 
ATOM     75  C   UNL     1     -13.941 -16.162  -7.289  1.00  0.00     0.031 A 
ATOM     76  C   UNL     1     -12.086 -15.896  -8.803  1.00  0.00     0.131 A 
ATOM     77  C   UNL     1     -13.624 -17.524  -7.180  1.00  0.00     0.055 A 
ATOM     78  C   UNL     1     -11.829 -17.268  -8.757  1.00  0.00     0.041 A 
ATOM     79  F   UNL     1     -11.276 -15.137  -9.557  1.00  0.00    -0.206 F 
ATOM     80  C   UNL     1     -12.589 -18.088  -7.929  1.00  0.00     0.022 A 
BRANCH  77  81
ATOM     81  S   UNL     1     -14.487 -18.517  -5.932  1.00  0.00     0.124 S 
ATOM     82  O   UNL     1     -14.158 -17.797  -4.704  1.00  0.00    -0.237 OA
ATOM     83  O   UNL     1     -15.876 -18.434  -6.368  1.00  0.00    -0.237 OA
ATOM     84  O   UNL     1     -13.871 -19.836  -6.056  1.00  0.00    -0.744 OA
ENDBRANCH  77  81
ENDBRANCH  60  74
BRANCH  61  85
ATOM     85  C   UNL     1     -14.229  -5.336  -8.046  1.00  0.00     0.023 A 
ATOM     86  C   UNL     1     -15.425  -4.699  -8.414  1.00  0.00     0.031 A 
ATOM     87  C   UNL     1     -13.123  -4.527  -7.728  1.00  0.00     0.131 A 
ATOM     88  C   UNL     1     -15.474  -3.299  -8.501  1.00  0.00     0.055 A 
ATOM     89  C   UNL     1     -13.193  -3.133  -7.761  1.00  0.00     0.041 A 
ATOM     90  F   UNL     1     -11.956  -5.083  -7.364  1.00  0.00    -0.206 F 
ATOM     91  C   UNL     1     -14.371  -2.511  -8.164  1.00  0.00     0.022 A 
BRANCH  88  92
ATOM     92  S   UNL     1     -16.980  -2.522  -9.148  1.00  0.00     0.124 S 
ATOM     93  O   UNL     1     -17.093  -3.142 -10.463  1.00  0.00    -0.237 OA
ATOM     94  O   UNL     1     -17.976  -2.924  -8.160  1.00  0.00    -0.237 OA
ATOM     95  O   UNL     1     -16.652  -1.098  -9.154  1.00  0.00    -0.744 OA
ENDBRANCH  88  92
ENDBRANCH  61  85
BRANCH  73  96
ATOM     96  C   UNL     1     -14.734 -10.229 -12.995  1.00  0.00     0.023 A 
ATOM     97  C   UNL     1     -13.888  -9.597 -13.923  1.00  0.00     0.031 A 
ATOM     98  C   UNL     1     -15.930 -10.797 -13.469  1.00  0.00     0.131 A 
ATOM     99  C   UNL     1     -14.276  -9.502 -15.268  1.00  0.00     0.055 A 
ATOM    100  C   UNL     1     -16.280 -10.755 -14.819  1.00  0.00     0.041 A 
ATOM    101  F   UNL     1     -16.776 -11.411 -12.626  1.00  0.00    -0.206 F 
ATOM    102  C   UNL     1     -15.457 -10.093 -15.725  1.00  0.00     0.022 A 
BRANCH  99 103
ATOM    103  S   UNL     1     -13.258  -8.517 -16.401  1.00  0.00     0.124 S 
ATOM    104  O   UNL     1     -13.284  -7.202 -15.767  1.00  0.00    -0.237 OA
ATOM    105  O   UNL     1     -11.978  -9.217 -16.361  1.00  0.00    -0.237 OA
ATOM    106  O   UNL     1     -13.973  -8.607 -17.672  1.00  0.00    -0.744 OA
ENDBRANCH  99 103
ENDBRANCH  73  96
ENDBRANCH  47  48
ENDBRANCH  39  42
ENDBRANCH  37  38
ENDBRANCH  36  37
ENDBRANCH  35  36
ENDBRANCH  34  35
ENDBRANCH   1  34
TORSDOF 22
