REMARK SMILES CCC(CC)(NC(=O)c1c(C)noc1C)C(=O)NCCCCCCNC(=O)c1ccc(-c2c3nc(c(-c4cc(S(=O)(=O)[O-])ccc4F)c4ccc([nH]4)c(-c4cc(S(=O)(=O)[O-])ccc4F)c4nc(c(-c5cc(S(=O)(=O)[O-])ccc5F)c5ccc2[nH]5)C=C4)C=C3)cc1
REMARK SMILES IDX 22 1 21 2 20 3 19 4 18 5 16 6 17 7 3 9 2 10 1 11 4 12 5 13
REMARK SMILES IDX 6 14 7 15 8 17 9 18 10 19 14 20 11 21 12 22 13 23 15 24
REMARK SMILES IDX 23 25 24 26 25 27 26 28 27 30 28 31 29 32 90 33 30 34 89 35
REMARK SMILES IDX 31 36 32 37 33 38 83 39 34 40 88 41 82 42 84 43 35 44 87 45
REMARK SMILES IDX 81 46 80 47 36 49 68 50 48 51 67 52 49 53 52 54 66 55 85 56
REMARK SMILES IDX 50 57 51 58 65 60 86 61 53 62 37 63 38 64 46 65 39 66 45 67
REMARK SMILES IDX 47 68 44 69 40 70 41 71 42 72 43 73 69 74 70 75 78 76 71 77
REMARK SMILES IDX 77 78 79 79 76 80 72 81 73 82 74 83 75 84 54 85 55 86 63 87
REMARK SMILES IDX 56 88 62 89 64 90 61 91 57 92 58 93 59 94 60 95
REMARK H PARENT 18 8 6 16 25 29 84 48 52 59
REMARK Flexibility Score: inf
ROOT
ATOM      1  C   UNL     1       4.572   6.508  -2.213  1.00  0.00     0.002 C 
ENDROOT
BRANCH   1   2
ATOM      2  C   UNL     1       3.965   6.343  -0.826  1.00  0.00     0.002 C 
BRANCH   2   3
ATOM      3  C   UNL     1       2.453   6.139  -0.788  1.00  0.00     0.021 C 
BRANCH   3   4
ATOM      4  C   UNL     1       1.815   5.085  -1.706  1.00  0.00     0.116 C 
BRANCH   4   5
ATOM      5  N   UNL     1       2.398   3.743  -1.754  1.00  0.00    -0.354 N 
ATOM      6  C   UNL     1       2.063   2.539  -1.169  1.00  0.00     0.245 C 
ATOM      7  O   UNL     1       2.590   1.522  -1.629  1.00  0.00    -0.272 OA
ATOM      8  H   UNL     1       3.199   3.688  -2.324  1.00  0.00     0.163 HD
BRANCH   6   9
ATOM      9  C   UNL     1       0.918   2.448  -0.145  1.00  0.00     0.118 C 
BRANCH   9  10
ATOM     10  C   UNL     1       0.837   1.191   0.759  1.00  0.00     0.035 C 
ATOM     11  C   UNL     1       0.723  -0.174   0.096  1.00  0.00     0.007 C 
ENDBRANCH   9  10
BRANCH   9  12
ATOM     12  C   UNL     1      -0.344   2.522  -1.087  1.00  0.00     0.035 C 
ATOM     13  C   UNL     1      -1.730   2.483  -0.469  1.00  0.00     0.007 C 
ENDBRANCH   9  12
BRANCH   9  14
ATOM     14  N   UNL     1       1.045   3.605   0.757  1.00  0.00    -0.337 N 
ATOM     15  C   UNL     1       1.952   4.002   1.717  1.00  0.00     0.257 C 
ATOM     16  H   UNL     1       0.307   4.248   0.649  1.00  0.00     0.164 HD
ATOM     17  O   UNL     1       1.426   4.803   2.504  1.00  0.00    -0.269 OA
BRANCH  15  18
ATOM     18  C   UNL     1       3.370   3.635   1.929  1.00  0.00     0.105 A 
ATOM     19  C   UNL     1       4.022   3.951   3.196  1.00  0.00     0.093 A 
ATOM     20  C   UNL     1       4.462   3.162   1.192  1.00  0.00     0.146 A 
ATOM     21  C   UNL     1       3.487   4.654   4.389  1.00  0.00     0.071 C 
ATOM     22  N   UNL     1       5.295   3.567   3.235  1.00  0.00    -0.084 NA
ATOM     23  O   UNL     1       5.556   3.069   2.002  1.00  0.00    -0.361 OA
ATOM     24  C   UNL     1       4.885   2.804  -0.178  1.00  0.00     0.092 C 
ENDBRANCH  15  18
ENDBRANCH   9  14
ENDBRANCH   6   9
ENDBRANCH   4   5
ENDBRANCH   3   4
ENDBRANCH   2   3
ENDBRANCH   1   2
BRANCH   1  25
ATOM     25  C   UNL     1       4.031   7.702  -2.995  1.00  0.00     0.021 C 
BRANCH  25  26
ATOM     26  C   UNL     1       4.192   9.047  -2.296  1.00  0.00     0.116 C 
BRANCH  26  27
ATOM     27  N   UNL     1       5.587   9.407  -2.083  1.00  0.00    -0.352 N 
ATOM     28  C   UNL     1       6.225  10.578  -2.419  1.00  0.00     0.251 C 
ATOM     29  H   UNL     1       6.144   8.725  -1.642  1.00  0.00     0.163 HD
ATOM     30  O   UNL     1       7.445  10.677  -2.323  1.00  0.00    -0.269 OA
BRANCH  28  31
ATOM     31  C   UNL     1       5.414  11.698  -2.934  1.00  0.00     0.039 A 
ATOM     32  C   UNL     1       5.748  12.275  -4.160  1.00  0.00     0.014 A 
ATOM     33  C   UNL     1       4.268  12.103  -2.244  1.00  0.00     0.014 A 
ATOM     34  C   UNL     1       4.880  13.203  -4.738  1.00  0.00     0.010 A 
ATOM     35  C   UNL     1       3.367  12.964  -2.860  1.00  0.00     0.010 A 
ATOM     36  C   UNL     1       3.660  13.516  -4.116  1.00  0.00    -0.014 A 
BRANCH  36  37
ATOM     37  C   UNL     1       2.666  14.405  -4.772  1.00  0.00     0.031 A 
ATOM     38  C   UNL     1       2.271  15.700  -4.119  1.00  0.00     0.074 A 
ATOM     39  C   UNL     1       2.061  14.006  -5.908  1.00  0.00     0.049 A 
ATOM     40  N   UNL     1       1.364  16.570  -4.482  1.00  0.00    -0.248 NA
ATOM     41  C   UNL     1       2.963  16.039  -2.867  1.00  0.00     0.031 C 
ATOM     42  C   UNL     1       2.316  12.740  -6.600  1.00  0.00     0.029 A 
ATOM     43  N   UNL     1       1.097  14.613  -6.673  1.00  0.00    -0.354 N 
ATOM     44  C   UNL     1       1.372  17.555  -3.502  1.00  0.00     0.074 A 
ATOM     45  C   UNL     1       2.314  17.128  -2.489  1.00  0.00     0.031 C 
ATOM     46  C   UNL     1       1.542  12.675  -7.695  1.00  0.00     0.029 A 
ATOM     47  C   UNL     1       0.705  13.868  -7.761  1.00  0.00     0.049 A 
ATOM     48  H   UNL     1       0.721  15.498  -6.463  1.00  0.00     0.167 HD
ATOM     49  C   UNL     1       0.683  18.724  -3.465  1.00  0.00     0.034 A 
ATOM     50  C   UNL     1      -0.234  14.110  -8.698  1.00  0.00     0.034 A 
ATOM     51  C   UNL     1      -0.254  19.128  -4.486  1.00  0.00     0.049 A 
ATOM     52  C   UNL     1      -1.011  15.399  -8.629  1.00  0.00     0.074 A 
ATOM     53  C   UNL     1      -0.966  20.310  -4.586  1.00  0.00     0.029 A 
ATOM     54  N   UNL     1      -0.622  18.351  -5.579  1.00  0.00    -0.354 N 
ATOM     55  N   UNL     1      -0.943  16.356  -7.732  1.00  0.00    -0.248 NA
ATOM     56  C   UNL     1      -1.981  15.645  -9.702  1.00  0.00     0.031 C 
ATOM     57  C   UNL     1      -1.815  20.218  -5.696  1.00  0.00     0.029 A 
ATOM     58  C   UNL     1      -1.578  19.012  -6.336  1.00  0.00     0.049 A 
ATOM     59  H   UNL     1      -0.256  17.461  -5.786  1.00  0.00     0.167 HD
ATOM     60  C   UNL     1      -1.853  17.325  -8.142  1.00  0.00     0.074 A 
ATOM     61  C   UNL     1      -2.438  16.846  -9.378  1.00  0.00     0.031 C 
ATOM     62  C   UNL     1      -2.175  18.506  -7.552  1.00  0.00     0.034 A 
BRANCH  49  63
ATOM     63  C   UNL     1       0.911  19.619  -2.268  1.00  0.00     0.023 A 
ATOM     64  C   UNL     1       2.188  20.128  -1.965  1.00  0.00     0.031 A 
ATOM     65  C   UNL     1      -0.138  19.917  -1.383  1.00  0.00     0.131 A 
ATOM     66  C   UNL     1       2.404  20.811  -0.759  1.00  0.00     0.055 A 
ATOM     67  C   UNL     1       0.064  20.682  -0.231  1.00  0.00     0.041 A 
ATOM     68  F   UNL     1      -1.376  19.447  -1.604  1.00  0.00    -0.206 F 
ATOM     69  C   UNL     1       1.346  21.115   0.099  1.00  0.00     0.022 A 
BRANCH  66  70
ATOM     70  S   UNL     1       4.115  21.126  -0.242  1.00  0.00     0.124 S 
ATOM     71  O   UNL     1       4.674  19.776  -0.237  1.00  0.00    -0.237 OA
ATOM     72  O   UNL     1       4.601  22.015  -1.290  1.00  0.00    -0.237 OA
ATOM     73  O   UNL     1       3.967  21.735   1.077  1.00  0.00    -0.744 OA
ENDBRANCH  66  70
ENDBRANCH  49  63
BRANCH  50  74
ATOM     74  C   UNL     1      -0.503  13.102  -9.763  1.00  0.00     0.023 A 
ATOM     75  C   UNL     1      -0.209  13.368 -11.109  1.00  0.00     0.031 A 
ATOM     76  C   UNL     1      -1.066  11.853  -9.444  1.00  0.00     0.131 A 
ATOM     77  C   UNL     1      -0.507  12.410 -12.092  1.00  0.00     0.055 A 
ATOM     78  C   UNL     1      -1.318  10.886 -10.419  1.00  0.00     0.041 A 
ATOM     79  F   UNL     1      -1.358  11.545  -8.170  1.00  0.00    -0.206 F 
ATOM     80  C   UNL     1      -1.046  11.166 -11.754  1.00  0.00     0.022 A 
BRANCH  77  81
ATOM     81  S   UNL     1      -0.230  12.833 -13.834  1.00  0.00     0.124 S 
ATOM     82  O   UNL     1      -1.098  13.993 -14.000  1.00  0.00    -0.237 OA
ATOM     83  O   UNL     1       1.205  13.095 -13.857  1.00  0.00    -0.237 OA
ATOM     84  O   UNL     1      -0.652  11.629 -14.547  1.00  0.00    -0.744 OA
ENDBRANCH  77  81
ENDBRANCH  50  74
BRANCH  62  85
ATOM     85  C   UNL     1      -3.199  19.363  -8.255  1.00  0.00     0.023 A 
ATOM     86  C   UNL     1      -4.541  18.962  -8.371  1.00  0.00     0.031 A 
ATOM     87  C   UNL     1      -2.825  20.594  -8.822  1.00  0.00     0.131 A 
ATOM     88  C   UNL     1      -5.450  19.758  -9.084  1.00  0.00     0.055 A 
ATOM     89  C   UNL     1      -3.747  21.412  -9.477  1.00  0.00     0.041 A 
ATOM     90  F   UNL     1      -1.556  21.025  -8.745  1.00  0.00    -0.206 F 
ATOM     91  C   UNL     1      -5.066  20.989  -9.622  1.00  0.00     0.022 A 
BRANCH  88  92
ATOM     92  S   UNL     1      -7.123  19.122  -9.377  1.00  0.00     0.124 S 
ATOM     93  O   UNL     1      -6.853  17.888 -10.108  1.00  0.00    -0.237 OA
ATOM     94  O   UNL     1      -7.638  18.959  -8.021  1.00  0.00    -0.237 OA
ATOM     95  O   UNL     1      -7.760  20.180 -10.158  1.00  0.00    -0.744 OA
ENDBRANCH  88  92
ENDBRANCH  62  85
ENDBRANCH  36  37
ENDBRANCH  28  31
ENDBRANCH  26  27
ENDBRANCH  25  26
ENDBRANCH   1  25
TORSDOF 20
