REMARK SMILES O=C(NCCCCCCNC(=O)c1cc(SCCn2cccn2)cs1)c1ccc(-c2c3nc(c(-c4cc(S(=O)(=O)[O-])ccc4F)c4ccc([nH]4)c(-c4cc(S(=O)(=O)[O-])ccc4F)c4nc(c(-c5cc(S(=O)(=O)[O-])ccc5F)c5ccc2[nH]5)C=C4)C=C3)cc1
REMARK SMILES IDX 7 1 6 2 5 3 4 4 3 5 1 6 2 7 26 9 27 10 88 11 28 12 87 13
REMARK SMILES IDX 29 14 30 15 31 16 81 17 32 18 86 19 80 20 82 21 33 22 85 23
REMARK SMILES IDX 79 24 78 25 34 27 66 28 46 29 65 30 47 31 50 32 64 33 83 34
REMARK SMILES IDX 48 35 49 36 63 38 84 39 51 40 35 41 36 42 44 43 37 44 43 45
REMARK SMILES IDX 45 46 42 47 38 48 39 49 40 50 41 51 67 52 68 53 76 54 69 55
REMARK SMILES IDX 75 56 77 57 74 58 70 59 71 60 72 61 73 62 52 63 53 64 61 65
REMARK SMILES IDX 54 66 60 67 62 68 59 69 55 70 56 71 57 72 58 73 8 74 9 75
REMARK SMILES IDX 10 76 11 77 12 79 13 80 14 81 25 82 15 83 24 84 16 85 17 86
REMARK SMILES IDX 18 87 19 88 20 89 23 90 21 91 22 92
REMARK H PARENT 3 8 82 26 50 37 10 78
REMARK Flexibility Score: inf
ROOT
ATOM      1  C   UNL     1       4.204  -1.836   3.798  1.00  0.00     0.002 C 
ENDROOT
BRANCH   1   2
ATOM      2  C   UNL     1       3.934  -0.363   3.446  1.00  0.00     0.002 C 
BRANCH   2   3
ATOM      3  C   UNL     1       4.698   0.252   2.264  1.00  0.00     0.021 C 
BRANCH   3   4
ATOM      4  C   UNL     1       4.530  -0.431   0.908  1.00  0.00     0.116 C 
BRANCH   4   5
ATOM      5  N   UNL     1       3.159  -0.685   0.506  1.00  0.00    -0.352 N 
ATOM      6  O   UNL     1       1.147  -0.639  -0.377  1.00  0.00    -0.269 OA
ATOM      7  C   UNL     1       2.162   0.016  -0.115  1.00  0.00     0.251 C 
ATOM      8  H   UNL     1       2.873  -1.597   0.742  1.00  0.00     0.163 HD
BRANCH   7   9
ATOM      9  C   UNL     1       2.172   1.470  -0.448  1.00  0.00     0.039 A 
ATOM     10  C   UNL     1       3.296   2.289  -0.538  1.00  0.00     0.014 A 
ATOM     11  C   UNL     1       0.911   2.042  -0.725  1.00  0.00     0.014 A 
ATOM     12  C   UNL     1       3.152   3.650  -0.849  1.00  0.00     0.010 A 
ATOM     13  C   UNL     1       0.763   3.397  -1.030  1.00  0.00     0.010 A 
ATOM     14  C   UNL     1       1.885   4.215  -1.078  1.00  0.00    -0.014 A 
BRANCH  14  15
ATOM     15  C   UNL     1       1.797   5.583  -1.613  1.00  0.00     0.031 A 
ATOM     16  C   UNL     1       2.385   5.716  -2.975  1.00  0.00     0.074 A 
ATOM     17  C   UNL     1       1.146   6.636  -1.067  1.00  0.00     0.049 A 
ATOM     18  N   UNL     1       3.481   6.318  -3.299  1.00  0.00    -0.248 NA
ATOM     19  C   UNL     1       1.770   4.971  -4.084  1.00  0.00     0.031 C 
ATOM     20  C   UNL     1       0.288   6.651   0.117  1.00  0.00     0.029 A 
ATOM     21  N   UNL     1       1.061   7.931  -1.515  1.00  0.00    -0.354 N 
ATOM     22  C   UNL     1       3.578   6.231  -4.684  1.00  0.00     0.074 A 
ATOM     23  C   UNL     1       2.612   5.242  -5.084  1.00  0.00     0.031 C 
ATOM     24  C   UNL     1      -0.382   7.828   0.178  1.00  0.00     0.029 A 
ATOM     25  C   UNL     1       0.087   8.709  -0.883  1.00  0.00     0.049 A 
ATOM     26  H   UNL     1       1.642   8.285  -2.227  1.00  0.00     0.167 HD
ATOM     27  C   UNL     1       4.295   7.144  -5.399  1.00  0.00     0.034 A 
ATOM     28  C   UNL     1      -0.325   9.970  -1.209  1.00  0.00     0.034 A 
ATOM     29  C   UNL     1       5.173   7.902  -4.535  1.00  0.00     0.049 A 
ATOM     30  C   UNL     1       0.780  10.607  -1.964  1.00  0.00     0.074 A 
ATOM     31  C   UNL     1       6.192   7.579  -3.659  1.00  0.00     0.029 A 
ATOM     32  N   UNL     1       4.807   9.190  -4.213  1.00  0.00    -0.354 N 
ATOM     33  N   UNL     1       1.928  10.913  -1.429  1.00  0.00    -0.248 NA
ATOM     34  C   UNL     1       0.785  10.479  -3.412  1.00  0.00     0.031 C 
ATOM     35  C   UNL     1       6.016   8.463  -2.554  1.00  0.00     0.029 A 
ATOM     36  C   UNL     1       4.966   9.332  -2.857  1.00  0.00     0.049 A 
ATOM     37  H   UNL     1       4.491   9.881  -4.838  1.00  0.00     0.167 HD
ATOM     38  C   UNL     1       2.867  10.564  -2.385  1.00  0.00     0.074 A 
ATOM     39  C   UNL     1       2.103  10.396  -3.620  1.00  0.00     0.031 C 
ATOM     40  C   UNL     1       4.126  10.172  -2.028  1.00  0.00     0.034 A 
BRANCH  27  41
ATOM     41  C   UNL     1       3.957   7.624  -6.795  1.00  0.00     0.023 A 
ATOM     42  C   UNL     1       4.808   8.595  -7.363  1.00  0.00     0.031 A 
ATOM     43  C   UNL     1       2.722   7.432  -7.453  1.00  0.00     0.131 A 
ATOM     44  C   UNL     1       4.376   9.401  -8.429  1.00  0.00     0.055 A 
ATOM     45  C   UNL     1       2.328   8.188  -8.562  1.00  0.00     0.041 A 
ATOM     46  F   UNL     1       1.791   6.579  -7.013  1.00  0.00    -0.206 F 
ATOM     47  C   UNL     1       3.139   9.206  -9.033  1.00  0.00     0.022 A 
BRANCH  44  48
ATOM     48  S   UNL     1       5.386  10.836  -8.880  1.00  0.00     0.124 S 
ATOM     49  O   UNL     1       5.444  11.558  -7.614  1.00  0.00    -0.237 OA
ATOM     50  O   UNL     1       6.626  10.206  -9.321  1.00  0.00    -0.237 OA
ATOM     51  O   UNL     1       4.606  11.481  -9.933  1.00  0.00    -0.744 OA
ENDBRANCH  44  48
ENDBRANCH  27  41
BRANCH  28  52
ATOM     52  C   UNL     1      -1.701  10.559  -1.158  1.00  0.00     0.023 A 
ATOM     53  C   UNL     1      -1.966  11.950  -1.234  1.00  0.00     0.031 A 
ATOM     54  C   UNL     1      -2.814   9.703  -1.310  1.00  0.00     0.131 A 
ATOM     55  C   UNL     1      -3.287  12.421  -1.456  1.00  0.00     0.055 A 
ATOM     56  C   UNL     1      -4.111  10.173  -1.533  1.00  0.00     0.041 A 
ATOM     57  F   UNL     1      -2.664   8.370  -1.341  1.00  0.00    -0.206 F 
ATOM     58  C   UNL     1      -4.352  11.534  -1.617  1.00  0.00     0.022 A 
BRANCH  55  59
ATOM     59  S   UNL     1      -3.639  14.206  -1.644  1.00  0.00     0.124 S 
ATOM     60  O   UNL     1      -3.420  14.711  -0.288  1.00  0.00    -0.237 OA
ATOM     61  O   UNL     1      -2.681  14.618  -2.654  1.00  0.00    -0.237 OA
ATOM     62  O   UNL     1      -5.039  14.235  -2.080  1.00  0.00    -0.744 OA
ENDBRANCH  55  59
ENDBRANCH  28  52
BRANCH  40  63
ATOM     63  C   UNL     1       4.606  10.452  -0.618  1.00  0.00     0.023 A 
ATOM     64  C   UNL     1       3.951  10.047   0.568  1.00  0.00     0.031 A 
ATOM     65  C   UNL     1       5.859  11.079  -0.487  1.00  0.00     0.131 A 
ATOM     66  C   UNL     1       4.551  10.289   1.821  1.00  0.00     0.055 A 
ATOM     67  C   UNL     1       6.460  11.292   0.752  1.00  0.00     0.041 A 
ATOM     68  F   UNL     1       6.543  11.471  -1.575  1.00  0.00    -0.206 F 
ATOM     69  C   UNL     1       5.804  10.904   1.912  1.00  0.00     0.022 A 
BRANCH  66  70
ATOM     70  S   UNL     1       3.700   9.833   3.367  1.00  0.00     0.124 S 
ATOM     71  O   UNL     1       2.342  10.324   3.170  1.00  0.00    -0.237 OA
ATOM     72  O   UNL     1       3.858   8.381   3.397  1.00  0.00    -0.237 OA
ATOM     73  O   UNL     1       4.462  10.546   4.395  1.00  0.00    -0.744 OA
ENDBRANCH  66  70
ENDBRANCH  40  63
ENDBRANCH  14  15
ENDBRANCH   7   9
ENDBRANCH   4   5
ENDBRANCH   3   4
ENDBRANCH   2   3
ENDBRANCH   1   2
BRANCH   1  74
ATOM     74  C   UNL     1       5.583  -2.206   4.380  1.00  0.00     0.021 C 
BRANCH  74  75
ATOM     75  C   UNL     1       5.969  -1.441   5.654  1.00  0.00     0.116 C 
BRANCH  75  76
ATOM     76  N   UNL     1       6.513  -2.240   6.745  1.00  0.00    -0.351 N 
ATOM     77  C   UNL     1       7.480  -1.812   7.652  1.00  0.00     0.261 C 
ATOM     78  H   UNL     1       6.168  -3.157   6.849  1.00  0.00     0.163 HD
ATOM     79  O   UNL     1       7.187  -1.873   8.848  1.00  0.00    -0.268 OA
BRANCH  77  80
ATOM     80  C   UNL     1       8.837  -1.510   7.201  1.00  0.00     0.093 A 
ATOM     81  C   UNL     1       9.581  -0.328   7.195  1.00  0.00     0.040 A 
ATOM     82  S   UNL     1       9.845  -2.861   6.853  1.00  0.00    -0.137 S 
ATOM     83  C   UNL     1      10.931  -0.526   6.738  1.00  0.00     0.019 A 
ATOM     84  C   UNL     1      11.215  -1.871   6.621  1.00  0.00     0.080 A 
BRANCH  83  85
ATOM     85  S   UNL     1      12.218   0.662   6.497  1.00  0.00    -0.123 SA
BRANCH  85  86
ATOM     86  C   UNL     1      11.528   2.134   5.662  1.00  0.00     0.098 C 
BRANCH  86  87
ATOM     87  C   UNL     1      11.382   2.076   4.131  1.00  0.00     0.155 C 
BRANCH  87  88
ATOM     88  N   UNL     1      10.156   1.403   3.771  1.00  0.00    -0.272 N 
ATOM     89  C   UNL     1      10.030   0.096   3.402  1.00  0.00     0.108 A 
ATOM     90  N   UNL     1       9.022   1.942   4.232  1.00  0.00    -0.182 NA
ATOM     91  C   UNL     1       8.849  -0.308   3.979  1.00  0.00     0.042 A 
ATOM     92  C   UNL     1       8.281   0.875   4.500  1.00  0.00     0.135 A 
ENDBRANCH  87  88
ENDBRANCH  86  87
ENDBRANCH  85  86
ENDBRANCH  83  85
ENDBRANCH  77  80
ENDBRANCH  75  76
ENDBRANCH  74  75
ENDBRANCH   1  74
TORSDOF 20
