REMARK SMILES O=C(NCCCCCCNC(=O)c1cccc(Nc2ccnc3ccc(Cl)cc23)c1)c1ccc(-c2c3nc(c(-c4cc(S(=O)(=O)[O-])ccc4F)c4ccc([nH]4)c(-c4cc(S(=O)(=O)[O-])ccc4F)c4nc(c(-c5cc(S(=O)(=O)[O-])ccc5F)c5ccc2[nH]5)C=C4)C=C3)cc1
REMARK SMILES IDX 6 1 5 2 4 3 3 4 1 5 2 6 31 8 32 9 93 10 33 11 92 12 34 13
REMARK SMILES IDX 35 14 36 15 86 16 37 17 91 18 85 19 87 20 38 21 90 22 84 23
REMARK SMILES IDX 83 24 39 26 71 27 51 28 70 29 52 30 55 31 69 32 88 33 53 34
REMARK SMILES IDX 54 35 68 37 89 38 56 39 40 40 41 41 49 42 42 43 48 44 50 45
REMARK SMILES IDX 47 46 43 47 44 48 45 49 46 50 72 51 73 52 81 53 74 54 80 55
REMARK SMILES IDX 82 56 79 57 75 58 76 59 77 60 78 61 57 62 58 63 66 64 59 65
REMARK SMILES IDX 65 66 67 67 64 68 60 69 61 70 62 71 63 72 7 73 8 74 9 75
REMARK SMILES IDX 10 76 11 77 12 79 13 80 14 81 30 82 15 83 17 84 16 85 18 86
REMARK SMILES IDX 19 88 20 89 29 90 21 91 23 92 28 93 22 94 24 95 26 96 25 97
REMARK SMILES IDX 27 98
REMARK H PARENT 3 7 87 25 55 36 10 78 18 87
REMARK Flexibility Score: inf
ROOT
ATOM      1  C   UNL     1       4.422  -3.750  -1.417  1.00  0.00     0.002 C 
ENDROOT
BRANCH   1   2
ATOM      2  C   UNL     1       4.845  -2.720  -0.371  1.00  0.00     0.021 C 
BRANCH   2   3
ATOM      3  C   UNL     1       4.567  -1.263  -0.727  1.00  0.00     0.116 C 
BRANCH   3   4
ATOM      4  N   UNL     1       3.148  -0.945  -0.804  1.00  0.00    -0.352 N 
ATOM      5  O   UNL     1       1.202   0.048  -0.244  1.00  0.00    -0.269 OA
ATOM      6  C   UNL     1       2.416   0.012  -0.127  1.00  0.00     0.251 C 
ATOM      7  H   UNL     1       2.630  -1.497  -1.434  1.00  0.00     0.163 HD
BRANCH   6   8
ATOM      8  C   UNL     1       3.108   0.976   0.763  1.00  0.00     0.039 A 
ATOM      9  C   UNL     1       4.288   1.601   0.360  1.00  0.00     0.014 A 
ATOM     10  C   UNL     1       2.577   1.245   2.029  1.00  0.00     0.014 A 
ATOM     11  C   UNL     1       5.031   2.332   1.280  1.00  0.00     0.010 A 
ATOM     12  C   UNL     1       3.278   2.067   2.920  1.00  0.00     0.010 A 
ATOM     13  C   UNL     1       4.539   2.577   2.572  1.00  0.00    -0.014 A 
BRANCH  13  14
ATOM     14  C   UNL     1       5.363   3.374   3.525  1.00  0.00     0.031 A 
ATOM     15  C   UNL     1       5.875   2.768   4.807  1.00  0.00     0.074 A 
ATOM     16  C   UNL     1       5.698   4.638   3.199  1.00  0.00     0.049 A 
ATOM     17  N   UNL     1       6.644   3.302   5.724  1.00  0.00    -0.248 NA
ATOM     18  C   UNL     1       5.462   1.389   5.105  1.00  0.00     0.031 C 
ATOM     19  C   UNL     1       5.263   5.336   1.986  1.00  0.00     0.029 A 
ATOM     20  N   UNL     1       6.500   5.553   3.835  1.00  0.00    -0.354 N 
ATOM     21  C   UNL     1       6.791   2.336   6.715  1.00  0.00     0.074 A 
ATOM     22  C   UNL     1       5.998   1.197   6.302  1.00  0.00     0.031 C 
ATOM     23  C   UNL     1       5.850   6.540   1.935  1.00  0.00     0.029 A 
ATOM     24  C   UNL     1       6.642   6.734   3.144  1.00  0.00     0.049 A 
ATOM     25  H   UNL     1       6.932   5.379   4.702  1.00  0.00     0.167 HD
ATOM     26  C   UNL     1       7.525   2.391   7.856  1.00  0.00     0.034 A 
ATOM     27  C   UNL     1       7.319   7.858   3.453  1.00  0.00     0.034 A 
ATOM     28  C   UNL     1       8.317   3.534   8.250  1.00  0.00     0.049 A 
ATOM     29  C   UNL     1       8.093   7.906   4.743  1.00  0.00     0.074 A 
ATOM     30  C   UNL     1       9.123   3.682   9.367  1.00  0.00     0.029 A 
ATOM     31  N   UNL     1       8.396   4.732   7.549  1.00  0.00    -0.354 N 
ATOM     32  N   UNL     1       8.238   6.974   5.656  1.00  0.00    -0.248 NA
ATOM     33  C   UNL     1       8.802   9.156   5.037  1.00  0.00     0.031 C 
ATOM     34  C   UNL     1       9.624   4.988   9.381  1.00  0.00     0.029 A 
ATOM     35  C   UNL     1       9.209   5.631   8.227  1.00  0.00     0.049 A 
ATOM     36  H   UNL     1       7.942   4.917   6.696  1.00  0.00     0.167 HD
ATOM     37  C   UNL     1       9.086   7.517   6.618  1.00  0.00     0.074 A 
ATOM     38  C   UNL     1       9.431   8.848   6.161  1.00  0.00     0.031 C 
ATOM     39  C   UNL     1       9.541   6.962   7.771  1.00  0.00     0.034 A 
BRANCH  26  40
ATOM     40  C   UNL     1       7.465   1.198   8.786  1.00  0.00     0.023 A 
ATOM     41  C   UNL     1       7.920  -0.074   8.400  1.00  0.00     0.031 A 
ATOM     42  C   UNL     1       6.923   1.334  10.078  1.00  0.00     0.131 A 
ATOM     43  C   UNL     1       7.758  -1.171   9.261  1.00  0.00     0.055 A 
ATOM     44  C   UNL     1       6.842   0.257  10.963  1.00  0.00     0.041 A 
ATOM     45  F   UNL     1       6.452   2.518  10.501  1.00  0.00    -0.206 F 
ATOM     46  C   UNL     1       7.246  -1.009  10.551  1.00  0.00     0.022 A 
BRANCH  43  47
ATOM     47  S   UNL     1       8.084  -2.836   8.618  1.00  0.00     0.124 S 
ATOM     48  O   UNL     1       7.186  -2.890   7.466  1.00  0.00    -0.237 OA
ATOM     49  O   UNL     1       9.509  -2.783   8.312  1.00  0.00    -0.237 OA
ATOM     50  O   UNL     1       7.714  -3.712   9.727  1.00  0.00    -0.744 OA
ENDBRANCH  43  47
ENDBRANCH  26  40
BRANCH  27  51
ATOM     51  C   UNL     1       7.280   9.035   2.538  1.00  0.00     0.023 A 
ATOM     52  C   UNL     1       8.449   9.520   1.931  1.00  0.00     0.031 A 
ATOM     53  C   UNL     1       6.076   9.718   2.289  1.00  0.00     0.131 A 
ATOM     54  C   UNL     1       8.398  10.681   1.145  1.00  0.00     0.055 A 
ATOM     55  C   UNL     1       6.020  10.836   1.456  1.00  0.00     0.041 A 
ATOM     56  F   UNL     1       4.928   9.296   2.842  1.00  0.00    -0.206 F 
ATOM     57  C   UNL     1       7.189  11.333   0.890  1.00  0.00     0.022 A 
BRANCH  54  58
ATOM     58  S   UNL     1       9.954  11.383   0.534  1.00  0.00     0.124 S 
ATOM     59  O   UNL     1      10.687  11.606   1.775  1.00  0.00    -0.237 OA
ATOM     60  O   UNL     1      10.453  10.313  -0.323  1.00  0.00    -0.237 OA
ATOM     61  O   UNL     1       9.529  12.593  -0.166  1.00  0.00    -0.744 OA
ENDBRANCH  54  58
ENDBRANCH  27  51
BRANCH  39  62
ATOM     62  C   UNL     1      10.515   7.782   8.585  1.00  0.00     0.023 A 
ATOM     63  C   UNL     1      10.149   9.003   9.178  1.00  0.00     0.031 A 
ATOM     64  C   UNL     1      11.845   7.349   8.736  1.00  0.00     0.131 A 
ATOM     65  C   UNL     1      11.117   9.783   9.829  1.00  0.00     0.055 A 
ATOM     66  C   UNL     1      12.786   8.094   9.447  1.00  0.00     0.041 A 
ATOM     67  F   UNL     1      12.255   6.194   8.188  1.00  0.00    -0.206 F 
ATOM     68  C   UNL     1      12.429   9.328   9.983  1.00  0.00     0.022 A 
BRANCH  65  69
ATOM     69  S   UNL     1      10.671  11.459  10.363  1.00  0.00     0.124 S 
ATOM     70  O   UNL     1      10.207  12.060   9.117  1.00  0.00    -0.237 OA
ATOM     71  O   UNL     1       9.645  11.202  11.368  1.00  0.00    -0.237 OA
ATOM     72  O   UNL     1      11.926  11.999  10.883  1.00  0.00    -0.744 OA
ENDBRANCH  65  69
ENDBRANCH  39  62
ENDBRANCH  13  14
ENDBRANCH   6   8
ENDBRANCH   3   4
ENDBRANCH   2   3
ENDBRANCH   1   2
BRANCH   1  73
ATOM     73  C   UNL     1       5.061  -3.609  -2.802  1.00  0.00     0.002 C 
BRANCH  73  74
ATOM     74  C   UNL     1       6.594  -3.625  -2.861  1.00  0.00     0.021 C 
BRANCH  74  75
ATOM     75  C   UNL     1       7.297  -4.810  -2.193  1.00  0.00     0.116 C 
BRANCH  75  76
ATOM     76  N   UNL     1       6.894  -6.110  -2.705  1.00  0.00    -0.352 N 
ATOM     77  C   UNL     1       7.695  -7.117  -3.195  1.00  0.00     0.251 C 
ATOM     78  H   UNL     1       5.927  -6.294  -2.700  1.00  0.00     0.163 HD
ATOM     79  O   UNL     1       7.263  -8.253  -3.356  1.00  0.00    -0.269 OA
BRANCH  77  80
ATOM     80  C   UNL     1       9.063  -6.790  -3.642  1.00  0.00     0.041 A 
ATOM     81  C   UNL     1       9.167  -6.137  -4.875  1.00  0.00     0.014 A 
ATOM     82  C   UNL     1      10.206  -7.122  -2.887  1.00  0.00     0.039 A 
ATOM     83  C   UNL     1      10.414  -5.760  -5.344  1.00  0.00     0.003 A 
ATOM     84  C   UNL     1      11.473  -6.745  -3.358  1.00  0.00     0.039 A 
ATOM     85  C   UNL     1      11.546  -6.053  -4.587  1.00  0.00     0.026 A 
BRANCH  84  86
ATOM     86  N   UNL     1      12.656  -6.874  -2.583  1.00  0.00    -0.355 N 
ATOM     87  H   UNL     1      12.813  -7.723  -2.110  1.00  0.00     0.167 HD
BRANCH  86  88
ATOM     88  C   UNL     1      13.625  -5.839  -2.455  1.00  0.00     0.050 A 
ATOM     89  C   UNL     1      13.133  -4.533  -2.324  1.00  0.00     0.047 A 
ATOM     90  C   UNL     1      15.035  -6.033  -2.540  1.00  0.00     0.025 A 
ATOM     91  C   UNL     1      13.999  -3.475  -2.439  1.00  0.00     0.114 A 
ATOM     92  C   UNL     1      15.830  -4.859  -2.483  1.00  0.00     0.072 A 
ATOM     93  C   UNL     1      15.710  -7.271  -2.720  1.00  0.00     0.033 A 
ATOM     94  N   UNL     1      15.330  -3.620  -2.494  1.00  0.00    -0.256 NA
ATOM     95  C   UNL     1      17.211  -4.952  -2.435  1.00  0.00     0.030 A 
ATOM     96  C   UNL     1      17.111  -7.325  -2.740  1.00  0.00     0.041 A 
ATOM     97  C   UNL     1      17.865  -6.175  -2.545  1.00  0.00     0.023 A 
ATOM     98  Cl  UNL     1      17.926  -8.813  -3.030  1.00  0.00    -0.084 Cl
ENDBRANCH  86  88
ENDBRANCH  84  86
ENDBRANCH  77  80
ENDBRANCH  75  76
ENDBRANCH  74  75
ENDBRANCH  73  74
ENDBRANCH   1  73
TORSDOF 18
