REMARK SMILES C=CCOc1ccccc1/C=C1\SC(=S)N(CC(=O)NCCCCCCNC(=O)c2ccc(-c3c4nc(c(-c5cc(S(=O)(=O)[O-])ccc5F)c5ccc([nH]5)c(-c5cc(S(=O)(=O)[O-])ccc5F)c5nc(c(-c6cc(S(=O)(=O)[O-])ccc6F)c6ccc3[nH]6)C=C5)C=C4)cc2)C1=O
REMARK SMILES IDX 22 1 21 2 20 3 18 4 19 5 17 7 16 8 11 9 12 10 13 11 93 12
REMARK SMILES IDX 14 13 94 14 15 15 10 16 5 17 6 18 7 19 9 20 8 21 4 22 3 23
REMARK SMILES IDX 2 24 1 25 23 26 24 27 25 28 26 29 27 30 28 31 29 33 30 34
REMARK SMILES IDX 31 35 92 36 32 37 91 38 33 39 34 40 35 41 85 42 36 43 90 44
REMARK SMILES IDX 84 45 86 46 37 47 89 48 83 49 82 50 38 52 70 53 50 54 69 55
REMARK SMILES IDX 51 56 54 57 68 58 87 59 52 60 53 61 67 63 88 64 55 65 39 66
REMARK SMILES IDX 40 67 48 68 41 69 47 70 49 71 46 72 42 73 43 74 44 75 45 76
REMARK SMILES IDX 71 77 72 78 80 79 73 80 79 81 81 82 78 83 74 84 75 85 76 86
REMARK SMILES IDX 77 87 56 88 57 89 65 90 58 91 64 92 66 93 63 94 59 95 60 96
REMARK SMILES IDX 61 97 62 98
REMARK H PARENT 20 6 27 32 86 51 54 62
REMARK Flexibility Score: inf
ROOT
ATOM      1  C   UNL     1       4.982  -4.414   2.519  1.00  0.00     0.021 C 
ENDROOT
BRANCH   1   2
ATOM      2  C   UNL     1       5.141  -3.642   3.828  1.00  0.00     0.116 C 
BRANCH   2   3
ATOM      3  N   UNL     1       5.715  -2.330   3.620  1.00  0.00    -0.355 N 
ATOM      4  C   UNL     1       5.147  -1.093   3.678  1.00  0.00     0.240 C 
ATOM      5  O   UNL     1       5.913  -0.124   3.681  1.00  0.00    -0.273 OA
ATOM      6  H   UNL     1       6.674  -2.332   3.400  1.00  0.00     0.163 HD
BRANCH   4   7
ATOM      7  C   UNL     1       3.650  -0.889   3.937  1.00  0.00     0.227 C 
BRANCH   7   8
ATOM      8  N   UNL     1       2.749  -1.773   3.205  1.00  0.00    -0.283 N 
ATOM      9  C   UNL     1       1.337  -2.449  -0.033  1.00  0.00     0.033 C 
ATOM     10  C   UNL     1       1.681  -2.543   1.257  1.00  0.00     0.081 C 
ATOM     11  S   UNL     1       0.952  -3.471   2.503  1.00  0.00    -0.054 SA
ATOM     12  C   UNL     1       2.740  -1.673   1.825  1.00  0.00     0.266 C 
ATOM     13  C   UNL     1       1.786  -2.585   3.768  1.00  0.00     0.148 C 
ATOM     14  O   UNL     1       3.460  -0.944   1.156  1.00  0.00    -0.268 OA
ATOM     15  S   UNL     1       1.391  -2.758   5.380  1.00  0.00    -0.052 S 
BRANCH   9  16
ATOM     16  C   UNL     1       0.135  -3.022  -0.650  1.00  0.00     0.018 A 
ATOM     17  C   UNL     1      -1.163  -2.711  -0.202  1.00  0.00     0.127 A 
ATOM     18  C   UNL     1      -2.283  -3.276  -0.811  1.00  0.00     0.047 A 
ATOM     19  C   UNL     1      -2.122  -4.107  -1.919  1.00  0.00     0.004 A 
ATOM     20  C   UNL     1       0.280  -3.841  -1.777  1.00  0.00     0.012 A 
ATOM     21  C   UNL     1      -0.845  -4.380  -2.408  1.00  0.00     0.001 A 
BRANCH  17  22
ATOM     22  O   UNL     1      -1.366  -1.907   0.894  1.00  0.00    -0.489 OA
BRANCH  22  23
ATOM     23  C   UNL     1      -1.539  -0.533   0.533  1.00  0.00     0.257 C 
BRANCH  23  24
ATOM     24  C   UNL     1      -0.318   0.242   0.936  1.00  0.00     0.006 C 
ATOM     25  C   UNL     1       0.469   0.915   0.086  1.00  0.00     0.007 C 
ENDBRANCH  23  24
ENDBRANCH  22  23
ENDBRANCH  17  22
ENDBRANCH   9  16
ENDBRANCH   7   8
ENDBRANCH   4   7
ENDBRANCH   2   3
ENDBRANCH   1   2
BRANCH   1  26
ATOM     26  C   UNL     1       6.306  -4.867   1.893  1.00  0.00     0.002 C 
BRANCH  26  27
ATOM     27  C   UNL     1       7.185  -5.742   2.793  1.00  0.00     0.002 C 
BRANCH  27  28
ATOM     28  C   UNL     1       6.493  -6.979   3.374  1.00  0.00     0.021 C 
BRANCH  28  29
ATOM     29  C   UNL     1       5.951  -7.955   2.334  1.00  0.00     0.116 C 
BRANCH  29  30
ATOM     30  N   UNL     1       7.012  -8.526   1.521  1.00  0.00    -0.352 N 
ATOM     31  C   UNL     1       7.330  -9.844   1.305  1.00  0.00     0.251 C 
ATOM     32  H   UNL     1       7.585  -7.873   1.058  1.00  0.00     0.163 HD
ATOM     33  O   UNL     1       8.395 -10.130   0.766  1.00  0.00    -0.269 OA
BRANCH  31  34
ATOM     34  C   UNL     1       6.402 -10.911   1.739  1.00  0.00     0.039 A 
ATOM     35  C   UNL     1       6.920 -12.038   2.384  1.00  0.00     0.014 A 
ATOM     36  C   UNL     1       5.029 -10.812   1.496  1.00  0.00     0.014 A 
ATOM     37  C   UNL     1       6.054 -13.037   2.836  1.00  0.00     0.010 A 
ATOM     38  C   UNL     1       4.162 -11.778   2.004  1.00  0.00     0.010 A 
ATOM     39  C   UNL     1       4.665 -12.902   2.678  1.00  0.00    -0.014 A 
BRANCH  39  40
ATOM     40  C   UNL     1       3.725 -13.930   3.199  1.00  0.00     0.031 A 
ATOM     41  C   UNL     1       2.877 -14.726   2.244  1.00  0.00     0.074 A 
ATOM     42  C   UNL     1       3.598 -14.108   4.529  1.00  0.00     0.049 A 
ATOM     43  N   UNL     1       1.934 -15.596   2.502  1.00  0.00    -0.248 NA
ATOM     44  C   UNL     1       3.103 -14.495   0.809  1.00  0.00     0.031 C 
ATOM     45  C   UNL     1       4.347 -13.377   5.555  1.00  0.00     0.029 A 
ATOM     46  N   UNL     1       2.788 -14.949   5.251  1.00  0.00    -0.354 N 
ATOM     47  C   UNL     1       1.453 -16.013   1.266  1.00  0.00     0.074 A 
ATOM     48  C   UNL     1       2.167 -15.254   0.261  1.00  0.00     0.031 C 
ATOM     49  C   UNL     1       3.972 -13.812   6.769  1.00  0.00     0.029 A 
ATOM     50  C   UNL     1       2.925 -14.817   6.614  1.00  0.00     0.049 A 
ATOM     51  H   UNL     1       2.167 -15.587   4.832  1.00  0.00     0.167 HD
ATOM     52  C   UNL     1       0.520 -16.959   0.993  1.00  0.00     0.034 A 
ATOM     53  C   UNL     1       2.268 -15.424   7.624  1.00  0.00     0.034 A 
ATOM     54  C   UNL     1      -0.178 -17.715   2.003  1.00  0.00     0.049 A 
ATOM     55  C   UNL     1       1.208 -16.447   7.292  1.00  0.00     0.074 A 
ATOM     56  C   UNL     1      -1.124 -18.712   1.835  1.00  0.00     0.029 A 
ATOM     57  N   UNL     1      -0.006 -17.561   3.373  1.00  0.00    -0.354 N 
ATOM     58  N   UNL     1       0.789 -16.850   6.114  1.00  0.00    -0.248 NA
ATOM     59  C   UNL     1       0.543 -17.106   8.424  1.00  0.00     0.031 C 
ATOM     60  C   UNL     1      -1.564 -19.120   3.099  1.00  0.00     0.029 A 
ATOM     61  C   UNL     1      -0.841 -18.430   4.058  1.00  0.00     0.049 A 
ATOM     62  H   UNL     1       0.618 -16.927   3.795  1.00  0.00     0.167 HD
ATOM     63  C   UNL     1      -0.161 -17.837   6.369  1.00  0.00     0.074 A 
ATOM     64  C   UNL     1      -0.238 -17.978   7.807  1.00  0.00     0.031 C 
ATOM     65  C   UNL     1      -0.902 -18.562   5.494  1.00  0.00     0.034 A 
BRANCH  52  66
ATOM     66  C   UNL     1       0.193 -17.217  -0.458  1.00  0.00     0.023 A 
ATOM     67  C   UNL     1       1.149 -17.746  -1.342  1.00  0.00     0.031 A 
ATOM     68  C   UNL     1      -1.088 -16.934  -0.964  1.00  0.00     0.131 A 
ATOM     69  C   UNL     1       0.830 -17.920  -2.697  1.00  0.00     0.055 A 
ATOM     70  C   UNL     1      -1.423 -17.180  -2.297  1.00  0.00     0.041 A 
ATOM     71  F   UNL     1      -2.035 -16.409  -0.172  1.00  0.00    -0.206 F 
ATOM     72  C   UNL     1      -0.458 -17.665  -3.175  1.00  0.00     0.022 A 
BRANCH  69  73
ATOM     73  S   UNL     1       2.154 -18.376  -3.849  1.00  0.00     0.124 S 
ATOM     74  O   UNL     1       3.057 -17.235  -3.724  1.00  0.00    -0.237 OA
ATOM     75  O   UNL     1       2.636 -19.636  -3.294  1.00  0.00    -0.237 OA
ATOM     76  O   UNL     1       1.468 -18.482  -5.135  1.00  0.00    -0.744 OA
ENDBRANCH  69  73
ENDBRANCH  52  66
BRANCH  53  77
ATOM     77  C   UNL     1       2.564 -15.078   9.046  1.00  0.00     0.023 A 
ATOM     78  C   UNL     1       3.050 -16.047   9.939  1.00  0.00     0.031 A 
ATOM     79  C   UNL     1       2.289 -13.796   9.554  1.00  0.00     0.131 A 
ATOM     80  C   UNL     1       3.178 -15.741  11.303  1.00  0.00     0.055 A 
ATOM     81  C   UNL     1       2.481 -13.478  10.899  1.00  0.00     0.041 A 
ATOM     82  F   UNL     1       1.826 -12.829   8.745  1.00  0.00    -0.206 F 
ATOM     83  C   UNL     1       2.909 -14.460  11.787  1.00  0.00     0.022 A 
BRANCH  80  84
ATOM     84  S   UNL     1       3.579 -17.083  12.456  1.00  0.00     0.124 S 
ATOM     85  O   UNL     1       2.533 -18.054  12.157  1.00  0.00    -0.237 OA
ATOM     86  O   UNL     1       4.930 -17.445  12.039  1.00  0.00    -0.237 OA
ATOM     87  O   UNL     1       3.482 -16.444  13.767  1.00  0.00    -0.744 OA
ENDBRANCH  80  84
ENDBRANCH  53  77
BRANCH  65  88
ATOM     88  C   UNL     1      -1.814 -19.615   6.075  1.00  0.00     0.023 A 
ATOM     89  C   UNL     1      -2.934 -19.278   6.854  1.00  0.00     0.031 A 
ATOM     90  C   UNL     1      -1.546 -20.978   5.854  1.00  0.00     0.131 A 
ATOM     91  C   UNL     1      -3.712 -20.292   7.433  1.00  0.00     0.055 A 
ATOM     92  C   UNL     1      -2.359 -21.981   6.382  1.00  0.00     0.041 A 
ATOM     93  F   UNL     1      -0.489 -21.356   5.117  1.00  0.00    -0.206 F 
ATOM     94  C   UNL     1      -3.442 -21.641   7.188  1.00  0.00     0.022 A 
BRANCH  91  95
ATOM     95  S   UNL     1      -5.034 -19.825   8.583  1.00  0.00     0.124 S 
ATOM     96  O   UNL     1      -4.300 -19.094   9.610  1.00  0.00    -0.237 OA
ATOM     97  O   UNL     1      -5.915 -19.025   7.739  1.00  0.00    -0.237 OA
ATOM     98  O   UNL     1      -5.586 -21.110   9.011  1.00  0.00    -0.744 OA
ENDBRANCH  91  95
ENDBRANCH  65  88
ENDBRANCH  39  40
ENDBRANCH  31  34
ENDBRANCH  29  30
ENDBRANCH  28  29
ENDBRANCH  27  28
ENDBRANCH  26  27
ENDBRANCH   1  26
TORSDOF 21
