REMARK SMILES O=C(NCCCCCCNC(=O)[C@@]1(Cl)C=CC=C(c2ccccc2)[C@H]1Cl)c1ccc(-c2c3nc(c(-c4cc(S(=O)(=O)[O-])ccc4F)c4ccc([nH]4)c(-c4cc(S(=O)(=O)[O-])ccc4F)c4nc(c(-c5cc(S(=O)(=O)[O-])ccc5F)c5ccc2[nH]5)C=C4)C=C3)cc1
REMARK SMILES IDX 5 1 4 2 3 3 1 4 2 5 27 7 28 8 89 9 29 10 88 11 30 12 31 13
REMARK SMILES IDX 32 14 82 15 33 16 87 17 81 18 83 19 34 20 86 21 80 22 79 23
REMARK SMILES IDX 35 25 67 26 47 27 66 28 48 29 51 30 65 31 84 32 49 33 50 34
REMARK SMILES IDX 64 36 85 37 52 38 36 39 37 40 45 41 38 42 44 43 46 44 43 45
REMARK SMILES IDX 39 46 40 47 41 48 42 49 68 50 69 51 77 52 70 53 76 54 78 55
REMARK SMILES IDX 75 56 71 57 72 58 73 59 74 60 53 61 54 62 62 63 55 64 61 65
REMARK SMILES IDX 63 66 60 67 56 68 57 69 58 70 59 71 6 72 7 73 8 74 9 75
REMARK SMILES IDX 10 76 11 77 12 79 13 80 14 81 15 82 25 83 16 84 18 85 26 86
REMARK SMILES IDX 17 87 19 88 20 89 24 90 21 91 23 92 22 93
REMARK H PARENT 3 6 83 24 51 35 10 78
REMARK Flexibility Score: inf
ROOT
ATOM      1  C   UNL     1       4.606  -2.095  -1.617  1.00  0.00     0.021 C 
ENDROOT
BRANCH   1   2
ATOM      2  C   UNL     1       4.364  -0.674  -1.127  1.00  0.00     0.116 C 
BRANCH   2   3
ATOM      3  N   UNL     1       2.954  -0.332  -1.030  1.00  0.00    -0.352 N 
ATOM      4  O   UNL     1       1.045   0.326  -0.024  1.00  0.00    -0.269 OA
ATOM      5  C   UNL     1       2.267   0.207   0.032  1.00  0.00     0.251 C 
ATOM      6  H   UNL     1       2.418  -0.510  -1.836  1.00  0.00     0.163 HD
BRANCH   5   7
ATOM      7  C   UNL     1       2.997   0.618   1.254  1.00  0.00     0.039 A 
ATOM      8  C   UNL     1       4.181   1.354   1.167  1.00  0.00     0.014 A 
ATOM      9  C   UNL     1       2.493   0.253   2.506  1.00  0.00     0.014 A 
ATOM     10  C   UNL     1       4.932   1.595   2.313  1.00  0.00     0.010 A 
ATOM     11  C   UNL     1       3.207   0.573   3.665  1.00  0.00     0.010 A 
ATOM     12  C   UNL     1       4.451   1.217   3.577  1.00  0.00    -0.014 A 
BRANCH  12  13
ATOM     13  C   UNL     1       5.248   1.550   4.788  1.00  0.00     0.031 A 
ATOM     14  C   UNL     1       5.840   0.470   5.653  1.00  0.00     0.074 A 
ATOM     15  C   UNL     1       5.465   2.847   5.082  1.00  0.00     0.049 A 
ATOM     16  N   UNL     1       6.586   0.586   6.723  1.00  0.00    -0.248 NA
ATOM     17  C   UNL     1       5.548  -0.919   5.274  1.00  0.00     0.031 C 
ATOM     18  C   UNL     1       4.935   3.980   4.319  1.00  0.00     0.029 A 
ATOM     19  N   UNL     1       6.202   3.434   6.077  1.00  0.00    -0.354 N 
ATOM     20  C   UNL     1       6.840  -0.711   7.157  1.00  0.00     0.074 A 
ATOM     21  C   UNL     1       6.136  -1.596   6.251  1.00  0.00     0.031 C 
ATOM     22  C   UNL     1       5.409   5.121   4.839  1.00  0.00     0.029 A 
ATOM     23  C   UNL     1       6.219   4.808   6.010  1.00  0.00     0.049 A 
ATOM     24  H   UNL     1       6.674   2.922   6.773  1.00  0.00     0.167 HD
ATOM     25  C   UNL     1       7.595  -1.123   8.208  1.00  0.00     0.034 A 
ATOM     26  C   UNL     1       6.808   5.718   6.809  1.00  0.00     0.034 A 
ATOM     27  C   UNL     1       8.293  -0.225   9.100  1.00  0.00     0.049 A 
ATOM     28  C   UNL     1       7.610   5.236   7.987  1.00  0.00     0.074 A 
ATOM     29  C   UNL     1       9.113  -0.536  10.172  1.00  0.00     0.029 A 
ATOM     30  N   UNL     1       8.245   1.163   9.033  1.00  0.00    -0.354 N 
ATOM     31  N   UNL     1       7.855   4.005   8.370  1.00  0.00    -0.248 NA
ATOM     32  C   UNL     1       8.214   6.268   8.837  1.00  0.00     0.031 C 
ATOM     33  C   UNL     1       9.505   0.658  10.789  1.00  0.00     0.029 A 
ATOM     34  C   UNL     1       8.992   1.719  10.061  1.00  0.00     0.049 A 
ATOM     35  H   UNL     1       7.752   1.677   8.353  1.00  0.00     0.167 HD
ATOM     36  C   UNL     1       8.660   4.115   9.499  1.00  0.00     0.074 A 
ATOM     37  C   UNL     1       8.875   5.532   9.718  1.00  0.00     0.031 C 
ATOM     38  C   UNL     1       9.178   3.135  10.283  1.00  0.00     0.034 A 
BRANCH  25  39
ATOM     39  C   UNL     1       7.664  -2.610   8.474  1.00  0.00     0.023 A 
ATOM     40  C   UNL     1       8.239  -3.504   7.553  1.00  0.00     0.031 A 
ATOM     41  C   UNL     1       7.120  -3.146   9.655  1.00  0.00     0.131 A 
ATOM     42  C   UNL     1       8.189  -4.887   7.792  1.00  0.00     0.055 A 
ATOM     43  C   UNL     1       7.143  -4.517   9.924  1.00  0.00     0.041 A 
ATOM     44  F   UNL     1       6.541  -2.346  10.565  1.00  0.00    -0.206 F 
ATOM     45  C   UNL     1       7.666  -5.398   8.982  1.00  0.00     0.022 A 
BRANCH  42  46
ATOM     46  S   UNL     1       8.683  -6.016   6.460  1.00  0.00     0.124 S 
ATOM     47  O   UNL     1       7.801  -5.596   5.373  1.00  0.00    -0.237 OA
ATOM     48  O   UNL     1      10.097  -5.704   6.291  1.00  0.00    -0.237 OA
ATOM     49  O   UNL     1       8.395  -7.340   7.008  1.00  0.00    -0.744 OA
ENDBRANCH  42  46
ENDBRANCH  25  39
BRANCH  26  50
ATOM     50  C   UNL     1       6.646   7.173   6.534  1.00  0.00     0.023 A 
ATOM     51  C   UNL     1       7.745   7.969   6.180  1.00  0.00     0.031 A 
ATOM     52  C   UNL     1       5.387   7.792   6.640  1.00  0.00     0.131 A 
ATOM     53  C   UNL     1       7.572   9.347   5.977  1.00  0.00     0.055 A 
ATOM     54  C   UNL     1       5.211   9.152   6.388  1.00  0.00     0.041 A 
ATOM     55  F   UNL     1       4.302   7.072   6.971  1.00  0.00    -0.206 F 
ATOM     56  C   UNL     1       6.311   9.941   6.065  1.00  0.00     0.022 A 
BRANCH  53  57
ATOM     57  S   UNL     1       9.037  10.368   5.661  1.00  0.00     0.124 S 
ATOM     58  O   UNL     1       9.842  10.110   6.850  1.00  0.00    -0.237 OA
ATOM     59  O   UNL     1       9.536   9.802   4.412  1.00  0.00    -0.237 OA
ATOM     60  O   UNL     1       8.492  11.720   5.557  1.00  0.00    -0.744 OA
ENDBRANCH  53  57
ENDBRANCH  26  50
BRANCH  38  61
ATOM     61  C   UNL     1      10.054   3.579  11.428  1.00  0.00     0.023 A 
ATOM     62  C   UNL     1       9.533   4.295  12.521  1.00  0.00     0.031 A 
ATOM     63  C   UNL     1      11.435   3.321  11.403  1.00  0.00     0.131 A 
ATOM     64  C   UNL     1      10.397   4.783  13.512  1.00  0.00     0.055 A 
ATOM     65  C   UNL     1      12.282   3.757  12.423  1.00  0.00     0.041 A 
ATOM     66  F   UNL     1      11.986   2.645  10.382  1.00  0.00    -0.206 F 
ATOM     67  C   UNL     1      11.767   4.506  13.477  1.00  0.00     0.022 A 
BRANCH  64  68
ATOM     68  S   UNL     1       9.724   5.876  14.793  1.00  0.00     0.124 S 
ATOM     69  O   UNL     1       9.159   6.963  14.000  1.00  0.00    -0.237 OA
ATOM     70  O   UNL     1       8.761   5.011  15.467  1.00  0.00    -0.237 OA
ATOM     71  O   UNL     1      10.896   6.234  15.589  1.00  0.00    -0.744 OA
ENDBRANCH  64  68
ENDBRANCH  38  61
ENDBRANCH  12  13
ENDBRANCH   5   7
ENDBRANCH   2   3
ENDBRANCH   1   2
BRANCH   1  72
ATOM     72  C   UNL     1       4.165  -2.389  -3.049  1.00  0.00     0.002 C 
BRANCH  72  73
ATOM     73  C   UNL     1       4.694  -1.448  -4.133  1.00  0.00     0.002 C 
BRANCH  73  74
ATOM     74  C   UNL     1       6.207  -1.204  -4.172  1.00  0.00     0.021 C 
BRANCH  74  75
ATOM     75  C   UNL     1       7.109  -2.437  -4.172  1.00  0.00     0.116 C 
BRANCH  75  76
ATOM     76  N   UNL     1       6.750  -3.409  -5.184  1.00  0.00    -0.354 N 
ATOM     77  C   UNL     1       7.504  -4.129  -6.063  1.00  0.00     0.247 C 
ATOM     78  H   UNL     1       5.782  -3.582  -5.249  1.00  0.00     0.163 HD
ATOM     79  O   UNL     1       6.886  -5.008  -6.682  1.00  0.00    -0.273 OA
BRANCH  77  80
ATOM     80  C   UNL     1       9.010  -3.845  -6.338  1.00  0.00     0.161 C 
ATOM     81  Cl  UNL     1       9.914  -3.997  -4.757  1.00  0.00    -0.102 Cl
ATOM     82  C   UNL     1       9.590  -4.999  -7.152  1.00  0.00     0.008 C 
ATOM     83  C   UNL     1       9.273  -2.442  -6.982  1.00  0.00     0.146 C 
ATOM     84  C   UNL     1      10.513  -4.831  -8.107  1.00  0.00    -0.002 C 
ATOM     85  C   UNL     1      10.457  -2.404  -7.947  1.00  0.00    -0.020 C 
ATOM     86  Cl  UNL     1       7.846  -1.835  -7.937  1.00  0.00    -0.115 Cl
ATOM     87  C   UNL     1      11.023  -3.526  -8.431  1.00  0.00     0.006 C 
BRANCH  85  88
ATOM     88  C   UNL     1      10.963  -1.098  -8.412  1.00  0.00    -0.021 A 
ATOM     89  C   UNL     1      10.880  -0.776  -9.777  1.00  0.00     0.008 A 
ATOM     90  C   UNL     1      11.501  -0.159  -7.527  1.00  0.00     0.008 A 
ATOM     91  C   UNL     1      11.324   0.460 -10.248  1.00  0.00     0.001 A 
ATOM     92  C   UNL     1      11.948   1.079  -8.001  1.00  0.00     0.001 A 
ATOM     93  C   UNL     1      11.858   1.388  -9.359  1.00  0.00     0.000 A 
ENDBRANCH  85  88
ENDBRANCH  77  80
ENDBRANCH  75  76
ENDBRANCH  74  75
ENDBRANCH  73  74
ENDBRANCH  72  73
ENDBRANCH   1  72
TORSDOF 17
