REMARK SMILES CCOc1cc2nccc(Nc3ccc(C(=O)NCCCCCCNC(=O)c4ccc(-c5c6nc(c(-c7cc(S(=O)(=O)[O-])ccc7F)c7ccc([nH]7)c(-c7cc(S(=O)(=O)[O-])ccc7F)c7nc(c(-c8cc(S(=O)(=O)[O-])ccc8F)c8ccc5[nH]8)C=C7)C=C6)cc4)cc3)c2cc1OCC
REMARK SMILES IDX 21 1 20 2 19 3 18 4 16 5 17 6 15 8 12 9 13 10 92 11 14 12
REMARK SMILES IDX 91 13 11 14 10 16 4 17 5 18 95 19 6 20 94 21 7 22 93 23 8 24
REMARK SMILES IDX 9 25 3 26 2 27 1 28 96 29 97 30 98 31 22 32 23 33 24 34
REMARK SMILES IDX 25 35 26 36 27 38 28 39 29 40 90 41 30 42 89 43 31 44 32 45
REMARK SMILES IDX 33 46 83 47 34 48 88 49 82 50 84 51 35 52 87 53 81 54 80 55
REMARK SMILES IDX 36 57 68 58 48 59 67 60 49 61 52 62 66 63 85 64 50 65 51 66
REMARK SMILES IDX 65 68 86 69 53 70 37 71 38 72 46 73 39 74 45 75 47 76 44 77
REMARK SMILES IDX 40 78 41 79 42 80 43 81 69 82 70 83 78 84 71 85 77 86 79 87
REMARK SMILES IDX 76 88 72 89 73 90 74 91 75 92 54 93 55 94 63 95 56 96 62 97
REMARK SMILES IDX 64 98 61 99 57 100 58 101 59 102 60 103
REMARK H PARENT 18 7 11 15 25 37 84 56 52 67
REMARK Flexibility Score: inf
ROOT
ATOM      1  C   UNL     1      15.293  -4.054   1.517  1.00  0.00     0.002 C 
ENDROOT
BRANCH   1   2
ATOM      2  C   UNL     1      13.797  -3.715   1.478  1.00  0.00     0.021 C 
BRANCH   2   3
ATOM      3  C   UNL     1      13.268  -3.272   2.842  1.00  0.00     0.116 C 
BRANCH   3   4
ATOM      4  N   UNL     1      13.647  -1.892   3.072  1.00  0.00    -0.352 N 
ATOM      5  C   UNL     1      12.947  -0.722   2.956  1.00  0.00     0.251 C 
ATOM      6  O   UNL     1      13.551   0.336   3.136  1.00  0.00    -0.269 OA
ATOM      7  H   UNL     1      14.579  -1.775   3.365  1.00  0.00     0.163 HD
BRANCH   5   8
ATOM      8  C   UNL     1      11.478  -0.692   2.731  1.00  0.00     0.039 A 
ATOM      9  C   UNL     1       8.668  -0.613   2.654  1.00  0.00     0.038 A 
ATOM     10  C   UNL     1       9.390   0.393   3.304  1.00  0.00     0.027 A 
ATOM     11  C   UNL     1       9.362  -1.625   1.993  1.00  0.00     0.027 A 
ATOM     12  C   UNL     1      10.781   0.349   3.354  1.00  0.00     0.016 A 
ATOM     13  C   UNL     1      10.761  -1.629   1.981  1.00  0.00     0.016 A 
BRANCH   9  14
ATOM     14  N   UNL     1       7.274  -0.569   2.692  1.00  0.00    -0.355 N 
ATOM     15  H   UNL     1       6.894   0.281   2.374  1.00  0.00     0.167 HD
BRANCH  14  16
ATOM     16  C   UNL     1       6.302  -1.511   3.101  1.00  0.00     0.050 A 
ATOM     17  C   UNL     1       2.241  -0.829   2.138  1.00  0.00     0.163 A 
ATOM     18  C   UNL     1       2.616  -1.914   2.946  1.00  0.00     0.079 A 
ATOM     19  C   UNL     1       3.230  -0.025   1.578  1.00  0.00     0.161 A 
ATOM     20  C   UNL     1       3.959  -2.183   3.244  1.00  0.00     0.076 A 
ATOM     21  C   UNL     1       4.561  -0.269   1.882  1.00  0.00     0.063 A 
ATOM     22  N   UNL     1       4.284  -3.226   4.028  1.00  0.00    -0.256 NA
ATOM     23  C   UNL     1       4.948  -1.315   2.734  1.00  0.00     0.028 A 
ATOM     24  C   UNL     1       5.594  -3.434   4.309  1.00  0.00     0.114 A 
ATOM     25  C   UNL     1       6.625  -2.623   3.871  1.00  0.00     0.047 A 
BRANCH  17  26
ATOM     26  O   UNL     1       0.938  -0.436   2.014  1.00  0.00    -0.490 OA
BRANCH  26  27
ATOM     27  C   UNL     1       0.057  -1.390   1.415  1.00  0.00     0.226 C 
ATOM     28  C   UNL     1      -0.970  -0.605   0.604  1.00  0.00     0.049 C 
ENDBRANCH  26  27
ENDBRANCH  17  26
BRANCH  19  29
ATOM     29  O   UNL     1       3.065   1.046   0.747  1.00  0.00    -0.490 OA
BRANCH  29  30
ATOM     30  C   UNL     1       2.149   0.888  -0.333  1.00  0.00     0.226 C 
ATOM     31  C   UNL     1       2.369  -0.357  -1.185  1.00  0.00     0.049 C 
ENDBRANCH  29  30
ENDBRANCH  19  29
ENDBRANCH  14  16
ENDBRANCH   9  14
ENDBRANCH   5   8
ENDBRANCH   3   4
ENDBRANCH   2   3
ENDBRANCH   1   2
BRANCH   1  32
ATOM     32  C   UNL     1      15.645  -5.233   2.433  1.00  0.00     0.002 C 
BRANCH  32  33
ATOM     33  C   UNL     1      14.882  -6.523   2.125  1.00  0.00     0.021 C 
BRANCH  33  34
ATOM     34  C   UNL     1      15.143  -7.068   0.726  1.00  0.00     0.116 C 
BRANCH  34  35
ATOM     35  N   UNL     1      16.532  -7.472   0.571  1.00  0.00    -0.352 N 
ATOM     36  C   UNL     1      17.035  -8.704   0.231  1.00  0.00     0.251 C 
ATOM     37  H   UNL     1      17.201  -6.768   0.732  1.00  0.00     0.163 HD
ATOM     38  O   UNL     1      18.219  -8.956   0.410  1.00  0.00    -0.269 OA
BRANCH  36  39
ATOM     39  C   UNL     1      16.123  -9.719  -0.337  1.00  0.00     0.039 A 
ATOM     40  C   UNL     1      16.186 -11.033   0.128  1.00  0.00     0.014 A 
ATOM     41  C   UNL     1      15.201  -9.361  -1.325  1.00  0.00     0.014 A 
ATOM     42  C   UNL     1      15.286 -11.981  -0.364  1.00  0.00     0.010 A 
ATOM     43  C   UNL     1      14.255 -10.284  -1.754  1.00  0.00     0.010 A 
ATOM     44  C   UNL     1      14.295 -11.607  -1.287  1.00  0.00    -0.014 A 
BRANCH  44  45
ATOM     45  C   UNL     1      13.306 -12.587  -1.806  1.00  0.00     0.031 A 
ATOM     46  C   UNL     1      13.281 -12.908  -3.276  1.00  0.00     0.074 A 
ATOM     47  C   UNL     1      12.394 -13.129  -0.975  1.00  0.00     0.049 A 
ATOM     48  N   UNL     1      12.431 -13.638  -3.951  1.00  0.00    -0.248 NA
ATOM     49  C   UNL     1      14.336 -12.299  -4.101  1.00  0.00     0.031 C 
ATOM     50  C   UNL     1      12.305 -12.873   0.465  1.00  0.00     0.029 A 
ATOM     51  N   UNL     1      11.360 -13.997  -1.221  1.00  0.00    -0.354 N 
ATOM     52  C   UNL     1      12.838 -13.562  -5.279  1.00  0.00     0.074 A 
ATOM     53  C   UNL     1      13.971 -12.662  -5.320  1.00  0.00     0.031 C 
ATOM     54  C   UNL     1      11.288 -13.585   0.975  1.00  0.00     0.029 A 
ATOM     55  C   UNL     1      10.616 -14.303  -0.104  1.00  0.00     0.049 A 
ATOM     56  H   UNL     1      11.168 -14.366  -2.113  1.00  0.00     0.167 HD
ATOM     57  C   UNL     1      12.327 -14.202  -6.359  1.00  0.00     0.034 A 
ATOM     58  C   UNL     1       9.507 -15.058   0.030  1.00  0.00     0.034 A 
ATOM     59  C   UNL     1      11.205 -15.105  -6.295  1.00  0.00     0.049 A 
ATOM     60  C   UNL     1       8.930 -15.727  -1.194  1.00  0.00     0.074 A 
ATOM     61  C   UNL     1      10.634 -15.843  -7.317  1.00  0.00     0.029 A 
ATOM     62  N   UNL     1      10.477 -15.390  -5.146  1.00  0.00    -0.354 N 
ATOM     63  N   UNL     1       9.348 -15.675  -2.438  1.00  0.00    -0.248 NA
ATOM     64  C   UNL     1       7.740 -16.565  -0.996  1.00  0.00     0.031 C 
ATOM     65  C   UNL     1       9.517 -16.509  -6.805  1.00  0.00     0.029 A 
ATOM     66  C   UNL     1       9.444 -16.265  -5.442  1.00  0.00     0.049 A 
ATOM     67  H   UNL     1      10.667 -15.023  -4.252  1.00  0.00     0.167 HD
ATOM     68  C   UNL     1       8.497 -16.508  -3.160  1.00  0.00     0.074 A 
ATOM     69  C   UNL     1       7.548 -17.053  -2.213  1.00  0.00     0.031 C 
ATOM     70  C   UNL     1       8.506 -16.804  -4.485  1.00  0.00     0.034 A 
BRANCH  57  71
ATOM     71  C   UNL     1      12.962 -13.922  -7.701  1.00  0.00     0.023 A 
ATOM     72  C   UNL     1      14.308 -14.233  -7.963  1.00  0.00     0.031 A 
ATOM     73  C   UNL     1      12.217 -13.318  -8.729  1.00  0.00     0.131 A 
ATOM     74  C   UNL     1      14.887 -13.869  -9.187  1.00  0.00     0.055 A 
ATOM     75  C   UNL     1      12.775 -13.039  -9.978  1.00  0.00     0.041 A 
ATOM     76  F   UNL     1      10.934 -12.975  -8.533  1.00  0.00    -0.206 F 
ATOM     77  C   UNL     1      14.122 -13.300 -10.208  1.00  0.00     0.022 A 
BRANCH  74  78
ATOM     78  S   UNL     1      16.686 -14.011  -9.370  1.00  0.00     0.124 S 
ATOM     79  O   UNL     1      17.160 -13.155  -8.284  1.00  0.00    -0.237 OA
ATOM     80  O   UNL     1      16.909 -15.441  -9.201  1.00  0.00    -0.237 OA
ATOM     81  O   UNL     1      16.935 -13.494 -10.714  1.00  0.00    -0.744 OA
ENDBRANCH  74  78
ENDBRANCH  57  71
BRANCH  58  82
ATOM     82  C   UNL     1       8.852 -15.215   1.362  1.00  0.00     0.023 A 
ATOM     83  C   UNL     1       8.750 -16.474   1.974  1.00  0.00     0.031 A 
ATOM     84  C   UNL     1       8.270 -14.116   2.020  1.00  0.00     0.131 A 
ATOM     85  C   UNL     1       8.034 -16.615   3.173  1.00  0.00     0.055 A 
ATOM     86  C   UNL     1       7.614 -14.250   3.245  1.00  0.00     0.041 A 
ATOM     87  F   UNL     1       8.339 -12.887   1.483  1.00  0.00    -0.206 F 
ATOM     88  C   UNL     1       7.479 -15.509   3.821  1.00  0.00     0.022 A 
BRANCH  85  89
ATOM     89  S   UNL     1       7.745 -18.285   3.820  1.00  0.00     0.124 S 
ATOM     90  O   UNL     1       7.066 -18.923   2.697  1.00  0.00    -0.237 OA
ATOM     91  O   UNL     1       9.103 -18.742   4.093  1.00  0.00    -0.237 OA
ATOM     92  O   UNL     1       6.917 -18.053   5.001  1.00  0.00    -0.744 OA
ENDBRANCH  85  89
ENDBRANCH  58  82
BRANCH  70  93
ATOM     93  C   UNL     1       7.501 -17.818  -4.977  1.00  0.00     0.023 A 
ATOM     94  C   UNL     1       6.119 -17.562  -4.978  1.00  0.00     0.031 A 
ATOM     95  C   UNL     1       7.945 -19.060  -5.467  1.00  0.00     0.131 A 
ATOM     96  C   UNL     1       5.227 -18.553  -5.416  1.00  0.00     0.055 A 
ATOM     97  C   UNL     1       7.057 -20.016  -5.962  1.00  0.00     0.041 A 
ATOM     98  F   UNL     1       9.254 -19.360  -5.486  1.00  0.00    -0.206 F 
ATOM     99  C   UNL     1       5.688 -19.770  -5.927  1.00  0.00     0.022 A 
BRANCH  96 100
ATOM    100  S   UNL     1       3.446 -18.266  -5.232  1.00  0.00     0.124 S 
ATOM    101  O   UNL     1       3.318 -18.061  -3.793  1.00  0.00    -0.237 OA
ATOM    102  O   UNL     1       3.231 -17.087  -6.065  1.00  0.00    -0.237 OA
ATOM    103  O   UNL     1       2.845 -19.499  -5.739  1.00  0.00    -0.744 OA
ENDBRANCH  96 100
ENDBRANCH  70  93
ENDBRANCH  44  45
ENDBRANCH  36  39
ENDBRANCH  34  35
ENDBRANCH  33  34
ENDBRANCH  32  33
ENDBRANCH   1  32
TORSDOF 22
