REMARK SMILES Cc1ccc(C(=O)NC2(CC(=O)NCCCCCCNC(=O)c3ccc(-c4c5nc(c(-c6cc(S(=O)(=O)[O-])ccc6F)c6ccc([nH]6)c(-c6cc(S(=O)(=O)[O-])ccc6F)c6nc(c(-c7cc(S(=O)(=O)[O-])ccc7F)c7ccc4[nH]7)C=C6)C=C5)cc3)CCC2)cc1
REMARK SMILES IDX 16 1 15 2 14 3 13 4 11 5 12 6 10 8 9 9 86 10 88 11 87 12
REMARK SMILES IDX 8 13 6 14 7 15 5 17 1 18 2 19 3 20 90 21 4 22 89 23 17 24
REMARK SMILES IDX 18 25 19 26 20 27 21 28 22 30 23 31 24 32 85 33 25 34 84 35
REMARK SMILES IDX 26 36 27 37 28 38 78 39 29 40 83 41 77 42 79 43 30 44 82 45
REMARK SMILES IDX 76 46 75 47 31 49 63 50 43 51 62 52 44 53 47 54 61 55 80 56
REMARK SMILES IDX 45 57 46 58 60 60 81 61 48 62 32 63 33 64 41 65 34 66 40 67
REMARK SMILES IDX 42 68 39 69 35 70 36 71 37 72 38 73 64 74 65 75 73 76 66 77
REMARK SMILES IDX 72 78 74 79 71 80 67 81 68 82 69 83 70 84 49 85 50 86 58 87
REMARK SMILES IDX 51 88 57 89 59 90 56 91 52 92 53 93 54 94 55 95
REMARK H PARENT 13 7 8 16 20 29 79 48 47 59
REMARK Flexibility Score: inf
ROOT
ATOM      1  C   UNL     1       0.610  -0.020   3.486  1.00  0.00     0.002 C 
ENDROOT
BRANCH   1   2
ATOM      2  C   UNL     1      -0.415   1.008   3.056  1.00  0.00     0.021 C 
BRANCH   2   3
ATOM      3  C   UNL     1      -0.117   1.598   1.703  1.00  0.00     0.116 C 
BRANCH   3   4
ATOM      4  N   UNL     1      -0.392   0.577   0.430  1.00  0.00    -0.356 N 
ATOM      5  C   UNL     1      -1.290   0.611  -1.329  1.00  0.00     0.222 C 
ATOM      6  O   UNL     1      -1.139  -0.112  -2.351  1.00  0.00    -0.275 OA
ATOM      7  H   UNL     1       0.009  -0.306   0.599  1.00  0.00     0.163 HD
BRANCH   5   8
ATOM      8  C   UNL     1      -2.662   1.849  -1.767  1.00  0.00     0.128 C 
BRANCH   8   9
ATOM      9  C   UNL     1      -3.736   2.547  -0.664  1.00  0.00     0.049 C 
ATOM     10  C   UNL     1      -4.449   3.877  -1.093  1.00  0.00     0.029 C 
ATOM     11  C   UNL     1      -3.626   3.391   0.805  1.00  0.00     0.029 C 
ATOM     12  C   UNL     1      -3.655   4.666  -0.006  1.00  0.00     0.005 C 
BRANCH   9  13
ATOM     13  N   UNL     1      -4.532   1.425  -0.203  1.00  0.00    -0.346 N 
ATOM     14  C   UNL     1      -3.834   0.529   0.556  1.00  0.00     0.251 C 
ATOM     15  O   UNL     1      -4.362  -0.407   1.133  1.00  0.00    -0.269 OA
ATOM     16  H   UNL     1      -5.486   1.318  -0.418  1.00  0.00     0.164 HD
BRANCH  14  17
ATOM     17  C   UNL     1      -2.345   0.688   0.415  1.00  0.00     0.039 A 
ATOM     18  C   UNL     1       2.417   0.028  -1.138  1.00  0.00     0.044 C 
ATOM     19  C   UNL     1       0.921   0.246  -1.134  1.00  0.00    -0.051 A 
ATOM     20  C   UNL     1      -0.076  -1.190  -0.680  1.00  0.00     0.004 A 
ATOM     21  C   UNL     1       0.313   1.926  -0.924  1.00  0.00     0.004 A 
ATOM     22  C   UNL     1      -1.685  -0.972   0.082  1.00  0.00     0.014 A 
ATOM     23  C   UNL     1      -1.310   2.194  -0.117  1.00  0.00     0.014 A 
ENDBRANCH  14  17
ENDBRANCH   9  13
ENDBRANCH   8   9
ENDBRANCH   5   8
ENDBRANCH   3   4
ENDBRANCH   2   3
ENDBRANCH   1   2
BRANCH   1  24
ATOM     24  C   UNL     1       2.064   0.293   3.090  1.00  0.00     0.002 C 
BRANCH  24  25
ATOM     25  C   UNL     1       2.584   1.709   3.361  1.00  0.00     0.021 C 
BRANCH  25  26
ATOM     26  C   UNL     1       2.489   2.106   4.804  1.00  0.00     0.116 C 
BRANCH  26  27
ATOM     27  N   UNL     1       3.530   1.502   5.596  1.00  0.00    -0.352 N 
ATOM     28  C   UNL     1       4.039   1.916   6.806  1.00  0.00     0.251 C 
ATOM     29  H   UNL     1       3.932   0.684   5.222  1.00  0.00     0.163 HD
ATOM     30  O   UNL     1       5.151   1.552   7.175  1.00  0.00    -0.269 OA
BRANCH  28  31
ATOM     31  C   UNL     1       3.127   2.587   7.776  1.00  0.00     0.039 A 
ATOM     32  C   UNL     1       3.131   1.966   9.034  1.00  0.00     0.014 A 
ATOM     33  C   UNL     1       1.982   3.225   7.319  1.00  0.00     0.014 A 
ATOM     34  C   UNL     1       1.924   1.644   9.621  1.00  0.00     0.010 A 
ATOM     35  C   UNL     1       0.789   2.729   7.758  1.00  0.00     0.010 A 
ATOM     36  C   UNL     1       0.780   1.908   8.884  1.00  0.00    -0.014 A 
BRANCH  36  37
ATOM     37  C   UNL     1      -0.556   1.602   9.318  1.00  0.00     0.031 A 
ATOM     38  C   UNL     1      -1.143   2.677  10.137  1.00  0.00     0.074 A 
ATOM     39  C   UNL     1      -1.145   0.522   8.758  1.00  0.00     0.049 A 
ATOM     40  N   UNL     1      -2.090   2.525  10.977  1.00  0.00    -0.248 NA
ATOM     41  C   UNL     1      -0.622   4.055  10.145  1.00  0.00     0.031 C 
ATOM     42  C   UNL     1      -2.545   0.126   8.729  1.00  0.00     0.029 A 
ATOM     43  N   UNL     1      -0.475  -0.592   8.239  1.00  0.00    -0.354 N 
ATOM     44  C   UNL     1      -2.558   3.787  11.288  1.00  0.00     0.074 A 
ATOM     45  C   UNL     1      -1.517   4.692  10.902  1.00  0.00     0.031 C 
ATOM     46  C   UNL     1      -2.615  -1.209   8.543  1.00  0.00     0.029 A 
ATOM     47  C   UNL     1      -1.252  -1.723   8.559  1.00  0.00     0.049 A 
ATOM     48  H   UNL     1       0.376  -0.586   7.745  1.00  0.00     0.167 HD
ATOM     49  C   UNL     1      -3.865   3.898  11.641  1.00  0.00     0.034 A 
ATOM     50  C   UNL     1      -0.762  -2.617   9.474  1.00  0.00     0.034 A 
ATOM     51  C   UNL     1      -4.454   2.561  11.647  1.00  0.00     0.049 A 
ATOM     52  C   UNL     1      -1.537  -2.498  10.775  1.00  0.00     0.074 A 
ATOM     53  C   UNL     1      -5.155   1.855  10.684  1.00  0.00     0.029 A 
ATOM     54  N   UNL     1      -3.962   1.632  12.548  1.00  0.00    -0.354 N 
ATOM     55  N   UNL     1      -2.129  -1.401  11.180  1.00  0.00    -0.248 NA
ATOM     56  C   UNL     1      -1.818  -3.640  11.642  1.00  0.00     0.031 C 
ATOM     57  C   UNL     1      -4.981   0.471  10.965  1.00  0.00     0.029 A 
ATOM     58  C   UNL     1      -4.188   0.350  12.095  1.00  0.00     0.049 A 
ATOM     59  H   UNL     1      -3.514   1.857  13.396  1.00  0.00     0.167 HD
ATOM     60  C   UNL     1      -2.904  -1.681  12.275  1.00  0.00     0.074 A 
ATOM     61  C   UNL     1      -2.660  -3.091  12.535  1.00  0.00     0.031 C 
ATOM     62  C   UNL     1      -3.725  -0.772  12.886  1.00  0.00     0.034 A 
BRANCH  49  63
ATOM     63  C   UNL     1      -4.709   5.142  11.704  1.00  0.00     0.023 A 
ATOM     64  C   UNL     1      -6.107   4.956  11.727  1.00  0.00     0.031 A 
ATOM     65  C   UNL     1      -4.280   6.481  11.719  1.00  0.00     0.131 A 
ATOM     66  C   UNL     1      -7.003   6.033  11.720  1.00  0.00     0.055 A 
ATOM     67  C   UNL     1      -5.176   7.564  11.710  1.00  0.00     0.041 A 
ATOM     68  F   UNL     1      -2.988   6.821  11.764  1.00  0.00    -0.206 F 
ATOM     69  C   UNL     1      -6.547   7.344  11.708  1.00  0.00     0.022 A 
BRANCH  66  70
ATOM     70  S   UNL     1      -8.775   5.666  11.717  1.00  0.00     0.124 S 
ATOM     71  O   UNL     1      -8.937   4.954  10.454  1.00  0.00    -0.237 OA
ATOM     72  O   UNL     1      -8.930   4.874  12.931  1.00  0.00    -0.237 OA
ATOM     73  O   UNL     1      -9.393   6.991  11.761  1.00  0.00    -0.744 OA
ENDBRANCH  66  70
ENDBRANCH  49  63
BRANCH  50  74
ATOM     74  C   UNL     1       0.722  -2.798   9.298  1.00  0.00     0.023 A 
ATOM     75  C   UNL     1       1.147  -3.308   8.044  1.00  0.00     0.031 A 
ATOM     76  C   UNL     1       1.638  -2.019  10.020  1.00  0.00     0.131 A 
ATOM     77  C   UNL     1       2.329  -2.832   7.448  1.00  0.00     0.055 A 
ATOM     78  C   UNL     1       2.848  -1.604   9.443  1.00  0.00     0.041 A 
ATOM     79  F   UNL     1       1.312  -1.514  11.219  1.00  0.00    -0.206 F 
ATOM     80  C   UNL     1       3.164  -1.949   8.129  1.00  0.00     0.022 A 
BRANCH  77  81
ATOM     81  S   UNL     1       2.615  -3.173   5.684  1.00  0.00     0.124 S 
ATOM     82  O   UNL     1       2.949  -4.593   5.694  1.00  0.00    -0.237 OA
ATOM     83  O   UNL     1       1.328  -2.826   5.086  1.00  0.00    -0.237 OA
ATOM     84  O   UNL     1       3.708  -2.271   5.322  1.00  0.00    -0.744 OA
ENDBRANCH  77  81
ENDBRANCH  50  74
BRANCH  62  85
ATOM     85  C   UNL     1      -4.229  -0.902  14.302  1.00  0.00     0.023 A 
ATOM     86  C   UNL     1      -3.652  -1.798  15.203  1.00  0.00     0.031 A 
ATOM     87  C   UNL     1      -5.228  -0.049  14.835  1.00  0.00     0.131 A 
ATOM     88  C   UNL     1      -4.154  -1.936  16.501  1.00  0.00     0.055 A 
ATOM     89  C   UNL     1      -5.623  -0.087  16.173  1.00  0.00     0.041 A 
ATOM     90  F   UNL     1      -5.861   0.869  14.090  1.00  0.00    -0.206 F 
ATOM     91  C   UNL     1      -5.110  -1.063  17.010  1.00  0.00     0.022 A 
BRANCH  88  92
ATOM     92  S   UNL     1      -3.623  -3.387  17.433  1.00  0.00     0.124 S 
ATOM     93  O   UNL     1      -4.094  -4.473  16.576  1.00  0.00    -0.237 OA
ATOM     94  O   UNL     1      -2.176  -3.212  17.493  1.00  0.00    -0.237 OA
ATOM     95  O   UNL     1      -4.325  -3.251  18.706  1.00  0.00    -0.744 OA
ENDBRANCH  88  92
ENDBRANCH  62  85
ENDBRANCH  36  37
ENDBRANCH  28  31
ENDBRANCH  26  27
ENDBRANCH  25  26
ENDBRANCH  24  25
ENDBRANCH   1  24
TORSDOF 19
