REMARK SMILES O=C(Cc1ccc(S(=O)(=O)N2CCNC(=O)C2)cc1)NCCCCCCNC(=O)c1ccc(-c2c3nc(c(-c4cc(S(=O)(=O)[O-])ccc4F)c4ccc([nH]4)c(-c4cc(S(=O)(=O)[O-])ccc4F)c4nc(c(-c5cc(S(=O)(=O)[O-])ccc5F)c5ccc2[nH]5)C=C4)C=C3)cc1
REMARK SMILES IDX 23 1 22 2 21 3 20 4 1 5 2 6 3 8 4 9 5 10 19 11 6 12 18 13
REMARK SMILES IDX 7 14 8 15 9 16 10 17 11 18 12 19 17 20 13 21 15 22 14 23
REMARK SMILES IDX 16 24 24 26 25 27 26 28 27 29 28 30 29 32 30 33 31 34 92 35
REMARK SMILES IDX 32 36 91 37 33 38 34 39 35 40 85 41 36 42 90 43 84 44 86 45
REMARK SMILES IDX 37 46 89 47 83 48 82 49 38 51 70 52 50 53 69 54 51 55 54 56
REMARK SMILES IDX 68 57 87 58 52 59 53 60 67 62 88 63 55 64 39 65 40 66 48 67
REMARK SMILES IDX 41 68 47 69 49 70 46 71 42 72 43 73 44 74 45 75 71 76 72 77
REMARK SMILES IDX 80 78 73 79 79 80 81 81 78 82 74 83 75 84 76 85 77 86 56 87
REMARK SMILES IDX 57 88 65 89 58 90 64 91 66 92 63 93 59 94 60 95 61 96 62 97
REMARK H PARENT 20 7 14 25 27 31 86 50 54 61
REMARK Flexibility Score: inf
ROOT
ATOM      1  C   UNL     1       4.168  -3.013   2.409  1.00  0.00     0.002 C 
ENDROOT
BRANCH   1   2
ATOM      2  C   UNL     1       2.654  -2.961   2.155  1.00  0.00     0.021 C 
BRANCH   2   3
ATOM      3  C   UNL     1       2.057  -1.555   2.112  1.00  0.00     0.116 C 
BRANCH   3   4
ATOM      4  N   UNL     1       2.783  -0.702   1.198  1.00  0.00    -0.356 N 
ATOM      5  O   UNL     1       1.342  -0.896  -0.577  1.00  0.00    -0.275 OA
ATOM      6  C   UNL     1       2.377  -0.450  -0.090  1.00  0.00     0.224 C 
ATOM      7  H   UNL     1       3.612  -0.278   1.517  1.00  0.00     0.163 HD
BRANCH   6   8
ATOM      8  C   UNL     1       3.366   0.351  -0.921  1.00  0.00     0.135 C 
BRANCH   8   9
ATOM      9  C   UNL     1       4.040   1.489  -0.186  1.00  0.00    -0.039 A 
ATOM     10  C   UNL     1       5.436   1.527  -0.062  1.00  0.00     0.005 A 
ATOM     11  C   UNL     1       3.272   2.512   0.390  1.00  0.00     0.005 A 
ATOM     12  C   UNL     1       6.058   2.600   0.578  1.00  0.00     0.022 A 
ATOM     13  C   UNL     1       3.888   3.565   1.066  1.00  0.00     0.022 A 
ATOM     14  C   UNL     1       5.281   3.634   1.109  1.00  0.00     0.082 A 
BRANCH  14  15
ATOM     15  S   UNL     1       6.082   5.062   1.804  1.00  0.00     0.243 S 
ATOM     16  O   UNL     1       5.568   5.236   3.140  1.00  0.00    -0.207 OA
ATOM     17  O   UNL     1       7.505   4.909   1.560  1.00  0.00    -0.207 OA
BRANCH  15  18
ATOM     18  N   UNL     1       5.572   6.356   0.848  1.00  0.00    -0.187 NA
ATOM     19  C   UNL     1       5.992   6.434  -0.568  1.00  0.00     0.124 C 
ATOM     20  C   UNL     1       4.249   6.965   1.103  1.00  0.00     0.202 C 
ATOM     21  C   UNL     1       4.933   5.832  -1.494  1.00  0.00     0.132 C 
ATOM     22  C   UNL     1       3.180   6.686   0.058  1.00  0.00     0.235 C 
ATOM     23  N   UNL     1       3.582   6.247  -1.175  1.00  0.00    -0.354 N 
ATOM     24  O   UNL     1       1.986   6.890   0.268  1.00  0.00    -0.274 OA
ATOM     25  H   UNL     1       2.908   6.210  -1.893  1.00  0.00     0.163 HD
ENDBRANCH  15  18
ENDBRANCH  14  15
ENDBRANCH   8   9
ENDBRANCH   6   8
ENDBRANCH   3   4
ENDBRANCH   2   3
ENDBRANCH   1   2
BRANCH   1  26
ATOM     26  C   UNL     1       4.664  -2.274   3.655  1.00  0.00     0.002 C 
BRANCH  26  27
ATOM     27  C   UNL     1       4.027  -2.708   4.976  1.00  0.00     0.021 C 
BRANCH  27  28
ATOM     28  C   UNL     1       4.144  -4.193   5.300  1.00  0.00     0.116 C 
BRANCH  28  29
ATOM     29  N   UNL     1       5.521  -4.630   5.446  1.00  0.00    -0.352 N 
ATOM     30  C   UNL     1       6.064  -5.483   6.377  1.00  0.00     0.251 C 
ATOM     31  H   UNL     1       6.153  -4.265   4.786  1.00  0.00     0.163 HD
ATOM     32  O   UNL     1       7.283  -5.625   6.427  1.00  0.00    -0.269 OA
BRANCH  30  33
ATOM     33  C   UNL     1       5.188  -6.199   7.333  1.00  0.00     0.039 A 
ATOM     34  C   UNL     1       5.572  -6.265   8.676  1.00  0.00     0.014 A 
ATOM     35  C   UNL     1       4.006  -6.816   6.916  1.00  0.00     0.014 A 
ATOM     36  C   UNL     1       4.747  -6.903   9.606  1.00  0.00     0.010 A 
ATOM     37  C   UNL     1       3.154  -7.398   7.854  1.00  0.00     0.010 A 
ATOM     38  C   UNL     1       3.519  -7.454   9.208  1.00  0.00    -0.014 A 
BRANCH  38  39
ATOM     39  C   UNL     1       2.622  -8.122  10.187  1.00  0.00     0.031 A 
ATOM     40  C   UNL     1       2.363  -9.601  10.078  1.00  0.00     0.074 A 
ATOM     41  C   UNL     1       2.005  -7.396  11.140  1.00  0.00     0.049 A 
ATOM     42  N   UNL     1       1.552 -10.356  10.775  1.00  0.00    -0.248 NA
ATOM     43  C   UNL     1       3.094 -10.319   9.023  1.00  0.00     0.031 C 
ATOM     44  C   UNL     1       2.146  -5.951  11.326  1.00  0.00     0.029 A 
ATOM     45  N   UNL     1       1.127  -7.772  12.126  1.00  0.00    -0.354 N 
ATOM     46  C   UNL     1       1.671 -11.635  10.241  1.00  0.00     0.074 A 
ATOM     47  C   UNL     1       2.583 -11.536   9.121  1.00  0.00     0.031 C 
ATOM     48  C   UNL     1       1.390  -5.565  12.368  1.00  0.00     0.029 A 
ATOM     49  C   UNL     1       0.685  -6.726  12.903  1.00  0.00     0.049 A 
ATOM     50  H   UNL     1       0.839  -8.704  12.264  1.00  0.00     0.167 HD
ATOM     51  C   UNL     1       1.094 -12.790  10.659  1.00  0.00     0.034 A 
ATOM     52  C   UNL     1      -0.194  -6.704  13.924  1.00  0.00     0.034 A 
ATOM     53  C   UNL     1       0.189 -12.876  11.780  1.00  0.00     0.049 A 
ATOM     54  C   UNL     1      -0.820  -8.001  14.376  1.00  0.00     0.074 A 
ATOM     55  C   UNL     1      -0.455 -13.991  12.290  1.00  0.00     0.029 A 
ATOM     56  N   UNL     1      -0.195 -11.802  12.573  1.00  0.00    -0.354 N 
ATOM     57  N   UNL     1      -0.681  -9.205  13.871  1.00  0.00    -0.248 NA
ATOM     58  C   UNL     1      -1.701  -7.939  15.549  1.00  0.00     0.031 C 
ATOM     59  C   UNL     1      -1.258 -13.585  13.363  1.00  0.00     0.029 A 
ATOM     60  C   UNL     1      -1.067 -12.228  13.563  1.00  0.00     0.049 A 
ATOM     61  H   UNL     1       0.108 -10.874  12.450  1.00  0.00     0.167 HD
ATOM     62  C   UNL     1      -1.429 -10.047  14.690  1.00  0.00     0.074 A 
ATOM     63  C   UNL     1      -2.003  -9.216  15.727  1.00  0.00     0.031 C 
ATOM     64  C   UNL     1      -1.624 -11.387  14.595  1.00  0.00     0.034 A 
BRANCH  51  65
ATOM     65  C   UNL     1       1.420 -14.042   9.882  1.00  0.00     0.023 A 
ATOM     66  C   UNL     1       2.730 -14.552   9.833  1.00  0.00     0.031 A 
ATOM     67  C   UNL     1       0.424 -14.715   9.153  1.00  0.00     0.131 A 
ATOM     68  C   UNL     1       3.024 -15.650   9.011  1.00  0.00     0.055 A 
ATOM     69  C   UNL     1       0.709 -15.858   8.402  1.00  0.00     0.041 A 
ATOM     70  F   UNL     1      -0.841 -14.265   9.146  1.00  0.00    -0.206 F 
ATOM     71  C   UNL     1       2.018 -16.322   8.315  1.00  0.00     0.022 A 
BRANCH  68  72
ATOM     72  S   UNL     1       4.763 -16.099   8.758  1.00  0.00     0.124 S 
ATOM     73  O   UNL     1       5.290 -14.890   8.131  1.00  0.00    -0.237 OA
ATOM     74  O   UNL     1       5.222 -16.368  10.116  1.00  0.00    -0.237 OA
ATOM     75  O   UNL     1       4.691 -17.267   7.881  1.00  0.00    -0.744 OA
ENDBRANCH  68  72
ENDBRANCH  51  65
BRANCH  52  76
ATOM     76  C   UNL     1      -0.547  -5.420  14.594  1.00  0.00     0.023 A 
ATOM     77  C   UNL     1      -0.224  -5.193  15.941  1.00  0.00     0.031 A 
ATOM     78  C   UNL     1      -1.268  -4.425  13.912  1.00  0.00     0.131 A 
ATOM     79  C   UNL     1      -0.673  -4.028  16.582  1.00  0.00     0.055 A 
ATOM     80  C   UNL     1      -1.666  -3.242  14.539  1.00  0.00     0.041 A 
ATOM     81  F   UNL     1      -1.595  -4.588  12.620  1.00  0.00    -0.206 F 
ATOM     82  C   UNL     1      -1.383  -3.046  15.887  1.00  0.00     0.022 A 
BRANCH  79  83
ATOM     83  S   UNL     1      -0.405  -3.863  18.369  1.00  0.00     0.124 S 
ATOM     84  O   UNL     1      -1.015  -5.087  18.876  1.00  0.00    -0.237 OA
ATOM     85  O   UNL     1       1.050  -3.790  18.449  1.00  0.00    -0.237 OA
ATOM     86  O   UNL     1      -1.110  -2.628  18.705  1.00  0.00    -0.744 OA
ENDBRANCH  79  83
ENDBRANCH  52  76
BRANCH  64  87
ATOM     87  C   UNL     1      -2.439 -12.036  15.685  1.00  0.00     0.023 A 
ATOM     88  C   UNL     1      -3.814 -11.784  15.835  1.00  0.00     0.031 A 
ATOM     89  C   UNL     1      -1.820 -12.902  16.604  1.00  0.00     0.131 A 
ATOM     90  C   UNL     1      -4.512 -12.342  16.917  1.00  0.00     0.055 A 
ATOM     91  C   UNL     1      -2.531 -13.497  17.646  1.00  0.00     0.041 A 
ATOM     92  F   UNL     1      -0.509 -13.178  16.506  1.00  0.00    -0.206 F 
ATOM     93  C   UNL     1      -3.882 -13.207  17.816  1.00  0.00     0.022 A 
BRANCH  90  94
ATOM     94  S   UNL     1      -6.235 -11.846  17.191  1.00  0.00     0.124 S 
ATOM     95  O   UNL     1      -6.123 -10.395  17.294  1.00  0.00    -0.237 OA
ATOM     96  O   UNL     1      -6.898 -12.350  15.992  1.00  0.00    -0.237 OA
ATOM     97  O   UNL     1      -6.596 -12.530  18.432  1.00  0.00    -0.744 OA
ENDBRANCH  90  94
ENDBRANCH  64  87
ENDBRANCH  38  39
ENDBRANCH  30  33
ENDBRANCH  28  29
ENDBRANCH  27  28
ENDBRANCH  26  27
ENDBRANCH   1  26
TORSDOF 19
