REMARK SMILES O=C(NCCCCCCNC(=O)[C@H](c1c[nH]c2cc(F)ccc12)[NH+]1CCN(c2ccccc2)CC1)c1ccc(-c2c3nc(c(-c4cc(S(=O)(=O)[O-])ccc4F)c4ccc([nH]4)c(-c4cc(S(=O)(=O)[O-])ccc4F)c4nc(c(-c5cc(S(=O)(=O)[O-])ccc5F)c5ccc2[nH]5)C=C4)C=C3)cc1
REMARK SMILES IDX 6 1 5 2 4 3 3 4 1 5 2 6 36 8 37 9 98 10 38 11 97 12 39 13
REMARK SMILES IDX 40 14 41 15 91 16 42 17 96 18 90 19 92 20 43 21 95 22 89 23
REMARK SMILES IDX 88 24 44 26 76 27 56 28 75 29 57 30 60 31 74 32 93 33 58 34
REMARK SMILES IDX 59 35 73 37 94 38 61 39 45 40 46 41 54 42 47 43 53 44 55 45
REMARK SMILES IDX 52 46 48 47 49 48 50 49 51 50 77 51 78 52 86 53 79 54 85 55
REMARK SMILES IDX 87 56 84 57 80 58 81 59 82 60 83 61 62 62 63 63 71 64 64 65
REMARK SMILES IDX 70 66 72 67 69 68 65 69 66 70 67 71 68 72 7 73 8 74 9 75
REMARK SMILES IDX 10 76 11 77 12 79 13 80 24 81 25 82 35 83 26 85 34 86 27 87
REMARK SMILES IDX 28 88 29 89 33 90 30 91 32 92 31 93 14 94 15 95 23 96 16 97
REMARK SMILES IDX 17 98 22 99 18 101 21 102 19 103 20 104
REMARK H PARENT 3 7 92 25 60 36 10 78 24 84 16 100
REMARK Flexibility Score: inf
ROOT
ATOM      1  C   UNL     1       7.655   0.275  -1.831  1.00  0.00     0.002 C 
ENDROOT
BRANCH   1   2
ATOM      2  C   UNL     1       6.504  -0.404  -1.084  1.00  0.00     0.021 C 
BRANCH   2   3
ATOM      3  C   UNL     1       6.774  -0.730   0.380  1.00  0.00     0.116 C 
BRANCH   3   4
ATOM      4  N   UNL     1       7.062   0.452   1.174  1.00  0.00    -0.352 N 
ATOM      5  O   UNL     1       6.757   1.988   2.793  1.00  0.00    -0.269 OA
ATOM      6  C   UNL     1       6.479   0.879   2.342  1.00  0.00     0.251 C 
ATOM      7  H   UNL     1       7.778   1.030   0.825  1.00  0.00     0.163 HD
BRANCH   6   8
ATOM      8  C   UNL     1       5.504   0.015   3.043  1.00  0.00     0.039 A 
ATOM      9  C   UNL     1       5.753  -1.348   3.221  1.00  0.00     0.014 A 
ATOM     10  C   UNL     1       4.327   0.582   3.541  1.00  0.00     0.014 A 
ATOM     11  C   UNL     1       4.772  -2.164   3.773  1.00  0.00     0.010 A 
ATOM     12  C   UNL     1       3.377  -0.228   4.170  1.00  0.00     0.010 A 
ATOM     13  C   UNL     1       3.577  -1.613   4.265  1.00  0.00    -0.014 A 
BRANCH  13  14
ATOM     14  C   UNL     1       2.581  -2.503   4.916  1.00  0.00     0.031 A 
ATOM     15  C   UNL     1       1.221  -2.720   4.312  1.00  0.00     0.074 A 
ATOM     16  C   UNL     1       2.931  -3.147   6.047  1.00  0.00     0.049 A 
ATOM     17  N   UNL     1       0.247  -3.491   4.725  1.00  0.00    -0.248 NA
ATOM     18  C   UNL     1       0.909  -1.963   3.091  1.00  0.00     0.031 C 
ATOM     19  C   UNL     1       4.221  -3.005   6.727  1.00  0.00     0.029 A 
ATOM     20  N   UNL     1       2.254  -4.062   6.810  1.00  0.00    -0.354 N 
ATOM     21  C   UNL     1      -0.800  -3.302   3.829  1.00  0.00     0.074 A 
ATOM     22  C   UNL     1      -0.350  -2.314   2.870  1.00  0.00     0.031 C 
ATOM     23  C   UNL     1       4.264  -3.847   7.770  1.00  0.00     0.029 A 
ATOM     24  C   UNL     1       2.985  -4.538   7.873  1.00  0.00     0.049 A 
ATOM     25  H   UNL     1       1.333  -4.352   6.615  1.00  0.00     0.167 HD
ATOM     26  C   UNL     1      -2.017  -3.903   3.806  1.00  0.00     0.034 A 
ATOM     27  C   UNL     1       2.659  -5.425   8.833  1.00  0.00     0.034 A 
ATOM     28  C   UNL     1      -2.445  -4.889   4.772  1.00  0.00     0.049 A 
ATOM     29  C   UNL     1       1.292  -6.052   8.803  1.00  0.00     0.074 A 
ATOM     30  C   UNL     1      -3.640  -5.588   4.822  1.00  0.00     0.029 A 
ATOM     31  N   UNL     1      -1.698  -5.310   5.867  1.00  0.00    -0.354 N 
ATOM     32  N   UNL     1       0.323  -5.879   7.934  1.00  0.00    -0.248 NA
ATOM     33  C   UNL     1       0.978  -6.994   9.883  1.00  0.00     0.031 C 
ATOM     34  C   UNL     1      -3.641  -6.378   5.979  1.00  0.00     0.029 A 
ATOM     35  C   UNL     1      -2.419  -6.231   6.614  1.00  0.00     0.049 A 
ATOM     36  H   UNL     1      -0.789  -4.998   6.081  1.00  0.00     0.167 HD
ATOM     37  C   UNL     1      -0.711  -6.709   8.354  1.00  0.00     0.074 A 
ATOM     38  C   UNL     1      -0.236  -7.396   9.539  1.00  0.00     0.031 C 
ATOM     39  C   UNL     1      -1.941  -6.890   7.808  1.00  0.00     0.034 A 
BRANCH  26  40
ATOM     40  C   UNL     1      -2.986  -3.469   2.729  1.00  0.00     0.023 A 
ATOM     41  C   UNL     1      -2.719  -3.672   1.363  1.00  0.00     0.031 A 
ATOM     42  C   UNL     1      -4.180  -2.810   3.072  1.00  0.00     0.131 A 
ATOM     43  C   UNL     1      -3.591  -3.155   0.392  1.00  0.00     0.055 A 
ATOM     44  C   UNL     1      -5.084  -2.368   2.103  1.00  0.00     0.041 A 
ATOM     45  F   UNL     1      -4.483  -2.569   4.357  1.00  0.00    -0.206 F 
ATOM     46  C   UNL     1      -4.784  -2.525   0.753  1.00  0.00     0.022 A 
BRANCH  43  47
ATOM     47  S   UNL     1      -3.069  -3.183  -1.346  1.00  0.00     0.124 S 
ATOM     48  O   UNL     1      -1.793  -2.473  -1.287  1.00  0.00    -0.237 OA
ATOM     49  O   UNL     1      -2.990  -4.611  -1.630  1.00  0.00    -0.237 OA
ATOM     50  O   UNL     1      -4.138  -2.467  -2.038  1.00  0.00    -0.744 OA
ENDBRANCH  43  47
ENDBRANCH  26  40
BRANCH  27  51
ATOM     51  C   UNL     1       3.635  -5.758   9.908  1.00  0.00     0.023 A 
ATOM     52  C   UNL     1       4.163  -7.053  10.028  1.00  0.00     0.031 A 
ATOM     53  C   UNL     1       4.040  -4.789  10.843  1.00  0.00     0.131 A 
ATOM     54  C   UNL     1       5.040  -7.353  11.082  1.00  0.00     0.055 A 
ATOM     55  C   UNL     1       4.951  -5.079  11.858  1.00  0.00     0.041 A 
ATOM     56  F   UNL     1       3.568  -3.534  10.768  1.00  0.00    -0.206 F 
ATOM     57  C   UNL     1       5.449  -6.372  11.989  1.00  0.00     0.022 A 
BRANCH  54  58
ATOM     58  S   UNL     1       5.589  -9.069  11.291  1.00  0.00     0.124 S 
ATOM     59  O   UNL     1       4.321  -9.770  11.450  1.00  0.00    -0.237 OA
ATOM     60  O   UNL     1       6.304  -9.311  10.042  1.00  0.00    -0.237 OA
ATOM     61  O   UNL     1       6.428  -9.014  12.486  1.00  0.00    -0.744 OA
ENDBRANCH  54  58
ENDBRANCH  27  51
BRANCH  39  62
ATOM     62  C   UNL     1      -2.835  -7.901   8.482  1.00  0.00     0.023 A 
ATOM     63  C   UNL     1      -3.343  -7.690   9.776  1.00  0.00     0.031 A 
ATOM     64  C   UNL     1      -3.146  -9.111   7.837  1.00  0.00     0.131 A 
ATOM     65  C   UNL     1      -4.079  -8.701  10.411  1.00  0.00     0.055 A 
ATOM     66  C   UNL     1      -3.931 -10.089   8.450  1.00  0.00     0.041 A 
ATOM     67  F   UNL     1      -2.685  -9.366   6.603  1.00  0.00    -0.206 F 
ATOM     68  C   UNL     1      -4.389  -9.893   9.751  1.00  0.00     0.022 A 
BRANCH  65  69
ATOM     69  S   UNL     1      -4.537  -8.483  12.153  1.00  0.00     0.124 S 
ATOM     70  O   UNL     1      -3.236  -8.289  12.786  1.00  0.00    -0.237 OA
ATOM     71  O   UNL     1      -5.402  -7.309  12.103  1.00  0.00    -0.237 OA
ATOM     72  O   UNL     1      -5.210  -9.736  12.490  1.00  0.00    -0.744 OA
ENDBRANCH  65  69
ENDBRANCH  39  62
ENDBRANCH  13  14
ENDBRANCH   6   8
ENDBRANCH   3   4
ENDBRANCH   2   3
ENDBRANCH   1   2
BRANCH   1  73
ATOM     73  C   UNL     1       9.003  -0.456  -1.810  1.00  0.00     0.002 C 
BRANCH  73  74
ATOM     74  C   UNL     1       8.966  -1.944  -2.163  1.00  0.00     0.021 C 
BRANCH  74  75
ATOM     75  C   UNL     1       8.279  -2.273  -3.481  1.00  0.00     0.116 C 
BRANCH  75  76
ATOM     76  N   UNL     1       9.114  -2.050  -4.637  1.00  0.00    -0.351 N 
ATOM     77  C   UNL     1       9.265  -2.831  -5.752  1.00  0.00     0.283 C 
ATOM     78  H   UNL     1       9.648  -1.223  -4.623  1.00  0.00     0.163 HD
ATOM     79  O   UNL     1       9.960  -2.358  -6.664  1.00  0.00    -0.268 OA
BRANCH  77  80
ATOM     80  C   UNL     1       8.625  -4.244  -5.904  1.00  0.00     0.307 C 
BRANCH  80  81
ATOM     81  N   UNL     1       8.989  -5.123  -4.754  1.00  0.00    -0.318 N 
ATOM     82  C   UNL     1       7.904  -5.829  -4.041  1.00  0.00     0.284 C 
ATOM     83  C   UNL     1      10.023  -6.125  -5.124  1.00  0.00     0.284 C 
ATOM     84  H   UNL     1       9.337  -4.429  -4.092  1.00  0.00     0.349 HD
ATOM     85  C   UNL     1       7.288  -7.045  -4.755  1.00  0.00     0.178 C 
ATOM     86  C   UNL     1       9.502  -7.393  -5.857  1.00  0.00     0.178 C 
ATOM     87  N   UNL     1       8.350  -7.962  -5.160  1.00  0.00    -0.360 N 
BRANCH  87  88
ATOM     88  C   UNL     1       8.138  -9.313  -5.008  1.00  0.00     0.037 A 
ATOM     89  C   UNL     1       6.917  -9.903  -5.368  1.00  0.00     0.026 A 
ATOM     90  C   UNL     1       9.088 -10.118  -4.370  1.00  0.00     0.026 A 
ATOM     91  C   UNL     1       6.632 -11.235  -5.062  1.00  0.00     0.002 A 
ATOM     92  C   UNL     1       8.804 -11.448  -4.046  1.00  0.00     0.002 A 
ATOM     93  C   UNL     1       7.573 -12.003  -4.385  1.00  0.00     0.000 A 
ENDBRANCH  87  88
ENDBRANCH  80  81
BRANCH  80  94
ATOM     94  C   UNL     1       7.163  -4.203  -6.307  1.00  0.00     0.044 A 
ATOM     95  C   UNL     1       6.068  -3.699  -5.623  1.00  0.00     0.094 A 
ATOM     96  C   UNL     1       6.633  -4.749  -7.535  1.00  0.00     0.009 A 
ATOM     97  N   UNL     1       4.926  -3.993  -6.320  1.00  0.00    -0.361 N 
ATOM     98  C   UNL     1       5.242  -4.645  -7.485  1.00  0.00     0.049 A 
ATOM     99  C   UNL     1       7.214  -5.370  -8.665  1.00  0.00     0.014 A 
ATOM    100  H   UNL     1       4.013  -3.769  -6.027  1.00  0.00     0.166 HD
ATOM    101  C   UNL     1       4.403  -5.156  -8.482  1.00  0.00     0.065 A 
ATOM    102  C   UNL     1       6.392  -5.877  -9.677  1.00  0.00     0.040 A 
ATOM    103  C   UNL     1       5.013  -5.773  -9.572  1.00  0.00     0.125 A 
ATOM    104  F   UNL     1       4.246  -6.282 -10.546  1.00  0.00    -0.207 F 
ENDBRANCH  80  94
ENDBRANCH  77  80
ENDBRANCH  75  76
ENDBRANCH  74  75
ENDBRANCH  73  74
ENDBRANCH   1  73
TORSDOF 19
