REMARK SMILES COc1ccc(N[C@]2(Br)C(=O)NC(=O)N[C@@H]2C(=O)NCCCCCCNC(=O)c2ccc(-c3c4nc(c(-c5cc(S(=O)(=O)[O-])ccc5F)c5ccc([nH]5)c(-c5cc(S(=O)(=O)[O-])ccc5F)c5nc(c(-c6cc(S(=O)(=O)[O-])ccc6F)c6ccc3[nH]6)C=C5)C=C4)cc2)cc1
REMARK SMILES IDX 22 1 21 2 20 3 19 4 17 5 18 6 16 8 8 9 10 10 9 11 11 12
REMARK SMILES IDX 12 13 15 14 13 15 14 18 7 19 6 21 3 22 4 23 93 24 5 25 92 26
REMARK SMILES IDX 2 27 1 28 23 29 24 30 25 31 26 32 27 33 28 35 29 36 30 37
REMARK SMILES IDX 91 38 31 39 90 40 32 41 33 42 34 43 84 44 35 45 89 46 83 47
REMARK SMILES IDX 85 48 36 49 88 50 82 51 81 52 37 54 69 55 49 56 68 57 50 58
REMARK SMILES IDX 53 59 67 60 86 61 51 62 52 63 66 65 87 66 54 67 38 68 39 69
REMARK SMILES IDX 47 70 40 71 46 72 48 73 45 74 41 75 42 76 43 77 44 78 70 79
REMARK SMILES IDX 71 80 79 81 72 82 78 83 80 84 77 85 73 86 74 87 75 88 76 89
REMARK SMILES IDX 55 90 56 91 64 92 57 93 63 94 65 95 62 96 58 97 59 98 60 99
REMARK SMILES IDX 61 100
REMARK H PARENT 19 7 12 16 15 17 7 20 26 34 85 53 53 64
REMARK Flexibility Score: inf
ROOT
ATOM      1  C   UNL     1      -4.704   1.622  -8.681  1.00  0.00     0.002 C 
ENDROOT
BRANCH   1   2
ATOM      2  C   UNL     1      -3.583   1.881  -7.667  1.00  0.00     0.021 C 
BRANCH   2   3
ATOM      3  C   UNL     1      -3.016   0.628  -6.988  1.00  0.00     0.116 C 
BRANCH   3   4
ATOM      4  N   UNL     1      -2.270  -0.195  -7.928  1.00  0.00    -0.354 N 
ATOM      5  C   UNL     1      -0.924  -0.011  -8.121  1.00  0.00     0.246 C 
ATOM      6  O   UNL     1      -0.567   0.500  -9.182  1.00  0.00    -0.273 OA
ATOM      7  H   UNL     1      -2.740  -0.896  -8.435  1.00  0.00     0.163 HD
BRANCH   5   8
ATOM      8  C   UNL     1       0.076  -0.472  -7.033  1.00  0.00     0.219 C 
ATOM      9  C   UNL     1       1.009  -1.618  -7.502  1.00  0.00     0.202 C 
ATOM     10  C   UNL     1       0.537  -3.013  -7.036  1.00  0.00     0.267 C 
ATOM     11  Br  UNL     1       2.713  -1.399  -6.425  1.00  0.00    -0.048 Br
ATOM     12  O   UNL     1       1.060  -4.075  -7.386  1.00  0.00    -0.271 OA
ATOM     13  N   UNL     1      -0.496  -3.060  -6.135  1.00  0.00    -0.275 N 
ATOM     14  N   UNL     1      -0.568  -0.789  -5.755  1.00  0.00    -0.322 N 
ATOM     15  C   UNL     1      -0.979  -2.027  -5.403  1.00  0.00     0.322 C 
ATOM     16  H   UNL     1      -0.931  -3.934  -6.007  1.00  0.00     0.174 HD
ATOM     17  H   UNL     1      -0.710  -0.056  -5.114  1.00  0.00     0.166 HD
ATOM     18  O   UNL     1      -1.702  -2.205  -4.429  1.00  0.00    -0.248 OA
BRANCH   9  19
ATOM     19  N   UNL     1       1.482  -1.597  -8.885  1.00  0.00    -0.360 N 
ATOM     20  H   UNL     1       2.399  -1.265  -9.020  1.00  0.00     0.162 HD
BRANCH  19  21
ATOM     21  C   UNL     1       0.806  -1.983 -10.025  1.00  0.00     0.036 A 
ATOM     22  C   UNL     1      -0.565  -2.521 -12.445  1.00  0.00     0.119 A 
ATOM     23  C   UNL     1      -1.133  -2.859 -11.223  1.00  0.00     0.048 A 
ATOM     24  C   UNL     1       0.680  -1.904 -12.472  1.00  0.00     0.048 A 
ATOM     25  C   UNL     1      -0.449  -2.601 -10.030  1.00  0.00     0.029 A 
ATOM     26  C   UNL     1       1.355  -1.645 -11.271  1.00  0.00     0.029 A 
BRANCH  22  27
ATOM     27  O   UNL     1      -1.331  -2.753 -13.552  1.00  0.00    -0.497 OA
ATOM     28  C   UNL     1      -0.615  -3.355 -14.625  1.00  0.00     0.278 C 
ENDBRANCH  22  27
ENDBRANCH  19  21
ENDBRANCH   9  19
ENDBRANCH   5   8
ENDBRANCH   3   4
ENDBRANCH   2   3
ENDBRANCH   1   2
BRANCH   1  29
ATOM     29  C   UNL     1      -5.924   0.873  -8.138  1.00  0.00     0.002 C 
BRANCH  29  30
ATOM     30  C   UNL     1      -6.560   1.468  -6.878  1.00  0.00     0.021 C 
BRANCH  30  31
ATOM     31  C   UNL     1      -6.981   2.932  -6.982  1.00  0.00     0.116 C 
BRANCH  31  32
ATOM     32  N   UNL     1      -7.993   3.151  -7.998  1.00  0.00    -0.352 N 
ATOM     33  C   UNL     1      -9.145   3.897  -7.939  1.00  0.00     0.251 C 
ATOM     34  H   UNL     1      -7.830   2.699  -8.857  1.00  0.00     0.163 HD
ATOM     35  O   UNL     1      -9.948   3.829  -8.867  1.00  0.00    -0.269 OA
BRANCH  33  36
ATOM     36  C   UNL     1      -9.440   4.749  -6.762  1.00  0.00     0.039 A 
ATOM     37  C   UNL     1     -10.749   4.776  -6.274  1.00  0.00     0.014 A 
ATOM     38  C   UNL     1      -8.457   5.540  -6.156  1.00  0.00     0.014 A 
ATOM     39  C   UNL     1     -11.062   5.554  -5.156  1.00  0.00     0.010 A 
ATOM     40  C   UNL     1      -8.756   6.265  -5.001  1.00  0.00     0.010 A 
ATOM     41  C   UNL     1     -10.063   6.285  -4.492  1.00  0.00    -0.014 A 
BRANCH  41  42
ATOM     42  C   UNL     1     -10.391   7.062  -3.267  1.00  0.00     0.031 A 
ATOM     43  C   UNL     1     -10.311   8.565  -3.266  1.00  0.00     0.074 A 
ATOM     44  C   UNL     1     -10.744   6.406  -2.144  1.00  0.00     0.049 A 
ATOM     45  N   UNL     1     -10.592   9.409  -2.305  1.00  0.00    -0.248 NA
ATOM     46  C   UNL     1      -9.827   9.202  -4.499  1.00  0.00     0.031 C 
ATOM     47  C   UNL     1     -10.799   4.949  -2.001  1.00  0.00     0.029 A 
ATOM     48  N   UNL     1     -11.130   6.873  -0.913  1.00  0.00    -0.354 N 
ATOM     49  C   UNL     1     -10.317  10.674  -2.814  1.00  0.00     0.074 A 
ATOM     50  C   UNL     1      -9.785  10.478  -4.147  1.00  0.00     0.031 C 
ATOM     51  C   UNL     1     -11.230   4.644  -0.767  1.00  0.00     0.029 A 
ATOM     52  C   UNL     1     -11.456   5.877  -0.021  1.00  0.00     0.049 A 
ATOM     53  H   UNL     1     -11.170   7.831  -0.689  1.00  0.00     0.167 HD
ATOM     54  C   UNL     1     -10.512  11.886  -2.235  1.00  0.00     0.034 A 
ATOM     55  C   UNL     1     -11.898   5.950   1.250  1.00  0.00     0.034 A 
ATOM     56  C   UNL     1     -11.050  12.066  -0.907  1.00  0.00     0.049 A 
ATOM     57  C   UNL     1     -12.129   7.306   1.863  1.00  0.00     0.074 A 
ATOM     58  C   UNL     1     -11.331  13.247  -0.240  1.00  0.00     0.029 A 
ATOM     59  N   UNL     1     -11.384  11.035  -0.037  1.00  0.00    -0.354 N 
ATOM     60  N   UNL     1     -11.923   8.495   1.344  1.00  0.00    -0.248 NA
ATOM     61  C   UNL     1     -12.674   7.328   3.225  1.00  0.00     0.031 C 
ATOM     62  C   UNL     1     -11.780  12.931   1.049  1.00  0.00     0.029 A 
ATOM     63  C   UNL     1     -11.846  11.552   1.165  1.00  0.00     0.049 A 
ATOM     64  H   UNL     1     -11.304  10.076  -0.244  1.00  0.00     0.167 HD
ATOM     65  C   UNL     1     -12.339   9.406   2.311  1.00  0.00     0.074 A 
ATOM     66  C   UNL     1     -12.832   8.627   3.428  1.00  0.00     0.031 C 
ATOM     67  C   UNL     1     -12.314  10.764   2.281  1.00  0.00     0.034 A 
BRANCH  54  68
ATOM     68  C   UNL     1     -10.119  13.107  -3.035  1.00  0.00     0.023 A 
ATOM     69  C   UNL     1     -10.749  13.427  -4.251  1.00  0.00     0.031 A 
ATOM     70  C   UNL     1      -9.083  13.948  -2.593  1.00  0.00     0.131 A 
ATOM     71  C   UNL     1     -10.289  14.508  -5.018  1.00  0.00     0.055 A 
ATOM     72  C   UNL     1      -8.683  15.071  -3.322  1.00  0.00     0.041 A 
ATOM     73  F   UNL     1      -8.429  13.686  -1.450  1.00  0.00    -0.206 F 
ATOM     74  C   UNL     1      -9.276  15.347  -4.550  1.00  0.00     0.022 A 
BRANCH  71  75
ATOM     75  S   UNL     1     -10.936  14.716  -6.700  1.00  0.00     0.124 S 
ATOM     76  O   UNL     1     -10.553  13.451  -7.321  1.00  0.00    -0.237 OA
ATOM     77  O   UNL     1     -12.363  14.908  -6.467  1.00  0.00    -0.237 OA
ATOM     78  O   UNL     1     -10.222  15.889  -7.199  1.00  0.00    -0.744 OA
ENDBRANCH  71  75
ENDBRANCH  54  68
BRANCH  55  79
ATOM     79  C   UNL     1     -12.169   4.708   2.027  1.00  0.00     0.023 A 
ATOM     80  C   UNL     1     -13.472   4.379   2.434  1.00  0.00     0.031 A 
ATOM     81  C   UNL     1     -11.121   3.854   2.413  1.00  0.00     0.131 A 
ATOM     82  C   UNL     1     -13.688   3.253   3.244  1.00  0.00     0.055 A 
ATOM     83  C   UNL     1     -11.348   2.708   3.177  1.00  0.00     0.041 A 
ATOM     84  F   UNL     1      -9.858   4.118   2.041  1.00  0.00    -0.206 F 
ATOM     85  C   UNL     1     -12.636   2.410   3.609  1.00  0.00     0.022 A 
BRANCH  82  86
ATOM     86  S   UNL     1     -15.359   2.953   3.883  1.00  0.00     0.124 S 
ATOM     87  O   UNL     1     -15.633   4.194   4.598  1.00  0.00    -0.237 OA
ATOM     88  O   UNL     1     -16.117   2.738   2.655  1.00  0.00    -0.237 OA
ATOM     89  O   UNL     1     -15.193   1.770   4.726  1.00  0.00    -0.744 OA
ENDBRANCH  82  86
ENDBRANCH  55  79
BRANCH  67  90
ATOM     90  C   UNL     1     -12.867  11.476   3.493  1.00  0.00     0.023 A 
ATOM     91  C   UNL     1     -12.253  11.370   4.753  1.00  0.00     0.031 A 
ATOM     92  C   UNL     1     -14.053  12.224   3.397  1.00  0.00     0.131 A 
ATOM     93  C   UNL     1     -12.869  11.932   5.881  1.00  0.00     0.055 A 
ATOM     94  C   UNL     1     -14.627  12.837   4.512  1.00  0.00     0.041 A 
ATOM     95  F   UNL     1     -14.684  12.359   2.219  1.00  0.00    -0.206 F 
ATOM     96  C   UNL     1     -14.045  12.677   5.766  1.00  0.00     0.022 A 
BRANCH  93  97
ATOM     97  S   UNL     1     -12.182  11.564   7.520  1.00  0.00     0.124 S 
ATOM     98  O   UNL     1     -12.163  10.105   7.522  1.00  0.00    -0.237 OA
ATOM     99  O   UNL     1     -10.879  12.218   7.464  1.00  0.00    -0.237 OA
ATOM    100  O   UNL     1     -13.142  12.173   8.439  1.00  0.00    -0.744 OA
ENDBRANCH  93  97
ENDBRANCH  67  90
ENDBRANCH  41  42
ENDBRANCH  33  36
ENDBRANCH  31  32
ENDBRANCH  30  31
ENDBRANCH  29  30
ENDBRANCH   1  29
TORSDOF 19
