REMARK SMILES CC(C)[C@H](C(=O)NCCCCCCNC(=O)c1ccc(-c2c3nc(c(-c4cc(S(=O)(=O)[O-])ccc4F)c4ccc([nH]4)c(-c4cc(S(=O)(=O)[O-])ccc4F)c4nc(c(-c5cc(S(=O)(=O)[O-])ccc5F)c5ccc2[nH]5)C=C4)C=C3)cc1)[C@H](C)[C@@H](C)O
REMARK SMILES IDX 10 1 9 2 8 3 7 4 5 5 6 6 4 8 2 9 1 10 3 11 80 12 81 13 82 14
REMARK SMILES IDX 83 15 84 16 11 18 12 19 13 20 14 21 15 22 16 24 17 25 18 26
REMARK SMILES IDX 79 27 19 28 78 29 20 30 21 31 22 32 72 33 23 34 77 35 71 36
REMARK SMILES IDX 73 37 24 38 76 39 70 40 69 41 25 43 57 44 37 45 56 46 38 47
REMARK SMILES IDX 41 48 55 49 74 50 39 51 40 52 54 54 75 55 42 56 26 57 27 58
REMARK SMILES IDX 35 59 28 60 34 61 36 62 33 63 29 64 30 65 31 66 32 67 58 68
REMARK SMILES IDX 59 69 67 70 60 71 66 72 68 73 65 74 61 75 62 76 63 77 64 78
REMARK SMILES IDX 43 79 44 80 52 81 45 82 51 83 53 84 50 85 46 86 47 87 48 88
REMARK SMILES IDX 49 89
REMARK H PARENT 7 7 84 17 14 23 73 42 41 53
REMARK Flexibility Score: inf
ROOT
ATOM      1  C   UNL     1      -0.147  -2.844   8.933  1.00  0.00     0.002 C 
ENDROOT
BRANCH   1   2
ATOM      2  C   UNL     1       0.091  -1.744   7.903  1.00  0.00     0.021 C 
BRANCH   2   3
ATOM      3  C   UNL     1       0.091  -2.161   6.441  1.00  0.00     0.116 C 
BRANCH   3   4
ATOM      4  N   UNL     1      -1.205  -2.367   5.880  1.00  0.00    -0.356 N 
ATOM      5  C   UNL     1      -1.679  -2.002   4.672  1.00  0.00     0.223 C 
ATOM      6  O   UNL     1      -2.917  -1.937   4.663  1.00  0.00    -0.275 OA
ATOM      7  H   UNL     1      -1.844  -2.844   6.458  1.00  0.00     0.163 HD
BRANCH   5   8
ATOM      8  C   UNL     1      -0.855  -1.557   3.425  1.00  0.00     0.086 C 
BRANCH   8   9
ATOM      9  C   UNL     1       0.651  -1.981   3.150  1.00  0.00    -0.005 C 
ATOM     10  C   UNL     1       1.782  -1.405   4.008  1.00  0.00     0.008 C 
ATOM     11  C   UNL     1       0.862  -3.480   2.924  1.00  0.00     0.008 C 
ENDBRANCH   8   9
BRANCH   8  12
ATOM     12  C   UNL     1      -1.642  -1.837   2.038  1.00  0.00     0.027 C 
ATOM     13  C   UNL     1      -1.228  -0.766   1.005  1.00  0.00     0.011 C 
BRANCH  12  14
ATOM     14  C   UNL     1      -3.175  -2.099   2.003  1.00  0.00     0.115 C 
ATOM     15  C   UNL     1      -3.743  -2.298   0.595  1.00  0.00     0.038 C 
BRANCH  14  16
ATOM     16  O   UNL     1      -3.458  -3.350   2.646  1.00  0.00    -0.393 OA
ATOM     17  H   UNL     1      -3.029  -4.069   2.156  1.00  0.00     0.210 HD
ENDBRANCH  14  16
ENDBRANCH  12  14
ENDBRANCH   8  12
ENDBRANCH   5   8
ENDBRANCH   3   4
ENDBRANCH   2   3
ENDBRANCH   1   2
BRANCH   1  18
ATOM     18  C   UNL     1       0.707  -4.105   8.788  1.00  0.00     0.002 C 
BRANCH  18  19
ATOM     19  C   UNL     1       2.216  -3.894   8.630  1.00  0.00     0.021 C 
BRANCH  19  20
ATOM     20  C   UNL     1       2.883  -3.027   9.693  1.00  0.00     0.116 C 
BRANCH  20  21
ATOM     21  N   UNL     1       2.633  -3.510  11.038  1.00  0.00    -0.352 N 
ATOM     22  C   UNL     1       3.522  -3.830  12.035  1.00  0.00     0.251 C 
ATOM     23  H   UNL     1       1.684  -3.626  11.271  1.00  0.00     0.163 HD
ATOM     24  O   UNL     1       3.120  -4.407  13.037  1.00  0.00    -0.269 OA
BRANCH  22  25
ATOM     25  C   UNL     1       4.956  -3.495  11.887  1.00  0.00     0.039 A 
ATOM     26  C   UNL     1       5.909  -4.436  12.285  1.00  0.00     0.014 A 
ATOM     27  C   UNL     1       5.364  -2.255  11.387  1.00  0.00     0.014 A 
ATOM     28  C   UNL     1       7.269  -4.151  12.138  1.00  0.00     0.010 A 
ATOM     29  C   UNL     1       6.716  -2.003  11.169  1.00  0.00     0.010 A 
ATOM     30  C   UNL     1       7.684  -2.944  11.554  1.00  0.00    -0.014 A 
BRANCH  30  31
ATOM     31  C   UNL     1       9.126  -2.636  11.366  1.00  0.00     0.031 A 
ATOM     32  C   UNL     1       9.746  -1.472  12.093  1.00  0.00     0.074 A 
ATOM     33  C   UNL     1       9.864  -3.373  10.512  1.00  0.00     0.049 A 
ATOM     34  N   UNL     1      10.961  -0.994  12.010  1.00  0.00    -0.248 NA
ATOM     35  C   UNL     1       8.871  -0.729  13.013  1.00  0.00     0.031 C 
ATOM     36  C   UNL     1       9.368  -4.509   9.733  1.00  0.00     0.029 A 
ATOM     37  N   UNL     1      11.185  -3.277  10.152  1.00  0.00    -0.354 N 
ATOM     38  C   UNL     1      10.994   0.108  12.859  1.00  0.00     0.074 A 
ATOM     39  C   UNL     1       9.658   0.267  13.390  1.00  0.00     0.031 C 
ATOM     40  C   UNL     1      10.378  -5.021   9.011  1.00  0.00     0.029 A 
ATOM     41  C   UNL     1      11.579  -4.222   9.233  1.00  0.00     0.049 A 
ATOM     42  H   UNL     1      11.794  -2.595  10.518  1.00  0.00     0.167 HD
ATOM     43  C   UNL     1      12.049   0.896  13.186  1.00  0.00     0.034 A 
ATOM     44  C   UNL     1      12.769  -4.414   8.628  1.00  0.00     0.034 A 
ATOM     45  C   UNL     1      13.377   0.717  12.652  1.00  0.00     0.049 A 
ATOM     46  C   UNL     1      13.915  -3.495   8.974  1.00  0.00     0.074 A 
ATOM     47  C   UNL     1      14.525   1.434  12.940  1.00  0.00     0.029 A 
ATOM     48  N   UNL     1      13.735  -0.244  11.714  1.00  0.00    -0.354 N 
ATOM     49  N   UNL     1      13.939  -2.479   9.806  1.00  0.00    -0.248 NA
ATOM     50  C   UNL     1      15.197  -3.756   8.306  1.00  0.00     0.031 C 
ATOM     51  C   UNL     1      15.557   0.957  12.124  1.00  0.00     0.029 A 
ATOM     52  C   UNL     1      15.078  -0.118  11.392  1.00  0.00     0.049 A 
ATOM     53  H   UNL     1      13.125  -0.916  11.334  1.00  0.00     0.167 HD
ATOM     54  C   UNL     1      15.250  -2.008   9.792  1.00  0.00     0.074 A 
ATOM     55  C   UNL     1      15.985  -2.858   8.878  1.00  0.00     0.031 C 
ATOM     56  C   UNL     1      15.798  -0.971  10.476  1.00  0.00     0.034 A 
BRANCH  43  57
ATOM     57  C   UNL     1      11.794   2.035  14.147  1.00  0.00     0.023 A 
ATOM     58  C   UNL     1      11.352   1.806  15.463  1.00  0.00     0.031 A 
ATOM     59  C   UNL     1      11.970   3.369  13.738  1.00  0.00     0.131 A 
ATOM     60  C   UNL     1      11.025   2.889  16.292  1.00  0.00     0.055 A 
ATOM     61  C   UNL     1      11.728   4.442  14.598  1.00  0.00     0.041 A 
ATOM     62  F   UNL     1      12.368   3.654  12.488  1.00  0.00    -0.206 F 
ATOM     63  C   UNL     1      11.237   4.206  15.879  1.00  0.00     0.022 A 
BRANCH  60  64
ATOM     64  S   UNL     1      10.174   2.553  17.858  1.00  0.00     0.124 S 
ATOM     65  O   UNL     1       8.974   1.858  17.396  1.00  0.00    -0.237 OA
ATOM     66  O   UNL     1      11.146   1.740  18.578  1.00  0.00    -0.237 OA
ATOM     67  O   UNL     1       9.938   3.884  18.412  1.00  0.00    -0.744 OA
ENDBRANCH  60  64
ENDBRANCH  43  57
BRANCH  44  68
ATOM     68  C   UNL     1      12.946  -5.509   7.630  1.00  0.00     0.023 A 
ATOM     69  C   UNL     1      13.858  -6.552   7.857  1.00  0.00     0.031 A 
ATOM     70  C   UNL     1      12.249  -5.500   6.409  1.00  0.00     0.131 A 
ATOM     71  C   UNL     1      14.092  -7.509   6.857  1.00  0.00     0.055 A 
ATOM     72  C   UNL     1      12.439  -6.489   5.442  1.00  0.00     0.041 A 
ATOM     73  F   UNL     1      11.364  -4.527   6.138  1.00  0.00    -0.206 F 
ATOM     74  C   UNL     1      13.378  -7.493   5.657  1.00  0.00     0.022 A 
BRANCH  71  75
ATOM     75  S   UNL     1      15.425  -8.714   7.105  1.00  0.00     0.124 S 
ATOM     76  O   UNL     1      16.576  -7.843   7.310  1.00  0.00    -0.237 OA
ATOM     77  O   UNL     1      14.956  -9.447   8.277  1.00  0.00    -0.237 OA
ATOM     78  O   UNL     1      15.430  -9.475   5.857  1.00  0.00    -0.744 OA
ENDBRANCH  71  75
ENDBRANCH  44  68
BRANCH  56  79
ATOM     79  C   UNL     1      17.281  -0.740  10.305  1.00  0.00     0.023 A 
ATOM     80  C   UNL     1      17.837  -0.344   9.076  1.00  0.00     0.031 A 
ATOM     81  C   UNL     1      18.153  -0.929  11.393  1.00  0.00     0.131 A 
ATOM     82  C   UNL     1      19.228  -0.209   8.949  1.00  0.00     0.055 A 
ATOM     83  C   UNL     1      19.528  -0.726  11.278  1.00  0.00     0.041 A 
ATOM     84  F   UNL     1      17.679  -1.311  12.590  1.00  0.00    -0.206 F 
ATOM     85  C   UNL     1      20.075  -0.378  10.047  1.00  0.00     0.022 A 
BRANCH  82  86
ATOM     86  S   UNL     1      19.927   0.092   7.303  1.00  0.00     0.124 S 
ATOM     87  O   UNL     1      19.433  -1.056   6.549  1.00  0.00    -0.237 OA
ATOM     88  O   UNL     1      19.347   1.384   6.949  1.00  0.00    -0.237 OA
ATOM     89  O   UNL     1      21.369   0.105   7.539  1.00  0.00    -0.744 OA
ENDBRANCH  82  86
ENDBRANCH  56  79
ENDBRANCH  30  31
ENDBRANCH  22  25
ENDBRANCH  20  21
ENDBRANCH  19  20
ENDBRANCH  18  19
ENDBRANCH   1  18
TORSDOF 20
