REMARK SMILES O=C(NCCCCCCNC(=O)c1ccc(C[N@H+]2CC[N@H+]3CCCC[C@@H]3C2)c(F)c1)c1ccc(-c2c3nc(c(-c4cc(S(=O)(=O)[O-])ccc4F)c4ccc([nH]4)c(-c4cc(S(=O)(=O)[O-])ccc4F)c4nc(c(-c5cc(S(=O)(=O)[O-])ccc5F)c5ccc2[nH]5)C=C4)C=C3)cc1
REMARK SMILES IDX 6 1 5 2 4 3 3 4 1 5 2 6 31 8 32 9 93 10 33 11 92 12 34 13
REMARK SMILES IDX 35 14 36 15 86 16 37 17 91 18 85 19 87 20 38 21 90 22 84 23
REMARK SMILES IDX 83 24 39 26 71 27 51 28 70 29 52 30 55 31 69 32 88 33 53 34
REMARK SMILES IDX 54 35 68 37 89 38 56 39 40 40 41 41 49 42 42 43 48 44 50 45
REMARK SMILES IDX 47 46 43 47 44 48 45 49 46 50 72 51 73 52 81 53 74 54 80 55
REMARK SMILES IDX 82 56 79 57 75 58 76 59 77 60 78 61 57 62 58 63 66 64 59 65
REMARK SMILES IDX 65 66 67 67 64 68 60 69 61 70 62 71 63 72 7 73 8 74 9 75
REMARK SMILES IDX 10 76 11 77 12 79 13 80 14 81 30 82 15 83 28 84 16 85 29 86
REMARK SMILES IDX 17 87 18 88 19 89 27 90 20 92 26 93 21 94 25 95 22 96 24 98
REMARK SMILES IDX 23 99
REMARK H PARENT 3 7 87 25 55 36 10 78 18 91 21 97
REMARK Flexibility Score: inf
ROOT
ATOM      1  C   UNL     1       3.975   0.914  -3.957  1.00  0.00     0.002 C 
ENDROOT
BRANCH   1   2
ATOM      2  C   UNL     1       4.504  -0.005  -2.855  1.00  0.00     0.021 C 
BRANCH   2   3
ATOM      3  C   UNL     1       4.313   0.507  -1.431  1.00  0.00     0.116 C 
BRANCH   3   4
ATOM      4  N   UNL     1       2.912   0.572  -1.039  1.00  0.00    -0.352 N 
ATOM      5  O   UNL     1       1.043   0.011   0.090  1.00  0.00    -0.269 OA
ATOM      6  C   UNL     1       2.264  -0.036   0.015  1.00  0.00     0.251 C 
ATOM      7  H   UNL     1       2.342   1.134  -1.612  1.00  0.00     0.163 HD
BRANCH   6   8
ATOM      8  C   UNL     1       3.045  -0.760   1.047  1.00  0.00     0.039 A 
ATOM      9  C   UNL     1       4.228  -0.219   1.550  1.00  0.00     0.014 A 
ATOM     10  C   UNL     1       2.582  -1.990   1.528  1.00  0.00     0.014 A 
ATOM     11  C   UNL     1       5.025  -0.973   2.402  1.00  0.00     0.010 A 
ATOM     12  C   UNL     1       3.337  -2.703   2.467  1.00  0.00     0.010 A 
ATOM     13  C   UNL     1       4.582  -2.215   2.891  1.00  0.00    -0.014 A 
BRANCH  13  14
ATOM     14  C   UNL     1       5.418  -2.921   3.898  1.00  0.00     0.031 A 
ATOM     15  C   UNL     1       6.047  -4.255   3.607  1.00  0.00     0.074 A 
ATOM     16  C   UNL     1       5.667  -2.297   5.067  1.00  0.00     0.049 A 
ATOM     17  N   UNL     1       6.879  -4.946   4.345  1.00  0.00    -0.248 NA
ATOM     18  C   UNL     1       5.695  -4.903   2.336  1.00  0.00     0.031 C 
ATOM     19  C   UNL     1       5.100  -1.003   5.460  1.00  0.00     0.029 A 
ATOM     20  N   UNL     1       6.488  -2.628   6.114  1.00  0.00    -0.354 N 
ATOM     21  C   UNL     1       7.141  -6.114   3.638  1.00  0.00     0.074 A 
ATOM     22  C   UNL     1       6.354  -6.051   2.424  1.00  0.00     0.031 C 
ATOM     23  C   UNL     1       5.657  -0.610   6.612  1.00  0.00     0.029 A 
ATOM     24  C   UNL     1       6.558  -1.656   7.084  1.00  0.00     0.049 A 
ATOM     25  H   UNL     1       6.979  -3.480   6.166  1.00  0.00     0.167 HD
ATOM     26  C   UNL     1       7.967  -7.137   3.972  1.00  0.00     0.034 A 
ATOM     27  C   UNL     1       7.258  -1.605   8.233  1.00  0.00     0.034 A 
ATOM     28  C   UNL     1       8.752  -7.176   5.182  1.00  0.00     0.049 A 
ATOM     29  C   UNL     1       8.138  -2.764   8.599  1.00  0.00     0.074 A 
ATOM     30  C   UNL     1       9.652  -8.146   5.591  1.00  0.00     0.029 A 
ATOM     31  N   UNL     1       8.726  -6.214   6.183  1.00  0.00    -0.354 N 
ATOM     32  N   UNL     1       8.371  -3.860   7.917  1.00  0.00    -0.248 NA
ATOM     33  C   UNL     1       8.836  -2.691   9.888  1.00  0.00     0.031 C 
ATOM     34  C   UNL     1      10.113  -7.807   6.867  1.00  0.00     0.029 A 
ATOM     35  C   UNL     1       9.562  -6.587   7.224  1.00  0.00     0.049 A 
ATOM     36  H   UNL     1       8.192  -5.387   6.158  1.00  0.00     0.167 HD
ATOM     37  C   UNL     1       9.249  -4.608   8.692  1.00  0.00     0.074 A 
ATOM     38  C   UNL     1       9.509  -3.834   9.891  1.00  0.00     0.031 C 
ATOM     39  C   UNL     1       9.793  -5.821   8.427  1.00  0.00     0.034 A 
BRANCH  26  40
ATOM     40  C   UNL     1       8.036  -8.321   3.038  1.00  0.00     0.023 A 
ATOM     41  C   UNL     1       8.588  -8.220   1.749  1.00  0.00     0.031 A 
ATOM     42  C   UNL     1       7.562  -9.578   3.455  1.00  0.00     0.131 A 
ATOM     43  C   UNL     1       8.609  -9.342   0.907  1.00  0.00     0.055 A 
ATOM     44  C   UNL     1       7.646 -10.706   2.638  1.00  0.00     0.041 A 
ATOM     45  F   UNL     1       7.010  -9.730   4.669  1.00  0.00    -0.206 F 
ATOM     46  C   UNL     1       8.164 -10.590   1.351  1.00  0.00     0.022 A 
BRANCH  43  47
ATOM     47  S   UNL     1       9.139  -9.130  -0.815  1.00  0.00     0.124 S 
ATOM     48  O   UNL     1       8.148  -8.180  -1.315  1.00  0.00    -0.237 OA
ATOM     49  O   UNL     1      10.496  -8.616  -0.668  1.00  0.00    -0.237 OA
ATOM     50  O   UNL     1       9.039 -10.476  -1.375  1.00  0.00    -0.744 OA
ENDBRANCH  43  47
ENDBRANCH  26  40
BRANCH  27  51
ATOM     51  C   UNL     1       7.118  -0.414   9.115  1.00  0.00     0.023 A 
ATOM     52  C   UNL     1       8.158   0.517   9.248  1.00  0.00     0.031 A 
ATOM     53  C   UNL     1       5.902  -0.155   9.774  1.00  0.00     0.131 A 
ATOM     54  C   UNL     1       7.960   1.672  10.021  1.00  0.00     0.055 A 
ATOM     55  C   UNL     1       5.699   1.011  10.510  1.00  0.00     0.041 A 
ATOM     56  F   UNL     1       4.874  -1.011   9.659  1.00  0.00    -0.206 F 
ATOM     57  C   UNL     1       6.732   1.933  10.638  1.00  0.00     0.022 A 
BRANCH  54  58
ATOM     58  S   UNL     1       9.329   2.848  10.206  1.00  0.00     0.124 S 
ATOM     59  O   UNL     1      10.291   2.064  10.972  1.00  0.00    -0.237 OA
ATOM     60  O   UNL     1       9.685   3.125   8.818  1.00  0.00    -0.237 OA
ATOM     61  O   UNL     1       8.722   3.967  10.923  1.00  0.00    -0.744 OA
ENDBRANCH  54  58
ENDBRANCH  27  51
BRANCH  39  62
ATOM     62  C   UNL     1      10.744  -6.392   9.444  1.00  0.00     0.023 A 
ATOM     63  C   UNL     1      10.287  -6.914  10.665  1.00  0.00     0.031 A 
ATOM     64  C   UNL     1      12.118  -6.470   9.156  1.00  0.00     0.131 A 
ATOM     65  C   UNL     1      11.203  -7.480  11.565  1.00  0.00     0.055 A 
ATOM     66  C   UNL     1      13.018  -7.071  10.036  1.00  0.00     0.041 A 
ATOM     67  F   UNL     1      12.601  -5.985   8.001  1.00  0.00    -0.206 F 
ATOM     68  C   UNL     1      12.562  -7.579  11.249  1.00  0.00     0.022 A 
BRANCH  65  69
ATOM     69  S   UNL     1      10.601  -8.077  13.168  1.00  0.00     0.124 S 
ATOM     70  O   UNL     1      10.197  -6.835  13.819  1.00  0.00    -0.237 OA
ATOM     71  O   UNL     1       9.520  -8.979  12.786  1.00  0.00    -0.237 OA
ATOM     72  O   UNL     1      11.772  -8.731  13.752  1.00  0.00    -0.744 OA
ENDBRANCH  65  69
ENDBRANCH  39  62
ENDBRANCH  13  14
ENDBRANCH   6   8
ENDBRANCH   3   4
ENDBRANCH   2   3
ENDBRANCH   1   2
BRANCH   1  73
ATOM     73  C   UNL     1       4.570   2.326  -3.996  1.00  0.00     0.002 C 
BRANCH  73  74
ATOM     74  C   UNL     1       6.101   2.411  -4.066  1.00  0.00     0.021 C 
BRANCH  74  75
ATOM     75  C   UNL     1       6.738   1.740  -5.286  1.00  0.00     0.116 C 
BRANCH  75  76
ATOM     76  N   UNL     1       6.484   2.484  -6.510  1.00  0.00    -0.352 N 
ATOM     77  C   UNL     1       7.379   3.099  -7.350  1.00  0.00     0.251 C 
ATOM     78  H   UNL     1       5.538   2.557  -6.772  1.00  0.00     0.163 HD
ATOM     79  O   UNL     1       6.992   3.806  -8.275  1.00  0.00    -0.269 OA
BRANCH  77  80
ATOM     80  C   UNL     1       8.828   2.923  -7.137  1.00  0.00     0.042 A 
ATOM     81  C   UNL     1       9.434   1.687  -7.378  1.00  0.00     0.014 A 
ATOM     82  C   UNL     1       9.589   4.016  -6.727  1.00  0.00     0.053 A 
ATOM     83  C   UNL     1      10.803   1.530  -7.135  1.00  0.00     0.013 A 
ATOM     84  C   UNL     1      10.943   3.836  -6.459  1.00  0.00     0.132 A 
ATOM     85  C   UNL     1      11.561   2.588  -6.602  1.00  0.00     0.042 A 
ATOM     86  F   UNL     1      11.652   4.884  -6.014  1.00  0.00    -0.206 F 
BRANCH  85  87
ATOM     87  C   UNL     1      12.992   2.379  -6.159  1.00  0.00     0.302 C 
BRANCH  87  88
ATOM     88  N   UNL     1      13.244   1.909  -4.789  1.00  0.00    -0.322 N 
ATOM     89  C   UNL     1      12.943   2.856  -3.705  1.00  0.00     0.324 C 
ATOM     90  C   UNL     1      12.736   0.572  -4.451  1.00  0.00     0.328 C 
ATOM     91  H   UNL     1      14.260   1.834  -4.838  1.00  0.00     0.348 HD
ATOM     92  C   UNL     1      11.513   2.797  -3.109  1.00  0.00     0.324 C 
ATOM     93  C   UNL     1      11.258   0.553  -3.990  1.00  0.00     0.239 C 
ATOM     94  N   UNL     1      11.009   1.433  -2.832  1.00  0.00    -0.323 N 
ATOM     95  C   UNL     1      10.784  -0.876  -3.711  1.00  0.00     0.071 C 
ATOM     96  C   UNL     1       9.575   1.481  -2.508  1.00  0.00     0.262 C 
ATOM     97  H   UNL     1      11.507   1.051  -2.028  1.00  0.00     0.348 HD
ATOM     98  C   UNL     1       9.280  -0.861  -3.460  1.00  0.00     0.012 C 
ATOM     99  C   UNL     1       8.950   0.094  -2.318  1.00  0.00     0.062 C 
ENDBRANCH  87  88
ENDBRANCH  85  87
ENDBRANCH  77  80
ENDBRANCH  75  76
ENDBRANCH  74  75
ENDBRANCH  73  74
ENDBRANCH   1  73
TORSDOF 18
