REMARK SMILES O=C(C[C@H](NC(=O)[C@]12C[C@H]3C[C@H](C[C@H](C3)C1)C2)c1cccc([N+](=O)[O-])c1)NCCCCCCNC(=O)c1ccc(-c2c3nc(c(-c4cc(S(=O)(=O)[O-])ccc4F)c4ccc([nH]4)c(-c4cc(S(=O)(=O)[O-])ccc4F)c4nc(c(-c5cc(S(=O)(=O)[O-])ccc5F)c5ccc2[nH]5)C=C4)C=C3)cc1
REMARK SMILES IDX 30 1 29 2 28 3 27 4 1 5 2 6 3 8 4 9 18 10 19 11 26 12 20 13
REMARK SMILES IDX 22 14 21 15 23 16 24 17 25 18 5 19 6 20 7 22 8 23 9 24 16 25
REMARK SMILES IDX 17 26 10 27 14 28 12 29 11 30 15 31 13 32 31 33 32 34 33 35
REMARK SMILES IDX 34 36 35 37 36 39 37 40 38 41 99 42 39 43 98 44 40 45 41 46
REMARK SMILES IDX 42 47 92 48 43 49 97 50 91 51 93 52 44 53 96 54 90 55 89 56
REMARK SMILES IDX 45 58 77 59 57 60 76 61 58 62 61 63 75 64 94 65 59 66 60 67
REMARK SMILES IDX 74 69 95 70 62 71 46 72 47 73 55 74 48 75 54 76 56 77 53 78
REMARK SMILES IDX 49 79 50 80 51 81 52 82 78 83 79 84 87 85 80 86 86 87 88 88
REMARK SMILES IDX 85 89 81 90 82 91 83 92 84 93 63 94 64 95 72 96 65 97 71 98
REMARK SMILES IDX 73 99 70 100 66 101 67 102 68 103 69 104
REMARK H PARENT 27 7 5 21 34 38 93 57 61 68
REMARK Flexibility Score: inf
ROOT
ATOM      1  C   UNL     1       7.680  -3.934  -3.588  1.00  0.00     0.002 C 
ENDROOT
BRANCH   1   2
ATOM      2  C   UNL     1       7.938  -2.645  -4.385  1.00  0.00     0.021 C 
BRANCH   2   3
ATOM      3  C   UNL     1       6.669  -1.850  -4.713  1.00  0.00     0.116 C 
BRANCH   3   4
ATOM      4  N   UNL     1       5.926  -1.615  -3.491  1.00  0.00    -0.356 N 
ATOM      5  O   UNL     1       6.588   0.554  -3.185  1.00  0.00    -0.275 OA
ATOM      6  C   UNL     1       6.126  -0.488  -2.730  1.00  0.00     0.222 C 
ATOM      7  H   UNL     1       5.261  -2.280  -3.198  1.00  0.00     0.163 HD
BRANCH   6   8
ATOM      8  C   UNL     1       5.921  -0.678  -1.232  1.00  0.00     0.129 C 
BRANCH   8   9
ATOM      9  C   UNL     1       4.594  -1.388  -0.859  1.00  0.00     0.122 C 
BRANCH   9  10
ATOM     10  C   UNL     1       4.921  -2.869  -0.569  1.00  0.00    -0.018 A 
ATOM     11  C   UNL     1       4.157  -3.906  -1.123  1.00  0.00     0.006 A 
ATOM     12  C   UNL     1       6.086  -3.213   0.146  1.00  0.00     0.091 A 
ATOM     13  C   UNL     1       4.614  -5.231  -1.074  1.00  0.00     0.007 A 
ATOM     14  C   UNL     1       6.599  -4.513   0.082  1.00  0.00     0.269 A 
ATOM     15  C   UNL     1       5.859  -5.534  -0.515  1.00  0.00     0.085 A 
BRANCH  14  16
ATOM     16  N   UNL     1       7.991  -4.748   0.492  1.00  0.00     0.062 N 
ATOM     17  O   UNL     1       8.397  -5.916   0.512  1.00  0.00    -0.258 OA
ATOM     18  O   UNL     1       8.685  -3.753   0.753  1.00  0.00    -0.258 OA
ENDBRANCH  14  16
ENDBRANCH   9  10
BRANCH   9  19
ATOM     19  N   UNL     1       3.831  -0.835   0.271  1.00  0.00    -0.348 N 
ATOM     20  C   UNL     1       2.859   0.135   0.293  1.00  0.00     0.226 C 
ATOM     21  H   UNL     1       4.053  -1.220   1.150  1.00  0.00     0.164 HD
ATOM     22  O   UNL     1       1.873  -0.120   0.997  1.00  0.00    -0.274 OA
BRANCH  20  23
ATOM     23  C   UNL     1       3.044   1.557  -0.289  1.00  0.00     0.050 C 
ATOM     24  C   UNL     1       3.863   2.348   0.766  1.00  0.00     0.020 C 
ATOM     25  C   UNL     1       1.686   2.305  -0.455  1.00  0.00     0.020 C 
ATOM     26  C   UNL     1       3.716   1.628  -1.661  1.00  0.00     0.020 C 
ATOM     27  C   UNL     1       4.110   3.792   0.305  1.00  0.00    -0.010 C 
ATOM     28  C   UNL     1       1.912   3.764  -0.929  1.00  0.00    -0.010 C 
ATOM     29  C   UNL     1       4.003   3.064  -2.105  1.00  0.00    -0.010 C 
ATOM     30  C   UNL     1       4.864   3.757  -1.032  1.00  0.00     0.007 C 
ATOM     31  C   UNL     1       2.764   4.511   0.111  1.00  0.00     0.007 C 
ATOM     32  C   UNL     1       2.665   3.779  -2.269  1.00  0.00     0.007 C 
ENDBRANCH  20  23
ENDBRANCH   9  19
ENDBRANCH   8   9
ENDBRANCH   6   8
ENDBRANCH   3   4
ENDBRANCH   2   3
ENDBRANCH   1   2
BRANCH   1  33
ATOM     33  C   UNL     1       6.715  -4.927  -4.243  1.00  0.00     0.002 C 
BRANCH  33  34
ATOM     34  C   UNL     1       7.155  -5.418  -5.619  1.00  0.00     0.021 C 
BRANCH  34  35
ATOM     35  C   UNL     1       8.516  -6.101  -5.631  1.00  0.00     0.116 C 
BRANCH  35  36
ATOM     36  N   UNL     1       8.518  -7.341  -4.869  1.00  0.00    -0.352 N 
ATOM     37  C   UNL     1       8.999  -8.571  -5.250  1.00  0.00     0.251 C 
ATOM     38  H   UNL     1       8.126  -7.293  -3.967  1.00  0.00     0.163 HD
ATOM     39  O   UNL     1       8.758  -9.567  -4.574  1.00  0.00    -0.269 OA
BRANCH  37  40
ATOM     40  C   UNL     1       9.776  -8.675  -6.503  1.00  0.00     0.039 A 
ATOM     41  C   UNL     1       9.437  -9.655  -7.437  1.00  0.00     0.014 A 
ATOM     42  C   UNL     1      10.798  -7.760  -6.774  1.00  0.00     0.014 A 
ATOM     43  C   UNL     1      10.080  -9.673  -8.677  1.00  0.00     0.010 A 
ATOM     44  C   UNL     1      11.377  -7.729  -8.038  1.00  0.00     0.010 A 
ATOM     45  C   UNL     1      11.026  -8.686  -9.002  1.00  0.00    -0.014 A 
BRANCH  45  46
ATOM     46  C   UNL     1      11.668  -8.643 -10.341  1.00  0.00     0.031 A 
ATOM     47  C   UNL     1      13.157  -8.824 -10.464  1.00  0.00     0.074 A 
ATOM     48  C   UNL     1      10.925  -8.372 -11.433  1.00  0.00     0.049 A 
ATOM     49  N   UNL     1      13.917  -8.743 -11.526  1.00  0.00    -0.248 NA
ATOM     50  C   UNL     1      13.890  -9.097  -9.219  1.00  0.00     0.031 C 
ATOM     51  C   UNL     1       9.481  -8.129 -11.433  1.00  0.00     0.029 A 
ATOM     52  N   UNL     1      11.281  -8.246 -12.752  1.00  0.00    -0.354 N 
ATOM     53  C   UNL     1      15.218  -8.941 -11.075  1.00  0.00     0.074 A 
ATOM     54  C   UNL     1      15.146  -9.072  -9.636  1.00  0.00     0.031 C 
ATOM     55  C   UNL     1       9.071  -7.910 -12.693  1.00  0.00     0.029 A 
ATOM     56  C   UNL     1      10.226  -7.951 -13.585  1.00  0.00     0.049 A 
ATOM     57  H   UNL     1      12.205  -8.356 -13.073  1.00  0.00     0.167 HD
ATOM     58  C   UNL     1      16.363  -9.032 -11.798  1.00  0.00     0.034 A 
ATOM     59  C   UNL     1      10.194  -7.728 -14.914  1.00  0.00     0.034 A 
ATOM     60  C   UNL     1      16.412  -8.909 -13.234  1.00  0.00     0.049 A 
ATOM     61  C   UNL     1      11.480  -7.814 -15.696  1.00  0.00     0.074 A 
ATOM     62  C   UNL     1      17.503  -9.041 -14.075  1.00  0.00     0.029 A 
ATOM     63  N   UNL     1      15.322  -8.616 -14.045  1.00  0.00    -0.354 N 
ATOM     64  N   UNL     1      12.696  -8.058 -15.263  1.00  0.00    -0.248 NA
ATOM     65  C   UNL     1      11.387  -7.607 -17.147  1.00  0.00     0.031 C 
ATOM     66  C   UNL     1      17.089  -8.759 -15.381  1.00  0.00     0.029 A 
ATOM     67  C   UNL     1      15.722  -8.531 -15.370  1.00  0.00     0.049 A 
ATOM     68  H   UNL     1      14.399  -8.487 -13.726  1.00  0.00     0.167 HD
ATOM     69  C   UNL     1      13.507  -8.064 -16.395  1.00  0.00     0.074 A 
ATOM     70  C   UNL     1      12.639  -7.813 -17.527  1.00  0.00     0.031 C 
ATOM     71  C   UNL     1      14.847  -8.266 -16.489  1.00  0.00     0.034 A 
BRANCH  58  72
ATOM     72  C   UNL     1      17.648  -9.250 -11.033  1.00  0.00     0.023 A 
ATOM     73  C   UNL     1      17.851 -10.394 -10.241  1.00  0.00     0.031 A 
ATOM     74  C   UNL     1      18.668  -8.282 -11.059  1.00  0.00     0.131 A 
ATOM     75  C   UNL     1      18.997 -10.499  -9.439  1.00  0.00     0.055 A 
ATOM     76  C   UNL     1      19.848  -8.436 -10.328  1.00  0.00     0.041 A 
ATOM     77  F   UNL     1      18.526  -7.158 -11.779  1.00  0.00    -0.206 F 
ATOM     78  C   UNL     1      20.010  -9.540  -9.497  1.00  0.00     0.022 A 
BRANCH  75  79
ATOM     79  S   UNL     1      19.065 -11.820  -8.197  1.00  0.00     0.124 S 
ATOM     80  O   UNL     1      17.869 -11.541  -7.405  1.00  0.00    -0.237 OA
ATOM     81  O   UNL     1      19.023 -13.025  -9.016  1.00  0.00    -0.237 OA
ATOM     82  O   UNL     1      20.330 -11.577  -7.507  1.00  0.00    -0.744 OA
ENDBRANCH  75  79
ENDBRANCH  58  72
BRANCH  59  83
ATOM     83  C   UNL     1       8.907  -7.397 -15.591  1.00  0.00     0.023 A 
ATOM     84  C   UNL     1       8.342  -8.268 -16.537  1.00  0.00     0.031 A 
ATOM     85  C   UNL     1       8.238  -6.189 -15.325  1.00  0.00     0.131 A 
ATOM     86  C   UNL     1       7.167  -7.901 -17.212  1.00  0.00     0.055 A 
ATOM     87  C   UNL     1       7.042  -5.852 -15.961  1.00  0.00     0.041 A 
ATOM     88  F   UNL     1       8.731  -5.324 -14.424  1.00  0.00    -0.206 F 
ATOM     89  C   UNL     1       6.507  -6.705 -16.921  1.00  0.00     0.022 A 
BRANCH  86  90
ATOM     90  S   UNL     1       6.551  -8.979 -18.534  1.00  0.00     0.124 S 
ATOM     91  O   UNL     1       7.684  -9.001 -19.452  1.00  0.00    -0.237 OA
ATOM     92  O   UNL     1       6.284 -10.219 -17.813  1.00  0.00    -0.237 OA
ATOM     93  O   UNL     1       5.365  -8.277 -19.020  1.00  0.00    -0.744 OA
ENDBRANCH  86  90
ENDBRANCH  59  83
BRANCH  71  94
ATOM     94  C   UNL     1      15.444  -8.267 -17.876  1.00  0.00     0.023 A 
ATOM     95  C   UNL     1      15.483  -7.107 -18.669  1.00  0.00     0.031 A 
ATOM     96  C   UNL     1      15.975  -9.453 -18.413  1.00  0.00     0.131 A 
ATOM     97  C   UNL     1      15.991  -7.170 -19.975  1.00  0.00     0.055 A 
ATOM     98  C   UNL     1      16.537  -9.495 -19.690  1.00  0.00     0.041 A 
ATOM     99  F   UNL     1      15.961 -10.592 -17.702  1.00  0.00    -0.206 F 
ATOM    100  C   UNL     1      16.535  -8.352 -20.484  1.00  0.00     0.022 A 
BRANCH  97 101
ATOM    101  S   UNL     1      15.848  -5.707 -21.038  1.00  0.00     0.124 S 
ATOM    102  O   UNL     1      14.406  -5.482 -21.051  1.00  0.00    -0.237 OA
ATOM    103  O   UNL     1      16.641  -4.718 -20.316  1.00  0.00    -0.237 OA
ATOM    104  O   UNL     1      16.418  -6.149 -22.309  1.00  0.00    -0.744 OA
ENDBRANCH  97 101
ENDBRANCH  71  94
ENDBRANCH  45  46
ENDBRANCH  37  40
ENDBRANCH  35  36
ENDBRANCH  34  35
ENDBRANCH  33  34
ENDBRANCH   1  33
TORSDOF 21
