REMARK SMILES [NH3+]C[C@H]1CC[C@@H](C(=O)Nc2ccc(C(=O)NCCCCCCNC(=O)c3ccc(-c4c5nc(c(-c6cc(S(=O)(=O)[O-])ccc6F)c6ccc([nH]6)c(-c6cc(S(=O)(=O)[O-])ccc6F)c6nc(c(-c7cc(S(=O)(=O)[O-])ccc7F)c7ccc4[nH]7)C=C6)C=C5)cc3)cc2Br)CC1
REMARK SMILES IDX 19 1 18 2 17 3 16 4 14 5 15 6 13 8 10 9 11 10 90 11 12 12
REMARK SMILES IDX 89 13 91 14 9 15 7 16 8 17 6 19 3 20 4 21 93 22 5 23 92 24
REMARK SMILES IDX 2 25 1 26 20 30 21 31 22 32 23 33 24 34 25 36 26 37 27 38
REMARK SMILES IDX 88 39 28 40 87 41 29 42 30 43 31 44 81 45 32 46 86 47 80 48
REMARK SMILES IDX 82 49 33 50 85 51 79 52 78 53 34 55 66 56 46 57 65 58 47 59
REMARK SMILES IDX 50 60 64 61 83 62 48 63 49 64 63 66 84 67 51 68 35 69 36 70
REMARK SMILES IDX 44 71 37 72 43 73 45 74 42 75 38 76 39 77 40 78 41 79 67 80
REMARK SMILES IDX 68 81 76 82 69 83 75 84 77 85 74 86 70 87 71 88 72 89 73 90
REMARK SMILES IDX 52 91 53 92 61 93 54 94 60 95 62 96 59 97 55 98 56 99 57 100
REMARK SMILES IDX 58 101
REMARK H PARENT 16 7 9 18 1 27 1 28 1 29 23 35 82 54 50 65
REMARK Flexibility Score: inf
ROOT
ATOM      1  C   UNL     1      -4.868   1.925  -1.802  1.00  0.00     0.002 C 
ENDROOT
BRANCH   1   2
ATOM      2  C   UNL     1      -3.726   0.960  -1.487  1.00  0.00     0.021 C 
BRANCH   2   3
ATOM      3  C   UNL     1      -2.371   1.500  -1.924  1.00  0.00     0.116 C 
BRANCH   3   4
ATOM      4  N   UNL     1      -1.864   2.467  -0.960  1.00  0.00    -0.352 N 
ATOM      5  C   UNL     1      -0.880   2.405  -0.005  1.00  0.00     0.251 C 
ATOM      6  O   UNL     1      -0.622   3.400   0.667  1.00  0.00    -0.269 OA
ATOM      7  H   UNL     1      -2.318   3.340  -1.002  1.00  0.00     0.163 HD
BRANCH   5   8
ATOM      8  C   UNL     1      -0.010   1.225   0.121  1.00  0.00     0.041 A 
ATOM      9  C   UNL     1       2.359  -1.447  -0.569  1.00  0.00     0.055 A 
ATOM     10  C   UNL     1       2.972   0.254  -0.278  1.00  0.00     0.028 A 
ATOM     11  C   UNL     1       0.569  -1.807  -0.497  1.00  0.00     0.042 A 
ATOM     12  C   UNL     1       1.780   1.599   0.096  1.00  0.00     0.016 A 
ATOM     13  C   UNL     1      -0.630  -0.474  -0.154  1.00  0.00     0.031 A 
ATOM     14  Br  UNL     1      -0.041  -3.595  -0.281  1.00  0.00    -0.049 Br
BRANCH   9  15
ATOM     15  N   UNL     1       3.294  -2.466  -0.740  1.00  0.00    -0.325 N 
ATOM     16  C   UNL     1       3.477  -3.310  -1.792  1.00  0.00     0.227 C 
ATOM     17  O   UNL     1       4.147  -4.329  -1.581  1.00  0.00    -0.274 OA
ATOM     18  H   UNL     1       3.915  -2.595   0.013  1.00  0.00     0.169 HD
BRANCH  16  19
ATOM     19  C   UNL     1       3.030  -2.993  -3.228  1.00  0.00     0.079 C 
ATOM     20  C   UNL     1       1.514  -0.592  -2.854  1.00  0.00     0.044 C 
ATOM     21  C   UNL     1       2.978  -0.446  -3.312  1.00  0.00     0.010 C 
ATOM     22  C   UNL     1       0.742  -1.820  -3.361  1.00  0.00     0.010 C 
ATOM     23  C   UNL     1       3.626  -1.718  -3.813  1.00  0.00     0.014 C 
ATOM     24  C   UNL     1       1.548  -3.098  -3.543  1.00  0.00     0.014 C 
BRANCH  20  25
ATOM     25  C   UNL     1       1.116   0.102  -1.358  1.00  0.00     0.262 C 
BRANCH  25  26
ATOM     26  N   UNL     1       1.248  -0.300   0.661  1.00  0.00    -0.357 N 
ATOM     27  H   UNL     1       0.843   0.473   1.189  1.00  0.00     0.344 HD
ATOM     28  H   UNL     1       2.228  -0.413   0.922  1.00  0.00     0.344 HD
ATOM     29  H   UNL     1       0.739  -1.158   0.871  1.00  0.00     0.344 HD
ENDBRANCH  25  26
ENDBRANCH  20  25
ENDBRANCH  16  19
ENDBRANCH   9  15
ENDBRANCH   5   8
ENDBRANCH   3   4
ENDBRANCH   2   3
ENDBRANCH   1   2
BRANCH   1  30
ATOM     30  C   UNL     1      -5.096   2.167  -3.299  1.00  0.00     0.002 C 
BRANCH  30  31
ATOM     31  C   UNL     1      -5.348   0.905  -4.129  1.00  0.00     0.021 C 
BRANCH  31  32
ATOM     32  C   UNL     1      -6.507   0.047  -3.634  1.00  0.00     0.116 C 
BRANCH  32  33
ATOM     33  N   UNL     1      -7.758   0.789  -3.620  1.00  0.00    -0.352 N 
ATOM     34  C   UNL     1      -8.958   0.468  -4.202  1.00  0.00     0.251 C 
ATOM     35  H   UNL     1      -7.741   1.640  -3.124  1.00  0.00     0.163 HD
ATOM     36  O   UNL     1      -9.845   1.311  -4.289  1.00  0.00    -0.269 OA
BRANCH  34  37
ATOM     37  C   UNL     1      -9.158  -0.894  -4.735  1.00  0.00     0.039 A 
ATOM     38  C   UNL     1      -9.708  -1.055  -6.008  1.00  0.00     0.014 A 
ATOM     39  C   UNL     1      -8.785  -2.009  -3.978  1.00  0.00     0.014 A 
ATOM     40  C   UNL     1      -9.831  -2.337  -6.547  1.00  0.00     0.010 A 
ATOM     41  C   UNL     1      -8.842  -3.277  -4.544  1.00  0.00     0.010 A 
ATOM     42  C   UNL     1      -9.369  -3.454  -5.833  1.00  0.00    -0.014 A 
BRANCH  42  43
ATOM     43  C   UNL     1      -9.434  -4.824  -6.405  1.00  0.00     0.031 A 
ATOM     44  C   UNL     1     -10.280  -5.872  -5.736  1.00  0.00     0.074 A 
ATOM     45  C   UNL     1      -8.671  -5.141  -7.469  1.00  0.00     0.049 A 
ATOM     46  N   UNL     1     -10.378  -7.149  -5.997  1.00  0.00    -0.248 NA
ATOM     47  C   UNL     1     -11.097  -5.425  -4.597  1.00  0.00     0.031 C 
ATOM     48  C   UNL     1      -7.785  -4.217  -8.180  1.00  0.00     0.029 A 
ATOM     49  N   UNL     1      -8.504  -6.333  -8.129  1.00  0.00    -0.354 N 
ATOM     50  C   UNL     1     -11.252  -7.664  -5.045  1.00  0.00     0.074 A 
ATOM     51  C   UNL     1     -11.603  -6.569  -4.165  1.00  0.00     0.031 C 
ATOM     52  C   UNL     1      -7.182  -4.871  -9.185  1.00  0.00     0.029 A 
ATOM     53  C   UNL     1      -7.596  -6.271  -9.160  1.00  0.00     0.049 A 
ATOM     54  H   UNL     1      -8.989  -7.155  -7.887  1.00  0.00     0.167 HD
ATOM     55  C   UNL     1     -11.732  -8.927  -4.929  1.00  0.00     0.034 A 
ATOM     56  C   UNL     1      -7.134  -7.236  -9.980  1.00  0.00     0.034 A 
ATOM     57  C   UNL     1     -11.376 -10.001  -5.825  1.00  0.00     0.049 A 
ATOM     58  C   UNL     1      -7.661  -8.640  -9.818  1.00  0.00     0.074 A 
ATOM     59  C   UNL     1     -11.841 -11.304  -5.837  1.00  0.00     0.029 A 
ATOM     60  N   UNL     1     -10.460  -9.899  -6.866  1.00  0.00    -0.354 N 
ATOM     61  N   UNL     1      -8.520  -9.104  -8.940  1.00  0.00    -0.248 NA
ATOM     62  C   UNL     1      -7.163  -9.646 -10.764  1.00  0.00     0.031 C 
ATOM     63  C   UNL     1     -11.155 -12.007  -6.834  1.00  0.00     0.029 A 
ATOM     64  C   UNL     1     -10.323 -11.123  -7.503  1.00  0.00     0.049 A 
ATOM     65  H   UNL     1      -9.978  -9.077  -7.114  1.00  0.00     0.167 HD
ATOM     66  C   UNL     1      -8.692 -10.450  -9.252  1.00  0.00     0.074 A 
ATOM     67  C   UNL     1      -7.854 -10.718 -10.403  1.00  0.00     0.031 C 
ATOM     68  C   UNL     1      -9.477 -11.378  -8.647  1.00  0.00     0.034 A 
BRANCH  55  69
ATOM     69  C   UNL     1     -12.665  -9.213  -3.775  1.00  0.00     0.023 A 
ATOM     70  C   UNL     1     -13.899  -8.554  -3.640  1.00  0.00     0.031 A 
ATOM     71  C   UNL     1     -12.299 -10.130  -2.773  1.00  0.00     0.131 A 
ATOM     72  C   UNL     1     -14.679  -8.752  -2.490  1.00  0.00     0.055 A 
ATOM     73  C   UNL     1     -13.123 -10.391  -1.676  1.00  0.00     0.041 A 
ATOM     74  F   UNL     1     -11.124 -10.776  -2.832  1.00  0.00    -0.206 F 
ATOM     75  C   UNL     1     -14.313  -9.687  -1.520  1.00  0.00     0.022 A 
BRANCH  72  76
ATOM     76  S   UNL     1     -16.093  -7.652  -2.205  1.00  0.00     0.124 S 
ATOM     77  O   UNL     1     -15.450  -6.340  -2.206  1.00  0.00    -0.237 OA
ATOM     78  O   UNL     1     -16.954  -7.942  -3.345  1.00  0.00    -0.237 OA
ATOM     79  O   UNL     1     -16.607  -8.084  -0.907  1.00  0.00    -0.744 OA
ENDBRANCH  72  76
ENDBRANCH  55  69
BRANCH  56  80
ATOM     80  C   UNL     1      -6.112  -6.917 -11.017  1.00  0.00     0.023 A 
ATOM     81  C   UNL     1      -6.410  -7.026 -12.384  1.00  0.00     0.031 A 
ATOM     82  C   UNL     1      -4.810  -6.527 -10.655  1.00  0.00     0.131 A 
ATOM     83  C   UNL     1      -5.409  -6.790 -13.340  1.00  0.00     0.055 A 
ATOM     84  C   UNL     1      -3.832  -6.242 -11.610  1.00  0.00     0.041 A 
ATOM     85  F   UNL     1      -4.473  -6.401  -9.361  1.00  0.00    -0.206 F 
ATOM     86  C   UNL     1      -4.126  -6.386 -12.963  1.00  0.00     0.022 A 
BRANCH  83  87
ATOM     87  S   UNL     1      -5.787  -7.096 -15.087  1.00  0.00     0.124 S 
ATOM     88  O   UNL     1      -6.162  -8.505 -15.067  1.00  0.00    -0.237 OA
ATOM     89  O   UNL     1      -6.868  -6.147 -15.333  1.00  0.00    -0.237 OA
ATOM     90  O   UNL     1      -4.528  -6.793 -15.765  1.00  0.00    -0.744 OA
ENDBRANCH  83  87
ENDBRANCH  56  80
BRANCH  68  91
ATOM     91  C   UNL     1      -9.506 -12.758  -9.258  1.00  0.00     0.023 A 
ATOM     92  C   UNL     1      -8.381 -13.600  -9.252  1.00  0.00     0.031 A 
ATOM     93  C   UNL     1     -10.685 -13.234  -9.860  1.00  0.00     0.131 A 
ATOM     94  C   UNL     1      -8.442 -14.852  -9.883  1.00  0.00     0.055 A 
ATOM     95  C   UNL     1     -10.759 -14.505 -10.430  1.00  0.00     0.041 A 
ATOM     96  F   UNL     1     -11.790 -12.472  -9.898  1.00  0.00    -0.206 F 
ATOM     97  C   UNL     1      -9.629 -15.317 -10.456  1.00  0.00     0.022 A 
BRANCH  94  98
ATOM     98  S   UNL     1      -6.921 -15.830 -10.029  1.00  0.00     0.124 S 
ATOM     99  O   UNL     1      -6.045 -14.921 -10.760  1.00  0.00    -0.237 OA
ATOM    100  O   UNL     1      -6.570 -16.070  -8.633  1.00  0.00    -0.237 OA
ATOM    101  O   UNL     1      -7.346 -17.015 -10.772  1.00  0.00    -0.744 OA
ENDBRANCH  94  98
ENDBRANCH  68  91
ENDBRANCH  42  43
ENDBRANCH  34  37
ENDBRANCH  32  33
ENDBRANCH  31  32
ENDBRANCH  30  31
ENDBRANCH   1  30
TORSDOF 20
