REMARK SMILES Cc1ccc(N)c(SCCOc2ccccc2C(=O)NCCCCCCNC(=O)c2ccc(-c3c4nc(c(-c5cc(S(=O)(=O)[O-])ccc5F)c5ccc([nH]5)c(-c5cc(S(=O)(=O)[O-])ccc5F)c5nc(c(-c6cc(S(=O)(=O)[O-])ccc6F)c6ccc3[nH]6)C=C5)C=C4)cc2)c1
REMARK SMILES IDX 22 1 21 2 20 3 18 4 19 5 17 7 12 8 13 9 14 10 16 11 15 12
REMARK SMILES IDX 11 13 10 14 9 15 8 16 7 17 1 18 2 19 3 20 93 21 4 22 5 23
REMARK SMILES IDX 6 24 23 27 24 28 25 29 26 30 27 31 28 32 29 34 30 35 31 36
REMARK SMILES IDX 92 37 32 38 91 39 33 40 34 41 35 42 85 43 36 44 90 45 84 46
REMARK SMILES IDX 86 47 37 48 89 49 83 50 82 51 38 53 70 54 50 55 69 56 51 57
REMARK SMILES IDX 54 58 68 59 87 60 52 61 53 62 67 64 88 65 55 66 39 67 40 68
REMARK SMILES IDX 48 69 41 70 47 71 49 72 46 73 42 74 43 75 44 76 45 77 71 78
REMARK SMILES IDX 72 79 80 80 73 81 79 82 81 83 78 84 74 85 75 86 76 87 77 88
REMARK SMILES IDX 56 89 57 90 65 91 58 92 64 93 66 94 63 95 59 96 60 97 61 98
REMARK SMILES IDX 62 99
REMARK H PARENT 20 6 6 25 6 26 27 33 86 52 54 63
REMARK Flexibility Score: inf
ROOT
ATOM      1  C   UNL     1      -3.455   5.065   0.649  1.00  0.00     0.021 C 
ENDROOT
BRANCH   1   2
ATOM      2  C   UNL     1      -2.827   3.998  -0.242  1.00  0.00     0.116 C 
BRANCH   2   3
ATOM      3  N   UNL     1      -1.712   3.445   0.457  1.00  0.00    -0.352 N 
ATOM      4  C   UNL     1      -0.713   2.631   0.064  1.00  0.00     0.255 C 
ATOM      5  O   UNL     1       0.223   2.689   0.843  1.00  0.00    -0.269 OA
ATOM      6  H   UNL     1      -1.664   3.707   1.405  1.00  0.00     0.163 HD
BRANCH   4   7
ATOM      7  C   UNL     1      -0.724   1.871  -1.210  1.00  0.00     0.081 A 
ATOM      8  C   UNL     1      -0.634   2.606  -2.361  1.00  0.00     0.132 A 
ATOM      9  C   UNL     1      -0.973   2.039  -3.595  1.00  0.00     0.047 A 
ATOM     10  C   UNL     1      -0.986   0.649  -3.715  1.00  0.00     0.004 A 
ATOM     11  C   UNL     1      -0.427   0.529  -1.399  1.00  0.00     0.018 A 
ATOM     12  C   UNL     1      -0.548  -0.099  -2.639  1.00  0.00     0.001 A 
BRANCH   8  13
ATOM     13  O   UNL     1       0.217   3.696  -2.292  1.00  0.00    -0.492 OA
BRANCH  13  14
ATOM     14  C   UNL     1       1.607   3.214  -2.112  1.00  0.00     0.241 C 
BRANCH  14  15
ATOM     15  C   UNL     1       2.234   3.205  -0.660  1.00  0.00     0.116 C 
BRANCH  15  16
ATOM     16  S   UNL     1       3.039   1.711   0.400  1.00  0.00    -0.120 SA
BRANCH  16  17
ATOM     17  C   UNL     1       1.975   0.301   0.937  1.00  0.00     0.031 A 
ATOM     18  C   UNL     1      -1.654  -0.495   1.691  1.00  0.00     0.044 C 
ATOM     19  C   UNL     1      -0.162  -0.743   1.594  1.00  0.00    -0.050 A 
ATOM     20  C   UNL     1       0.283  -1.978   1.133  1.00  0.00     0.005 A 
ATOM     21  C   UNL     1       0.763   0.332   1.658  1.00  0.00     0.020 A 
ATOM     22  C   UNL     1       1.614  -2.114   0.745  1.00  0.00     0.027 A 
ATOM     23  C   UNL     1       2.471  -0.998   0.673  1.00  0.00     0.045 A 
BRANCH  23  24
ATOM     24  N   UNL     1       3.776  -1.195   0.203  1.00  0.00    -0.398 N 
ATOM     25  H   UNL     1       4.102  -2.107   0.026  1.00  0.00     0.156 HD
ATOM     26  H   UNL     1       4.366  -0.422   0.051  1.00  0.00     0.156 HD
ENDBRANCH  23  24
ENDBRANCH  16  17
ENDBRANCH  15  16
ENDBRANCH  14  15
ENDBRANCH  13  14
ENDBRANCH   8  13
ENDBRANCH   4   7
ENDBRANCH   2   3
ENDBRANCH   1   2
BRANCH   1  27
ATOM     27  C   UNL     1      -2.522   6.219   1.076  1.00  0.00     0.002 C 
BRANCH  27  28
ATOM     28  C   UNL     1      -1.679   6.902  -0.007  1.00  0.00     0.002 C 
BRANCH  28  29
ATOM     29  C   UNL     1      -2.420   7.386  -1.251  1.00  0.00     0.021 C 
BRANCH  29  30
ATOM     30  C   UNL     1      -3.755   8.063  -1.001  1.00  0.00     0.116 C 
BRANCH  30  31
ATOM     31  N   UNL     1      -3.686   9.230  -0.143  1.00  0.00    -0.352 N 
ATOM     32  C   UNL     1      -4.613  10.243  -0.076  1.00  0.00     0.251 C 
ATOM     33  H   UNL     1      -2.902   9.304   0.447  1.00  0.00     0.163 HD
ATOM     34  O   UNL     1      -4.424  11.224   0.643  1.00  0.00    -0.269 OA
BRANCH  32  35
ATOM     35  C   UNL     1      -5.813  10.153  -0.935  1.00  0.00     0.039 A 
ATOM     36  C   UNL     1      -6.064  11.178  -1.847  1.00  0.00     0.014 A 
ATOM     37  C   UNL     1      -6.623   9.012  -0.908  1.00  0.00     0.014 A 
ATOM     38  C   UNL     1      -7.097  11.034  -2.775  1.00  0.00     0.010 A 
ATOM     39  C   UNL     1      -7.600   8.837  -1.884  1.00  0.00     0.010 A 
ATOM     40  C   UNL     1      -7.851   9.849  -2.824  1.00  0.00    -0.014 A 
BRANCH  40  41
ATOM     41  C   UNL     1      -8.921   9.667  -3.839  1.00  0.00     0.031 A 
ATOM     42  C   UNL     1     -10.353   9.535  -3.398  1.00  0.00     0.074 A 
ATOM     43  C   UNL     1      -8.600   9.581  -5.146  1.00  0.00     0.049 A 
ATOM     44  N   UNL     1     -11.426   9.330  -4.118  1.00  0.00    -0.248 NA
ATOM     45  C   UNL     1     -10.606   9.613  -1.951  1.00  0.00     0.031 C 
ATOM     46  C   UNL     1      -7.242   9.652  -5.689  1.00  0.00     0.029 A 
ATOM     47  N   UNL     1      -9.390   9.413  -6.255  1.00  0.00    -0.354 N 
ATOM     48  C   UNL     1     -12.479   9.247  -3.212  1.00  0.00     0.074 A 
ATOM     49  C   UNL     1     -11.902   9.351  -1.889  1.00  0.00     0.031 C 
ATOM     50  C   UNL     1      -7.297   9.560  -7.027  1.00  0.00     0.029 A 
ATOM     51  C   UNL     1      -8.686   9.380  -7.438  1.00  0.00     0.049 A 
ATOM     52  H   UNL     1     -10.370   9.325  -6.210  1.00  0.00     0.167 HD
ATOM     53  C   UNL     1     -13.806   9.123  -3.462  1.00  0.00     0.034 A 
ATOM     54  C   UNL     1      -9.113   9.216  -8.706  1.00  0.00     0.034 A 
ATOM     55  C   UNL     1     -14.363   9.034  -4.790  1.00  0.00     0.049 A 
ATOM     56  C   UNL     1     -10.591   9.058  -8.960  1.00  0.00     0.074 A 
ATOM     57  C   UNL     1     -15.693   8.958  -5.163  1.00  0.00     0.029 A 
ATOM     58  N   UNL     1     -13.619   9.000  -5.963  1.00  0.00    -0.354 N 
ATOM     59  N   UNL     1     -11.580   9.035  -8.095  1.00  0.00    -0.248 NA
ATOM     60  C   UNL     1     -11.013   8.916 -10.359  1.00  0.00     0.031 C 
ATOM     61  C   UNL     1     -15.750   8.809  -6.553  1.00  0.00     0.029 A 
ATOM     62  C   UNL     1     -14.461   8.872  -7.058  1.00  0.00     0.049 A 
ATOM     63  H   UNL     1     -12.638   9.058  -6.011  1.00  0.00     0.167 HD
ATOM     64  C   UNL     1     -12.742   8.908  -8.851  1.00  0.00     0.074 A 
ATOM     65  C   UNL     1     -12.331   8.875 -10.239  1.00  0.00     0.031 C 
ATOM     66  C   UNL     1     -14.033   8.830  -8.437  1.00  0.00     0.034 A 
BRANCH  53  67
ATOM     67  C   UNL     1     -14.733   9.054  -2.271  1.00  0.00     0.023 A 
ATOM     68  C   UNL     1     -14.845  10.119  -1.359  1.00  0.00     0.031 A 
ATOM     69  C   UNL     1     -15.490   7.895  -2.023  1.00  0.00     0.131 A 
ATOM     70  C   UNL     1     -15.627   9.973  -0.203  1.00  0.00     0.055 A 
ATOM     71  C   UNL     1     -16.334   7.790  -0.916  1.00  0.00     0.041 A 
ATOM     72  F   UNL     1     -15.409   6.837  -2.845  1.00  0.00    -0.206 F 
ATOM     73  C   UNL     1     -16.394   8.826   0.011  1.00  0.00     0.022 A 
BRANCH  70  74
ATOM     74  S   UNL     1     -15.507  11.242   1.088  1.00  0.00     0.124 S 
ATOM     75  O   UNL     1     -14.082  11.200   1.409  1.00  0.00    -0.237 OA
ATOM     76  O   UNL     1     -15.972  12.439   0.398  1.00  0.00    -0.237 OA
ATOM     77  O   UNL     1     -16.391  10.744   2.140  1.00  0.00    -0.744 OA
ENDBRANCH  70  74
ENDBRANCH  53  67
BRANCH  54  78
ATOM     78  C   UNL     1      -8.138   9.185  -9.836  1.00  0.00     0.023 A 
ATOM     79  C   UNL     1      -8.155  10.171 -10.836  1.00  0.00     0.031 A 
ATOM     80  C   UNL     1      -7.202   8.142  -9.956  1.00  0.00     0.131 A 
ATOM     81  C   UNL     1      -7.288  10.068 -11.936  1.00  0.00     0.055 A 
ATOM     82  C   UNL     1      -6.305   8.074 -11.024  1.00  0.00     0.041 A 
ATOM     83  F   UNL     1      -7.140   7.175  -9.027  1.00  0.00    -0.206 F 
ATOM     84  C   UNL     1      -6.355   9.034 -12.030  1.00  0.00     0.022 A 
BRANCH  81  85
ATOM     85  S   UNL     1      -7.459  11.262 -13.291  1.00  0.00     0.124 S 
ATOM     86  O   UNL     1      -8.850  11.067 -13.685  1.00  0.00    -0.237 OA
ATOM     87  O   UNL     1      -7.150  12.522 -12.625  1.00  0.00    -0.237 OA
ATOM     88  O   UNL     1      -6.465  10.814 -14.265  1.00  0.00    -0.744 OA
ENDBRANCH  81  85
ENDBRANCH  54  78
BRANCH  66  89
ATOM     89  C   UNL     1     -15.093   8.747  -9.508  1.00  0.00     0.023 A 
ATOM     90  C   UNL     1     -15.213   7.626 -10.347  1.00  0.00     0.031 A 
ATOM     91  C   UNL     1     -15.992   9.813  -9.695  1.00  0.00     0.131 A 
ATOM     92  C   UNL     1     -16.173   7.619 -11.370  1.00  0.00     0.055 A 
ATOM     93  C   UNL     1     -16.985   9.774 -10.674  1.00  0.00     0.041 A 
ATOM     94  F   UNL     1     -15.922  10.910  -8.923  1.00  0.00    -0.206 F 
ATOM     95  C   UNL     1     -17.071   8.678 -11.527  1.00  0.00     0.022 A 
BRANCH  92  96
ATOM     96  S   UNL     1     -16.172   6.245 -12.554  1.00  0.00     0.124 S 
ATOM     97  O   UNL     1     -14.825   6.323 -13.109  1.00  0.00    -0.237 OA
ATOM     98  O   UNL     1     -16.444   5.095 -11.698  1.00  0.00    -0.237 OA
ATOM     99  O   UNL     1     -17.247   6.592 -13.483  1.00  0.00    -0.744 OA
ENDBRANCH  92  96
ENDBRANCH  66  89
ENDBRANCH  40  41
ENDBRANCH  32  35
ENDBRANCH  30  31
ENDBRANCH  29  30
ENDBRANCH  28  29
ENDBRANCH  27  28
ENDBRANCH   1  27
TORSDOF 22
