REMARK SMILES Cc1nn(C)c(=O)c(C(=O)N2CC[C@@H](C(=O)NCCCCCCNC(=O)c3ccc(-c4c5nc(c(-c6cc(S(=O)(=O)[O-])ccc6F)c6ccc([nH]6)c(-c6cc(S(=O)(=O)[O-])ccc6F)c6nc(c(-c7cc(S(=O)(=O)[O-])ccc7F)c7ccc4[nH]7)C=C6)C=C5)cc3)[C@@H]2C)c1C
REMARK SMILES IDX 21 1 20 2 19 3 18 4 17 5 15 6 16 7 14 9 11 10 12 11 90 12
REMARK SMILES IDX 13 13 91 14 9 15 10 16 8 17 1 18 2 19 3 20 92 21 4 22 93 23
REMARK SMILES IDX 5 24 6 25 7 26 22 27 23 28 24 29 25 30 26 32 27 33 28 34
REMARK SMILES IDX 89 35 29 36 88 37 30 38 31 39 32 40 82 41 33 42 87 43 81 44
REMARK SMILES IDX 83 45 34 46 86 47 80 48 79 49 35 51 67 52 47 53 66 54 48 55
REMARK SMILES IDX 51 56 65 57 84 58 49 59 50 60 64 62 85 63 52 64 36 65 37 66
REMARK SMILES IDX 45 67 38 68 44 69 46 70 43 71 39 72 40 73 41 74 42 75 68 76
REMARK SMILES IDX 69 77 77 78 70 79 76 80 78 81 75 82 71 83 72 84 73 85 74 86
REMARK SMILES IDX 53 87 54 88 62 89 55 90 61 91 63 92 60 93 56 94 57 95 58 96
REMARK SMILES IDX 59 97
REMARK H PARENT 17 8 24 31 83 50 51 61
REMARK Flexibility Score: inf
ROOT
ATOM      1  C   UNL     1       0.474  -0.722   3.963  1.00  0.00     0.002 C 
ENDROOT
BRANCH   1   2
ATOM      2  C   UNL     1       1.740  -0.557   3.119  1.00  0.00     0.002 C 
BRANCH   2   3
ATOM      3  C   UNL     1       1.902   0.772   2.383  1.00  0.00     0.021 C 
BRANCH   3   4
ATOM      4  C   UNL     1       2.145   2.020   3.238  1.00  0.00     0.116 C 
BRANCH   4   5
ATOM      5  N   UNL     1       3.565   2.288   3.414  1.00  0.00    -0.356 N 
ATOM      6  C   UNL     1       4.339   3.383   3.195  1.00  0.00     0.225 C 
ATOM      7  O   UNL     1       5.546   3.248   3.436  1.00  0.00    -0.275 OA
ATOM      8  H   UNL     1       4.068   1.518   3.764  1.00  0.00     0.163 HD
BRANCH   6   9
ATOM      9  C   UNL     1       3.854   4.713   2.614  1.00  0.00     0.102 C 
ATOM     10  N   UNL     1       2.225   4.737   0.877  1.00  0.00    -0.335 N 
ATOM     11  C   UNL     1       1.693   5.581   1.937  1.00  0.00     0.121 C 
ATOM     12  C   UNL     1       3.676   4.642   1.091  1.00  0.00     0.094 C 
ATOM     13  C   UNL     1       2.558   5.303   3.165  1.00  0.00     0.037 C 
ATOM     14  C   UNL     1       4.476   5.735   0.371  1.00  0.00     0.032 C 
BRANCH  10  15
ATOM     15  C   UNL     1       1.698   4.921  -0.406  1.00  0.00     0.260 C 
ATOM     16  O   UNL     1       1.810   5.994  -0.995  1.00  0.00    -0.269 OA
BRANCH  15  17
ATOM     17  C   UNL     1       0.923   3.773  -1.000  1.00  0.00     0.111 A 
ATOM     18  C   UNL     1       0.876   0.021  -1.454  1.00  0.00     0.069 C 
ATOM     19  C   UNL     1       0.539   1.481  -1.666  1.00  0.00     0.062 A 
ATOM     20  N   UNL     1      -0.531   1.730  -2.340  1.00  0.00    -0.175 NA
ATOM     21  C   UNL     1       1.427   2.525  -1.087  1.00  0.00    -0.010 A 
ATOM     22  N   UNL     1      -0.920   3.033  -2.452  1.00  0.00    -0.232 N 
ATOM     23  C   UNL     1       2.822   2.126  -0.757  1.00  0.00     0.047 C 
ATOM     24  C   UNL     1      -2.066   3.255  -3.320  1.00  0.00     0.178 C 
ATOM     25  C   UNL     1      -0.365   4.076  -1.712  1.00  0.00     0.279 A 
ATOM     26  O   UNL     1      -0.868   5.196  -1.656  1.00  0.00    -0.267 OA
ENDBRANCH  15  17
ENDBRANCH  10  15
ENDBRANCH   6   9
ENDBRANCH   4   5
ENDBRANCH   3   4
ENDBRANCH   2   3
ENDBRANCH   1   2
BRANCH   1  27
ATOM     27  C   UNL     1      -0.861  -0.418   3.273  1.00  0.00     0.021 C 
BRANCH  27  28
ATOM     28  C   UNL     1      -1.134  -1.144   1.956  1.00  0.00     0.116 C 
BRANCH  28  29
ATOM     29  N   UNL     1      -1.145  -2.590   2.084  1.00  0.00    -0.352 N 
ATOM     30  C   UNL     1      -2.135  -3.493   1.778  1.00  0.00     0.251 C 
ATOM     31  H   UNL     1      -0.318  -2.984   2.445  1.00  0.00     0.163 HD
ATOM     32  O   UNL     1      -1.978  -4.679   2.058  1.00  0.00    -0.269 OA
BRANCH  30  33
ATOM     33  C   UNL     1      -3.398  -3.041   1.153  1.00  0.00     0.039 A 
ATOM     34  C   UNL     1      -4.607  -3.455   1.718  1.00  0.00     0.014 A 
ATOM     35  C   UNL     1      -3.399  -2.224   0.017  1.00  0.00     0.014 A 
ATOM     36  C   UNL     1      -5.815  -2.995   1.189  1.00  0.00     0.010 A 
ATOM     37  C   UNL     1      -4.605  -1.722  -0.476  1.00  0.00     0.010 A 
ATOM     38  C   UNL     1      -5.824  -2.098   0.108  1.00  0.00    -0.014 A 
BRANCH  38  39
ATOM     39  C   UNL     1      -7.106  -1.550  -0.407  1.00  0.00     0.031 A 
ATOM     40  C   UNL     1      -7.606  -1.938  -1.770  1.00  0.00     0.074 A 
ATOM     41  C   UNL     1      -7.815  -0.689   0.349  1.00  0.00     0.049 A 
ATOM     42  N   UNL     1      -8.695  -1.559  -2.390  1.00  0.00    -0.248 NA
ATOM     43  C   UNL     1      -6.762  -2.860  -2.544  1.00  0.00     0.031 C 
ATOM     44  C   UNL     1      -7.426  -0.222   1.681  1.00  0.00     0.029 A 
ATOM     45  N   UNL     1      -9.013  -0.062   0.113  1.00  0.00    -0.354 N 
ATOM     46  C   UNL     1      -8.671  -2.198  -3.624  1.00  0.00     0.074 A 
ATOM     47  C   UNL     1      -7.429  -2.941  -3.686  1.00  0.00     0.031 C 
ATOM     48  C   UNL     1      -8.386   0.587   2.159  1.00  0.00     0.029 A 
ATOM     49  C   UNL     1      -9.438   0.726   1.157  1.00  0.00     0.049 A 
ATOM     50  H   UNL     1      -9.520  -0.166  -0.724  1.00  0.00     0.167 HD
ATOM     51  C   UNL     1      -9.608  -2.187  -4.604  1.00  0.00     0.034 A 
ATOM     52  C   UNL     1     -10.549   1.477   1.294  1.00  0.00     0.034 A 
ATOM     53  C   UNL     1     -10.842  -1.445  -4.531  1.00  0.00     0.049 A 
ATOM     54  C   UNL     1     -11.552   1.519   0.174  1.00  0.00     0.074 A 
ATOM     55  C   UNL     1     -11.873  -1.395  -5.454  1.00  0.00     0.029 A 
ATOM     56  N   UNL     1     -11.211  -0.615  -3.481  1.00  0.00    -0.354 N 
ATOM     57  N   UNL     1     -11.521   0.898  -0.982  1.00  0.00    -0.248 NA
ATOM     58  C   UNL     1     -12.738   2.361   0.375  1.00  0.00     0.031 C 
ATOM     59  C   UNL     1     -12.834  -0.490  -4.991  1.00  0.00     0.029 A 
ATOM     60  C   UNL     1     -12.438  -0.025  -3.747  1.00  0.00     0.049 A 
ATOM     61  H   UNL     1     -10.680  -0.467  -2.665  1.00  0.00     0.167 HD
ATOM     62  C   UNL     1     -12.690   1.263  -1.641  1.00  0.00     0.074 A 
ATOM     63  C   UNL     1     -13.408   2.155  -0.751  1.00  0.00     0.031 C 
ATOM     64  C   UNL     1     -13.131   0.885  -2.867  1.00  0.00     0.034 A 
BRANCH  51  65
ATOM     65  C   UNL     1      -9.315  -2.988  -5.848  1.00  0.00     0.023 A 
ATOM     66  C   UNL     1      -9.219  -4.390  -5.811  1.00  0.00     0.031 A 
ATOM     67  C   UNL     1      -9.109  -2.344  -7.080  1.00  0.00     0.131 A 
ATOM     68  C   UNL     1      -8.861  -5.097  -6.968  1.00  0.00     0.055 A 
ATOM     69  C   UNL     1      -8.824  -3.059  -8.244  1.00  0.00     0.041 A 
ATOM     70  F   UNL     1      -9.171  -1.006  -7.170  1.00  0.00    -0.206 F 
ATOM     71  C   UNL     1      -8.686  -4.443  -8.190  1.00  0.00     0.022 A 
BRANCH  68  72
ATOM     72  S   UNL     1      -8.511  -6.871  -6.827  1.00  0.00     0.124 S 
ATOM     73  O   UNL     1      -7.371  -6.874  -5.914  1.00  0.00    -0.237 OA
ATOM     74  O   UNL     1      -9.761  -7.398  -6.292  1.00  0.00    -0.237 OA
ATOM     75  O   UNL     1      -8.203  -7.269  -8.199  1.00  0.00    -0.744 OA
ENDBRANCH  68  72
ENDBRANCH  51  65
BRANCH  52  76
ATOM     76  C   UNL     1     -10.765   2.247   2.549  1.00  0.00     0.023 A 
ATOM     77  C   UNL     1     -11.732   1.846   3.483  1.00  0.00     0.031 A 
ATOM     78  C   UNL     1      -9.979   3.374   2.846  1.00  0.00     0.131 A 
ATOM     79  C   UNL     1     -11.895   2.574   4.672  1.00  0.00     0.055 A 
ATOM     80  C   UNL     1     -10.124   4.077   4.043  1.00  0.00     0.041 A 
ATOM     81  F   UNL     1      -9.031   3.784   1.989  1.00  0.00    -0.206 F 
ATOM     82  C   UNL     1     -11.089   3.678   4.964  1.00  0.00     0.022 A 
BRANCH  79  83
ATOM     83  S   UNL     1     -13.175   2.054   5.848  1.00  0.00     0.124 S 
ATOM     84  O   UNL     1     -14.396   2.349   5.107  1.00  0.00    -0.237 OA
ATOM     85  O   UNL     1     -12.863   0.641   6.037  1.00  0.00    -0.237 OA
ATOM     86  O   UNL     1     -12.929   2.901   7.013  1.00  0.00    -0.744 OA
ENDBRANCH  79  83
ENDBRANCH  52  76
BRANCH  64  87
ATOM     87  C   UNL     1     -14.464   1.423  -3.320  1.00  0.00     0.023 A 
ATOM     88  C   UNL     1     -14.627   2.769  -3.687  1.00  0.00     0.031 A 
ATOM     89  C   UNL     1     -15.573   0.565  -3.425  1.00  0.00     0.131 A 
ATOM     90  C   UNL     1     -15.881   3.227  -4.119  1.00  0.00     0.055 A 
ATOM     91  C   UNL     1     -16.806   1.016  -3.898  1.00  0.00     0.041 A 
ATOM     92  F   UNL     1     -15.469  -0.730  -3.087  1.00  0.00    -0.206 F 
ATOM     93  C   UNL     1     -16.966   2.354  -4.243  1.00  0.00     0.022 A 
BRANCH  90  94
ATOM     94  S   UNL     1     -16.090   4.991  -4.485  1.00  0.00     0.124 S 
ATOM     95  O   UNL     1     -15.873   5.598  -3.176  1.00  0.00    -0.237 OA
ATOM     96  O   UNL     1     -15.050   5.232  -5.480  1.00  0.00    -0.237 OA
ATOM     97  O   UNL     1     -17.459   5.077  -4.990  1.00  0.00    -0.744 OA
ENDBRANCH  90  94
ENDBRANCH  64  87
ENDBRANCH  38  39
ENDBRANCH  30  33
ENDBRANCH  28  29
ENDBRANCH  27  28
ENDBRANCH   1  27
TORSDOF 18
