REMARK SMILES CCOc1ccc(-c2csc3ncn([C@H](C)C(=O)NCCCCCCNC(=O)c4ccc(-c5c6nc(c(-c7cc(S(=O)(=O)[O-])ccc7F)c7ccc([nH]7)c(-c7cc(S(=O)(=O)[O-])ccc7F)c7nc(c(-c8cc(S(=O)(=O)[O-])ccc8F)c8ccc5[nH]8)C=C7)C=C6)cc4)c(=O)c23)cc1
REMARK SMILES IDX 22 1 21 2 20 3 19 4 17 5 18 6 15 8 16 9 14 10 8 11 9 12
REMARK SMILES IDX 94 13 10 14 11 15 92 16 12 17 93 18 13 19 7 20 4 21 5 22
REMARK SMILES IDX 96 23 6 24 95 25 3 26 2 27 1 28 23 29 24 30 25 31 26 32
REMARK SMILES IDX 27 33 28 35 29 36 30 37 91 38 31 39 90 40 32 41 33 42 34 43
REMARK SMILES IDX 84 44 35 45 89 46 83 47 85 48 36 49 88 50 82 51 81 52 37 54
REMARK SMILES IDX 69 55 49 56 68 57 50 58 53 59 67 60 86 61 51 62 52 63 66 65
REMARK SMILES IDX 87 66 54 67 38 68 39 69 47 70 40 71 46 72 48 73 45 74 41 75
REMARK SMILES IDX 42 76 43 77 44 78 70 79 71 80 79 81 72 82 78 83 80 84 77 85
REMARK SMILES IDX 73 86 74 87 75 88 76 89 55 90 56 91 64 92 57 93 63 94 65 95
REMARK SMILES IDX 62 96 58 97 59 98 60 99 61 100
REMARK H PARENT 19 7 26 34 85 53 53 64
REMARK Flexibility Score: inf
ROOT
ATOM      1  C   UNL     1       4.284   2.970   1.029  1.00  0.00     0.002 C 
ENDROOT
BRANCH   1   2
ATOM      2  C   UNL     1       5.189   3.055  -0.199  1.00  0.00     0.021 C 
BRANCH   2   3
ATOM      3  C   UNL     1       5.474   4.466  -0.697  1.00  0.00     0.116 C 
BRANCH   3   4
ATOM      4  N   UNL     1       6.385   5.199   0.152  1.00  0.00    -0.354 N 
ATOM      5  C   UNL     1       7.542   5.859  -0.139  1.00  0.00     0.242 C 
ATOM      6  O   UNL     1       8.137   6.376   0.812  1.00  0.00    -0.273 OA
ATOM      7  H   UNL     1       6.126   5.227   1.101  1.00  0.00     0.163 HD
BRANCH   5   8
ATOM      8  C   UNL     1       8.126   5.942  -1.571  1.00  0.00     0.177 C 
ATOM      9  C   UNL     1       8.582   4.579  -2.095  1.00  0.00     0.042 C 
BRANCH   8  10
ATOM     10  N   UNL     1       7.264   6.734  -2.471  1.00  0.00    -0.286 N 
ATOM     11  C   UNL     1       6.439  10.271  -3.548  1.00  0.00     0.007 A 
ATOM     12  C   UNL     1       5.383  10.561  -4.394  1.00  0.00     0.076 A 
ATOM     13  C   UNL     1       6.494   8.868  -3.258  1.00  0.00     0.085 A 
ATOM     14  S   UNL     1       4.513   9.164  -4.858  1.00  0.00    -0.123 S 
ATOM     15  C   UNL     1       5.561   8.153  -3.975  1.00  0.00     0.131 A 
ATOM     16  C   UNL     1       7.384   8.126  -2.385  1.00  0.00     0.263 A 
ATOM     17  N   UNL     1       5.463   6.806  -4.042  1.00  0.00    -0.227 NA
ATOM     18  O   UNL     1       8.180   8.688  -1.632  1.00  0.00    -0.268 OA
ATOM     19  C   UNL     1       6.339   6.173  -3.329  1.00  0.00     0.204 A 
BRANCH  11  20
ATOM     20  C   UNL     1       7.348  11.322  -3.108  1.00  0.00    -0.016 A 
ATOM     21  C   UNL     1       9.091  13.352  -2.289  1.00  0.00     0.119 A 
ATOM     22  C   UNL     1       9.602  12.208  -2.895  1.00  0.00     0.047 A 
ATOM     23  C   UNL     1       7.715  13.504  -2.131  1.00  0.00     0.047 A 
ATOM     24  C   UNL     1       8.731  11.194  -3.306  1.00  0.00     0.012 A 
ATOM     25  C   UNL     1       6.847  12.485  -2.518  1.00  0.00     0.012 A 
BRANCH  21  26
ATOM     26  O   UNL     1       9.958  14.361  -1.973  1.00  0.00    -0.494 OA
BRANCH  26  27
ATOM     27  C   UNL     1      10.069  14.595  -0.563  1.00  0.00     0.226 C 
ATOM     28  C   UNL     1       9.033  15.592  -0.065  1.00  0.00     0.049 C 
ENDBRANCH  26  27
ENDBRANCH  21  26
ENDBRANCH  11  20
ENDBRANCH   8  10
ENDBRANCH   5   8
ENDBRANCH   3   4
ENDBRANCH   2   3
ENDBRANCH   1   2
BRANCH   1  29
ATOM     29  C   UNL     1       2.946   3.715   0.933  1.00  0.00     0.002 C 
BRANCH  29  30
ATOM     30  C   UNL     1       2.094   3.456  -0.318  1.00  0.00     0.021 C 
BRANCH  30  31
ATOM     31  C   UNL     1       1.707   1.999  -0.533  1.00  0.00     0.116 C 
BRANCH  31  32
ATOM     32  N   UNL     1       0.840   1.488   0.520  1.00  0.00    -0.352 N 
ATOM     33  C   UNL     1       0.305   0.220   0.633  1.00  0.00     0.251 C 
ATOM     34  H   UNL     1       0.607   2.122   1.236  1.00  0.00     0.163 HD
ATOM     35  O   UNL     1      -0.706   0.040   1.304  1.00  0.00    -0.269 OA
BRANCH  33  36
ATOM     36  C   UNL     1       0.962  -0.907  -0.061  1.00  0.00     0.039 A 
ATOM     37  C   UNL     1       0.206  -1.917  -0.659  1.00  0.00     0.014 A 
ATOM     38  C   UNL     1       2.357  -0.952  -0.104  1.00  0.00     0.014 A 
ATOM     39  C   UNL     1       0.865  -2.923  -1.366  1.00  0.00     0.010 A 
ATOM     40  C   UNL     1       3.002  -1.878  -0.895  1.00  0.00     0.010 A 
ATOM     41  C   UNL     1       2.265  -2.886  -1.504  1.00  0.00    -0.014 A 
BRANCH  41  42
ATOM     42  C   UNL     1       2.941  -3.777  -2.450  1.00  0.00     0.031 A 
ATOM     43  C   UNL     1       2.366  -3.703  -3.817  1.00  0.00     0.074 A 
ATOM     44  C   UNL     1       4.084  -4.459  -2.206  1.00  0.00     0.049 A 
ATOM     45  N   UNL     1       1.575  -4.562  -4.367  1.00  0.00    -0.248 NA
ATOM     46  C   UNL     1       2.494  -2.450  -4.579  1.00  0.00     0.031 C 
ATOM     47  C   UNL     1       4.916  -4.423  -1.001  1.00  0.00     0.029 A 
ATOM     48  N   UNL     1       4.800  -5.280  -3.032  1.00  0.00    -0.354 N 
ATOM     49  C   UNL     1       1.364  -4.103  -5.660  1.00  0.00     0.074 A 
ATOM     50  C   UNL     1       1.722  -2.711  -5.637  1.00  0.00     0.031 C 
ATOM     51  C   UNL     1       6.113  -5.004  -1.253  1.00  0.00     0.029 A 
ATOM     52  C   UNL     1       6.086  -5.591  -2.583  1.00  0.00     0.049 A 
ATOM     53  H   UNL     1       4.436  -5.625  -3.879  1.00  0.00     0.167 HD
ATOM     54  C   UNL     1       1.210  -4.989  -6.684  1.00  0.00     0.034 A 
ATOM     55  C   UNL     1       7.062  -6.279  -3.246  1.00  0.00     0.034 A 
ATOM     56  C   UNL     1       0.937  -6.319  -6.168  1.00  0.00     0.049 A 
ATOM     57  C   UNL     1       6.376  -7.117  -4.258  1.00  0.00     0.074 A 
ATOM     58  C   UNL     1      -0.007  -6.849  -5.306  1.00  0.00     0.029 A 
ATOM     59  N   UNL     1       1.955  -7.249  -6.205  1.00  0.00    -0.354 N 
ATOM     60  N   UNL     1       5.588  -8.106  -3.942  1.00  0.00    -0.248 NA
ATOM     61  C   UNL     1       6.160  -6.553  -5.581  1.00  0.00     0.031 C 
ATOM     62  C   UNL     1       0.715  -7.775  -4.494  1.00  0.00     0.029 A 
ATOM     63  C   UNL     1       2.023  -7.852  -4.973  1.00  0.00     0.049 A 
ATOM     64  H   UNL     1       2.531  -7.446  -6.979  1.00  0.00     0.167 HD
ATOM     65  C   UNL     1       4.498  -7.973  -4.787  1.00  0.00     0.074 A 
ATOM     66  C   UNL     1       4.953  -7.067  -5.843  1.00  0.00     0.031 C 
ATOM     67  C   UNL     1       3.251  -8.373  -4.397  1.00  0.00     0.034 A 
BRANCH  54  68
ATOM     68  C   UNL     1       1.731  -4.775  -8.094  1.00  0.00     0.023 A 
ATOM     69  C   UNL     1       1.564  -5.847  -8.992  1.00  0.00     0.031 A 
ATOM     70  C   UNL     1       2.623  -3.763  -8.516  1.00  0.00     0.131 A 
ATOM     71  C   UNL     1       2.368  -5.964 -10.137  1.00  0.00     0.055 A 
ATOM     72  C   UNL     1       3.369  -3.850  -9.695  1.00  0.00     0.041 A 
ATOM     73  F   UNL     1       2.895  -2.676  -7.787  1.00  0.00    -0.206 F 
ATOM     74  C   UNL     1       3.277  -4.975 -10.494  1.00  0.00     0.022 A 
BRANCH  71  75
ATOM     75  S   UNL     1       2.343  -7.537 -11.031  1.00  0.00     0.124 S 
ATOM     76  O   UNL     1       2.700  -8.472  -9.968  1.00  0.00    -0.237 OA
ATOM     77  O   UNL     1       0.964  -7.591 -11.503  1.00  0.00    -0.237 OA
ATOM     78  O   UNL     1       3.353  -7.350 -12.070  1.00  0.00    -0.744 OA
ENDBRANCH  71  75
ENDBRANCH  54  68
BRANCH  55  79
ATOM     79  C   UNL     1       8.539  -6.038  -3.262  1.00  0.00     0.023 A 
ATOM     80  C   UNL     1       9.479  -6.976  -3.760  1.00  0.00     0.031 A 
ATOM     81  C   UNL     1       9.024  -4.732  -3.030  1.00  0.00     0.131 A 
ATOM     82  C   UNL     1      10.820  -6.586  -4.014  1.00  0.00     0.055 A 
ATOM     83  C   UNL     1      10.344  -4.353  -3.288  1.00  0.00     0.041 A 
ATOM     84  F   UNL     1       8.203  -3.748  -2.629  1.00  0.00    -0.206 F 
ATOM     85  C   UNL     1      11.245  -5.275  -3.793  1.00  0.00     0.022 A 
BRANCH  82  86
ATOM     86  S   UNL     1      12.030  -7.754  -4.733  1.00  0.00     0.124 S 
ATOM     87  O   UNL     1      12.255  -8.686  -3.635  1.00  0.00    -0.237 OA
ATOM     88  O   UNL     1      11.318  -8.274  -5.895  1.00  0.00    -0.237 OA
ATOM     89  O   UNL     1      13.177  -6.901  -5.056  1.00  0.00    -0.744 OA
ENDBRANCH  82  86
ENDBRANCH  55  79
BRANCH  67  90
ATOM     90  C   UNL     1       3.126  -9.278  -3.183  1.00  0.00     0.023 A 
ATOM     91  C   UNL     1       3.673  -9.022  -1.903  1.00  0.00     0.031 A 
ATOM     92  C   UNL     1       2.345 -10.439  -3.330  1.00  0.00     0.131 A 
ATOM     93  C   UNL     1       3.451  -9.927  -0.844  1.00  0.00     0.055 A 
ATOM     94  C   UNL     1       2.104 -11.316  -2.275  1.00  0.00     0.041 A 
ATOM     95  F   UNL     1       1.779 -10.735  -4.512  1.00  0.00    -0.206 F 
ATOM     96  C   UNL     1       2.667 -11.070  -1.029  1.00  0.00     0.022 A 
BRANCH  93  97
ATOM     97  S   UNL     1       4.222  -9.671   0.788  1.00  0.00     0.124 S 
ATOM     98  O   UNL     1       5.583  -9.256   0.468  1.00  0.00    -0.237 OA
ATOM     99  O   UNL     1       3.367  -8.646   1.382  1.00  0.00    -0.237 OA
ATOM    100  O   UNL     1       4.120 -10.988   1.421  1.00  0.00    -0.744 OA
ENDBRANCH  93  97
ENDBRANCH  67  90
ENDBRANCH  41  42
ENDBRANCH  33  36
ENDBRANCH  31  32
ENDBRANCH  30  31
ENDBRANCH  29  30
ENDBRANCH   1  29
TORSDOF 20
