REMARK SMILES Nc1oc2ccc(F)cc2c(=O)c1[C@@H]1[NH2+][C@H](C(=O)NCCCCCCNC(=O)c2ccc(-c3c4nc(c(-c5cc(S(=O)(=O)[O-])ccc5F)c5ccc([nH]5)c(-c5cc(S(=O)(=O)[O-])ccc5F)c5nc(c(-c6cc(S(=O)(=O)[O-])ccc6F)c6ccc3[nH]6)C=C5)C=C4)cc2)CS1
REMARK SMILES IDX 23 1 22 2 21 3 20 4 19 5 17 6 18 7 16 9 14 10 15 11 93 12
REMARK SMILES IDX 92 15 13 16 2 17 3 18 4 19 11 20 5 21 10 22 12 23 6 24 9 25
REMARK SMILES IDX 7 26 8 27 1 28 24 31 25 32 26 33 27 34 28 36 29 37 30 38
REMARK SMILES IDX 91 39 31 40 90 41 32 42 33 43 34 44 84 45 35 46 89 47 83 48
REMARK SMILES IDX 85 49 36 50 88 51 82 52 81 53 37 55 69 56 49 57 68 58 50 59
REMARK SMILES IDX 53 60 67 61 86 62 51 63 52 64 66 66 87 67 54 68 38 69 39 70
REMARK SMILES IDX 47 71 40 72 46 73 48 74 45 75 41 76 42 77 43 78 44 79 70 80
REMARK SMILES IDX 71 81 79 82 72 83 78 84 80 85 77 86 73 87 74 88 75 89 76 90
REMARK SMILES IDX 55 91 56 92 64 93 57 94 63 95 65 96 62 97 58 98 59 99 60 100
REMARK SMILES IDX 61 101
REMARK H PARENT 19 8 15 13 15 14 1 29 1 30 26 35 85 54 53 65
REMARK Flexibility Score: inf
ROOT
ATOM      1  C   UNL     1       0.147   2.995   2.396  1.00  0.00     0.002 C 
ENDROOT
BRANCH   1   2
ATOM      2  C   UNL     1      -0.466   1.670   1.935  1.00  0.00     0.002 C 
BRANCH   2   3
ATOM      3  C   UNL     1       0.123   1.069   0.657  1.00  0.00     0.021 C 
BRANCH   3   4
ATOM      4  C   UNL     1       1.555   0.549   0.773  1.00  0.00     0.116 C 
BRANCH   4   5
ATOM      5  N   UNL     1       1.572  -0.867   1.093  1.00  0.00    -0.351 N 
ATOM      6  C   UNL     1       1.941  -1.972   0.400  1.00  0.00     0.279 C 
ATOM      7  O   UNL     1       1.621  -3.052   0.920  1.00  0.00    -0.268 OA
ATOM      8  H   UNL     1       1.249  -1.065   2.002  1.00  0.00     0.163 HD
BRANCH   6   9
ATOM      9  C   UNL     1       2.687  -1.996  -0.956  1.00  0.00     0.283 C 
ATOM     10  C   UNL     1       1.670  -1.050  -2.971  1.00  0.00     0.283 C 
ATOM     11  N   UNL     1       1.768  -2.240  -2.101  1.00  0.00    -0.320 N 
ATOM     12  S   UNL     1       3.055   0.067  -2.570  1.00  0.00    -0.087 SA
ATOM     13  H   UNL     1       2.121  -3.024  -2.649  1.00  0.00     0.348 HD
ATOM     14  H   UNL     1       0.840  -2.446  -1.732  1.00  0.00     0.348 HD
ATOM     15  C   UNL     1       3.736  -0.950  -1.254  1.00  0.00     0.151 C 
BRANCH  10  16
ATOM     16  C   UNL     1       0.347  -0.315  -2.946  1.00  0.00     0.128 A 
ATOM     17  C   UNL     1      -0.747  -0.585  -2.200  1.00  0.00     0.205 A 
ATOM     18  O   UNL     1      -1.878   0.217  -2.164  1.00  0.00    -0.440 OA
ATOM     19  C   UNL     1      -1.882   1.398  -2.851  1.00  0.00     0.140 A 
ATOM     20  C   UNL     1       0.201   0.767  -3.964  1.00  0.00     0.205 A 
ATOM     21  C   UNL     1      -2.939   2.280  -2.616  1.00  0.00     0.051 A 
ATOM     22  C   UNL     1      -0.906   1.711  -3.786  1.00  0.00     0.068 A 
ATOM     23  O   UNL     1       0.948   0.863  -4.930  1.00  0.00    -0.288 OA
ATOM     24  C   UNL     1      -3.023   3.463  -3.350  1.00  0.00     0.043 A 
ATOM     25  C   UNL     1      -0.990   2.885  -4.537  1.00  0.00     0.055 A 
ATOM     26  C   UNL     1      -2.055   3.749  -4.309  1.00  0.00     0.124 A 
ATOM     27  F   UNL     1      -2.155   4.878  -5.020  1.00  0.00    -0.207 F 
BRANCH  17  28
ATOM     28  N   UNL     1      -0.859  -1.664  -1.378  1.00  0.00    -0.369 N 
ATOM     29  H   UNL     1      -1.684  -1.804  -0.861  1.00  0.00     0.159 HD
ATOM     30  H   UNL     1      -0.114  -2.303  -1.302  1.00  0.00     0.159 HD
ENDBRANCH  17  28
ENDBRANCH  10  16
ENDBRANCH   6   9
ENDBRANCH   4   5
ENDBRANCH   3   4
ENDBRANCH   2   3
ENDBRANCH   1   2
BRANCH   1  31
ATOM     31  C   UNL     1       0.278   4.082   1.326  1.00  0.00     0.021 C 
BRANCH  31  32
ATOM     32  C   UNL     1      -0.992   4.383   0.534  1.00  0.00     0.116 C 
BRANCH  32  33
ATOM     33  N   UNL     1      -2.048   4.967   1.347  1.00  0.00    -0.352 N 
ATOM     34  C   UNL     1      -2.598   6.228   1.286  1.00  0.00     0.251 C 
ATOM     35  H   UNL     1      -2.423   4.377   2.039  1.00  0.00     0.163 HD
ATOM     36  O   UNL     1      -3.408   6.593   2.132  1.00  0.00    -0.269 OA
BRANCH  34  37
ATOM     37  C   UNL     1      -2.164   7.150   0.216  1.00  0.00     0.039 A 
ATOM     38  C   UNL     1      -2.209   6.750  -1.121  1.00  0.00     0.014 A 
ATOM     39  C   UNL     1      -1.628   8.389   0.568  1.00  0.00     0.014 A 
ATOM     40  C   UNL     1      -1.545   7.502  -2.086  1.00  0.00     0.010 A 
ATOM     41  C   UNL     1      -1.026   9.178  -0.415  1.00  0.00     0.010 A 
ATOM     42  C   UNL     1      -0.918   8.709  -1.735  1.00  0.00    -0.014 A 
BRANCH  42  43
ATOM     43  C   UNL     1      -0.090   9.443  -2.729  1.00  0.00     0.031 A 
ATOM     44  C   UNL     1       1.396   9.578  -2.516  1.00  0.00     0.074 A 
ATOM     45  C   UNL     1      -0.661   9.963  -3.831  1.00  0.00     0.049 A 
ATOM     46  N   UNL     1       2.275  10.242  -3.221  1.00  0.00    -0.248 NA
ATOM     47  C   UNL     1       1.970   8.877  -1.355  1.00  0.00     0.031 C 
ATOM     48  C   UNL     1      -2.080   9.857  -4.166  1.00  0.00     0.029 A 
ATOM     49  N   UNL     1      -0.123  10.677  -4.874  1.00  0.00    -0.354 N 
ATOM     50  C   UNL     1       3.495  10.061  -2.579  1.00  0.00     0.074 A 
ATOM     51  C   UNL     1       3.241   9.250  -1.410  1.00  0.00     0.031 C 
ATOM     52  C   UNL     1      -2.297  10.456  -5.346  1.00  0.00     0.029 A 
ATOM     53  C   UNL     1      -1.050  11.055  -5.817  1.00  0.00     0.049 A 
ATOM     54  H   UNL     1       0.834  10.896  -4.940  1.00  0.00     0.167 HD
ATOM     55  C   UNL     1       4.717  10.520  -2.942  1.00  0.00     0.034 A 
ATOM     56  C   UNL     1      -0.921  11.819  -6.922  1.00  0.00     0.034 A 
ATOM     57  C   UNL     1       4.959  11.300  -4.128  1.00  0.00     0.049 A 
ATOM     58  C   UNL     1       0.440  12.362  -7.279  1.00  0.00     0.074 A 
ATOM     59  C   UNL     1       6.164  11.798  -4.590  1.00  0.00     0.029 A 
ATOM     60  N   UNL     1       3.990  11.685  -5.043  1.00  0.00    -0.354 N 
ATOM     61  N   UNL     1       1.586  12.176  -6.667  1.00  0.00    -0.248 NA
ATOM     62  C   UNL     1       0.532  13.221  -8.468  1.00  0.00     0.031 C 
ATOM     63  C   UNL     1       5.917  12.531  -5.750  1.00  0.00     0.029 A 
ATOM     64  C   UNL     1       4.568  12.433  -6.055  1.00  0.00     0.049 A 
ATOM     65  H   UNL     1       3.033  11.460  -4.982  1.00  0.00     0.167 HD
ATOM     66  C   UNL     1       2.537  12.870  -7.410  1.00  0.00     0.074 A 
ATOM     67  C   UNL     1       1.835  13.467  -8.527  1.00  0.00     0.031 C 
ATOM     68  C   UNL     1       3.868  13.000  -7.183  1.00  0.00     0.034 A 
BRANCH  55  69
ATOM     69  C   UNL     1       5.904  10.196  -2.068  1.00  0.00     0.023 A 
ATOM     70  C   UNL     1       6.614  11.234  -1.435  1.00  0.00     0.031 A 
ATOM     71  C   UNL     1       6.411   8.888  -1.970  1.00  0.00     0.131 A 
ATOM     72  C   UNL     1       7.809  10.952  -0.761  1.00  0.00     0.055 A 
ATOM     73  C   UNL     1       7.582   8.607  -1.264  1.00  0.00     0.041 A 
ATOM     74  F   UNL     1       5.770   7.863  -2.555  1.00  0.00    -0.206 F 
ATOM     75  C   UNL     1       8.293   9.643  -0.667  1.00  0.00     0.022 A 
BRANCH  72  76
ATOM     76  S   UNL     1       8.815  12.276  -0.036  1.00  0.00     0.124 S 
ATOM     77  O   UNL     1       8.838  11.895   1.374  1.00  0.00    -0.237 OA
ATOM     78  O   UNL     1      10.082  12.120  -0.745  1.00  0.00    -0.237 OA
ATOM     79  O   UNL     1       8.068  13.491  -0.339  1.00  0.00    -0.744 OA
ENDBRANCH  72  76
ENDBRANCH  55  69
BRANCH  56  80
ATOM     80  C   UNL     1      -2.122  12.073  -7.771  1.00  0.00     0.023 A 
ATOM     81  C   UNL     1      -3.252  12.729  -7.247  1.00  0.00     0.031 A 
ATOM     82  C   UNL     1      -2.204  11.558  -9.075  1.00  0.00     0.131 A 
ATOM     83  C   UNL     1      -4.437  12.782  -7.992  1.00  0.00     0.055 A 
ATOM     84  C   UNL     1      -3.363  11.679  -9.843  1.00  0.00     0.041 A 
ATOM     85  F   UNL     1      -1.156  10.916  -9.615  1.00  0.00    -0.206 F 
ATOM     86  C   UNL     1      -4.495  12.275  -9.294  1.00  0.00     0.022 A 
BRANCH  83  87
ATOM     87  S   UNL     1      -5.979  13.378  -7.245  1.00  0.00     0.124 S 
ATOM     88  O   UNL     1      -6.322  14.503  -8.108  1.00  0.00    -0.237 OA
ATOM     89  O   UNL     1      -6.842  12.205  -7.364  1.00  0.00    -0.237 OA
ATOM     90  O   UNL     1      -5.591  13.724  -5.881  1.00  0.00    -0.744 OA
ENDBRANCH  83  87
ENDBRANCH  56  80
BRANCH  68  91
ATOM     91  C   UNL     1       4.701  13.802  -8.153  1.00  0.00     0.023 A 
ATOM     92  C   UNL     1       5.731  13.170  -8.877  1.00  0.00     0.031 A 
ATOM     93  C   UNL     1       4.606  15.202  -8.212  1.00  0.00     0.131 A 
ATOM     94  C   UNL     1       6.661  13.942  -9.582  1.00  0.00     0.055 A 
ATOM     95  C   UNL     1       5.508  15.964  -8.957  1.00  0.00     0.041 A 
ATOM     96  F   UNL     1       3.649  15.850  -7.530  1.00  0.00    -0.206 F 
ATOM     97  C   UNL     1       6.552  15.335  -9.632  1.00  0.00     0.022 A 
BRANCH  94  98
ATOM     98  S   UNL     1       8.102  13.177 -10.377  1.00  0.00     0.124 S 
ATOM     99  O   UNL     1       7.941  13.598 -11.767  1.00  0.00    -0.237 OA
ATOM    100  O   UNL     1       9.213  13.799  -9.661  1.00  0.00    -0.237 OA
ATOM    101  O   UNL     1       7.921  11.749 -10.137  1.00  0.00    -0.744 OA
ENDBRANCH  94  98
ENDBRANCH  68  91
ENDBRANCH  42  43
ENDBRANCH  34  37
ENDBRANCH  32  33
ENDBRANCH  31  32
ENDBRANCH   1  31
TORSDOF 18
