REMARK SMILES O=C(NCCCCCCNC(=O)[C@H]1[C@@H](C(=O)NNC(=O)c2ccccc2Cl)[C@H]2C=C[C@@H]1C2)c1ccc(-c2c3nc(c(-c4cc(S(=O)(=O)[O-])ccc4F)c4ccc([nH]4)c(-c4cc(S(=O)(=O)[O-])ccc4F)c4nc(c(-c5cc(S(=O)(=O)[O-])ccc5F)c5ccc2[nH]5)C=C4)C=C3)cc1
REMARK SMILES IDX 6 1 5 2 4 3 3 4 1 5 2 6 33 8 34 9 95 10 35 11 94 12 36 13
REMARK SMILES IDX 37 14 38 15 88 16 39 17 93 18 87 19 89 20 40 21 92 22 86 23
REMARK SMILES IDX 85 24 41 26 73 27 53 28 72 29 54 30 57 31 71 32 90 33 55 34
REMARK SMILES IDX 56 35 70 37 91 38 58 39 42 40 43 41 51 42 44 43 50 44 52 45
REMARK SMILES IDX 49 46 45 47 46 48 47 49 48 50 74 51 75 52 83 53 76 54 82 55
REMARK SMILES IDX 84 56 81 57 77 58 78 59 79 60 80 61 59 62 60 63 68 64 61 65
REMARK SMILES IDX 67 66 69 67 66 68 62 69 63 70 64 71 65 72 7 73 8 74 9 75
REMARK SMILES IDX 10 76 11 77 12 79 13 80 14 81 31 82 28 83 30 84 32 85 29 86
REMARK SMILES IDX 15 87 16 88 17 89 18 91 19 92 20 94 21 95 22 96 26 97 23 98
REMARK SMILES IDX 25 99 27 100 24 101
REMARK H PARENT 3 7 89 25 57 36 10 78 17 90 18 93
REMARK Flexibility Score: inf
ROOT
ATOM      1  C   UNL     1       4.905   0.834   3.493  1.00  0.00     0.002 C 
ENDROOT
BRANCH   1   2
ATOM      2  C   UNL     1       3.537   0.590   4.130  1.00  0.00     0.021 C 
BRANCH   2   3
ATOM      3  C   UNL     1       2.821   1.852   4.594  1.00  0.00     0.116 C 
BRANCH   3   4
ATOM      4  N   UNL     1       2.512   2.742   3.486  1.00  0.00    -0.352 N 
ATOM      5  O   UNL     1       1.174   3.821   2.026  1.00  0.00    -0.269 OA
ATOM      6  C   UNL     1       1.294   3.243   3.103  1.00  0.00     0.251 C 
ATOM      7  H   UNL     1       3.280   3.022   2.938  1.00  0.00     0.163 HD
BRANCH   6   8
ATOM      8  C   UNL     1       0.126   3.073   3.993  1.00  0.00     0.039 A 
ATOM      9  C   UNL     1       0.236   3.340   5.361  1.00  0.00     0.014 A 
ATOM     10  C   UNL     1      -1.089   2.650   3.451  1.00  0.00     0.014 A 
ATOM     11  C   UNL     1      -0.837   3.076   6.205  1.00  0.00     0.010 A 
ATOM     12  C   UNL     1      -2.190   2.464   4.290  1.00  0.00     0.010 A 
ATOM     13  C   UNL     1      -2.068   2.659   5.676  1.00  0.00    -0.014 A 
BRANCH  13  14
ATOM     14  C   UNL     1      -3.240   2.503   6.573  1.00  0.00     0.031 A 
ATOM     15  C   UNL     1      -3.890   1.165   6.769  1.00  0.00     0.074 A 
ATOM     16  C   UNL     1      -3.727   3.595   7.194  1.00  0.00     0.049 A 
ATOM     17  N   UNL     1      -4.959   0.860   7.460  1.00  0.00    -0.248 NA
ATOM     18  C   UNL     1      -3.265   0.023   6.090  1.00  0.00     0.031 C 
ATOM     19  C   UNL     1      -3.176   4.947   7.066  1.00  0.00     0.029 A 
ATOM     20  N   UNL     1      -4.792   3.749   8.043  1.00  0.00    -0.354 N 
ATOM     21  C   UNL     1      -5.150  -0.506   7.285  1.00  0.00     0.074 A 
ATOM     22  C   UNL     1      -4.103  -0.959   6.391  1.00  0.00     0.031 C 
ATOM     23  C   UNL     1      -3.900   5.788   7.817  1.00  0.00     0.029 A 
ATOM     24  C   UNL     1      -5.007   5.054   8.418  1.00  0.00     0.049 A 
ATOM     25  H   UNL     1      -5.348   2.998   8.353  1.00  0.00     0.167 HD
ATOM     26  C   UNL     1      -6.107  -1.303   7.826  1.00  0.00     0.034 A 
ATOM     27  C   UNL     1      -6.008   5.612   9.126  1.00  0.00     0.034 A 
ATOM     28  C   UNL     1      -7.147  -0.818   8.705  1.00  0.00     0.049 A 
ATOM     29  C   UNL     1      -7.092   4.723   9.667  1.00  0.00     0.074 A 
ATOM     30  C   UNL     1      -8.138  -1.540   9.348  1.00  0.00     0.029 A 
ATOM     31  N   UNL     1      -7.347   0.515   9.046  1.00  0.00    -0.354 N 
ATOM     32  N   UNL     1      -7.240   3.426   9.526  1.00  0.00    -0.248 NA
ATOM     33  C   UNL     1      -8.140   5.368  10.466  1.00  0.00     0.031 C 
ATOM     34  C   UNL     1      -8.983  -0.637  10.005  1.00  0.00     0.029 A 
ATOM     35  C   UNL     1      -8.470   0.641   9.852  1.00  0.00     0.049 A 
ATOM     36  H   UNL     1      -6.775   1.263   8.757  1.00  0.00     0.167 HD
ATOM     37  C   UNL     1      -8.388   3.095  10.238  1.00  0.00     0.074 A 
ATOM     38  C   UNL     1      -8.886   4.329  10.815  1.00  0.00     0.031 C 
ATOM     39  C   UNL     1      -8.970   1.880  10.406  1.00  0.00     0.034 A 
BRANCH  26  40
ATOM     40  C   UNL     1      -6.100  -2.763   7.432  1.00  0.00     0.023 A 
ATOM     41  C   UNL     1      -5.007  -3.603   7.710  1.00  0.00     0.031 A 
ATOM     42  C   UNL     1      -7.185  -3.314   6.725  1.00  0.00     0.131 A 
ATOM     43  C   UNL     1      -4.981  -4.912   7.203  1.00  0.00     0.055 A 
ATOM     44  C   UNL     1      -7.192  -4.646   6.303  1.00  0.00     0.041 A 
ATOM     45  F   UNL     1      -8.251  -2.561   6.411  1.00  0.00    -0.206 F 
ATOM     46  C   UNL     1      -6.076  -5.448   6.524  1.00  0.00     0.022 A 
BRANCH  43  47
ATOM     47  S   UNL     1      -3.423  -5.840   7.288  1.00  0.00     0.124 S 
ATOM     48  O   UNL     1      -2.493  -4.921   6.635  1.00  0.00    -0.237 OA
ATOM     49  O   UNL     1      -3.240  -6.017   8.724  1.00  0.00    -0.237 OA
ATOM     50  O   UNL     1      -3.709  -7.061   6.538  1.00  0.00    -0.744 OA
ENDBRANCH  43  47
ENDBRANCH  26  40
BRANCH  27  51
ATOM     51  C   UNL     1      -6.045   7.090   9.302  1.00  0.00     0.023 A 
ATOM     52  C   UNL     1      -5.881   7.681  10.563  1.00  0.00     0.031 A 
ATOM     53  C   UNL     1      -6.228   7.936   8.192  1.00  0.00     0.131 A 
ATOM     54  C   UNL     1      -5.924   9.079  10.686  1.00  0.00     0.055 A 
ATOM     55  C   UNL     1      -6.219   9.325   8.313  1.00  0.00     0.041 A 
ATOM     56  F   UNL     1      -6.382   7.419   6.962  1.00  0.00    -0.206 F 
ATOM     57  C   UNL     1      -6.074   9.904   9.569  1.00  0.00     0.022 A 
BRANCH  54  58
ATOM     58  S   UNL     1      -5.833   9.807  12.344  1.00  0.00     0.124 S 
ATOM     59  O   UNL     1      -6.993   9.210  12.995  1.00  0.00    -0.237 OA
ATOM     60  O   UNL     1      -4.528   9.346  12.807  1.00  0.00    -0.237 OA
ATOM     61  O   UNL     1      -5.929  11.243  12.091  1.00  0.00    -0.744 OA
ENDBRANCH  54  58
ENDBRANCH  27  51
BRANCH  39  62
ATOM     62  C   UNL     1     -10.192   1.820  11.290  1.00  0.00     0.023 A 
ATOM     63  C   UNL     1     -11.412   2.407  10.913  1.00  0.00     0.031 A 
ATOM     64  C   UNL     1     -10.131   1.152  12.526  1.00  0.00     0.131 A 
ATOM     65  C   UNL     1     -12.513   2.347  11.783  1.00  0.00     0.055 A 
ATOM     66  C   UNL     1     -11.244   1.045  13.360  1.00  0.00     0.041 A 
ATOM     67  F   UNL     1      -8.988   0.580  12.938  1.00  0.00    -0.206 F 
ATOM     68  C   UNL     1     -12.442   1.653  12.994  1.00  0.00     0.022 A 
BRANCH  65  69
ATOM     69  S   UNL     1     -14.024   3.249  11.346  1.00  0.00     0.124 S 
ATOM     70  O   UNL     1     -13.545   4.626  11.277  1.00  0.00    -0.237 OA
ATOM     71  O   UNL     1     -14.397   2.639  10.074  1.00  0.00    -0.237 OA
ATOM     72  O   UNL     1     -14.929   2.963  12.458  1.00  0.00    -0.744 OA
ENDBRANCH  65  69
ENDBRANCH  39  62
ENDBRANCH  13  14
ENDBRANCH   6   8
ENDBRANCH   3   4
ENDBRANCH   2   3
ENDBRANCH   1   2
BRANCH   1  73
ATOM     73  C   UNL     1       5.896   1.611   4.365  1.00  0.00     0.002 C 
BRANCH  73  74
ATOM     74  C   UNL     1       6.123   1.031   5.765  1.00  0.00     0.021 C 
BRANCH  74  75
ATOM     75  C   UNL     1       6.596  -0.420   5.777  1.00  0.00     0.116 C 
BRANCH  75  76
ATOM     76  N   UNL     1       7.909  -0.540   5.171  1.00  0.00    -0.356 N 
ATOM     77  C   UNL     1       9.076  -1.031   5.676  1.00  0.00     0.224 C 
ATOM     78  H   UNL     1       7.967  -0.213   4.245  1.00  0.00     0.163 HD
ATOM     79  O   UNL     1      10.102  -0.868   5.014  1.00  0.00    -0.275 OA
BRANCH  77  80
ATOM     80  C   UNL     1       9.066  -1.685   7.051  1.00  0.00     0.098 C 
ATOM     81  C   UNL     1       9.858  -3.030   7.252  1.00  0.00     0.100 C 
ATOM     82  C   UNL     1       9.702  -0.741   8.108  1.00  0.00     0.025 C 
ATOM     83  C   UNL     1      10.837  -2.648   8.391  1.00  0.00     0.025 C 
ATOM     84  C   UNL     1      11.150  -0.469   7.764  1.00  0.00    -0.027 C 
ATOM     85  C   UNL     1       9.940  -1.731   9.246  1.00  0.00     0.017 C 
ATOM     86  C   UNL     1      11.823  -1.619   7.915  1.00  0.00    -0.027 C 
BRANCH  81  87
ATOM     87  C   UNL     1      10.318  -3.715   5.966  1.00  0.00     0.242 C 
ATOM     88  O   UNL     1       9.655  -3.633   4.926  1.00  0.00    -0.273 OA
ATOM     89  N   UNL     1      11.339  -4.625   5.957  1.00  0.00    -0.267 N 
ATOM     90  H   UNL     1      11.589  -5.008   5.085  1.00  0.00     0.191 HD
BRANCH  89  91
ATOM     91  N   UNL     1      12.052  -5.056   7.058  1.00  0.00    -0.263 N 
ATOM     92  C   UNL     1      13.308  -5.622   7.010  1.00  0.00     0.271 C 
ATOM     93  H   UNL     1      11.632  -4.950   7.943  1.00  0.00     0.191 HD
ATOM     94  O   UNL     1      13.850  -6.032   8.034  1.00  0.00    -0.267 OA
BRANCH  92  95
ATOM     95  C   UNL     1      13.950  -5.887   5.708  1.00  0.00     0.060 A 
ATOM     96  C   UNL     1      14.184  -7.239   5.406  1.00  0.00     0.015 A 
ATOM     97  C   UNL     1      14.343  -4.894   4.809  1.00  0.00     0.053 A 
ATOM     98  C   UNL     1      14.767  -7.598   4.192  1.00  0.00     0.001 A 
ATOM     99  C   UNL     1      14.913  -5.262   3.584  1.00  0.00     0.021 A 
ATOM    100  Cl  UNL     1      14.206  -3.211   5.155  1.00  0.00    -0.083 Cl
ATOM    101  C   UNL     1      15.120  -6.610   3.276  1.00  0.00     0.002 A 
ENDBRANCH  92  95
ENDBRANCH  89  91
ENDBRANCH  81  87
ENDBRANCH  77  80
ENDBRANCH  75  76
ENDBRANCH  74  75
ENDBRANCH  73  74
ENDBRANCH   1  73
TORSDOF 19
