REMARK SMILES Nc1nc(N2CCOC[C@H]2C(=O)NCCCCCCNC(=O)c2ccc(-c3c4nc(c(-c5cc(S(=O)(=O)[O-])ccc5F)c5ccc([nH]5)c(-c5cc(S(=O)(=O)[O-])ccc5F)c5nc(c(-c6cc(S(=O)(=O)[O-])ccc6F)c6ccc3[nH]6)C=C5)C=C4)cc2)ccc1[N+](=O)[O-]
REMARK SMILES IDX 17 1 16 2 15 3 14 4 13 5 11 6 12 7 10 9 5 10 6 11 7 12 9 13
REMARK SMILES IDX 8 14 4 15 2 16 3 17 88 18 87 19 86 20 1 21 89 24 90 25 91 26
REMARK SMILES IDX 18 27 19 28 20 29 21 30 22 32 23 33 24 34 85 35 25 36 84 37
REMARK SMILES IDX 26 38 27 39 28 40 78 41 29 42 83 43 77 44 79 45 30 46 82 47
REMARK SMILES IDX 76 48 75 49 31 51 63 52 43 53 62 54 44 55 47 56 61 57 80 58
REMARK SMILES IDX 45 59 46 60 60 62 81 63 48 64 32 65 33 66 41 67 34 68 40 69
REMARK SMILES IDX 42 70 39 71 35 72 36 73 37 74 38 75 64 76 65 77 73 78 66 79
REMARK SMILES IDX 72 80 74 81 71 82 67 83 68 84 69 85 70 86 49 87 50 88 58 89
REMARK SMILES IDX 51 90 57 91 59 92 56 93 52 94 53 95 54 96 55 97
REMARK H PARENT 13 8 1 22 1 23 20 31 79 50 47 61
REMARK Flexibility Score: inf
ROOT
ATOM      1  C   UNL     1      -2.628   6.369   5.031  1.00  0.00     0.002 C 
ENDROOT
BRANCH   1   2
ATOM      2  C   UNL     1      -1.545   5.342   4.676  1.00  0.00     0.002 C 
BRANCH   2   3
ATOM      3  C   UNL     1      -1.904   4.396   3.526  1.00  0.00     0.021 C 
BRANCH   3   4
ATOM      4  C   UNL     1      -2.066   5.101   2.179  1.00  0.00     0.116 C 
BRANCH   4   5
ATOM      5  N   UNL     1      -0.873   4.973   1.370  1.00  0.00    -0.354 N 
ATOM      6  C   UNL     1      -0.587   4.260   0.248  1.00  0.00     0.245 C 
ATOM      7  O   UNL     1       0.558   4.435  -0.199  1.00  0.00    -0.273 OA
ATOM      8  H   UNL     1      -0.117   5.511   1.698  1.00  0.00     0.163 HD
BRANCH   6   9
ATOM      9  C   UNL     1      -1.585   3.372  -0.534  1.00  0.00     0.199 C 
ATOM     10  N   UNL     1      -2.016   2.109   0.106  1.00  0.00    -0.340 N 
ATOM     11  C   UNL     1      -3.253   2.109   0.879  1.00  0.00     0.147 C 
ATOM     12  C   UNL     1      -4.357   2.843   0.115  1.00  0.00     0.181 C 
ATOM     13  C   UNL     1      -2.792   4.155  -1.097  1.00  0.00     0.195 C 
ATOM     14  O   UNL     1      -3.959   4.168  -0.259  1.00  0.00    -0.377 OA
BRANCH  10  15
ATOM     15  C   UNL     1      -1.240   0.976   0.001  1.00  0.00     0.132 A 
ATOM     16  C   UNL     1       0.887  -0.018  -0.002  1.00  0.00     0.204 A 
ATOM     17  N   UNL     1       0.105   1.092   0.015  1.00  0.00    -0.207 NA
ATOM     18  C   UNL     1       0.335  -1.294  -0.067  1.00  0.00     0.311 A 
ATOM     19  C   UNL     1      -1.048  -1.427  -0.161  1.00  0.00     0.093 A 
ATOM     20  C   UNL     1      -1.832  -0.280  -0.127  1.00  0.00     0.054 A 
BRANCH  16  21
ATOM     21  N   UNL     1       2.232   0.245   0.154  1.00  0.00    -0.378 N 
ATOM     22  H   UNL     1       2.550   1.176   0.192  1.00  0.00     0.158 HD
ATOM     23  H   UNL     1       2.874  -0.497   0.227  1.00  0.00     0.158 HD
ENDBRANCH  16  21
BRANCH  18  24
ATOM     24  N   UNL     1       1.155  -2.499  -0.059  1.00  0.00     0.066 N 
ATOM     25  O   UNL     1       0.584  -3.576   0.173  1.00  0.00    -0.258 OA
ATOM     26  O   UNL     1       2.365  -2.401  -0.320  1.00  0.00    -0.258 OA
ENDBRANCH  18  24
ENDBRANCH  10  15
ENDBRANCH   6   9
ENDBRANCH   4   5
ENDBRANCH   3   4
ENDBRANCH   2   3
ENDBRANCH   1   2
BRANCH   1  27
ATOM     27  C   UNL     1      -4.013   5.792   5.341  1.00  0.00     0.021 C 
BRANCH  27  28
ATOM     28  C   UNL     1      -4.043   4.752   6.458  1.00  0.00     0.116 C 
BRANCH  28  29
ATOM     29  N   UNL     1      -3.551   5.293   7.715  1.00  0.00    -0.352 N 
ATOM     30  C   UNL     1      -4.188   5.414   8.926  1.00  0.00     0.251 C 
ATOM     31  H   UNL     1      -2.623   5.620   7.695  1.00  0.00     0.163 HD
ATOM     32  O   UNL     1      -3.693   6.114   9.803  1.00  0.00    -0.269 OA
BRANCH  30  33
ATOM     33  C   UNL     1      -5.469   4.713   9.163  1.00  0.00     0.039 A 
ATOM     34  C   UNL     1      -6.500   5.389   9.820  1.00  0.00     0.014 A 
ATOM     35  C   UNL     1      -5.643   3.385   8.764  1.00  0.00     0.014 A 
ATOM     36  C   UNL     1      -7.725   4.750  10.028  1.00  0.00     0.010 A 
ATOM     37  C   UNL     1      -6.885   2.774   8.908  1.00  0.00     0.010 A 
ATOM     38  C   UNL     1      -7.937   3.447   9.549  1.00  0.00    -0.014 A 
BRANCH  38  39
ATOM     39  C   UNL     1      -9.244   2.764   9.724  1.00  0.00     0.031 A 
ATOM     40  C   UNL     1      -9.341   1.530  10.578  1.00  0.00     0.074 A 
ATOM     41  C   UNL     1     -10.329   3.220   9.069  1.00  0.00     0.049 A 
ATOM     42  N   UNL     1     -10.370   0.753  10.803  1.00  0.00    -0.248 NA
ATOM     43  C   UNL     1      -8.103   1.095  11.239  1.00  0.00     0.031 C 
ATOM     44  C   UNL     1     -10.354   4.390   8.190  1.00  0.00     0.029 A 
ATOM     45  N   UNL     1     -11.619   2.754   9.040  1.00  0.00    -0.354 N 
ATOM     46  C   UNL     1      -9.902  -0.267  11.626  1.00  0.00     0.074 A 
ATOM     47  C   UNL     1      -8.480  -0.048  11.788  1.00  0.00     0.031 C 
ATOM     48  C   UNL     1     -11.605   4.571   7.737  1.00  0.00     0.029 A 
ATOM     49  C   UNL     1     -12.460   3.507   8.254  1.00  0.00     0.049 A 
ATOM     50  H   UNL     1     -11.915   1.956   9.534  1.00  0.00     0.167 HD
ATOM     51  C   UNL     1     -10.598  -1.273  12.215  1.00  0.00     0.034 A 
ATOM     52  C   UNL     1     -13.770   3.354   7.980  1.00  0.00     0.034 A 
ATOM     53  C   UNL     1     -12.016  -1.476  12.036  1.00  0.00     0.049 A 
ATOM     54  C   UNL     1     -14.513   2.197   8.595  1.00  0.00     0.074 A 
ATOM     55  C   UNL     1     -12.833  -2.434  12.610  1.00  0.00     0.029 A 
ATOM     56  N   UNL     1     -12.830  -0.711  11.207  1.00  0.00    -0.354 N 
ATOM     57  N   UNL     1     -14.068   1.262   9.403  1.00  0.00    -0.248 NA
ATOM     58  C   UNL     1     -15.939   2.081   8.264  1.00  0.00     0.031 C 
ATOM     59  C   UNL     1     -14.120  -2.293  12.077  1.00  0.00     0.029 A 
ATOM     60  C   UNL     1     -14.129  -1.198  11.229  1.00  0.00     0.049 A 
ATOM     61  H   UNL     1     -12.527   0.065  10.681  1.00  0.00     0.167 HD
ATOM     62  C   UNL     1     -15.169   0.466   9.704  1.00  0.00     0.074 A 
ATOM     63  C   UNL     1     -16.298   1.036   8.996  1.00  0.00     0.031 C 
ATOM     64  C   UNL     1     -15.242  -0.632  10.501  1.00  0.00     0.034 A 
BRANCH  51  65
ATOM     65  C   UNL     1      -9.811  -2.237  13.076  1.00  0.00     0.023 A 
ATOM     66  C   UNL     1      -9.089  -1.796  14.201  1.00  0.00     0.031 A 
ATOM     67  C   UNL     1      -9.716  -3.597  12.731  1.00  0.00     0.131 A 
ATOM     68  C   UNL     1      -8.219  -2.673  14.865  1.00  0.00     0.055 A 
ATOM     69  C   UNL     1      -8.926  -4.489  13.461  1.00  0.00     0.041 A 
ATOM     70  F   UNL     1     -10.365  -4.079  11.659  1.00  0.00    -0.206 F 
ATOM     71  C   UNL     1      -8.152  -4.024  14.520  1.00  0.00     0.022 A 
BRANCH  68  72
ATOM     72  S   UNL     1      -7.031  -1.976  16.046  1.00  0.00     0.124 S 
ATOM     73  O   UNL     1      -6.342  -0.987  15.220  1.00  0.00    -0.237 OA
ATOM     74  O   UNL     1      -7.899  -1.444  17.090  1.00  0.00    -0.237 OA
ATOM     75  O   UNL     1      -6.218  -3.126  16.434  1.00  0.00    -0.744 OA
ENDBRANCH  68  72
ENDBRANCH  51  65
BRANCH  52  76
ATOM     76  C   UNL     1     -14.468   4.326   7.094  1.00  0.00     0.023 A 
ATOM     77  C   UNL     1     -15.465   5.171   7.606  1.00  0.00     0.031 A 
ATOM     78  C   UNL     1     -14.163   4.416   5.725  1.00  0.00     0.131 A 
ATOM     79  C   UNL     1     -16.147   6.047   6.747  1.00  0.00     0.055 A 
ATOM     80  C   UNL     1     -14.812   5.321   4.884  1.00  0.00     0.041 A 
ATOM     81  F   UNL     1     -13.212   3.635   5.188  1.00  0.00    -0.206 F 
ATOM     82  C   UNL     1     -15.818   6.137   5.393  1.00  0.00     0.022 A 
BRANCH  79  83
ATOM     83  S   UNL     1     -17.514   7.031   7.420  1.00  0.00     0.124 S 
ATOM     84  O   UNL     1     -18.432   5.993   7.872  1.00  0.00    -0.237 OA
ATOM     85  O   UNL     1     -16.848   7.801   8.465  1.00  0.00    -0.237 OA
ATOM     86  O   UNL     1     -17.968   7.810   6.270  1.00  0.00    -0.744 OA
ENDBRANCH  79  83
ENDBRANCH  52  76
BRANCH  64  87
ATOM     87  C   UNL     1     -16.605  -1.257  10.677  1.00  0.00     0.023 A 
ATOM     88  C   UNL     1     -17.276  -1.887   9.614  1.00  0.00     0.031 A 
ATOM     89  C   UNL     1     -17.249  -1.205  11.927  1.00  0.00     0.131 A 
ATOM     90  C   UNL     1     -18.572  -2.389   9.805  1.00  0.00     0.055 A 
ATOM     91  C   UNL     1     -18.514  -1.760  12.126  1.00  0.00     0.041 A 
ATOM     92  F   UNL     1     -16.658  -0.613  12.976  1.00  0.00    -0.206 F 
ATOM     93  C   UNL     1     -19.189  -2.345  11.058  1.00  0.00     0.022 A 
BRANCH  90  94
ATOM     94  S   UNL     1     -19.484  -3.017   8.367  1.00  0.00     0.124 S 
ATOM     95  O   UNL     1     -19.506  -1.851   7.489  1.00  0.00    -0.237 OA
ATOM     96  O   UNL     1     -18.648  -4.129   7.928  1.00  0.00    -0.237 OA
ATOM     97  O   UNL     1     -20.781  -3.399   8.923  1.00  0.00    -0.744 OA
ENDBRANCH  90  94
ENDBRANCH  64  87
ENDBRANCH  38  39
ENDBRANCH  30  33
ENDBRANCH  28  29
ENDBRANCH  27  28
ENDBRANCH   1  27
TORSDOF 19
