REMARK SMILES Cc1nn(CC(=O)NCCCCCCNC(=O)c2ccc(-c3c4nc(c(-c5cc(S(=O)(=O)[O-])ccc5F)c5ccc([nH]5)c(-c5cc(S(=O)(=O)[O-])ccc5F)c5nc(c(-c6cc(S(=O)(=O)[O-])ccc6F)c6ccc3[nH]6)C=C5)C=C4)cc2)c(C)c1NC(=O)C(=O)Nc1ccc(F)cc1
REMARK SMILES IDX 11 1 10 2 9 3 8 4 6 5 7 6 5 8 4 9 1 10 2 11 3 12 83 13 81 14
REMARK SMILES IDX 82 15 84 16 85 17 86 19 87 20 88 21 89 22 90 24 91 25 96 26
REMARK SMILES IDX 92 27 95 28 93 29 94 30 12 31 13 32 14 33 15 34 16 35 17 37
REMARK SMILES IDX 18 38 19 39 80 40 20 41 79 42 21 43 22 44 23 45 73 46 24 47
REMARK SMILES IDX 78 48 72 49 74 50 25 51 77 52 71 53 70 54 26 56 58 57 38 58
REMARK SMILES IDX 57 59 39 60 42 61 56 62 75 63 40 64 41 65 55 67 76 68 43 69
REMARK SMILES IDX 27 70 28 71 36 72 29 73 35 74 37 75 34 76 30 77 31 78 32 79
REMARK SMILES IDX 33 80 59 81 60 82 68 83 61 84 67 85 69 86 66 87 62 88 63 89
REMARK SMILES IDX 64 90 65 91 44 92 45 93 53 94 46 95 52 96 54 97 51 98 47 99
REMARK SMILES IDX 48 100 49 101 50 102
REMARK H PARENT 8 7 84 18 89 23 15 36 74 55 42 66
REMARK Flexibility Score: inf
ROOT
ATOM      1  C   UNL     1      -5.251  -1.384   2.237  1.00  0.00     0.002 C 
ENDROOT
BRANCH   1   2
ATOM      2  C   UNL     1      -3.886  -0.753   2.523  1.00  0.00     0.021 C 
BRANCH   2   3
ATOM      3  C   UNL     1      -3.432  -0.918   3.969  1.00  0.00     0.116 C 
BRANCH   3   4
ATOM      4  N   UNL     1      -3.012  -2.270   4.268  1.00  0.00    -0.354 N 
ATOM      5  C   UNL     1      -1.785  -2.818   4.487  1.00  0.00     0.241 C 
ATOM      6  O   UNL     1      -1.778  -4.035   4.724  1.00  0.00    -0.273 OA
ATOM      7  H   UNL     1      -3.754  -2.915   4.324  1.00  0.00     0.163 HD
BRANCH   5   8
ATOM      8  C   UNL     1      -0.504  -2.025   4.642  1.00  0.00     0.244 C 
BRANCH   8   9
ATOM      9  N   UNL     1      -0.269  -0.966   3.677  1.00  0.00    -0.258 N 
ATOM     10  C   UNL     1       0.731  -0.185   0.386  1.00  0.00     0.071 C 
ATOM     11  C   UNL     1       0.290  -0.160   1.807  1.00  0.00     0.083 A 
ATOM     12  N   UNL     1       0.095  -1.317   2.438  1.00  0.00    -0.175 NA
ATOM     13  C   UNL     1       0.062   0.967   2.662  1.00  0.00     0.086 A 
ATOM     14  C   UNL     1      -0.287   0.405   3.883  1.00  0.00     0.060 A 
ATOM     15  C   UNL     1      -0.720   0.960   5.196  1.00  0.00     0.069 C 
BRANCH  13  16
ATOM     16  N   UNL     1       0.173   2.274   2.207  1.00  0.00    -0.315 N 
ATOM     17  C   UNL     1       0.194   3.511   2.801  1.00  0.00     0.314 C 
ATOM     18  H   UNL     1       0.258   2.325   1.227  1.00  0.00     0.170 HD
ATOM     19  O   UNL     1       0.286   4.522   2.110  1.00  0.00    -0.263 OA
BRANCH  17  20
ATOM     20  C   UNL     1       0.225   3.644   4.309  1.00  0.00     0.314 C 
ATOM     21  O   UNL     1       1.163   3.159   4.938  1.00  0.00    -0.263 OA
ATOM     22  N   UNL     1      -0.800   4.289   4.988  1.00  0.00    -0.318 N 
ATOM     23  H   UNL     1      -1.277   3.800   5.697  1.00  0.00     0.170 HD
BRANCH  22  24
ATOM     24  C   UNL     1      -1.187   5.612   4.704  1.00  0.00     0.041 A 
ATOM     25  C   UNL     1      -0.889   6.558   5.694  1.00  0.00     0.029 A 
ATOM     26  C   UNL     1      -1.768   6.017   3.504  1.00  0.00     0.029 A 
ATOM     27  C   UNL     1      -1.064   7.915   5.441  1.00  0.00     0.041 A 
ATOM     28  C   UNL     1      -1.963   7.381   3.260  1.00  0.00     0.041 A 
ATOM     29  C   UNL     1      -1.586   8.316   4.219  1.00  0.00     0.123 A 
ATOM     30  F   UNL     1      -1.717   9.624   3.963  1.00  0.00    -0.207 F 
ENDBRANCH  22  24
ENDBRANCH  17  20
ENDBRANCH  13  16
ENDBRANCH   8   9
ENDBRANCH   5   8
ENDBRANCH   3   4
ENDBRANCH   2   3
ENDBRANCH   1   2
BRANCH   1  31
ATOM     31  C   UNL     1      -6.399  -0.941   3.161  1.00  0.00     0.002 C 
BRANCH  31  32
ATOM     32  C   UNL     1      -6.634   0.572   3.295  1.00  0.00     0.021 C 
BRANCH  32  33
ATOM     33  C   UNL     1      -7.083   1.236   2.005  1.00  0.00     0.116 C 
BRANCH  33  34
ATOM     34  N   UNL     1      -8.400   0.767   1.556  1.00  0.00    -0.352 N 
ATOM     35  C   UNL     1      -9.082   1.111   0.402  1.00  0.00     0.251 C 
ATOM     36  H   UNL     1      -8.854   0.127   2.150  1.00  0.00     0.163 HD
ATOM     37  O   UNL     1     -10.300   0.955   0.321  1.00  0.00    -0.269 OA
BRANCH  35  38
ATOM     38  C   UNL     1      -8.309   1.655  -0.725  1.00  0.00     0.039 A 
ATOM     39  C   UNL     1      -8.758   2.701  -1.537  1.00  0.00     0.014 A 
ATOM     40  C   UNL     1      -7.049   1.104  -0.913  1.00  0.00     0.014 A 
ATOM     41  C   UNL     1      -7.884   3.223  -2.493  1.00  0.00     0.010 A 
ATOM     42  C   UNL     1      -6.125   1.782  -1.647  1.00  0.00     0.010 A 
ATOM     43  C   UNL     1      -6.562   2.755  -2.531  1.00  0.00    -0.014 A 
BRANCH  43  44
ATOM     44  C   UNL     1      -5.555   3.272  -3.446  1.00  0.00     0.031 A 
ATOM     45  C   UNL     1      -5.262   4.721  -3.297  1.00  0.00     0.074 A 
ATOM     46  C   UNL     1      -4.753   2.434  -4.146  1.00  0.00     0.049 A 
ATOM     47  N   UNL     1      -5.494   5.667  -4.142  1.00  0.00    -0.248 NA
ATOM     48  C   UNL     1      -4.793   5.205  -1.987  1.00  0.00     0.031 C 
ATOM     49  C   UNL     1      -4.706   0.963  -4.115  1.00  0.00     0.029 A 
ATOM     50  N   UNL     1      -3.703   2.733  -4.949  1.00  0.00    -0.354 N 
ATOM     51  C   UNL     1      -4.988   6.832  -3.571  1.00  0.00     0.074 A 
ATOM     52  C   UNL     1      -4.775   6.525  -2.183  1.00  0.00     0.031 C 
ATOM     53  C   UNL     1      -3.543   0.529  -4.651  1.00  0.00     0.029 A 
ATOM     54  C   UNL     1      -2.855   1.665  -5.235  1.00  0.00     0.049 A 
ATOM     55  H   UNL     1      -3.550   3.638  -5.305  1.00  0.00     0.167 HD
ATOM     56  C   UNL     1      -4.577   7.877  -4.345  1.00  0.00     0.034 A 
ATOM     57  C   UNL     1      -1.661   1.719  -5.886  1.00  0.00     0.034 A 
ATOM     58  C   UNL     1      -5.041   7.715  -5.706  1.00  0.00     0.049 A 
ATOM     59  C   UNL     1      -1.673   2.992  -6.654  1.00  0.00     0.074 A 
ATOM     60  C   UNL     1      -6.288   7.623  -6.295  1.00  0.00     0.029 A 
ATOM     61  N   UNL     1      -4.160   7.192  -6.629  1.00  0.00    -0.354 N 
ATOM     62  N   UNL     1      -2.524   3.236  -7.615  1.00  0.00    -0.248 NA
ATOM     63  C   UNL     1      -1.115   4.174  -6.011  1.00  0.00     0.031 C 
ATOM     64  C   UNL     1      -6.152   6.589  -7.269  1.00  0.00     0.029 A 
ATOM     65  C   UNL     1      -4.815   6.181  -7.293  1.00  0.00     0.049 A 
ATOM     66  H   UNL     1      -3.234   7.488  -6.785  1.00  0.00     0.167 HD
ATOM     67  C   UNL     1      -2.932   4.548  -7.417  1.00  0.00     0.074 A 
ATOM     68  C   UNL     1      -1.967   5.100  -6.464  1.00  0.00     0.031 C 
ATOM     69  C   UNL     1      -4.171   4.981  -7.802  1.00  0.00     0.034 A 
BRANCH  56  70
ATOM     70  C   UNL     1      -3.488   8.867  -3.990  1.00  0.00     0.023 A 
ATOM     71  C   UNL     1      -3.212   9.883  -4.928  1.00  0.00     0.031 A 
ATOM     72  C   UNL     1      -2.545   8.727  -2.947  1.00  0.00     0.131 A 
ATOM     73  C   UNL     1      -2.018  10.623  -4.867  1.00  0.00     0.055 A 
ATOM     74  C   UNL     1      -1.391   9.512  -2.854  1.00  0.00     0.041 A 
ATOM     75  F   UNL     1      -2.629   7.772  -2.015  1.00  0.00    -0.206 F 
ATOM     76  C   UNL     1      -1.104  10.444  -3.835  1.00  0.00     0.022 A 
BRANCH  73  77
ATOM     77  S   UNL     1      -1.599  11.696  -6.266  1.00  0.00     0.124 S 
ATOM     78  O   UNL     1      -1.730  10.779  -7.393  1.00  0.00    -0.237 OA
ATOM     79  O   UNL     1      -2.615  12.737  -6.160  1.00  0.00    -0.237 OA
ATOM     80  O   UNL     1      -0.234  12.124  -5.967  1.00  0.00    -0.744 OA
ENDBRANCH  73  77
ENDBRANCH  56  70
BRANCH  57  81
ATOM     81  C   UNL     1      -0.424   0.949  -5.556  1.00  0.00     0.023 A 
ATOM     82  C   UNL     1       0.629   0.733  -6.473  1.00  0.00     0.031 A 
ATOM     83  C   UNL     1      -0.165   0.604  -4.208  1.00  0.00     0.131 A 
ATOM     84  C   UNL     1       1.865   0.194  -6.030  1.00  0.00     0.055 A 
ATOM     85  C   UNL     1       1.055   0.075  -3.779  1.00  0.00     0.041 A 
ATOM     86  F   UNL     1      -1.065   0.850  -3.243  1.00  0.00    -0.206 F 
ATOM     87  C   UNL     1       2.080  -0.124  -4.688  1.00  0.00     0.022 A 
BRANCH  84  88
ATOM     88  S   UNL     1       3.256  -0.035  -7.191  1.00  0.00     0.124 S 
ATOM     89  O   UNL     1       2.754  -1.082  -8.073  1.00  0.00    -0.237 OA
ATOM     90  O   UNL     1       3.399   1.294  -7.774  1.00  0.00    -0.237 OA
ATOM     91  O   UNL     1       4.362  -0.443  -6.322  1.00  0.00    -0.744 OA
ENDBRANCH  84  88
ENDBRANCH  57  81
BRANCH  69  92
ATOM     92  C   UNL     1      -5.028   4.068  -8.665  1.00  0.00     0.023 A 
ATOM     93  C   UNL     1      -5.492   2.784  -8.289  1.00  0.00     0.031 A 
ATOM     94  C   UNL     1      -5.521   4.608  -9.866  1.00  0.00     0.131 A 
ATOM     95  C   UNL     1      -6.415   2.097  -9.109  1.00  0.00     0.055 A 
ATOM     96  C   UNL     1      -6.449   3.937 -10.661  1.00  0.00     0.041 A 
ATOM     97  F   UNL     1      -5.139   5.833 -10.265  1.00  0.00    -0.206 F 
ATOM     98  C   UNL     1      -6.898   2.677 -10.286  1.00  0.00     0.022 A 
BRANCH  95  99
ATOM     99  S   UNL     1      -7.005   0.427  -8.667  1.00  0.00     0.124 S 
ATOM    100  O   UNL     1      -5.775  -0.304  -8.385  1.00  0.00    -0.237 OA
ATOM    101  O   UNL     1      -7.872   0.687  -7.521  1.00  0.00    -0.237 OA
ATOM    102  O   UNL     1      -7.711  -0.015  -9.872  1.00  0.00    -0.744 OA
ENDBRANCH  95  99
ENDBRANCH  69  92
ENDBRANCH  43  44
ENDBRANCH  35  38
ENDBRANCH  33  34
ENDBRANCH  32  33
ENDBRANCH  31  32
ENDBRANCH   1  31
TORSDOF 20
