REMARK SMILES COc1cccc(/C=C(/CC(=O)NCCCCCCNC(=O)c2ccc(-c3c4nc(c(-c5cc(S(=O)(=O)[O-])ccc5F)c5ccc([nH]5)c(-c5cc(S(=O)(=O)[O-])ccc5F)c5nc(c(-c6cc(S(=O)(=O)[O-])ccc6F)c6ccc3[nH]6)C=C5)C=C4)cc2)c2nc3ccccc3o2)c1
REMARK SMILES IDX 16 1 15 2 14 3 13 4 11 5 12 6 10 8 9 9 8 10 7 11 3 12 4 13
REMARK SMILES IDX 95 14 5 15 6 16 2 17 1 18 86 19 87 20 94 21 88 22 93 23
REMARK SMILES IDX 89 24 92 25 90 26 91 27 17 28 18 29 19 30 20 31 21 32 22 34
REMARK SMILES IDX 23 35 24 36 85 37 25 38 84 39 26 40 27 41 28 42 78 43 29 44
REMARK SMILES IDX 83 45 77 46 79 47 30 48 82 49 76 50 75 51 31 53 63 54 43 55
REMARK SMILES IDX 62 56 44 57 47 58 61 59 80 60 45 61 46 62 60 64 81 65 48 66
REMARK SMILES IDX 32 67 33 68 41 69 34 70 40 71 42 72 39 73 35 74 36 75 37 76
REMARK SMILES IDX 38 77 64 78 65 79 73 80 66 81 72 82 74 83 71 84 67 85 68 86
REMARK SMILES IDX 69 87 70 88 49 89 50 90 58 91 51 92 57 93 59 94 56 95 52 96
REMARK SMILES IDX 53 97 54 98 55 99
REMARK H PARENT 13 7 20 33 79 52 47 63
REMARK Flexibility Score: inf
ROOT
ATOM      1  C   UNL     1       5.516   6.904   0.857  1.00  0.00     0.002 C 
ENDROOT
BRANCH   1   2
ATOM      2  C   UNL     1       4.996   5.557   1.377  1.00  0.00     0.021 C 
BRANCH   2   3
ATOM      3  C   UNL     1       6.083   4.600   1.867  1.00  0.00     0.116 C 
BRANCH   3   4
ATOM      4  N   UNL     1       6.745   5.081   3.063  1.00  0.00    -0.356 N 
ATOM      5  C   UNL     1       6.653   4.633   4.349  1.00  0.00     0.224 C 
ATOM      6  O   UNL     1       7.375   5.153   5.204  1.00  0.00    -0.275 OA
ATOM      7  H   UNL     1       7.352   5.844   2.927  1.00  0.00     0.163 HD
BRANCH   5   8
ATOM      8  C   UNL     1       5.746   3.452   4.692  1.00  0.00     0.141 C 
BRANCH   8   9
ATOM      9  C   UNL     1       4.256   3.753   4.534  1.00  0.00     0.025 C 
ATOM     10  C   UNL     1       3.549   2.965   3.685  1.00  0.00     0.018 C 
BRANCH  10  11
ATOM     11  C   UNL     1       2.186   2.949   3.093  1.00  0.00    -0.021 A 
ATOM     12  C   UNL     1       0.726   1.952   1.385  1.00  0.00     0.119 A 
ATOM     13  C   UNL     1      -0.295   2.822   1.750  1.00  0.00     0.046 A 
ATOM     14  C   UNL     1       1.954   2.017   2.053  1.00  0.00     0.054 A 
ATOM     15  C   UNL     1      -0.098   3.735   2.779  1.00  0.00     0.004 A 
ATOM     16  C   UNL     1       1.136   3.803   3.435  1.00  0.00     0.008 A 
BRANCH  12  17
ATOM     17  O   UNL     1       0.427   1.131   0.335  1.00  0.00    -0.497 OA
ATOM     18  C   UNL     1       1.181  -0.069   0.220  1.00  0.00     0.278 C 
ENDBRANCH  12  17
ENDBRANCH  10  11
BRANCH   9  19
ATOM     19  C   UNL     1       3.689   4.861   5.247  1.00  0.00     0.223 A 
ATOM     20  N   UNL     1       4.272   6.049   5.361  1.00  0.00    -0.210 NA
ATOM     21  O   UNL     1       2.536   4.779   6.016  1.00  0.00    -0.436 OA
ATOM     22  C   UNL     1       3.478   6.773   6.203  1.00  0.00     0.110 A 
ATOM     23  C   UNL     1       2.395   6.009   6.584  1.00  0.00     0.155 A 
ATOM     24  C   UNL     1       3.605   8.077   6.696  1.00  0.00     0.032 A 
ATOM     25  C   UNL     1       1.367   6.452   7.406  1.00  0.00     0.049 A 
ATOM     26  C   UNL     1       2.594   8.562   7.540  1.00  0.00     0.003 A 
ATOM     27  C   UNL     1       1.491   7.766   7.877  1.00  0.00     0.004 A 
ENDBRANCH   9  19
ENDBRANCH   8   9
ENDBRANCH   5   8
ENDBRANCH   3   4
ENDBRANCH   2   3
ENDBRANCH   1   2
BRANCH   1  28
ATOM     28  C   UNL     1       6.568   6.826  -0.256  1.00  0.00     0.002 C 
BRANCH  28  29
ATOM     29  C   UNL     1       6.179   5.982  -1.472  1.00  0.00     0.021 C 
BRANCH  29  30
ATOM     30  C   UNL     1       4.944   6.471  -2.221  1.00  0.00     0.116 C 
BRANCH  30  31
ATOM     31  N   UNL     1       5.172   7.743  -2.889  1.00  0.00    -0.352 N 
ATOM     32  C   UNL     1       4.949   8.077  -4.205  1.00  0.00     0.251 C 
ATOM     33  H   UNL     1       5.535   8.462  -2.323  1.00  0.00     0.163 HD
ATOM     34  O   UNL     1       5.366   9.143  -4.649  1.00  0.00    -0.269 OA
BRANCH  32  35
ATOM     35  C   UNL     1       4.230   7.129  -5.083  1.00  0.00     0.039 A 
ATOM     36  C   UNL     1       4.763   6.819  -6.338  1.00  0.00     0.014 A 
ATOM     37  C   UNL     1       3.042   6.532  -4.655  1.00  0.00     0.014 A 
ATOM     38  C   UNL     1       4.140   5.853  -7.136  1.00  0.00     0.010 A 
ATOM     39  C   UNL     1       2.461   5.525  -5.421  1.00  0.00     0.010 A 
ATOM     40  C   UNL     1       3.005   5.173  -6.668  1.00  0.00    -0.014 A 
BRANCH  40  41
ATOM     41  C   UNL     1       2.338   4.106  -7.461  1.00  0.00     0.031 A 
ATOM     42  C   UNL     1       0.921   4.308  -7.923  1.00  0.00     0.074 A 
ATOM     43  C   UNL     1       2.960   2.930  -7.674  1.00  0.00     0.049 A 
ATOM     44  N   UNL     1       0.086   3.448  -8.445  1.00  0.00    -0.248 NA
ATOM     45  C   UNL     1       0.361   5.654  -7.733  1.00  0.00     0.031 C 
ATOM     46  C   UNL     1       4.328   2.607  -7.265  1.00  0.00     0.029 A 
ATOM     47  N   UNL     1       2.511   1.775  -8.267  1.00  0.00    -0.354 N 
ATOM     48  C   UNL     1      -1.109   4.139  -8.618  1.00  0.00     0.074 A 
ATOM     49  C   UNL     1      -0.899   5.474  -8.098  1.00  0.00     0.031 C 
ATOM     50  C   UNL     1       4.607   1.343  -7.621  1.00  0.00     0.029 A 
ATOM     51  C   UNL     1       3.424   0.745  -8.234  1.00  0.00     0.049 A 
ATOM     52  H   UNL     1       1.621   1.691  -8.678  1.00  0.00     0.167 HD
ATOM     53  C   UNL     1      -2.268   3.704  -9.172  1.00  0.00     0.034 A 
ATOM     54  C   UNL     1       3.311  -0.541  -8.625  1.00  0.00     0.034 A 
ATOM     55  C   UNL     1      -2.451   2.375  -9.702  1.00  0.00     0.049 A 
ATOM     56  C   UNL     1       2.005  -1.012  -9.217  1.00  0.00     0.074 A 
ATOM     57  C   UNL     1      -3.567   1.839 -10.322  1.00  0.00     0.029 A 
ATOM     58  N   UNL     1      -1.493   1.369  -9.674  1.00  0.00    -0.354 N 
ATOM     59  N   UNL     1       0.888  -0.344  -9.389  1.00  0.00    -0.248 NA
ATOM     60  C   UNL     1       1.946  -2.407  -9.673  1.00  0.00     0.031 C 
ATOM     61  C   UNL     1      -3.305   0.496 -10.614  1.00  0.00     0.029 A 
ATOM     62  C   UNL     1      -1.999   0.213 -10.246  1.00  0.00     0.049 A 
ATOM     63  H   UNL     1      -0.587   1.464  -9.301  1.00  0.00     0.167 HD
ATOM     64  C   UNL     1       0.010  -1.226 -10.013  1.00  0.00     0.074 A 
ATOM     65  C   UNL     1       0.725  -2.474 -10.184  1.00  0.00     0.031 C 
ATOM     66  C   UNL     1      -1.269  -1.020 -10.418  1.00  0.00     0.034 A 
BRANCH  53  67
ATOM     67  C   UNL     1      -3.430   4.668  -9.197  1.00  0.00     0.023 A 
ATOM     68  C   UNL     1      -3.371   5.878  -9.910  1.00  0.00     0.031 A 
ATOM     69  C   UNL     1      -4.600   4.392  -8.467  1.00  0.00     0.131 A 
ATOM     70  C   UNL     1      -4.421   6.802  -9.809  1.00  0.00     0.055 A 
ATOM     71  C   UNL     1      -5.679   5.278  -8.442  1.00  0.00     0.041 A 
ATOM     72  F   UNL     1      -4.709   3.262  -7.750  1.00  0.00    -0.206 F 
ATOM     73  C   UNL     1      -5.587   6.500  -9.102  1.00  0.00     0.022 A 
BRANCH  70  74
ATOM     74  S   UNL     1      -4.176   8.466 -10.489  1.00  0.00     0.124 S 
ATOM     75  O   UNL     1      -3.008   8.920  -9.739  1.00  0.00    -0.237 OA
ATOM     76  O   UNL     1      -3.960   8.199 -11.907  1.00  0.00    -0.237 OA
ATOM     77  O   UNL     1      -5.423   9.156 -10.166  1.00  0.00    -0.744 OA
ENDBRANCH  70  74
ENDBRANCH  53  67
BRANCH  54  78
ATOM     78  C   UNL     1       4.452  -1.486  -8.454  1.00  0.00     0.023 A 
ATOM     79  C   UNL     1       5.092  -2.052  -9.568  1.00  0.00     0.031 A 
ATOM     80  C   UNL     1       4.892  -1.871  -7.175  1.00  0.00     0.131 A 
ATOM     81  C   UNL     1       6.104  -3.007  -9.383  1.00  0.00     0.055 A 
ATOM     82  C   UNL     1       5.935  -2.781  -6.996  1.00  0.00     0.041 A 
ATOM     83  F   UNL     1       4.318  -1.356  -6.075  1.00  0.00    -0.206 F 
ATOM     84  C   UNL     1       6.538  -3.366  -8.105  1.00  0.00     0.022 A 
BRANCH  81  85
ATOM     85  S   UNL     1       6.787  -3.841 -10.842  1.00  0.00     0.124 S 
ATOM     86  O   UNL     1       5.593  -4.443 -11.425  1.00  0.00    -0.237 OA
ATOM     87  O   UNL     1       7.372  -2.727 -11.580  1.00  0.00    -0.237 OA
ATOM     88  O   UNL     1       7.748  -4.784 -10.275  1.00  0.00    -0.744 OA
ENDBRANCH  81  85
ENDBRANCH  54  78
BRANCH  66  89
ATOM     89  C   UNL     1      -1.951  -2.145 -11.156  1.00  0.00     0.023 A 
ATOM     90  C   UNL     1      -2.329  -3.337 -10.517  1.00  0.00     0.031 A 
ATOM     91  C   UNL     1      -2.242  -2.003 -12.525  1.00  0.00     0.131 A 
ATOM     92  C   UNL     1      -2.945  -4.359 -11.257  1.00  0.00     0.055 A 
ATOM     93  C   UNL     1      -2.900  -3.001 -13.244  1.00  0.00     0.041 A 
ATOM     94  F   UNL     1      -1.900  -0.884 -13.183  1.00  0.00    -0.206 F 
ATOM     95  C   UNL     1      -3.248  -4.191 -12.612  1.00  0.00     0.022 A 
BRANCH  92  96
ATOM     96  S   UNL     1      -3.295  -5.941 -10.442  1.00  0.00     0.124 S 
ATOM     97  O   UNL     1      -1.961  -6.378 -10.043  1.00  0.00    -0.237 OA
ATOM     98  O   UNL     1      -4.186  -5.544  -9.357  1.00  0.00    -0.237 OA
ATOM     99  O   UNL     1      -3.920  -6.739 -11.494  1.00  0.00    -0.744 OA
ENDBRANCH  92  96
ENDBRANCH  66  89
ENDBRANCH  40  41
ENDBRANCH  32  35
ENDBRANCH  30  31
ENDBRANCH  29  30
ENDBRANCH  28  29
ENDBRANCH   1  28
TORSDOF 20
