REMARK SMILES C[C@]12c3ccccc3[C@](C)(c3ccccc31)[C@@H]1C(=O)N(c3ccc(C(=O)NCCCCCCNC(=O)c4ccc(-c5c6nc(c(-c7cc(S(=O)(=O)[O-])ccc7F)c7ccc([nH]7)c(-c7cc(S(=O)(=O)[O-])ccc7F)c7nc(c(-c8cc(S(=O)(=O)[O-])ccc8F)c8ccc5[nH]8)C=C7)C=C6)cc4)cc3)C(=O)[C@H]12
REMARK SMILES IDX 31 1 30 2 29 3 28 4 27 5 25 6 26 7 24 9 21 10 22 11 101 12
REMARK SMILES IDX 23 13 100 14 20 15 1 16 2 17 16 18 3 19 104 20 15 21 11 22
REMARK SMILES IDX 8 23 4 24 17 25 102 26 14 27 12 28 9 29 7 30 5 31 18 32
REMARK SMILES IDX 103 33 13 34 10 35 6 36 19 37 32 38 33 39 34 40 35 41 36 43
REMARK SMILES IDX 37 44 38 45 99 46 39 47 98 48 40 49 41 50 42 51 92 52 43 53
REMARK SMILES IDX 97 54 91 55 93 56 44 57 96 58 90 59 89 60 45 62 77 63 57 64
REMARK SMILES IDX 76 65 58 66 61 67 75 68 94 69 59 70 60 71 74 73 95 74 62 75
REMARK SMILES IDX 46 76 47 77 55 78 48 79 54 80 56 81 53 82 49 83 50 84 51 85
REMARK SMILES IDX 52 86 78 87 79 88 87 89 80 90 86 91 88 92 85 93 81 94 82 95
REMARK SMILES IDX 83 96 84 97 63 98 64 99 72 100 65 101 71 102 73 103 70 104
REMARK SMILES IDX 66 105 67 106 68 107 69 108
REMARK H PARENT 27 8 34 42 93 61 61 72
REMARK Flexibility Score: inf
ROOT
ATOM      1  C   UNL     1      11.401   1.502   7.612  1.00  0.00     0.002 C 
ENDROOT
BRANCH   1   2
ATOM      2  C   UNL     1      11.255   0.794   6.263  1.00  0.00     0.002 C 
BRANCH   2   3
ATOM      3  C   UNL     1       9.824   0.538   5.783  1.00  0.00     0.021 C 
BRANCH   3   4
ATOM      4  C   UNL     1       8.896   1.749   5.748  1.00  0.00     0.116 C 
BRANCH   4   5
ATOM      5  N   UNL     1       9.352   2.803   4.859  1.00  0.00    -0.352 N 
ATOM      6  C   UNL     1       8.654   3.573   3.960  1.00  0.00     0.251 C 
ATOM      7  O   UNL     1       9.262   4.381   3.260  1.00  0.00    -0.269 OA
ATOM      8  H   UNL     1      10.316   2.997   4.908  1.00  0.00     0.163 HD
BRANCH   6   9
ATOM      9  C   UNL     1       7.193   3.401   3.766  1.00  0.00     0.039 A 
ATOM     10  C   UNL     1       4.486   2.825   3.248  1.00  0.00     0.052 A 
ATOM     11  C   UNL     1       5.365   3.123   2.199  1.00  0.00     0.027 A 
ATOM     12  C   UNL     1       4.956   2.922   4.565  1.00  0.00     0.027 A 
ATOM     13  C   UNL     1       6.705   3.427   2.456  1.00  0.00     0.016 A 
ATOM     14  C   UNL     1       6.300   3.214   4.823  1.00  0.00     0.016 A 
BRANCH  10  15
ATOM     15  N   UNL     1       3.174   2.371   2.986  1.00  0.00    -0.250 N 
ATOM     16  C   UNL     1       0.794   0.169  -0.169  1.00  0.00     0.022 C 
ATOM     17  C   UNL     1       0.335   0.589   1.226  1.00  0.00     0.030 C 
ATOM     18  C   UNL     1      -0.046  -0.579   2.172  1.00  0.00    -0.033 A 
ATOM     19  C   UNL     1      -0.924   1.515   1.244  1.00  0.00    -0.033 A 
ATOM     20  C   UNL     1       1.332   1.560   1.904  1.00  0.00     0.108 C 
ATOM     21  C   UNL     1      -0.007  -1.935   1.863  1.00  0.00     0.005 A 
ATOM     22  C   UNL     1      -0.540  -0.160   3.457  1.00  0.00    -0.033 A 
ATOM     23  C   UNL     1      -1.250   2.004   2.558  1.00  0.00    -0.033 A 
ATOM     24  C   UNL     1      -1.661   1.919   0.135  1.00  0.00     0.005 A 
ATOM     25  C   UNL     1       1.106   1.521   3.416  1.00  0.00     0.108 C 
ATOM     26  C   UNL     1       2.826   1.590   1.873  1.00  0.00     0.238 C 
ATOM     27  C   UNL     1      -0.468  -2.863   2.801  1.00  0.00     0.000 A 
ATOM     28  C   UNL     1      -1.012  -1.095   4.375  1.00  0.00     0.005 A 
ATOM     29  C   UNL     1      -0.408   1.378   3.699  1.00  0.00     0.030 C 
ATOM     30  C   UNL     1      -2.295   2.909   2.714  1.00  0.00     0.005 A 
ATOM     31  C   UNL     1      -2.709   2.822   0.316  1.00  0.00     0.000 A 
ATOM     32  C   UNL     1       2.084   2.564   3.844  1.00  0.00     0.238 C 
ATOM     33  O   UNL     1       3.529   1.109   1.002  1.00  0.00    -0.274 OA
ATOM     34  C   UNL     1      -0.976  -2.447   4.038  1.00  0.00     0.000 A 
ATOM     35  C   UNL     1      -0.771   1.835   5.110  1.00  0.00     0.022 C 
ATOM     36  C   UNL     1      -3.016   3.318   1.589  1.00  0.00     0.000 A 
ATOM     37  O   UNL     1       1.964   3.319   4.795  1.00  0.00    -0.274 OA
ENDBRANCH  10  15
ENDBRANCH   6   9
ENDBRANCH   4   5
ENDBRANCH   3   4
ENDBRANCH   2   3
ENDBRANCH   1   2
BRANCH   1  38
ATOM     38  C   UNL     1      10.634   0.883   8.779  1.00  0.00     0.021 C 
BRANCH  38  39
ATOM     39  C   UNL     1      10.898  -0.596   9.027  1.00  0.00     0.116 C 
BRANCH  39  40
ATOM     40  N   UNL     1      12.279  -0.881   9.382  1.00  0.00    -0.352 N 
ATOM     41  C   UNL     1      12.769  -1.623  10.434  1.00  0.00     0.251 C 
ATOM     42  H   UNL     1      12.959  -0.490   8.787  1.00  0.00     0.163 HD
ATOM     43  O   UNL     1      13.975  -1.649  10.659  1.00  0.00    -0.269 OA
BRANCH  41  44
ATOM     44  C   UNL     1      11.825  -2.347  11.316  1.00  0.00     0.039 A 
ATOM     45  C   UNL     1      10.762  -3.069  10.772  1.00  0.00     0.014 A 
ATOM     46  C   UNL     1      11.970  -2.252  12.702  1.00  0.00     0.014 A 
ATOM     47  C   UNL     1       9.740  -3.514  11.601  1.00  0.00     0.010 A 
ATOM     48  C   UNL     1      10.992  -2.798  13.540  1.00  0.00     0.010 A 
ATOM     49  C   UNL     1       9.837  -3.379  12.996  1.00  0.00    -0.014 A 
BRANCH  49  50
ATOM     50  C   UNL     1       8.715  -3.850  13.855  1.00  0.00     0.031 A 
ATOM     51  C   UNL     1       7.951  -2.891  14.730  1.00  0.00     0.074 A 
ATOM     52  C   UNL     1       8.345  -5.144  13.799  1.00  0.00     0.049 A 
ATOM     53  N   UNL     1       6.928  -3.128  15.513  1.00  0.00    -0.248 NA
ATOM     54  C   UNL     1       8.391  -1.487  14.735  1.00  0.00     0.031 C 
ATOM     55  C   UNL     1       9.010  -6.164  12.987  1.00  0.00     0.029 A 
ATOM     56  N   UNL     1       7.318  -5.821  14.409  1.00  0.00    -0.354 N 
ATOM     57  C   UNL     1       6.607  -1.910  16.105  1.00  0.00     0.074 A 
ATOM     58  C   UNL     1       7.580  -0.949  15.635  1.00  0.00     0.031 C 
ATOM     59  C   UNL     1       8.344  -7.319  13.104  1.00  0.00     0.029 A 
ATOM     60  C   UNL     1       7.256  -7.151  14.063  1.00  0.00     0.049 A 
ATOM     61  H   UNL     1       6.687  -5.396  15.033  1.00  0.00     0.167 HD
ATOM     62  C   UNL     1       5.582  -1.618  16.942  1.00  0.00     0.034 A 
ATOM     63  C   UNL     1       6.434  -8.136  14.480  1.00  0.00     0.034 A 
ATOM     64  C   UNL     1       4.619  -2.590  17.398  1.00  0.00     0.049 A 
ATOM     65  C   UNL     1       5.329  -7.801  15.445  1.00  0.00     0.074 A 
ATOM     66  C   UNL     1       3.540  -2.392  18.241  1.00  0.00     0.029 A 
ATOM     67  N   UNL     1       4.609  -3.935  17.051  1.00  0.00    -0.354 N 
ATOM     68  N   UNL     1       5.019  -6.638  15.966  1.00  0.00    -0.248 NA
ATOM     69  C   UNL     1       4.456  -8.902  15.873  1.00  0.00     0.031 C 
ATOM     70  C   UNL     1       2.925  -3.624  18.462  1.00  0.00     0.029 A 
ATOM     71  C   UNL     1       3.557  -4.580  17.683  1.00  0.00     0.049 A 
ATOM     72  H   UNL     1       5.254  -4.367  16.445  1.00  0.00     0.167 HD
ATOM     73  C   UNL     1       3.904  -6.861  16.768  1.00  0.00     0.074 A 
ATOM     74  C   UNL     1       3.578  -8.266  16.639  1.00  0.00     0.031 C 
ATOM     75  C   UNL     1       3.222  -5.980  17.544  1.00  0.00     0.034 A 
BRANCH  62  76
ATOM     76  C   UNL     1       5.419  -0.191  17.417  1.00  0.00     0.023 A 
ATOM     77  C   UNL     1       5.465   0.109  18.792  1.00  0.00     0.031 A 
ATOM     78  C   UNL     1       5.093   0.848  16.525  1.00  0.00     0.131 A 
ATOM     79  C   UNL     1       5.152   1.401  19.236  1.00  0.00     0.055 A 
ATOM     80  C   UNL     1       4.835   2.146  16.969  1.00  0.00     0.041 A 
ATOM     81  F   UNL     1       5.029   0.618  15.203  1.00  0.00    -0.206 F 
ATOM     82  C   UNL     1       4.849   2.423  18.332  1.00  0.00     0.022 A 
BRANCH  79  83
ATOM     83  S   UNL     1       5.047   1.788  21.006  1.00  0.00     0.124 S 
ATOM     84  O   UNL     1       6.053   2.838  21.142  1.00  0.00    -0.237 OA
ATOM     85  O   UNL     1       3.662   2.230  21.139  1.00  0.00    -0.237 OA
ATOM     86  O   UNL     1       5.373   0.526  21.661  1.00  0.00    -0.744 OA
ENDBRANCH  79  83
ENDBRANCH  62  76
BRANCH  63  87
ATOM     87  C   UNL     1       6.632  -9.510  13.931  1.00  0.00     0.023 A 
ATOM     88  C   UNL     1       7.854 -10.184  14.118  1.00  0.00     0.031 A 
ATOM     89  C   UNL     1       5.675 -10.100  13.089  1.00  0.00     0.131 A 
ATOM     90  C   UNL     1       8.125 -11.351  13.393  1.00  0.00     0.055 A 
ATOM     91  C   UNL     1       5.917 -11.310  12.436  1.00  0.00     0.041 A 
ATOM     92  F   UNL     1       4.500  -9.490  12.868  1.00  0.00    -0.206 F 
ATOM     93  C   UNL     1       7.157 -11.929  12.568  1.00  0.00     0.022 A 
BRANCH  90  94
ATOM     94  S   UNL     1       9.797 -12.057  13.366  1.00  0.00     0.124 S 
ATOM     95  O   UNL     1       9.560 -13.420  13.829  1.00  0.00    -0.237 OA
ATOM     96  O   UNL     1      10.151 -11.921  11.955  1.00  0.00    -0.237 OA
ATOM     97  O   UNL     1      10.547 -11.201  14.279  1.00  0.00    -0.744 OA
ENDBRANCH  90  94
ENDBRANCH  63  87
BRANCH  75  98
ATOM     98  C   UNL     1       2.027  -6.474  18.328  1.00  0.00     0.023 A 
ATOM     99  C   UNL     1       0.757  -5.909  18.099  1.00  0.00     0.031 A 
ATOM    100  C   UNL     1       2.170  -7.369  19.403  1.00  0.00     0.131 A 
ATOM    101  C   UNL     1      -0.304  -6.200  18.965  1.00  0.00     0.055 A 
ATOM    102  C   UNL     1       1.093  -7.703  20.227  1.00  0.00     0.041 A 
ATOM    103  F   UNL     1       3.361  -7.926  19.674  1.00  0.00    -0.206 F 
ATOM    104  C   UNL     1      -0.146  -7.103  20.021  1.00  0.00     0.022 A 
BRANCH 101 105
ATOM    105  S   UNL     1      -1.895  -5.339  18.820  1.00  0.00     0.124 S 
ATOM    106  O   UNL     1      -2.819  -6.447  18.591  1.00  0.00    -0.237 OA
ATOM    107  O   UNL     1      -2.010  -4.688  20.122  1.00  0.00    -0.237 OA
ATOM    108  O   UNL     1      -1.707  -4.442  17.684  1.00  0.00    -0.744 OA
ENDBRANCH 101 105
ENDBRANCH  75  98
ENDBRANCH  49  50
ENDBRANCH  41  44
ENDBRANCH  39  40
ENDBRANCH  38  39
ENDBRANCH   1  38
TORSDOF 17
