REMARK SMILES C[NH2+][C@]1(C(=O)NCCCCCCNC(=O)c2ccc(-c3c4nc(c(-c5cc(S(=O)(=O)[O-])ccc5F)c5ccc([nH]5)c(-c5cc(S(=O)(=O)[O-])ccc5F)c5nc(c(-c6cc(S(=O)(=O)[O-])ccc6F)c6ccc3[nH]6)C=C5)C=C4)cc2)CCC[C@@H](Sc2nccn2C)C1
REMARK SMILES IDX 10 1 9 2 8 3 7 4 6 5 4 6 5 7 3 9 79 10 90 11 80 12 82 13
REMARK SMILES IDX 81 14 2 15 1 16 83 19 84 20 85 21 88 22 86 23 87 24 89 25
REMARK SMILES IDX 11 26 12 27 13 28 14 29 15 31 16 32 17 33 78 34 18 35 77 36
REMARK SMILES IDX 19 37 20 38 21 39 71 40 22 41 76 42 70 43 72 44 23 45 75 46
REMARK SMILES IDX 69 47 68 48 24 50 56 51 36 52 55 53 37 54 40 55 54 56 73 57
REMARK SMILES IDX 38 58 39 59 53 61 74 62 41 63 25 64 26 65 34 66 27 67 33 68
REMARK SMILES IDX 35 69 32 70 28 71 29 72 30 73 31 74 57 75 58 76 66 77 59 78
REMARK SMILES IDX 65 79 67 80 64 81 60 82 61 83 62 84 63 85 42 86 43 87 51 88
REMARK SMILES IDX 44 89 50 90 52 91 49 92 45 93 46 94 47 95 48 96
REMARK H PARENT 6 8 2 17 2 18 13 30 72 49 40 60
REMARK Flexibility Score: inf
ROOT
ATOM      1  C   UNL     1       3.125  -2.973   3.679  1.00  0.00     0.002 C 
ENDROOT
BRANCH   1   2
ATOM      2  C   UNL     1       2.541  -3.677   2.449  1.00  0.00     0.002 C 
BRANCH   2   3
ATOM      3  C   UNL     1       1.043  -3.434   2.230  1.00  0.00     0.021 C 
BRANCH   3   4
ATOM      4  C   UNL     1       0.710  -1.968   1.954  1.00  0.00     0.116 C 
BRANCH   4   5
ATOM      5  N   UNL     1       1.034  -1.641   0.576  1.00  0.00    -0.351 N 
ATOM      6  C   UNL     1       0.254  -1.500  -0.530  1.00  0.00     0.281 C 
ATOM      7  O   UNL     1       0.854  -1.318  -1.599  1.00  0.00    -0.268 OA
ATOM      8  H   UNL     1       1.994  -1.496   0.413  1.00  0.00     0.163 HD
BRANCH   6   9
ATOM      9  C   UNL     1      -1.317  -1.456  -0.469  1.00  0.00     0.176 C 
ATOM     10  C   UNL     1      -1.953  -2.713   0.175  1.00  0.00     0.079 C 
ATOM     11  C   UNL     1      -1.694  -0.161   0.302  1.00  0.00     0.094 C 
ATOM     12  C   UNL     1      -3.444  -2.558   0.473  1.00  0.00     0.008 C 
ATOM     13  C   UNL     1      -3.189  -0.060   0.615  1.00  0.00     0.061 C 
ATOM     14  C   UNL     1      -3.712  -1.315   1.318  1.00  0.00     0.015 C 
BRANCH   9  15
ATOM     15  N   UNL     1      -1.829  -1.231  -1.867  1.00  0.00    -0.336 N 
ATOM     16  C   UNL     1      -1.880  -2.423  -2.707  1.00  0.00     0.331 C 
ATOM     17  H   UNL     1      -2.774  -0.851  -1.800  1.00  0.00     0.346 HD
ATOM     18  H   UNL     1      -1.167  -0.597  -2.313  1.00  0.00     0.346 HD
ENDBRANCH   9  15
BRANCH  13  19
ATOM     19  S   UNL     1      -3.610   1.468   1.537  1.00  0.00    -0.084 SA
BRANCH  19  20
ATOM     20  C   UNL     1      -2.879   1.206   3.084  1.00  0.00     0.167 A 
ATOM     21  N   UNL     1      -1.586   1.105   3.298  1.00  0.00    -0.231 NA
ATOM     22  N   UNL     1      -3.589   1.126   4.252  1.00  0.00    -0.329 N 
ATOM     23  C   UNL     1      -1.450   0.970   4.655  1.00  0.00     0.132 A 
ATOM     24  C   UNL     1      -2.680   0.974   5.269  1.00  0.00     0.108 A 
ATOM     25  C   UNL     1      -5.016   1.169   4.455  1.00  0.00     0.152 C 
ENDBRANCH  19  20
ENDBRANCH  13  19
ENDBRANCH   6   9
ENDBRANCH   4   5
ENDBRANCH   3   4
ENDBRANCH   2   3
ENDBRANCH   1   2
BRANCH   1  26
ATOM     26  C   UNL     1       2.412  -3.287   4.997  1.00  0.00     0.021 C 
BRANCH  26  27
ATOM     27  C   UNL     1       2.418  -4.766   5.373  1.00  0.00     0.116 C 
BRANCH  27  28
ATOM     28  N   UNL     1       3.769  -5.249   5.607  1.00  0.00    -0.352 N 
ATOM     29  C   UNL     1       4.297  -5.835   6.731  1.00  0.00     0.251 C 
ATOM     30  H   UNL     1       4.394  -5.141   4.854  1.00  0.00     0.163 HD
ATOM     31  O   UNL     1       5.513  -5.944   6.849  1.00  0.00    -0.269 OA
BRANCH  29  32
ATOM     32  C   UNL     1       3.392  -6.317   7.797  1.00  0.00     0.039 A 
ATOM     33  C   UNL     1       3.713  -6.054   9.130  1.00  0.00     0.014 A 
ATOM     34  C   UNL     1       2.235  -7.035   7.479  1.00  0.00     0.014 A 
ATOM     35  C   UNL     1       2.844  -6.465  10.143  1.00  0.00     0.010 A 
ATOM     36  C   UNL     1       1.335  -7.379   8.483  1.00  0.00     0.010 A 
ATOM     37  C   UNL     1       1.633  -7.103   9.826  1.00  0.00    -0.014 A 
BRANCH  37  38
ATOM     38  C   UNL     1       0.669  -7.494  10.888  1.00  0.00     0.031 A 
ATOM     39  C   UNL     1       0.344  -8.946  11.114  1.00  0.00     0.074 A 
ATOM     40  C   UNL     1       0.046  -6.539  11.606  1.00  0.00     0.049 A 
ATOM     41  N   UNL     1      -0.520  -9.482  11.937  1.00  0.00    -0.248 NA
ATOM     42  C   UNL     1       1.064  -9.921  10.280  1.00  0.00     0.031 C 
ATOM     43  C   UNL     1       0.252  -5.097  11.450  1.00  0.00     0.029 A 
ATOM     44  N   UNL     1      -0.892  -6.632  12.603  1.00  0.00    -0.354 N 
ATOM     45  C   UNL     1      -0.457 -10.854  11.713  1.00  0.00     0.074 A 
ATOM     46  C   UNL     1       0.485 -11.058  10.633  1.00  0.00     0.031 C 
ATOM     47  C   UNL     1      -0.517  -4.444  12.336  1.00  0.00     0.029 A 
ATOM     48  C   UNL     1      -1.307  -5.413  13.088  1.00  0.00     0.049 A 
ATOM     49  H   UNL     1      -1.236  -7.491  12.940  1.00  0.00     0.167 HD
ATOM     50  C   UNL     1      -1.109 -11.850  12.362  1.00  0.00     0.034 A 
ATOM     51  C   UNL     1      -2.230  -5.109  14.023  1.00  0.00     0.034 A 
ATOM     52  C   UNL     1      -2.036 -11.626  13.445  1.00  0.00     0.049 A 
ATOM     53  C   UNL     1      -2.959  -6.233  14.716  1.00  0.00     0.074 A 
ATOM     54  C   UNL     1      -2.706 -12.563  14.213  1.00  0.00     0.029 A 
ATOM     55  N   UNL     1      -2.433 -10.378  13.910  1.00  0.00    -0.354 N 
ATOM     56  N   UNL     1      -2.850  -7.528  14.528  1.00  0.00    -0.248 NA
ATOM     57  C   UNL     1      -3.926  -5.854  15.754  1.00  0.00     0.031 C 
ATOM     58  C   UNL     1      -3.563 -11.884  15.086  1.00  0.00     0.029 A 
ATOM     59  C   UNL     1      -3.365 -10.521  14.927  1.00  0.00     0.049 A 
ATOM     60  H   UNL     1      -2.101  -9.517  13.567  1.00  0.00     0.167 HD
ATOM     61  C   UNL     1      -3.713  -8.119  15.448  1.00  0.00     0.074 A 
ATOM     62  C   UNL     1      -4.321  -7.038  16.198  1.00  0.00     0.031 C 
ATOM     63  C   UNL     1      -3.975  -9.434  15.657  1.00  0.00     0.034 A 
BRANCH  50  64
ATOM     64  C   UNL     1      -0.863 -13.266  11.896  1.00  0.00     0.023 A 
ATOM     65  C   UNL     1       0.411 -13.858  11.961  1.00  0.00     0.031 A 
ATOM     66  C   UNL     1      -1.913 -14.031  11.358  1.00  0.00     0.131 A 
ATOM     67  C   UNL     1       0.618 -15.140  11.430  1.00  0.00     0.055 A 
ATOM     68  C   UNL     1      -1.719 -15.339  10.910  1.00  0.00     0.041 A 
ATOM     69  F   UNL     1      -3.148 -13.515  11.248  1.00  0.00    -0.206 F 
ATOM     70  C   UNL     1      -0.444 -15.896  10.930  1.00  0.00     0.022 A 
BRANCH  67  71
ATOM     71  S   UNL     1       2.320 -15.747  11.268  1.00  0.00     0.124 S 
ATOM     72  O   UNL     1       2.920 -14.717  10.423  1.00  0.00    -0.237 OA
ATOM     73  O   UNL     1       2.775 -15.783  12.653  1.00  0.00    -0.237 OA
ATOM     74  O   UNL     1       2.159 -17.051  10.629  1.00  0.00    -0.744 OA
ENDBRANCH  67  71
ENDBRANCH  50  64
BRANCH  51  75
ATOM     75  C   UNL     1      -2.530  -3.686  14.351  1.00  0.00     0.023 A 
ATOM     76  C   UNL     1      -2.270  -3.165  15.629  1.00  0.00     0.031 A 
ATOM     77  C   UNL     1      -3.118  -2.832  13.400  1.00  0.00     0.131 A 
ATOM     78  C   UNL     1      -2.638  -1.846  15.935  1.00  0.00     0.055 A 
ATOM     79  C   UNL     1      -3.431  -1.504  13.693  1.00  0.00     0.041 A 
ATOM     80  F   UNL     1      -3.385  -3.277  12.161  1.00  0.00    -0.206 F 
ATOM     81  C   UNL     1      -3.203  -1.007  14.972  1.00  0.00     0.022 A 
BRANCH  78  82
ATOM     82  S   UNL     1      -2.448  -1.265  17.643  1.00  0.00     0.124 S 
ATOM     83  O   UNL     1      -3.264  -2.226  18.375  1.00  0.00    -0.237 OA
ATOM     84  O   UNL     1      -1.005  -1.366  17.838  1.00  0.00    -0.237 OA
ATOM     85  O   UNL     1      -2.975   0.097  17.599  1.00  0.00    -0.744 OA
ENDBRANCH  78  82
ENDBRANCH  51  75
BRANCH  63  86
ATOM     86  C   UNL     1      -4.932  -9.775  16.775  1.00  0.00     0.023 A 
ATOM     87  C   UNL     1      -6.291  -9.420  16.722  1.00  0.00     0.031 A 
ATOM     88  C   UNL     1      -4.471 -10.459  17.915  1.00  0.00     0.131 A 
ATOM     89  C   UNL     1      -7.129  -9.698  17.813  1.00  0.00     0.055 A 
ATOM     90  C   UNL     1      -5.324 -10.791  18.968  1.00  0.00     0.041 A 
ATOM     91  F   UNL     1      -3.182 -10.819  18.021  1.00  0.00    -0.206 F 
ATOM     92  C   UNL     1      -6.658 -10.399  18.927  1.00  0.00     0.022 A 
BRANCH  89  93
ATOM     93  S   UNL     1      -8.821  -9.045  17.800  1.00  0.00     0.124 S 
ATOM     94  O   UNL     1      -8.590  -7.610  17.666  1.00  0.00    -0.237 OA
ATOM     95  O   UNL     1      -9.403  -9.708  16.639  1.00  0.00    -0.237 OA
ATOM     96  O   UNL     1      -9.362  -9.467  19.091  1.00  0.00    -0.744 OA
ENDBRANCH  89  93
ENDBRANCH  63  86
ENDBRANCH  37  38
ENDBRANCH  29  32
ENDBRANCH  27  28
ENDBRANCH  26  27
ENDBRANCH   1  26
TORSDOF 19
