REMARK SMILES Cc1cc(N2CC[NH+]([C@@H](C(=O)NCCCCCCNC(=O)c3ccc(-c4c5nc(c(-c6cc(S(=O)(=O)[O-])ccc6F)c6ccc([nH]6)c(-c6cc(S(=O)(=O)[O-])ccc6F)c6nc(c(-c7cc(S(=O)(=O)[O-])ccc7F)c7ccc4[nH]7)C=C6)C=C5)cc3)c3c[nH]c4ccccc34)CC2)nc2ccccc12
REMARK SMILES IDX 16 1 15 2 14 3 13 4 12 5 10 6 11 7 9 9 8 10 5 11 6 12 95 13
REMARK SMILES IDX 7 14 94 15 4 17 1 18 2 19 3 20 102 21 97 22 101 23 96 24
REMARK SMILES IDX 98 25 100 26 99 27 85 28 86 29 93 30 87 31 88 32 92 33 89 35
REMARK SMILES IDX 91 36 90 37 17 38 18 39 19 40 20 41 21 43 22 44 23 45 84 46
REMARK SMILES IDX 24 47 83 48 25 49 26 50 27 51 77 52 28 53 82 54 76 55 78 56
REMARK SMILES IDX 29 57 81 58 75 59 74 60 30 62 62 63 42 64 61 65 43 66 46 67
REMARK SMILES IDX 60 68 79 69 44 70 45 71 59 73 80 74 47 75 31 76 32 77 40 78
REMARK SMILES IDX 33 79 39 80 41 81 38 82 34 83 35 84 36 85 37 86 63 87 64 88
REMARK SMILES IDX 72 89 65 90 71 91 73 92 70 93 66 94 67 95 68 96 69 97 48 98
REMARK SMILES IDX 49 99 57 100 50 101 56 102 58 103 55 104 51 105 52 106
REMARK SMILES IDX 53 107 54 108
REMARK H PARENT 12 8 8 16 87 34 19 42 78 61 46 72
REMARK Flexibility Score: inf
ROOT
ATOM      1  C   UNL     1      -2.436  -1.610  -4.867  1.00  0.00     0.002 C 
ENDROOT
BRANCH   1   2
ATOM      2  C   UNL     1      -2.780  -2.094  -3.455  1.00  0.00     0.002 C 
BRANCH   2   3
ATOM      3  C   UNL     1      -4.228  -2.591  -3.274  1.00  0.00     0.021 C 
BRANCH   3   4
ATOM      4  C   UNL     1      -4.424  -4.090  -2.888  1.00  0.00     0.116 C 
BRANCH   4   5
ATOM      5  N   UNL     1      -3.399  -4.688  -2.018  1.00  0.00    -0.351 N 
ATOM      6  C   UNL     1      -3.280  -5.180  -0.735  1.00  0.00     0.283 C 
ATOM      7  O   UNL     1      -2.184  -5.717  -0.521  1.00  0.00    -0.268 OA
ATOM      8  H   UNL     1      -2.541  -4.758  -2.495  1.00  0.00     0.163 HD
BRANCH   6   9
ATOM      9  C   UNL     1      -4.414  -5.178   0.341  1.00  0.00     0.307 C 
BRANCH   9  10
ATOM     10  N   UNL     1      -4.862  -3.866   0.949  1.00  0.00    -0.318 N 
ATOM     11  N   UNL     1      -2.860  -1.737   1.085  1.00  0.00    -0.345 N 
ATOM     12  C   UNL     1      -2.777  -2.849   2.019  1.00  0.00     0.179 C 
ATOM     13  C   UNL     1      -3.517  -2.047  -0.184  1.00  0.00     0.179 C 
ATOM     14  C   UNL     1      -4.223  -3.345   2.179  1.00  0.00     0.284 C 
ATOM     15  C   UNL     1      -4.892  -2.724   0.036  1.00  0.00     0.284 C 
ATOM     16  H   UNL     1      -5.786  -4.215   1.204  1.00  0.00     0.349 HD
BRANCH  11  17
ATOM     17  C   UNL     1      -1.775  -0.896   0.913  1.00  0.00     0.129 A 
ATOM     18  C   UNL     1      -1.474   2.738  -0.006  1.00  0.00     0.045 C 
ATOM     19  C   UNL     1      -1.074   1.325   0.302  1.00  0.00    -0.038 A 
ATOM     20  C   UNL     1      -2.072   0.439   0.678  1.00  0.00     0.051 A 
ATOM     21  C   UNL     1       0.244   0.841   0.221  1.00  0.00     0.003 A 
ATOM     22  C   UNL     1       0.460  -0.536   0.481  1.00  0.00     0.073 A 
ATOM     23  C   UNL     1       1.339   1.662  -0.113  1.00  0.00     0.010 A 
ATOM     24  N   UNL     1      -0.526  -1.382   0.830  1.00  0.00    -0.231 NA
ATOM     25  C   UNL     1       1.748  -1.038   0.344  1.00  0.00     0.029 A 
ATOM     26  C   UNL     1       2.623   1.135  -0.218  1.00  0.00     0.001 A 
ATOM     27  C   UNL     1       2.827  -0.221  -0.003  1.00  0.00     0.002 A 
ENDBRANCH  11  17
ENDBRANCH   9  10
BRANCH   9  28
ATOM     28  C   UNL     1      -4.256  -6.254   1.471  1.00  0.00     0.044 A 
ATOM     29  C   UNL     1      -5.353  -6.836   2.113  1.00  0.00     0.094 A 
ATOM     30  C   UNL     1      -3.235  -6.370   2.496  1.00  0.00     0.009 A 
ATOM     31  N   UNL     1      -5.272  -6.250   3.368  1.00  0.00    -0.361 N 
ATOM     32  C   UNL     1      -3.936  -6.130   3.690  1.00  0.00     0.046 A 
ATOM     33  C   UNL     1      -1.828  -6.414   2.572  1.00  0.00     0.011 A 
ATOM     34  H   UNL     1      -6.032  -5.970   3.928  1.00  0.00     0.166 HD
ATOM     35  C   UNL     1      -3.317  -5.682   4.864  1.00  0.00     0.026 A 
ATOM     36  C   UNL     1      -1.191  -6.125   3.792  1.00  0.00     0.001 A 
ATOM     37  C   UNL     1      -1.923  -5.683   4.892  1.00  0.00     0.002 A 
ENDBRANCH   9  28
ENDBRANCH   6   9
ENDBRANCH   4   5
ENDBRANCH   3   4
ENDBRANCH   2   3
ENDBRANCH   1   2
BRANCH   1  38
ATOM     38  C   UNL     1      -3.185  -0.360  -5.339  1.00  0.00     0.021 C 
BRANCH  38  39
ATOM     39  C   UNL     1      -2.902   0.910  -4.537  1.00  0.00     0.116 C 
BRANCH  39  40
ATOM     40  N   UNL     1      -1.571   1.435  -4.803  1.00  0.00    -0.352 N 
ATOM     41  C   UNL     1      -1.218   2.573  -5.498  1.00  0.00     0.251 C 
ATOM     42  H   UNL     1      -0.824   0.909  -4.438  1.00  0.00     0.163 HD
ATOM     43  O   UNL     1      -0.069   2.736  -5.878  1.00  0.00    -0.269 OA
BRANCH  41  44
ATOM     44  C   UNL     1      -2.256   3.589  -5.786  1.00  0.00     0.039 A 
ATOM     45  C   UNL     1      -2.389   4.090  -7.083  1.00  0.00     0.014 A 
ATOM     46  C   UNL     1      -3.103   4.035  -4.767  1.00  0.00     0.014 A 
ATOM     47  C   UNL     1      -3.415   4.995  -7.370  1.00  0.00     0.010 A 
ATOM     48  C   UNL     1      -4.169   4.876  -5.072  1.00  0.00     0.010 A 
ATOM     49  C   UNL     1      -4.334   5.371  -6.375  1.00  0.00    -0.014 A 
BRANCH  49  50
ATOM     50  C   UNL     1      -5.468   6.285  -6.681  1.00  0.00     0.031 A 
ATOM     51  C   UNL     1      -5.567   7.622  -5.998  1.00  0.00     0.074 A 
ATOM     52  C   UNL     1      -6.442   5.884  -7.521  1.00  0.00     0.049 A 
ATOM     53  N   UNL     1      -6.502   8.534  -6.088  1.00  0.00    -0.248 NA
ATOM     54  C   UNL     1      -4.487   7.962  -5.061  1.00  0.00     0.031 C 
ATOM     55  C   UNL     1      -6.488   4.587  -8.199  1.00  0.00     0.029 A 
ATOM     56  N   UNL     1      -7.585   6.518  -7.940  1.00  0.00    -0.354 N 
ATOM     57  C   UNL     1      -6.132   9.546  -5.209  1.00  0.00     0.074 A 
ATOM     58  C   UNL     1      -4.926   9.098  -4.545  1.00  0.00     0.031 C 
ATOM     59  C   UNL     1      -7.590   4.529  -8.962  1.00  0.00     0.029 A 
ATOM     60  C   UNL     1      -8.354   5.761  -8.794  1.00  0.00     0.049 A 
ATOM     61  H   UNL     1      -7.832   7.427  -7.656  1.00  0.00     0.167 HD
ATOM     62  C   UNL     1      -6.730  10.745  -4.992  1.00  0.00     0.034 A 
ATOM     63  C   UNL     1      -9.549   6.018  -9.363  1.00  0.00     0.034 A 
ATOM     64  C   UNL     1      -7.933  11.169  -5.669  1.00  0.00     0.049 A 
ATOM     65  C   UNL     1     -10.209   7.347  -9.102  1.00  0.00     0.074 A 
ATOM     66  C   UNL     1      -8.582  12.389  -5.590  1.00  0.00     0.029 A 
ATOM     67  N   UNL     1      -8.683  10.379  -6.533  1.00  0.00    -0.354 N 
ATOM     68  N   UNL     1      -9.805   8.331  -8.330  1.00  0.00    -0.248 NA
ATOM     69  C   UNL     1     -11.475   7.606  -9.796  1.00  0.00     0.031 C 
ATOM     70  C   UNL     1      -9.768  12.304  -6.328  1.00  0.00     0.029 A 
ATOM     71  C   UNL     1      -9.814  11.066  -6.952  1.00  0.00     0.049 A 
ATOM     72  H   UNL     1      -8.447   9.463  -6.808  1.00  0.00     0.167 HD
ATOM     73  C   UNL     1     -10.760   9.335  -8.463  1.00  0.00     0.074 A 
ATOM     74  C   UNL     1     -11.748   8.842  -9.403  1.00  0.00     0.031 C 
ATOM     75  C   UNL     1     -10.811  10.556  -7.867  1.00  0.00     0.034 A 
BRANCH  62  76
ATOM     76  C   UNL     1      -6.109  11.652  -3.951  1.00  0.00     0.023 A 
ATOM     77  C   UNL     1      -4.781  12.105  -4.057  1.00  0.00     0.031 A 
ATOM     78  C   UNL     1      -6.835  12.023  -2.805  1.00  0.00     0.131 A 
ATOM     79  C   UNL     1      -4.190  12.802  -2.992  1.00  0.00     0.055 A 
ATOM     80  C   UNL     1      -6.271  12.806  -1.795  1.00  0.00     0.041 A 
ATOM     81  F   UNL     1      -8.100  11.608  -2.632  1.00  0.00    -0.206 F 
ATOM     82  C   UNL     1      -4.934  13.180  -1.873  1.00  0.00     0.022 A 
BRANCH  79  83
ATOM     83  S   UNL     1      -2.389  13.027  -3.003  1.00  0.00     0.124 S 
ATOM     84  O   UNL     1      -1.921  11.650  -3.147  1.00  0.00    -0.237 OA
ATOM     85  O   UNL     1      -2.187  13.895  -4.156  1.00  0.00    -0.237 OA
ATOM     86  O   UNL     1      -2.111  13.636  -1.704  1.00  0.00    -0.744 OA
ENDBRANCH  79  83
ENDBRANCH  62  76
BRANCH  63  87
ATOM     87  C   UNL     1     -10.203   4.982 -10.213  1.00  0.00     0.023 A 
ATOM     88  C   UNL     1     -10.386   5.171 -11.592  1.00  0.00     0.031 A 
ATOM     89  C   UNL     1     -10.648   3.773  -9.648  1.00  0.00     0.131 A 
ATOM     90  C   UNL     1     -11.019   4.175 -12.355  1.00  0.00     0.055 A 
ATOM     91  C   UNL     1     -11.232   2.767 -10.419  1.00  0.00     0.041 A 
ATOM     92  F   UNL     1     -10.492   3.540  -8.335  1.00  0.00    -0.206 F 
ATOM     93  C   UNL     1     -11.427   2.969 -11.781  1.00  0.00     0.022 A 
BRANCH  90  94
ATOM     94  S   UNL     1     -11.351   4.498 -14.109  1.00  0.00     0.124 S 
ATOM     95  O   UNL     1     -12.215   5.671 -14.037  1.00  0.00    -0.237 OA
ATOM     96  O   UNL     1     -10.009   4.719 -14.637  1.00  0.00    -0.237 OA
ATOM     97  O   UNL     1     -12.002   3.271 -14.563  1.00  0.00    -0.744 OA
ENDBRANCH  90  94
ENDBRANCH  63  87
BRANCH  75  98
ATOM     98  C   UNL     1     -11.965  11.457  -8.241  1.00  0.00     0.023 A 
ATOM     99  C   UNL     1     -13.295  11.132  -7.923  1.00  0.00     0.031 A 
ATOM    100  C   UNL     1     -11.728  12.660  -8.932  1.00  0.00     0.131 A 
ATOM    101  C   UNL     1     -14.341  11.968  -8.345  1.00  0.00     0.055 A 
ATOM    102  C   UNL     1     -12.766  13.522  -9.287  1.00  0.00     0.041 A 
ATOM    103  F   UNL     1     -10.480  13.020  -9.270  1.00  0.00    -0.206 F 
ATOM    104  C   UNL     1     -14.083  13.171  -9.007  1.00  0.00     0.022 A 
BRANCH 101 105
ATOM    105  S   UNL     1     -16.051  11.409  -8.114  1.00  0.00     0.124 S 
ATOM    106  O   UNL     1     -16.055  10.142  -8.838  1.00  0.00    -0.237 OA
ATOM    107  O   UNL     1     -16.155  11.315  -6.662  1.00  0.00    -0.237 OA
ATOM    108  O   UNL     1     -16.845  12.474  -8.725  1.00  0.00    -0.744 OA
ENDBRANCH 101 105
ENDBRANCH  75  98
ENDBRANCH  49  50
ENDBRANCH  41  44
ENDBRANCH  39  40
ENDBRANCH  38  39
ENDBRANCH   1  38
TORSDOF 19
