REMARK SMILES CC(C)[C@@H]([NH3+])C(=O)N[C@@H](Cc1ccccc1)C(=O)NCCCCCCNC(=O)c1ccc(-c2c3nc(c(-c4cc(S(=O)(=O)[O-])ccc4F)c4ccc([nH]4)c(-c4cc(S(=O)(=O)[O-])ccc4F)c4nc(c(-c5cc(S(=O)(=O)[O-])ccc5F)c5ccc2[nH]5)C=C4)C=C3)cc1
REMARK SMILES IDX 22 1 21 2 20 3 19 4 17 5 18 6 9 8 8 9 6 10 7 11 4 13 2 14
REMARK SMILES IDX 1 15 3 16 5 17 10 21 11 22 12 23 16 24 13 25 15 26 14 27
REMARK SMILES IDX 23 28 24 29 25 30 26 31 27 32 28 34 29 35 30 36 91 37 31 38
REMARK SMILES IDX 90 39 32 40 33 41 34 42 84 43 35 44 89 45 83 46 85 47 36 48
REMARK SMILES IDX 88 49 82 50 81 51 37 53 69 54 49 55 68 56 50 57 53 58 67 59
REMARK SMILES IDX 86 60 51 61 52 62 66 64 87 65 54 66 38 67 39 68 47 69 40 70
REMARK SMILES IDX 46 71 48 72 45 73 41 74 42 75 43 76 44 77 70 78 71 79 79 80
REMARK SMILES IDX 72 81 78 82 80 83 77 84 73 85 74 86 75 87 76 88 55 89 56 90
REMARK SMILES IDX 64 91 57 92 63 93 65 94 62 95 58 96 59 97 60 98 61 99
REMARK H PARENT 19 7 8 12 5 18 5 19 5 20 26 33 85 52 53 63
REMARK Flexibility Score: inf
ROOT
ATOM      1  C   UNL     1      -4.108  -5.069  -6.272  1.00  0.00     0.002 C 
ENDROOT
BRANCH   1   2
ATOM      2  C   UNL     1      -3.585  -5.032  -4.832  1.00  0.00     0.021 C 
BRANCH   2   3
ATOM      3  C   UNL     1      -2.193  -4.435  -4.686  1.00  0.00     0.116 C 
BRANCH   3   4
ATOM      4  N   UNL     1      -2.157  -2.994  -4.811  1.00  0.00    -0.354 N 
ATOM      5  C   UNL     1      -1.212  -2.114  -4.370  1.00  0.00     0.242 C 
ATOM      6  O   UNL     1      -1.071  -1.082  -5.040  1.00  0.00    -0.273 OA
ATOM      7  H   UNL     1      -2.923  -2.591  -5.281  1.00  0.00     0.163 HD
BRANCH   5   8
ATOM      8  C   UNL     1      -0.255  -2.406  -3.187  1.00  0.00     0.175 C 
BRANCH   8   9
ATOM      9  N   UNL     1      -0.862  -3.119  -2.058  1.00  0.00    -0.339 N 
ATOM     10  C   UNL     1      -1.348  -2.627  -0.885  1.00  0.00     0.279 C 
ATOM     11  O   UNL     1      -2.090  -3.352  -0.217  1.00  0.00    -0.268 OA
ATOM     12  H   UNL     1      -0.928  -4.096  -2.164  1.00  0.00     0.164 HD
BRANCH  10  13
ATOM     13  C   UNL     1      -0.938  -1.231  -0.359  1.00  0.00     0.273 C 
BRANCH  13  14
ATOM     14  C   UNL     1       0.593  -1.132  -0.134  1.00  0.00     0.051 C 
ATOM     15  C   UNL     1       1.025   0.242   0.385  1.00  0.00     0.014 C 
ATOM     16  C   UNL     1       1.075  -2.215   0.842  1.00  0.00     0.014 C 
ENDBRANCH  13  14
BRANCH  13  17
ATOM     17  N   UNL     1      -1.480  -0.189  -1.253  1.00  0.00    -0.347 N 
ATOM     18  H   UNL     1      -1.092  -0.308  -2.189  1.00  0.00     0.345 HD
ATOM     19  H   UNL     1      -1.226   0.732  -0.895  1.00  0.00     0.345 HD
ATOM     20  H   UNL     1      -2.496  -0.270  -1.293  1.00  0.00     0.345 HD
ENDBRANCH  13  17
ENDBRANCH  10  13
ENDBRANCH   8   9
BRANCH   8  21
ATOM     21  C   UNL     1       1.114  -2.975  -3.613  1.00  0.00     0.070 C 
BRANCH  21  22
ATOM     22  C   UNL     1       1.149  -4.384  -4.151  1.00  0.00    -0.045 A 
ATOM     23  C   UNL     1       0.998  -4.620  -5.524  1.00  0.00     0.004 A 
ATOM     24  C   UNL     1       1.343  -5.476  -3.294  1.00  0.00     0.004 A 
ATOM     25  C   UNL     1       0.981  -5.924  -6.023  1.00  0.00     0.000 A 
ATOM     26  C   UNL     1       1.345  -6.779  -3.798  1.00  0.00     0.000 A 
ATOM     27  C   UNL     1       1.148  -7.003  -5.159  1.00  0.00     0.000 A 
ENDBRANCH  21  22
ENDBRANCH   8  21
ENDBRANCH   5   8
ENDBRANCH   3   4
ENDBRANCH   2   3
ENDBRANCH   1   2
BRANCH   1  28
ATOM     28  C   UNL     1      -3.182  -5.722  -7.309  1.00  0.00     0.002 C 
BRANCH  28  29
ATOM     29  C   UNL     1      -2.655  -7.117  -6.956  1.00  0.00     0.021 C 
BRANCH  29  30
ATOM     30  C   UNL     1      -3.724  -8.165  -6.670  1.00  0.00     0.116 C 
BRANCH  30  31
ATOM     31  N   UNL     1      -4.639  -8.334  -7.783  1.00  0.00    -0.352 N 
ATOM     32  C   UNL     1      -5.076  -9.476  -8.404  1.00  0.00     0.251 C 
ATOM     33  H   UNL     1      -5.003  -7.497  -8.151  1.00  0.00     0.163 HD
ATOM     34  O   UNL     1      -5.708  -9.377  -9.452  1.00  0.00    -0.269 OA
BRANCH  32  35
ATOM     35  C   UNL     1      -4.777 -10.813  -7.839  1.00  0.00     0.039 A 
ATOM     36  C   UNL     1      -4.497 -11.858  -8.724  1.00  0.00     0.014 A 
ATOM     37  C   UNL     1      -4.812 -11.061  -6.463  1.00  0.00     0.014 A 
ATOM     38  C   UNL     1      -4.218 -13.133  -8.230  1.00  0.00     0.010 A 
ATOM     39  C   UNL     1      -4.453 -12.314  -5.967  1.00  0.00     0.010 A 
ATOM     40  C   UNL     1      -4.167 -13.369  -6.846  1.00  0.00    -0.014 A 
BRANCH  40  41
ATOM     41  C   UNL     1      -3.826 -14.719  -6.324  1.00  0.00     0.031 A 
ATOM     42  C   UNL     1      -4.836 -15.511  -5.536  1.00  0.00     0.074 A 
ATOM     43  C   UNL     1      -2.597 -15.223  -6.550  1.00  0.00     0.049 A 
ATOM     44  N   UNL     1      -4.729 -16.712  -5.026  1.00  0.00    -0.248 NA
ATOM     45  C   UNL     1      -6.125 -14.858  -5.264  1.00  0.00     0.031 C 
ATOM     46  C   UNL     1      -1.518 -14.526  -7.255  1.00  0.00     0.029 A 
ATOM     47  N   UNL     1      -2.047 -16.437  -6.224  1.00  0.00    -0.354 N 
ATOM     48  C   UNL     1      -5.932 -16.956  -4.370  1.00  0.00     0.074 A 
ATOM     49  C   UNL     1      -6.723 -15.750  -4.489  1.00  0.00     0.031 C 
ATOM     50  C   UNL     1      -0.455 -15.340  -7.346  1.00  0.00     0.029 A 
ATOM     51  C   UNL     1      -0.756 -16.598  -6.672  1.00  0.00     0.049 A 
ATOM     52  H   UNL     1      -2.531 -17.128  -5.716  1.00  0.00     0.167 HD
ATOM     53  C   UNL     1      -6.349 -18.090  -3.752  1.00  0.00     0.034 A 
ATOM     54  C   UNL     1       0.088 -17.642  -6.556  1.00  0.00     0.034 A 
ATOM     55  C   UNL     1      -5.546 -19.286  -3.649  1.00  0.00     0.049 A 
ATOM     56  C   UNL     1      -0.394 -18.888  -5.858  1.00  0.00     0.074 A 
ATOM     57  C   UNL     1      -5.883 -20.506  -3.089  1.00  0.00     0.029 A 
ATOM     58  N   UNL     1      -4.240 -19.411  -4.109  1.00  0.00    -0.354 N 
ATOM     59  N   UNL     1      -1.559 -19.125  -5.299  1.00  0.00    -0.248 NA
ATOM     60  C   UNL     1       0.546 -20.013  -5.794  1.00  0.00     0.031 C 
ATOM     61  C   UNL     1      -4.761 -21.341  -3.145  1.00  0.00     0.029 A 
ATOM     62  C   UNL     1      -3.749 -20.675  -3.817  1.00  0.00     0.049 A 
ATOM     63  H   UNL     1      -3.737 -18.704  -4.574  1.00  0.00     0.167 HD
ATOM     64  C   UNL     1      -1.499 -20.439  -4.843  1.00  0.00     0.074 A 
ATOM     65  C   UNL     1      -0.194 -20.946  -5.215  1.00  0.00     0.031 C 
ATOM     66  C   UNL     1      -2.438 -21.163  -4.178  1.00  0.00     0.034 A 
BRANCH  53  67
ATOM     67  C   UNL     1      -7.723 -18.075  -3.120  1.00  0.00     0.023 A 
ATOM     68  C   UNL     1      -8.887 -17.877  -3.885  1.00  0.00     0.031 A 
ATOM     69  C   UNL     1      -7.873 -18.237  -1.732  1.00  0.00     0.131 A 
ATOM     70  C   UNL     1     -10.134 -17.766  -3.252  1.00  0.00     0.055 A 
ATOM     71  C   UNL     1      -9.127 -18.212  -1.117  1.00  0.00     0.041 A 
ATOM     72  F   UNL     1      -6.800 -18.408  -0.943  1.00  0.00    -0.206 F 
ATOM     73  C   UNL     1     -10.266 -17.960  -1.875  1.00  0.00     0.022 A 
BRANCH  70  74
ATOM     74  S   UNL     1     -11.559 -17.218  -4.231  1.00  0.00     0.124 S 
ATOM     75  O   UNL     1     -11.097 -15.923  -4.724  1.00  0.00    -0.237 OA
ATOM     76  O   UNL     1     -11.682 -18.275  -5.228  1.00  0.00    -0.237 OA
ATOM     77  O   UNL     1     -12.643 -17.152  -3.253  1.00  0.00    -0.744 OA
ENDBRANCH  70  74
ENDBRANCH  53  67
BRANCH  54  78
ATOM     78  C   UNL     1       1.469 -17.563  -7.115  1.00  0.00     0.023 A 
ATOM     79  C   UNL     1       1.882 -18.414  -8.153  1.00  0.00     0.031 A 
ATOM     80  C   UNL     1       2.410 -16.659  -6.591  1.00  0.00     0.131 A 
ATOM     81  C   UNL     1       3.213 -18.379  -8.599  1.00  0.00     0.055 A 
ATOM     82  C   UNL     1       3.717 -16.589  -7.077  1.00  0.00     0.041 A 
ATOM     83  F   UNL     1       2.067 -15.819  -5.602  1.00  0.00    -0.206 F 
ATOM     84  C   UNL     1       4.129 -17.463  -8.078  1.00  0.00     0.022 A 
BRANCH  81  85
ATOM     85  S   UNL     1       3.756 -19.614  -9.812  1.00  0.00     0.124 S 
ATOM     86  O   UNL     1       3.449 -20.862  -9.122  1.00  0.00    -0.237 OA
ATOM     87  O   UNL     1       2.920 -19.294 -10.964  1.00  0.00    -0.237 OA
ATOM     88  O   UNL     1       5.179 -19.325  -9.977  1.00  0.00    -0.744 OA
ENDBRANCH  81  85
ENDBRANCH  54  78
BRANCH  66  89
ATOM     89  C   UNL     1      -2.088 -22.596  -3.852  1.00  0.00     0.023 A 
ATOM     90  C   UNL     1      -1.039 -22.921  -2.974  1.00  0.00     0.031 A 
ATOM     91  C   UNL     1      -2.794 -23.652  -4.455  1.00  0.00     0.131 A 
ATOM     92  C   UNL     1      -0.676 -24.262  -2.784  1.00  0.00     0.055 A 
ATOM     93  C   UNL     1      -2.475 -24.987  -4.205  1.00  0.00     0.041 A 
ATOM     94  F   UNL     1      -3.804 -23.403  -5.304  1.00  0.00    -0.206 F 
ATOM     95  C   UNL     1      -1.399 -25.299  -3.380  1.00  0.00     0.022 A 
BRANCH  92  96
ATOM     96  S   UNL     1       0.832 -24.630  -1.845  1.00  0.00     0.124 S 
ATOM     97  O   UNL     1       1.840 -23.877  -2.583  1.00  0.00    -0.237 OA
ATOM     98  O   UNL     1       0.503 -24.123  -0.517  1.00  0.00    -0.237 OA
ATOM     99  O   UNL     1       0.950 -26.084  -1.941  1.00  0.00    -0.744 OA
ENDBRANCH  92  96
ENDBRANCH  66  89
ENDBRANCH  40  41
ENDBRANCH  32  35
ENDBRANCH  30  31
ENDBRANCH  29  30
ENDBRANCH  28  29
ENDBRANCH   1  28
TORSDOF 22
