REMARK SMILES CCc1ccc(S(=O)(=O)c2nnn(-c3ccc(C(=O)NCCCCCCNC(=O)c4ccc(-c5c6nc(c(-c7cc(S(=O)(=O)[O-])ccc7F)c7ccc([nH]7)c(-c7cc(S(=O)(=O)[O-])ccc7F)c7nc(c(-c8cc(S(=O)(=O)[O-])ccc8F)c8ccc5[nH]8)C=C7)C=C6)cc4)cc3)c2C)cc1
REMARK SMILES IDX 23 1 22 2 21 3 20 4 18 5 19 6 17 8 14 9 15 10 94 11 16 12
REMARK SMILES IDX 93 13 13 14 10 15 11 16 95 17 12 18 96 19 7 20 8 21 9 22
REMARK SMILES IDX 6 23 3 24 4 25 98 26 5 27 97 28 2 29 1 30 24 31 25 32 26 33
REMARK SMILES IDX 27 34 28 35 29 37 30 38 31 39 92 40 32 41 91 42 33 43 34 44
REMARK SMILES IDX 35 45 85 46 36 47 90 48 84 49 86 50 37 51 89 52 83 53 82 54
REMARK SMILES IDX 38 56 70 57 50 58 69 59 51 60 54 61 68 62 87 63 52 64 53 65
REMARK SMILES IDX 67 67 88 68 55 69 39 70 40 71 48 72 41 73 47 74 49 75 46 76
REMARK SMILES IDX 42 77 43 78 44 79 45 80 71 81 72 82 80 83 73 84 79 85 81 86
REMARK SMILES IDX 78 87 74 88 75 89 76 90 77 91 56 92 57 93 65 94 58 95 64 96
REMARK SMILES IDX 66 97 63 98 59 99 60 100 61 101 62 102
REMARK H PARENT 20 7 27 36 86 55 54 66
REMARK Flexibility Score: inf
ROOT
ATOM      1  C   UNL     1      12.552   5.803  -7.674  1.00  0.00     0.002 C 
ENDROOT
BRANCH   1   2
ATOM      2  C   UNL     1      11.226   5.046  -7.832  1.00  0.00     0.021 C 
BRANCH   2   3
ATOM      3  C   UNL     1      10.193   5.415  -6.765  1.00  0.00     0.116 C 
BRANCH   3   4
ATOM      4  N   UNL     1       9.543   6.668  -7.103  1.00  0.00    -0.352 N 
ATOM      5  C   UNL     1       8.309   6.977  -7.616  1.00  0.00     0.251 C 
ATOM      6  O   UNL     1       8.039   8.169  -7.772  1.00  0.00    -0.269 OA
ATOM      7  H   UNL     1      10.103   7.459  -6.928  1.00  0.00     0.163 HD
BRANCH   5   8
ATOM      8  C   UNL     1       7.259   5.956  -7.891  1.00  0.00     0.039 A 
ATOM      9  C   UNL     1       5.170   4.105  -7.987  1.00  0.00     0.067 A 
ATOM     10  C   UNL     1       4.866   5.464  -7.931  1.00  0.00     0.029 A 
ATOM     11  C   UNL     1       6.491   3.676  -8.144  1.00  0.00     0.029 A 
ATOM     12  C   UNL     1       5.918   6.381  -7.844  1.00  0.00     0.016 A 
ATOM     13  C   UNL     1       7.523   4.612  -8.159  1.00  0.00     0.016 A 
BRANCH   9  14
ATOM     14  N   UNL     1       4.154   3.147  -7.831  1.00  0.00    -0.216 N 
ATOM     15  C   UNL     1       2.994   1.389  -7.312  1.00  0.00     0.205 A 
ATOM     16  N   UNL     1       2.282   2.133  -8.215  1.00  0.00    -0.117 NA
ATOM     17  C   UNL     1       4.144   2.075  -6.956  1.00  0.00     0.081 A 
ATOM     18  N   UNL     1       2.955   3.254  -8.442  1.00  0.00    -0.061 NA
ATOM     19  C   UNL     1       5.096   1.906  -5.830  1.00  0.00     0.070 C 
BRANCH  15  20
ATOM     20  S   UNL     1       2.374  -0.067  -6.623  1.00  0.00     0.227 S 
ATOM     21  O   UNL     1       3.543  -0.918  -6.474  1.00  0.00    -0.217 OA
ATOM     22  O   UNL     1       1.234  -0.444  -7.427  1.00  0.00    -0.217 OA
BRANCH  20  23
ATOM     23  C   UNL     1       1.788   0.307  -4.993  1.00  0.00     0.073 A 
ATOM     24  C   UNL     1       0.940   0.764  -2.358  1.00  0.00    -0.048 A 
ATOM     25  C   UNL     1       0.954  -0.534  -2.887  1.00  0.00     0.005 A 
ATOM     26  C   UNL     1       1.328   1.832  -3.181  1.00  0.00     0.005 A 
ATOM     27  C   UNL     1       1.390  -0.767  -4.192  1.00  0.00     0.021 A 
ATOM     28  C   UNL     1       1.742   1.611  -4.496  1.00  0.00     0.021 A 
BRANCH  24  29
ATOM     29  C   UNL     1       0.451   1.048  -0.958  1.00  0.00     0.032 C 
ATOM     30  C   UNL     1       0.991   0.100   0.105  1.00  0.00     0.009 C 
ENDBRANCH  24  29
ENDBRANCH  20  23
ENDBRANCH  15  20
ENDBRANCH   9  14
ENDBRANCH   5   8
ENDBRANCH   3   4
ENDBRANCH   2   3
ENDBRANCH   1   2
BRANCH   1  31
ATOM     31  C   UNL     1      13.260   5.618  -6.321  1.00  0.00     0.002 C 
BRANCH  31  32
ATOM     32  C   UNL     1      13.462   4.168  -5.857  1.00  0.00     0.021 C 
BRANCH  32  33
ATOM     33  C   UNL     1      14.463   3.402  -6.707  1.00  0.00     0.116 C 
BRANCH  33  34
ATOM     34  N   UNL     1      15.830   3.892  -6.520  1.00  0.00    -0.352 N 
ATOM     35  C   UNL     1      16.980   3.456  -7.152  1.00  0.00     0.251 C 
ATOM     36  H   UNL     1      15.944   4.620  -5.867  1.00  0.00     0.163 HD
ATOM     37  O   UNL     1      18.081   3.642  -6.648  1.00  0.00    -0.269 OA
BRANCH  35  38
ATOM     38  C   UNL     1      16.838   2.773  -8.449  1.00  0.00     0.039 A 
ATOM     39  C   UNL     1      17.580   1.639  -8.781  1.00  0.00     0.014 A 
ATOM     40  C   UNL     1      15.879   3.281  -9.320  1.00  0.00     0.014 A 
ATOM     41  C   UNL     1      17.285   0.977  -9.973  1.00  0.00     0.010 A 
ATOM     42  C   UNL     1      15.465   2.529 -10.384  1.00  0.00     0.010 A 
ATOM     43  C   UNL     1      16.209   1.420 -10.761  1.00  0.00    -0.014 A 
BRANCH  43  44
ATOM     44  C   UNL     1      15.761   0.680 -11.937  1.00  0.00     0.031 A 
ATOM     45  C   UNL     1      15.466  -0.755 -11.679  1.00  0.00     0.074 A 
ATOM     46  C   UNL     1      15.422   1.286 -13.099  1.00  0.00     0.049 A 
ATOM     47  N   UNL     1      16.124  -1.780 -12.105  1.00  0.00    -0.248 NA
ATOM     48  C   UNL     1      14.422  -1.096 -10.698  1.00  0.00     0.031 C 
ATOM     49  C   UNL     1      15.371   2.721 -13.410  1.00  0.00     0.029 A 
ATOM     50  N   UNL     1      14.944   0.730 -14.243  1.00  0.00    -0.354 N 
ATOM     51  C   UNL     1      15.440  -2.903 -11.649  1.00  0.00     0.074 A 
ATOM     52  C   UNL     1      14.540  -2.424 -10.634  1.00  0.00     0.031 C 
ATOM     53  C   UNL     1      14.672   2.921 -14.551  1.00  0.00     0.029 A 
ATOM     54  C   UNL     1      14.387   1.630 -15.151  1.00  0.00     0.049 A 
ATOM     55  H   UNL     1      14.988  -0.238 -14.418  1.00  0.00     0.167 HD
ATOM     56  C   UNL     1      15.522  -4.091 -12.312  1.00  0.00     0.034 A 
ATOM     57  C   UNL     1      13.735   1.337 -16.311  1.00  0.00     0.034 A 
ATOM     58  C   UNL     1      16.637  -4.082 -13.235  1.00  0.00     0.049 A 
ATOM     59  C   UNL     1      14.178  -0.027 -16.696  1.00  0.00     0.074 A 
ATOM     60  C   UNL     1      18.002  -3.921 -13.089  1.00  0.00     0.029 A 
ATOM     61  N   UNL     1      16.378  -3.818 -14.563  1.00  0.00    -0.354 N 
ATOM     62  N   UNL     1      15.414  -0.308 -17.013  1.00  0.00    -0.248 NA
ATOM     63  C   UNL     1      13.393  -1.155 -16.216  1.00  0.00     0.031 C 
ATOM     64  C   UNL     1      18.381  -3.063 -14.166  1.00  0.00     0.029 A 
ATOM     65  C   UNL     1      17.258  -2.841 -14.967  1.00  0.00     0.049 A 
ATOM     66  H   UNL     1      15.689  -4.249 -15.119  1.00  0.00     0.167 HD
ATOM     67  C   UNL     1      15.689  -1.506 -16.370  1.00  0.00     0.074 A 
ATOM     68  C   UNL     1      14.380  -2.022 -15.964  1.00  0.00     0.031 C 
ATOM     69  C   UNL     1      16.955  -1.828 -15.965  1.00  0.00     0.034 A 
BRANCH  56  70
ATOM     70  C   UNL     1      14.421  -5.127 -12.396  1.00  0.00     0.023 A 
ATOM     71  C   UNL     1      14.686  -6.293 -13.142  1.00  0.00     0.031 A 
ATOM     72  C   UNL     1      13.069  -4.927 -12.037  1.00  0.00     0.131 A 
ATOM     73  C   UNL     1      13.643  -7.129 -13.578  1.00  0.00     0.055 A 
ATOM     74  C   UNL     1      12.043  -5.796 -12.418  1.00  0.00     0.041 A 
ATOM     75  F   UNL     1      12.646  -3.841 -11.381  1.00  0.00    -0.206 F 
ATOM     76  C   UNL     1      12.320  -6.888 -13.221  1.00  0.00     0.022 A 
BRANCH  73  77
ATOM     77  S   UNL     1      14.029  -8.438 -14.770  1.00  0.00     0.124 S 
ATOM     78  O   UNL     1      14.713  -7.690 -15.819  1.00  0.00    -0.237 OA
ATOM     79  O   UNL     1      14.857  -9.335 -13.971  1.00  0.00    -0.237 OA
ATOM     80  O   UNL     1      12.714  -8.961 -15.134  1.00  0.00    -0.744 OA
ENDBRANCH  73  77
ENDBRANCH  56  70
BRANCH  57  81
ATOM     81  C   UNL     1      12.510   1.999 -16.853  1.00  0.00     0.023 A 
ATOM     82  C   UNL     1      12.096   1.898 -18.202  1.00  0.00     0.031 A 
ATOM     83  C   UNL     1      11.574   2.556 -15.951  1.00  0.00     0.131 A 
ATOM     84  C   UNL     1      10.805   2.341 -18.592  1.00  0.00     0.055 A 
ATOM     85  C   UNL     1      10.302   2.985 -16.340  1.00  0.00     0.041 A 
ATOM     86  F   UNL     1      11.835   2.624 -14.636  1.00  0.00    -0.206 F 
ATOM     87  C   UNL     1       9.908   2.871 -17.662  1.00  0.00     0.022 A 
BRANCH  84  88
ATOM     88  S   UNL     1      10.232   2.168 -20.318  1.00  0.00     0.124 S 
ATOM     89  O   UNL     1      11.106   3.093 -21.031  1.00  0.00    -0.237 OA
ATOM     90  O   UNL     1      10.438   0.748 -20.578  1.00  0.00    -0.237 OA
ATOM     91  O   UNL     1       8.828   2.579 -20.256  1.00  0.00    -0.744 OA
ENDBRANCH  84  88
ENDBRANCH  57  81
BRANCH  69  92
ATOM     92  C   UNL     1      18.113  -0.960 -16.436  1.00  0.00     0.023 A 
ATOM     93  C   UNL     1      18.245   0.431 -16.203  1.00  0.00     0.031 A 
ATOM     94  C   UNL     1      19.199  -1.618 -17.041  1.00  0.00     0.131 A 
ATOM     95  C   UNL     1      19.428   1.104 -16.581  1.00  0.00     0.055 A 
ATOM     96  C   UNL     1      20.376  -0.955 -17.388  1.00  0.00     0.041 A 
ATOM     97  F   UNL     1      19.149  -2.941 -17.270  1.00  0.00    -0.206 F 
ATOM     98  C   UNL     1      20.493   0.410 -17.164  1.00  0.00     0.022 A 
BRANCH  95  99
ATOM     99  S   UNL     1      19.605   2.906 -16.341  1.00  0.00     0.124 S 
ATOM    100  O   UNL     1      18.366   3.446 -16.890  1.00  0.00    -0.237 OA
ATOM    101  O   UNL     1      19.766   3.021 -14.895  1.00  0.00    -0.237 OA
ATOM    102  O   UNL     1      20.805   3.235 -17.113  1.00  0.00    -0.744 OA
ENDBRANCH  95  99
ENDBRANCH  69  92
ENDBRANCH  43  44
ENDBRANCH  35  38
ENDBRANCH  33  34
ENDBRANCH  32  33
ENDBRANCH  31  32
ENDBRANCH   1  31
TORSDOF 20
