REMARK SMILES O=C(CCCC(=O)Nc1ccccc1F)NCCCCCCNC(=O)c1ccc(-c2c3nc(c(-c4cc(S(=O)(=O)[O-])ccc4F)c4ccc([nH]4)c(-c4cc(S(=O)(=O)[O-])ccc4F)c4nc(c(-c5cc(S(=O)(=O)[O-])ccc5F)c5ccc2[nH]5)C=C4)C=C3)cc1
REMARK SMILES IDX 19 1 18 2 17 3 16 4 1 5 2 6 3 8 4 9 5 10 6 11 7 12 8 13 9 15
REMARK SMILES IDX 10 16 14 17 11 18 13 19 15 20 12 21 20 22 21 23 22 24 23 25
REMARK SMILES IDX 24 26 25 28 26 29 27 30 88 31 28 32 87 33 29 34 30 35 31 36
REMARK SMILES IDX 81 37 32 38 86 39 80 40 82 41 33 42 85 43 79 44 78 45 34 47
REMARK SMILES IDX 66 48 46 49 65 50 47 51 50 52 64 53 83 54 48 55 49 56 63 58
REMARK SMILES IDX 84 59 51 60 35 61 36 62 44 63 37 64 43 65 45 66 42 67 38 68
REMARK SMILES IDX 39 69 40 70 41 71 67 72 68 73 76 74 69 75 75 76 77 77 74 78
REMARK SMILES IDX 70 79 71 80 72 81 73 82 52 83 53 84 61 85 54 86 60 87 62 88
REMARK SMILES IDX 59 89 55 90 56 91 57 92 58 93
REMARK H PARENT 16 7 8 14 23 27 82 46 50 57
REMARK Flexibility Score: inf
ROOT
ATOM      1  C   UNL     1       3.961   2.224   2.842  1.00  0.00     0.002 C 
ENDROOT
BRANCH   1   2
ATOM      2  C   UNL     1       2.434   2.111   2.741  1.00  0.00     0.021 C 
BRANCH   2   3
ATOM      3  C   UNL     1       1.856   2.285   1.336  1.00  0.00     0.116 C 
BRANCH   3   4
ATOM      4  N   UNL     1       2.316   1.272   0.410  1.00  0.00    -0.356 N 
ATOM      5  O   UNL     1       1.236   2.135  -1.412  1.00  0.00    -0.275 OA
ATOM      6  C   UNL     1       1.973   1.286  -0.920  1.00  0.00     0.220 C 
ATOM      7  H   UNL     1       2.893   0.549   0.745  1.00  0.00     0.163 HD
BRANCH   6   8
ATOM      8  C   UNL     1       2.501   0.117  -1.736  1.00  0.00     0.100 C 
BRANCH   8   9
ATOM      9  C   UNL     1       4.003   0.057  -2.034  1.00  0.00     0.020 C 
BRANCH   9  10
ATOM     10  C   UNL     1       5.011   0.236  -0.903  1.00  0.00     0.101 C 
BRANCH  10  11
ATOM     11  C   UNL     1       5.645  -0.985  -0.230  1.00  0.00     0.224 C 
ATOM     12  O   UNL     1       6.736  -1.418  -0.604  1.00  0.00    -0.275 OA
ATOM     13  N   UNL     1       5.138  -1.389   0.981  1.00  0.00    -0.324 N 
ATOM     14  H   UNL     1       5.781  -1.433   1.725  1.00  0.00     0.170 HD
BRANCH  13  15
ATOM     15  C   UNL     1       3.817  -1.746   1.286  1.00  0.00     0.077 A 
ATOM     16  C   UNL     1       3.337  -1.487   2.571  1.00  0.00     0.029 A 
ATOM     17  C   UNL     1       2.983  -2.394   0.374  1.00  0.00     0.146 A 
ATOM     18  C   UNL     1       1.997  -1.742   2.882  1.00  0.00     0.002 A 
ATOM     19  C   UNL     1       1.654  -2.676   0.687  1.00  0.00     0.041 A 
ATOM     20  F   UNL     1       3.449  -2.759  -0.829  1.00  0.00    -0.205 F 
ATOM     21  C   UNL     1       1.150  -2.318   1.934  1.00  0.00     0.003 A 
ENDBRANCH  13  15
ENDBRANCH  10  11
ENDBRANCH   9  10
ENDBRANCH   8   9
ENDBRANCH   6   8
ENDBRANCH   3   4
ENDBRANCH   2   3
ENDBRANCH   1   2
BRANCH   1  22
ATOM     22  C   UNL     1       4.548   3.577   2.433  1.00  0.00     0.002 C 
BRANCH  22  23
ATOM     23  C   UNL     1       3.963   4.792   3.158  1.00  0.00     0.021 C 
BRANCH  23  24
ATOM     24  C   UNL     1       4.042   4.744   4.682  1.00  0.00     0.116 C 
BRANCH  24  25
ATOM     25  N   UNL     1       5.410   4.775   5.170  1.00  0.00    -0.352 N 
ATOM     26  C   UNL     1       5.984   5.606   6.103  1.00  0.00     0.251 C 
ATOM     27  H   UNL     1       6.013   4.104   4.776  1.00  0.00     0.163 HD
ATOM     28  O   UNL     1       7.201   5.589   6.260  1.00  0.00    -0.269 OA
BRANCH  26  29
ATOM     29  C   UNL     1       5.144   6.536   6.894  1.00  0.00     0.039 A 
ATOM     30  C   UNL     1       5.571   7.857   7.050  1.00  0.00     0.014 A 
ATOM     31  C   UNL     1       3.951   6.114   7.490  1.00  0.00     0.014 A 
ATOM     32  C   UNL     1       4.771   8.769   7.745  1.00  0.00     0.010 A 
ATOM     33  C   UNL     1       3.124   7.040   8.130  1.00  0.00     0.010 A 
ATOM     34  C   UNL     1       3.523   8.378   8.259  1.00  0.00    -0.014 A 
BRANCH  34  35
ATOM     35  C   UNL     1       2.626   9.372   8.911  1.00  0.00     0.031 A 
ATOM     36  C   UNL     1       2.294   9.261  10.374  1.00  0.00     0.074 A 
ATOM     37  C   UNL     1       2.093  10.367   8.172  1.00  0.00     0.049 A 
ATOM     38  N   UNL     1       1.518  10.024  11.101  1.00  0.00    -0.248 NA
ATOM     39  C   UNL     1       2.895   8.141  11.116  1.00  0.00     0.031 C 
ATOM     40  C   UNL     1       2.314  10.562   6.737  1.00  0.00     0.029 A 
ATOM     41  N   UNL     1       1.264  11.405   8.520  1.00  0.00    -0.354 N 
ATOM     42  C   UNL     1       1.536   9.479  12.380  1.00  0.00     0.074 A 
ATOM     43  C   UNL     1       2.362   8.293  12.321  1.00  0.00     0.031 C 
ATOM     44  C   UNL     1       1.673  11.672   6.339  1.00  0.00     0.029 A 
ATOM     45  C   UNL     1       0.959  12.247   7.475  1.00  0.00     0.049 A 
ATOM     46  H   UNL     1       0.920  11.535   9.433  1.00  0.00     0.167 HD
ATOM     47  C   UNL     1       0.937   9.940  13.504  1.00  0.00     0.034 A 
ATOM     48  C   UNL     1       0.190  13.355   7.430  1.00  0.00     0.034 A 
ATOM     49  C   UNL     1       0.137  11.137  13.561  1.00  0.00     0.049 A 
ATOM     50  C   UNL     1      -0.478  13.836   8.691  1.00  0.00     0.074 A 
ATOM     51  C   UNL     1      -0.472  11.708  14.666  1.00  0.00     0.029 A 
ATOM     52  N   UNL     1      -0.162  11.948  12.477  1.00  0.00    -0.354 N 
ATOM     53  N   UNL     1      -0.436  13.310   9.893  1.00  0.00    -0.248 NA
ATOM     54  C   UNL     1      -1.292  15.056   8.596  1.00  0.00     0.031 C 
ATOM     55  C   UNL     1      -1.186  12.831  14.240  1.00  0.00     0.029 A 
ATOM     56  C   UNL     1      -0.966  13.000  12.883  1.00  0.00     0.049 A 
ATOM     57  H   UNL     1       0.150  11.798  11.555  1.00  0.00     0.167 HD
ATOM     58  C   UNL     1      -1.194  14.152  10.700  1.00  0.00     0.074 A 
ATOM     59  C   UNL     1      -1.685  15.218   9.853  1.00  0.00     0.031 C 
ATOM     60  C   UNL     1      -1.448  14.055  12.028  1.00  0.00     0.034 A 
BRANCH  47  61
ATOM     61  C   UNL     1       1.114   9.153  14.775  1.00  0.00     0.023 A 
ATOM     62  C   UNL     1       2.347   9.114  15.445  1.00  0.00     0.031 A 
ATOM     63  C   UNL     1       0.017   8.494  15.358  1.00  0.00     0.131 A 
ATOM     64  C   UNL     1       2.461   8.408  16.651  1.00  0.00     0.055 A 
ATOM     65  C   UNL     1       0.124   7.841  16.587  1.00  0.00     0.041 A 
ATOM     66  F   UNL     1      -1.179   8.491  14.750  1.00  0.00    -0.206 F 
ATOM     67  C   UNL     1       1.352   7.793  17.239  1.00  0.00     0.022 A 
BRANCH  64  68
ATOM     68  S   UNL     1       4.094   8.263  17.426  1.00  0.00     0.124 S 
ATOM     69  O   UNL     1       4.804   7.430  16.458  1.00  0.00    -0.237 OA
ATOM     70  O   UNL     1       4.530   9.651  17.514  1.00  0.00    -0.237 OA
ATOM     71  O   UNL     1       3.810   7.617  18.706  1.00  0.00    -0.744 OA
ENDBRANCH  64  68
ENDBRANCH  47  61
BRANCH  48  72
ATOM     72  C   UNL     1       0.009  14.085   6.144  1.00  0.00     0.023 A 
ATOM     73  C   UNL     1       0.546  15.368   5.957  1.00  0.00     0.031 A 
ATOM     74  C   UNL     1      -0.711  13.508   5.082  1.00  0.00     0.131 A 
ATOM     75  C   UNL     1       0.333  16.044   4.745  1.00  0.00     0.055 A 
ATOM     76  C   UNL     1      -0.883  14.167   3.865  1.00  0.00     0.041 A 
ATOM     77  F   UNL     1      -1.238  12.279   5.209  1.00  0.00    -0.206 F 
ATOM     78  C   UNL     1      -0.366  15.447   3.694  1.00  0.00     0.022 A 
BRANCH  75  79
ATOM     79  S   UNL     1       0.949  17.742   4.575  1.00  0.00     0.124 S 
ATOM     80  O   UNL     1       0.189  18.437   5.608  1.00  0.00    -0.237 OA
ATOM     81  O   UNL     1       2.376  17.576   4.829  1.00  0.00    -0.237 OA
ATOM     82  O   UNL     1       0.601  18.093   3.200  1.00  0.00    -0.744 OA
ENDBRANCH  75  79
ENDBRANCH  48  72
BRANCH  60  83
ATOM     83  C   UNL     1      -2.257  15.148  12.671  1.00  0.00     0.023 A 
ATOM     84  C   UNL     1      -3.646  15.238  12.491  1.00  0.00     0.031 A 
ATOM     85  C   UNL     1      -1.634  16.058  13.543  1.00  0.00     0.131 A 
ATOM     86  C   UNL     1      -4.370  16.231  13.169  1.00  0.00     0.055 A 
ATOM     87  C   UNL     1      -2.364  17.017  14.244  1.00  0.00     0.041 A 
ATOM     88  F   UNL     1      -0.308  16.004  13.751  1.00  0.00    -0.206 F 
ATOM     89  C   UNL     1      -3.740  17.108  14.057  1.00  0.00     0.022 A 
BRANCH  86  90
ATOM     90  S   UNL     1      -6.155  16.365  12.878  1.00  0.00     0.124 S 
ATOM     91  O   UNL     1      -6.202  16.813  11.490  1.00  0.00    -0.237 OA
ATOM     92  O   UNL     1      -6.621  15.004  13.124  1.00  0.00    -0.237 OA
ATOM     93  O   UNL     1      -6.590  17.353  13.864  1.00  0.00    -0.744 OA
ENDBRANCH  86  90
ENDBRANCH  60  83
ENDBRANCH  34  35
ENDBRANCH  26  29
ENDBRANCH  24  25
ENDBRANCH  23  24
ENDBRANCH  22  23
ENDBRANCH   1  22
TORSDOF 20
