REMARK SMILES CC(=O)N1CC[NH2+]C[C@@H]1c1ccc(C(=O)NCCCCCCNC(=O)c2ccc(-c3c4nc(c(-c5cc(S(=O)(=O)[O-])ccc5F)c5ccc([nH]5)c(-c5cc(S(=O)(=O)[O-])ccc5F)c5nc(c(-c6cc(S(=O)(=O)[O-])ccc6F)c6ccc3[nH]6)C=C5)C=C4)cc2)cc1
REMARK SMILES IDX 20 1 19 2 18 3 17 4 16 5 14 6 15 7 13 9 10 10 11 11 90 12
REMARK SMILES IDX 12 13 89 14 9 15 4 16 5 17 6 18 8 19 7 20 2 23 1 24 3 25
REMARK SMILES IDX 21 26 22 27 23 28 24 29 25 31 26 32 27 33 88 34 28 35 87 36
REMARK SMILES IDX 29 37 30 38 31 39 81 40 32 41 86 42 80 43 82 44 33 45 85 46
REMARK SMILES IDX 79 47 78 48 34 50 66 51 46 52 65 53 47 54 50 55 64 56 83 57
REMARK SMILES IDX 48 58 49 59 63 61 84 62 51 63 35 64 36 65 44 66 37 67 43 68
REMARK SMILES IDX 45 69 42 70 38 71 39 72 40 73 41 74 67 75 68 76 76 77 69 78
REMARK SMILES IDX 75 79 77 80 74 81 70 82 71 83 72 84 73 85 52 86 53 87 61 88
REMARK SMILES IDX 54 89 60 90 62 91 59 92 55 93 56 94 57 95 58 96
REMARK H PARENT 16 8 7 21 7 22 23 30 82 49 50 60
REMARK Flexibility Score: inf
ROOT
ATOM      1  C   UNL     1       2.877  -1.698  10.448  1.00  0.00     0.002 C 
ENDROOT
BRANCH   1   2
ATOM      2  C   UNL     1       2.806  -3.014   9.661  1.00  0.00     0.002 C 
BRANCH   2   3
ATOM      3  C   UNL     1       2.566  -2.835   8.158  1.00  0.00     0.021 C 
BRANCH   3   4
ATOM      4  C   UNL     1       3.727  -2.125   7.455  1.00  0.00     0.116 C 
BRANCH   4   5
ATOM      5  N   UNL     1       4.733  -3.088   7.045  1.00  0.00    -0.352 N 
ATOM      6  C   UNL     1       5.011  -3.684   5.841  1.00  0.00     0.251 C 
ATOM      7  O   UNL     1       5.970  -4.456   5.796  1.00  0.00    -0.269 OA
ATOM      8  H   UNL     1       5.333  -3.368   7.773  1.00  0.00     0.163 HD
BRANCH   6   9
ATOM      9  C   UNL     1       4.239  -3.419   4.594  1.00  0.00     0.039 A 
ATOM     10  C   UNL     1       2.867  -3.019   2.131  1.00  0.00    -0.020 A 
ATOM     11  C   UNL     1       4.186  -3.502   2.154  1.00  0.00     0.007 A 
ATOM     12  C   UNL     1       2.287  -2.684   3.360  1.00  0.00     0.007 A 
ATOM     13  C   UNL     1       4.863  -3.690   3.368  1.00  0.00     0.014 A 
ATOM     14  C   UNL     1       2.929  -2.955   4.567  1.00  0.00     0.014 A 
BRANCH  10  15
ATOM     15  C   UNL     1       2.081  -2.945   0.813  1.00  0.00     0.170 C 
ATOM     16  N   UNL     1       0.709  -2.405   0.981  1.00  0.00    -0.325 N 
ATOM     17  C   UNL     1      -0.313  -3.330   1.509  1.00  0.00     0.181 C 
ATOM     18  C   UNL     1      -0.222  -4.755   0.935  1.00  0.00     0.282 C 
ATOM     19  C   UNL     1       1.996  -4.342   0.126  1.00  0.00     0.290 C 
ATOM     20  N   UNL     1       1.144  -5.303   0.858  1.00  0.00    -0.343 N 
ATOM     21  H   UNL     1       1.129  -6.195   0.363  1.00  0.00     0.346 HD
ATOM     22  H   UNL     1       1.514  -5.453   1.796  1.00  0.00     0.346 HD
BRANCH  16  23
ATOM     23  C   UNL     1       0.378  -1.063   0.873  1.00  0.00     0.220 C 
ATOM     24  C   UNL     1       1.335  -0.165   0.132  1.00  0.00     0.114 C 
ATOM     25  O   UNL     1      -0.676  -0.608   1.317  1.00  0.00    -0.275 OA
ENDBRANCH  16  23
ENDBRANCH  10  15
ENDBRANCH   6   9
ENDBRANCH   4   5
ENDBRANCH   3   4
ENDBRANCH   2   3
ENDBRANCH   1   2
BRANCH   1  26
ATOM     26  C   UNL     1       1.625  -0.821  10.350  1.00  0.00     0.021 C 
BRANCH  26  27
ATOM     27  C   UNL     1       0.369  -1.463  10.929  1.00  0.00     0.116 C 
BRANCH  27  28
ATOM     28  N   UNL     1       0.513  -1.710  12.355  1.00  0.00    -0.352 N 
ATOM     29  C   UNL     1      -0.242  -1.238  13.399  1.00  0.00     0.251 C 
ATOM     30  H   UNL     1       1.260  -2.300  12.607  1.00  0.00     0.163 HD
ATOM     31  O   UNL     1       0.190  -1.314  14.544  1.00  0.00    -0.269 OA
BRANCH  29  32
ATOM     32  C   UNL     1      -1.565  -0.635  13.134  1.00  0.00     0.039 A 
ATOM     33  C   UNL     1      -1.937   0.519  13.827  1.00  0.00     0.014 A 
ATOM     34  C   UNL     1      -2.448  -1.224  12.223  1.00  0.00     0.014 A 
ATOM     35  C   UNL     1      -3.176   1.109  13.571  1.00  0.00     0.010 A 
ATOM     36  C   UNL     1      -3.651  -0.596  11.917  1.00  0.00     0.010 A 
ATOM     37  C   UNL     1      -4.032   0.572  12.596  1.00  0.00    -0.014 A 
BRANCH  37  38
ATOM     38  C   UNL     1      -5.337   1.210  12.284  1.00  0.00     0.031 A 
ATOM     39  C   UNL     1      -6.621   0.476  12.559  1.00  0.00     0.074 A 
ATOM     40  C   UNL     1      -5.359   2.427  11.706  1.00  0.00     0.049 A 
ATOM     41  N   UNL     1      -7.852   0.836  12.305  1.00  0.00    -0.248 NA
ATOM     42  C   UNL     1      -6.500  -0.855  13.175  1.00  0.00     0.031 C 
ATOM     43  C   UNL     1      -4.176   3.217  11.355  1.00  0.00     0.029 A 
ATOM     44  N   UNL     1      -6.411   3.212  11.307  1.00  0.00    -0.354 N 
ATOM     45  C   UNL     1      -8.652  -0.225  12.718  1.00  0.00     0.074 A 
ATOM     46  C   UNL     1      -7.758  -1.266  13.179  1.00  0.00     0.031 C 
ATOM     47  C   UNL     1      -4.569   4.382  10.817  1.00  0.00     0.029 A 
ATOM     48  C   UNL     1      -6.027   4.407  10.743  1.00  0.00     0.049 A 
ATOM     49  H   UNL     1      -7.353   2.945  11.413  1.00  0.00     0.167 HD
ATOM     50  C   UNL     1     -10.005  -0.311  12.735  1.00  0.00     0.034 A 
ATOM     51  C   UNL     1      -6.765   5.404  10.217  1.00  0.00     0.034 A 
ATOM     52  C   UNL     1     -10.879   0.743  12.279  1.00  0.00     0.049 A 
ATOM     53  C   UNL     1      -8.267   5.277  10.228  1.00  0.00     0.074 A 
ATOM     54  C   UNL     1     -12.263   0.785  12.296  1.00  0.00     0.029 A 
ATOM     55  N   UNL     1     -10.455   1.941  11.716  1.00  0.00    -0.354 N 
ATOM     56  N   UNL     1      -9.011   4.289  10.671  1.00  0.00    -0.248 NA
ATOM     57  C   UNL     1      -9.029   6.407   9.682  1.00  0.00     0.031 C 
ATOM     58  C   UNL     1     -12.675   1.974  11.682  1.00  0.00     0.029 A 
ATOM     59  C   UNL     1     -11.550   2.713  11.354  1.00  0.00     0.049 A 
ATOM     60  H   UNL     1      -9.515   2.204  11.591  1.00  0.00     0.167 HD
ATOM     61  C   UNL     1     -10.329   4.694  10.484  1.00  0.00     0.074 A 
ATOM     62  C   UNL     1     -10.276   6.022   9.907  1.00  0.00     0.031 C 
ATOM     63  C   UNL     1     -11.481   4.031  10.766  1.00  0.00     0.034 A 
BRANCH  50  64
ATOM     64  C   UNL     1     -10.614  -1.600  13.238  1.00  0.00     0.023 A 
ATOM     65  C   UNL     1     -10.415  -2.046  14.557  1.00  0.00     0.031 A 
ATOM     66  C   UNL     1     -11.379  -2.410  12.380  1.00  0.00     0.131 A 
ATOM     67  C   UNL     1     -10.905  -3.300  14.955  1.00  0.00     0.055 A 
ATOM     68  C   UNL     1     -11.937  -3.617  12.809  1.00  0.00     0.041 A 
ATOM     69  F   UNL     1     -11.587  -2.050  11.104  1.00  0.00    -0.206 F 
ATOM     70  C   UNL     1     -11.687  -4.077  14.098  1.00  0.00     0.022 A 
BRANCH  67  71
ATOM     71  S   UNL     1     -10.377  -3.966  16.558  1.00  0.00     0.124 S 
ATOM     72  O   UNL     1      -8.924  -3.992  16.402  1.00  0.00    -0.237 OA
ATOM     73  O   UNL     1     -10.902  -2.982  17.497  1.00  0.00    -0.237 OA
ATOM     74  O   UNL     1     -11.014  -5.280  16.609  1.00  0.00    -0.744 OA
ENDBRANCH  67  71
ENDBRANCH  50  64
BRANCH  51  75
ATOM     75  C   UNL     1      -6.104   6.606   9.632  1.00  0.00     0.023 A 
ATOM     76  C   UNL     1      -6.285   7.878  10.197  1.00  0.00     0.031 A 
ATOM     77  C   UNL     1      -5.315   6.505   8.472  1.00  0.00     0.131 A 
ATOM     78  C   UNL     1      -5.726   9.006   9.575  1.00  0.00     0.055 A 
ATOM     79  C   UNL     1      -4.715   7.623   7.889  1.00  0.00     0.041 A 
ATOM     80  F   UNL     1      -5.104   5.312   7.895  1.00  0.00    -0.206 F 
ATOM     81  C   UNL     1      -4.932   8.885   8.433  1.00  0.00     0.022 A 
BRANCH  78  82
ATOM     82  S   UNL     1      -6.126  10.647  10.234  1.00  0.00     0.124 S 
ATOM     83  O   UNL     1      -7.582  10.656  10.148  1.00  0.00    -0.237 OA
ATOM     84  O   UNL     1      -5.562  10.579  11.578  1.00  0.00    -0.237 OA
ATOM     85  O   UNL     1      -5.441  11.557   9.319  1.00  0.00    -0.744 OA
ENDBRANCH  78  82
ENDBRANCH  51  75
BRANCH  63  86
ATOM     86  C   UNL     1     -12.774   4.762  10.493  1.00  0.00     0.023 A 
ATOM     87  C   UNL     1     -13.173   5.099   9.188  1.00  0.00     0.031 A 
ATOM     88  C   UNL     1     -13.607   5.146  11.559  1.00  0.00     0.131 A 
ATOM     89  C   UNL     1     -14.338   5.855   8.987  1.00  0.00     0.055 A 
ATOM     90  C   UNL     1     -14.799   5.840  11.348  1.00  0.00     0.041 A 
ATOM     91  F   UNL     1     -13.274   4.853  12.827  1.00  0.00    -0.206 F 
ATOM     92  C   UNL     1     -15.163   6.212  10.057  1.00  0.00     0.022 A 
BRANCH  89  93
ATOM     93  S   UNL     1     -14.707   6.457   7.316  1.00  0.00     0.124 S 
ATOM     94  O   UNL     1     -13.507   7.224   6.998  1.00  0.00    -0.237 OA
ATOM     95  O   UNL     1     -14.888   5.217   6.570  1.00  0.00    -0.237 OA
ATOM     96  O   UNL     1     -15.920   7.253   7.499  1.00  0.00    -0.744 OA
ENDBRANCH  89  93
ENDBRANCH  63  86
ENDBRANCH  37  38
ENDBRANCH  29  32
ENDBRANCH  27  28
ENDBRANCH  26  27
ENDBRANCH   1  26
TORSDOF 18
