REMARK SMILES CC(C)[C@H](C)N(C)C(=O)N1CC[C@@H](C(=O)NCCCCCCNC(=O)c2ccc(-c3c4nc(c(-c5cc(S(=O)(=O)[O-])ccc5F)c5ccc([nH]5)c(-c5cc(S(=O)(=O)[O-])ccc5F)c5nc(c(-c6cc(S(=O)(=O)[O-])ccc6F)c6ccc3[nH]6)C=C5)C=C4)cc2)[C@@H]1C
REMARK SMILES IDX 19 1 18 2 17 3 16 4 14 5 15 6 13 8 10 9 11 10 89 11 12 12
REMARK SMILES IDX 90 13 8 14 9 15 6 16 7 17 4 18 5 19 2 20 1 21 3 22 20 23
REMARK SMILES IDX 21 24 22 25 23 26 24 27 25 29 26 30 27 31 88 32 28 33 87 34
REMARK SMILES IDX 29 35 30 36 31 37 81 38 32 39 86 40 80 41 82 42 33 43 85 44
REMARK SMILES IDX 79 45 78 46 34 48 66 49 46 50 65 51 47 52 50 53 64 54 83 55
REMARK SMILES IDX 48 56 49 57 63 59 84 60 51 61 35 62 36 63 44 64 37 65 43 66
REMARK SMILES IDX 45 67 42 68 38 69 39 70 40 71 41 72 67 73 68 74 76 75 69 76
REMARK SMILES IDX 75 77 77 78 74 79 70 80 71 81 72 82 73 83 52 84 53 85 61 86
REMARK SMILES IDX 54 87 60 88 62 89 59 90 55 91 56 92 57 93 58 94
REMARK H PARENT 16 7 23 28 82 47 50 58
REMARK Flexibility Score: inf
ROOT
ATOM      1  C   UNL     1      -2.711  -7.263  -2.469  1.00  0.00     0.002 C 
ENDROOT
BRANCH   1   2
ATOM      2  C   UNL     1      -2.520  -5.788  -2.821  1.00  0.00     0.021 C 
BRANCH   2   3
ATOM      3  C   UNL     1      -1.905  -5.524  -4.194  1.00  0.00     0.116 C 
BRANCH   3   4
ATOM      4  N   UNL     1      -2.897  -5.652  -5.246  1.00  0.00    -0.356 N 
ATOM      5  C   UNL     1      -3.369  -4.750  -6.147  1.00  0.00     0.225 C 
ATOM      6  O   UNL     1      -4.262  -5.130  -6.911  1.00  0.00    -0.275 OA
ATOM      7  H   UNL     1      -3.297  -6.548  -5.320  1.00  0.00     0.163 HD
BRANCH   5   8
ATOM      8  C   UNL     1      -2.837  -3.328  -6.255  1.00  0.00     0.102 C 
ATOM      9  N   UNL     1      -1.693  -1.904  -4.711  1.00  0.00    -0.321 N 
ATOM     10  C   UNL     1      -0.871  -2.005  -5.906  1.00  0.00     0.122 C 
ATOM     11  C   UNL     1      -3.017  -2.487  -4.973  1.00  0.00     0.096 C 
ATOM     12  C   UNL     1      -1.353  -3.255  -6.612  1.00  0.00     0.037 C 
ATOM     13  C   UNL     1      -4.055  -1.383  -5.195  1.00  0.00     0.032 C 
BRANCH   9  14
ATOM     14  C   UNL     1      -1.225  -1.108  -3.689  1.00  0.00     0.320 C 
ATOM     15  O   UNL     1      -0.337  -0.286  -3.944  1.00  0.00    -0.248 OA
BRANCH  14  16
ATOM     16  N   UNL     1      -1.673  -1.280  -2.388  1.00  0.00    -0.325 N 
ATOM     17  C   UNL     1      -2.640  -2.262  -1.946  1.00  0.00     0.149 C 
BRANCH  16  18
ATOM     18  C   UNL     1      -1.018  -0.487  -1.309  1.00  0.00     0.086 C 
ATOM     19  C   UNL     1       0.498  -0.769  -1.249  1.00  0.00     0.031 C 
BRANCH  18  20
ATOM     20  C   UNL     1      -1.493   0.996  -1.340  1.00  0.00     0.005 C 
ATOM     21  C   UNL     1      -2.866   1.105  -0.653  1.00  0.00     0.009 C 
ATOM     22  C   UNL     1      -0.536   1.988  -0.677  1.00  0.00     0.009 C 
ENDBRANCH  18  20
ENDBRANCH  16  18
ENDBRANCH  14  16
ENDBRANCH   9  14
ENDBRANCH   5   8
ENDBRANCH   3   4
ENDBRANCH   2   3
ENDBRANCH   1   2
BRANCH   1  23
ATOM     23  C   UNL     1      -1.421  -8.087  -2.414  1.00  0.00     0.002 C 
BRANCH  23  24
ATOM     24  C   UNL     1      -0.283  -7.490  -1.580  1.00  0.00     0.021 C 
BRANCH  24  25
ATOM     25  C   UNL     1      -0.636  -7.156  -0.132  1.00  0.00     0.116 C 
BRANCH  25  26
ATOM     26  N   UNL     1      -1.050  -8.331   0.613  1.00  0.00    -0.352 N 
ATOM     27  C   UNL     1      -0.537  -8.856   1.770  1.00  0.00     0.251 C 
ATOM     28  H   UNL     1      -1.811  -8.824   0.230  1.00  0.00     0.163 HD
ATOM     29  O   UNL     1      -0.889  -9.982   2.127  1.00  0.00    -0.269 OA
BRANCH  27  30
ATOM     30  C   UNL     1       0.439  -8.092   2.579  1.00  0.00     0.039 A 
ATOM     31  C   UNL     1       1.530  -8.768   3.132  1.00  0.00     0.014 A 
ATOM     32  C   UNL     1       0.264  -6.728   2.831  1.00  0.00     0.014 A 
ATOM     33  C   UNL     1       2.461  -8.072   3.907  1.00  0.00     0.010 A 
ATOM     34  C   UNL     1       1.230  -6.021   3.546  1.00  0.00     0.010 A 
ATOM     35  C   UNL     1       2.330  -6.688   4.106  1.00  0.00    -0.014 A 
BRANCH  35  36
ATOM     36  C   UNL     1       3.312  -5.937   4.933  1.00  0.00     0.031 A 
ATOM     37  C   UNL     1       2.875  -5.299   6.225  1.00  0.00     0.074 A 
ATOM     38  C   UNL     1       4.582  -5.795   4.505  1.00  0.00     0.049 A 
ATOM     39  N   UNL     1       3.560  -4.558   7.059  1.00  0.00    -0.248 NA
ATOM     40  C   UNL     1       1.471  -5.498   6.613  1.00  0.00     0.031 C 
ATOM     41  C   UNL     1       5.117  -6.337   3.254  1.00  0.00     0.029 A 
ATOM     42  N   UNL     1       5.653  -5.148   5.071  1.00  0.00    -0.354 N 
ATOM     43  C   UNL     1       2.668  -4.191   8.062  1.00  0.00     0.074 A 
ATOM     44  C   UNL     1       1.379  -4.737   7.693  1.00  0.00     0.031 C 
ATOM     45  C   UNL     1       6.419  -6.022   3.161  1.00  0.00     0.029 A 
ATOM     46  C   UNL     1       6.803  -5.222   4.320  1.00  0.00     0.049 A 
ATOM     47  H   UNL     1       5.602  -4.676   5.933  1.00  0.00     0.167 HD
ATOM     48  C   UNL     1       2.906  -3.486   9.197  1.00  0.00     0.034 A 
ATOM     49  C   UNL     1       8.027  -4.700   4.539  1.00  0.00     0.034 A 
ATOM     50  C   UNL     1       4.201  -2.959   9.556  1.00  0.00     0.049 A 
ATOM     51  C   UNL     1       8.267  -3.911   5.801  1.00  0.00     0.074 A 
ATOM     52  C   UNL     1       4.566  -2.266  10.697  1.00  0.00     0.029 A 
ATOM     53  N   UNL     1       5.347  -3.065   8.776  1.00  0.00    -0.354 N 
ATOM     54  N   UNL     1       7.423  -3.606   6.760  1.00  0.00    -0.248 NA
ATOM     55  C   UNL     1       9.631  -3.412   6.018  1.00  0.00     0.031 C 
ATOM     56  C   UNL     1       5.911  -1.898  10.579  1.00  0.00     0.029 A 
ATOM     57  C   UNL     1       6.411  -2.430   9.401  1.00  0.00     0.049 A 
ATOM     58  H   UNL     1       5.396  -3.523   7.906  1.00  0.00     0.167 HD
ATOM     59  C   UNL     1       8.166  -2.913   7.712  1.00  0.00     0.074 A 
ATOM     60  C   UNL     1       9.525  -2.856   7.216  1.00  0.00     0.031 C 
ATOM     61  C   UNL     1       7.762  -2.377   8.893  1.00  0.00     0.034 A 
BRANCH  48  62
ATOM     62  C   UNL     1       1.730  -3.226  10.111  1.00  0.00     0.023 A 
ATOM     63  C   UNL     1       1.019  -4.278  10.718  1.00  0.00     0.031 A 
ATOM     64  C   UNL     1       1.286  -1.913  10.349  1.00  0.00     0.131 A 
ATOM     65  C   UNL     1      -0.144  -4.006  11.455  1.00  0.00     0.055 A 
ATOM     66  C   UNL     1       0.180  -1.644  11.159  1.00  0.00     0.041 A 
ATOM     67  F   UNL     1       1.908  -0.868   9.782  1.00  0.00    -0.206 F 
ATOM     68  C   UNL     1      -0.553  -2.695  11.702  1.00  0.00     0.022 A 
BRANCH  65  69
ATOM     69  S   UNL     1      -1.201  -5.396  11.945  1.00  0.00     0.124 S 
ATOM     70  O   UNL     1      -1.520  -5.994  10.651  1.00  0.00    -0.237 OA
ATOM     71  O   UNL     1      -0.321  -6.173  12.809  1.00  0.00    -0.237 OA
ATOM     72  O   UNL     1      -2.326  -4.750  12.618  1.00  0.00    -0.744 OA
ENDBRANCH  65  69
ENDBRANCH  48  62
BRANCH  49  73
ATOM     73  C   UNL     1       9.123  -4.904   3.548  1.00  0.00     0.023 A 
ATOM     74  C   UNL     1      10.268  -5.645   3.879  1.00  0.00     0.031 A 
ATOM     75  C   UNL     1       9.058  -4.326   2.268  1.00  0.00     0.131 A 
ATOM     76  C   UNL     1      11.324  -5.749   2.961  1.00  0.00     0.055 A 
ATOM     77  C   UNL     1      10.089  -4.476   1.339  1.00  0.00     0.041 A 
ATOM     78  F   UNL     1       7.982  -3.614   1.898  1.00  0.00    -0.206 F 
ATOM     79  C   UNL     1      11.237  -5.180   1.688  1.00  0.00     0.022 A 
BRANCH  76  80
ATOM     80  S   UNL     1      12.854  -6.571   3.485  1.00  0.00     0.124 S 
ATOM     81  O   UNL     1      13.240  -5.771   4.641  1.00  0.00    -0.237 OA
ATOM     82  O   UNL     1      12.387  -7.925   3.768  1.00  0.00    -0.237 OA
ATOM     83  O   UNL     1      13.725  -6.446   2.319  1.00  0.00    -0.744 OA
ENDBRANCH  76  80
ENDBRANCH  49  73
BRANCH  61  84
ATOM     84  C   UNL     1       8.825  -1.737   9.755  1.00  0.00     0.023 A 
ATOM     85  C   UNL     1       9.507  -0.574   9.356  1.00  0.00     0.031 A 
ATOM     86  C   UNL     1       9.175  -2.319  10.987  1.00  0.00     0.131 A 
ATOM     87  C   UNL     1      10.546  -0.066  10.151  1.00  0.00     0.055 A 
ATOM     88  C   UNL     1      10.166  -1.772  11.803  1.00  0.00     0.041 A 
ATOM     89  F   UNL     1       8.559  -3.432  11.417  1.00  0.00    -0.206 F 
ATOM     90  C   UNL     1      10.869  -0.649  11.379  1.00  0.00     0.022 A 
BRANCH  87  91
ATOM     91  S   UNL     1      11.546   1.304   9.506  1.00  0.00     0.124 S 
ATOM     92  O   UNL     1      12.029   0.759   8.242  1.00  0.00    -0.237 OA
ATOM     93  O   UNL     1      10.567   2.382   9.404  1.00  0.00    -0.237 OA
ATOM     94  O   UNL     1      12.570   1.493  10.532  1.00  0.00    -0.744 OA
ENDBRANCH  87  91
ENDBRANCH  61  84
ENDBRANCH  35  36
ENDBRANCH  27  30
ENDBRANCH  25  26
ENDBRANCH  24  25
ENDBRANCH  23  24
ENDBRANCH   1  23
TORSDOF 20
