REMARK SMILES O=C(NCCCCCCNC(=O)[C@H]1CS[C@H](c2nc3ccccc3s2)[NH2+]1)c1ccc(-c2c3nc(c(-c4cc(S(=O)(=O)[O-])ccc4F)c4ccc([nH]4)c(-c4cc(S(=O)(=O)[O-])ccc4F)c4nc(c(-c5cc(S(=O)(=O)[O-])ccc5F)c5ccc2[nH]5)C=C4)C=C3)cc1
REMARK SMILES IDX 5 1 4 2 3 3 1 4 2 5 27 7 28 8 89 9 29 10 88 11 30 12 31 13
REMARK SMILES IDX 32 14 82 15 33 16 87 17 81 18 83 19 34 20 86 21 80 22 79 23
REMARK SMILES IDX 35 25 67 26 47 27 66 28 48 29 51 30 65 31 84 32 49 33 50 34
REMARK SMILES IDX 64 36 85 37 52 38 36 39 37 40 45 41 38 42 44 43 46 44 43 45
REMARK SMILES IDX 39 46 40 47 41 48 42 49 68 50 69 51 77 52 70 53 76 54 78 55
REMARK SMILES IDX 75 56 71 57 72 58 73 59 74 60 53 61 54 62 62 63 55 64 61 65
REMARK SMILES IDX 63 66 60 67 56 68 57 69 58 70 59 71 6 72 7 73 8 74 9 75
REMARK SMILES IDX 10 76 11 77 12 79 13 80 14 81 26 82 15 83 16 84 17 87 18 88
REMARK SMILES IDX 25 89 19 90 24 91 20 92 23 93 21 94 22 95
REMARK H PARENT 3 6 83 24 51 35 10 78 26 85 26 86
REMARK Flexibility Score: inf
ROOT
ATOM      1  C   UNL     1       4.395  -2.802  -0.302  1.00  0.00     0.021 C 
ENDROOT
BRANCH   1   2
ATOM      2  C   UNL     1       4.314  -1.304  -0.573  1.00  0.00     0.116 C 
BRANCH   2   3
ATOM      3  N   UNL     1       2.944  -0.844  -0.741  1.00  0.00    -0.352 N 
ATOM      4  O   UNL     1       1.064   0.291  -0.224  1.00  0.00    -0.269 OA
ATOM      5  C   UNL     1       2.275   0.150  -0.069  1.00  0.00     0.251 C 
ATOM      6  H   UNL     1       2.422  -1.311  -1.433  1.00  0.00     0.163 HD
BRANCH   5   7
ATOM      7  C   UNL     1       3.015   1.036   0.858  1.00  0.00     0.039 A 
ATOM      8  C   UNL     1       4.241   1.589   0.482  1.00  0.00     0.014 A 
ATOM      9  C   UNL     1       2.478   1.309   2.119  1.00  0.00     0.014 A 
ATOM     10  C   UNL     1       4.997   2.288   1.417  1.00  0.00     0.010 A 
ATOM     11  C   UNL     1       3.205   2.083   3.030  1.00  0.00     0.010 A 
ATOM     12  C   UNL     1       4.488   2.547   2.701  1.00  0.00    -0.014 A 
BRANCH  12  13
ATOM     13  C   UNL     1       5.315   3.320   3.666  1.00  0.00     0.031 A 
ATOM     14  C   UNL     1       5.825   2.686   4.932  1.00  0.00     0.074 A 
ATOM     15  C   UNL     1       5.642   4.593   3.367  1.00  0.00     0.049 A 
ATOM     16  N   UNL     1       6.595   3.197   5.860  1.00  0.00    -0.248 NA
ATOM     17  C   UNL     1       5.408   1.302   5.197  1.00  0.00     0.031 C 
ATOM     18  C   UNL     1       5.197   5.316   2.173  1.00  0.00     0.029 A 
ATOM     19  N   UNL     1       6.442   5.495   4.020  1.00  0.00    -0.354 N 
ATOM     20  C   UNL     1       6.737   2.209   6.829  1.00  0.00     0.074 A 
ATOM     21  C   UNL     1       5.944   1.079   6.388  1.00  0.00     0.031 C 
ATOM     22  C   UNL     1       5.774   6.526   2.150  1.00  0.00     0.029 A 
ATOM     23  C   UNL     1       6.579   6.691   3.355  1.00  0.00     0.049 A 
ATOM     24  H   UNL     1       6.877   5.304   4.883  1.00  0.00     0.167 HD
ATOM     25  C   UNL     1       7.467   2.239   7.973  1.00  0.00     0.034 A 
ATOM     26  C   UNL     1       7.269   7.801   3.680  1.00  0.00     0.034 A 
ATOM     27  C   UNL     1       8.262   3.371   8.391  1.00  0.00     0.049 A 
ATOM     28  C   UNL     1       8.063   7.811   4.957  1.00  0.00     0.074 A 
ATOM     29  C   UNL     1       9.064   3.497   9.513  1.00  0.00     0.029 A 
ATOM     30  N   UNL     1       8.353   4.578   7.707  1.00  0.00    -0.354 N 
ATOM     31  N   UNL     1       8.202   6.860   5.852  1.00  0.00    -0.248 NA
ATOM     32  C   UNL     1       8.800   9.043   5.264  1.00  0.00     0.031 C 
ATOM     33  C   UNL     1       9.588   4.795   9.539  1.00  0.00     0.029 A 
ATOM     34  C   UNL     1       9.174   5.459   8.395  1.00  0.00     0.049 A 
ATOM     35  H   UNL     1       7.899   4.778   6.856  1.00  0.00     0.167 HD
ATOM     36  C   UNL     1       9.063   7.373   6.817  1.00  0.00     0.074 A 
ATOM     37  C   UNL     1       9.425   8.707   6.382  1.00  0.00     0.031 C 
ATOM     38  C   UNL     1       9.515   6.793   7.958  1.00  0.00     0.034 A 
BRANCH  25  39
ATOM     39  C   UNL     1       7.397   1.028   8.875  1.00  0.00     0.023 A 
ATOM     40  C   UNL     1       7.874  -0.232   8.470  1.00  0.00     0.031 A 
ATOM     41  C   UNL     1       6.818   1.129  10.153  1.00  0.00     0.131 A 
ATOM     42  C   UNL     1       7.698  -1.349   9.301  1.00  0.00     0.055 A 
ATOM     43  C   UNL     1       6.717   0.029  11.008  1.00  0.00     0.041 A 
ATOM     44  F   UNL     1       6.327   2.300  10.590  1.00  0.00    -0.206 F 
ATOM     45  C   UNL     1       7.144  -1.223  10.577  1.00  0.00     0.022 A 
BRANCH  42  46
ATOM     46  S   UNL     1       8.070  -2.995   8.633  1.00  0.00     0.124 S 
ATOM     47  O   UNL     1       7.206  -3.040   7.455  1.00  0.00    -0.237 OA
ATOM     48  O   UNL     1       9.502  -2.913   8.371  1.00  0.00    -0.237 OA
ATOM     49  O   UNL     1       7.683  -3.900   9.713  1.00  0.00    -0.744 OA
ENDBRANCH  42  46
ENDBRANCH  25  39
BRANCH  26  50
ATOM     50  C   UNL     1       7.230   8.995   2.790  1.00  0.00     0.023 A 
ATOM     51  C   UNL     1       8.386   9.451   2.138  1.00  0.00     0.031 A 
ATOM     52  C   UNL     1       6.036   9.713   2.598  1.00  0.00     0.131 A 
ATOM     53  C   UNL     1       8.333  10.614   1.355  1.00  0.00     0.055 A 
ATOM     54  C   UNL     1       5.977  10.839   1.778  1.00  0.00     0.041 A 
ATOM     55  F   UNL     1       4.901   9.314   3.195  1.00  0.00    -0.206 F 
ATOM     56  C   UNL     1       7.134  11.304   1.160  1.00  0.00     0.022 A 
BRANCH  53  57
ATOM     57  S   UNL     1       9.875  11.258   0.651  1.00  0.00     0.124 S 
ATOM     58  O   UNL     1      10.687  11.459   1.846  1.00  0.00    -0.237 OA
ATOM     59  O   UNL     1      10.285  10.168  -0.228  1.00  0.00    -0.237 OA
ATOM     60  O   UNL     1       9.454  12.481  -0.030  1.00  0.00    -0.744 OA
ENDBRANCH  53  57
ENDBRANCH  26  50
BRANCH  38  61
ATOM     61  C   UNL     1      10.489   7.596   8.785  1.00  0.00     0.023 A 
ATOM     62  C   UNL     1      10.104   8.781   9.437  1.00  0.00     0.031 A 
ATOM     63  C   UNL     1      11.831   7.189   8.886  1.00  0.00     0.131 A 
ATOM     64  C   UNL     1      11.065   9.553  10.105  1.00  0.00     0.055 A 
ATOM     65  C   UNL     1      12.770   7.931   9.604  1.00  0.00     0.041 A 
ATOM     66  F   UNL     1      12.253   6.068   8.281  1.00  0.00    -0.206 F 
ATOM     67  C   UNL     1      12.393   9.129  10.205  1.00  0.00     0.022 A 
BRANCH  64  68
ATOM     68  S   UNL     1      10.581  11.178  10.751  1.00  0.00     0.124 S 
ATOM     69  O   UNL     1      10.070  11.841   9.556  1.00  0.00    -0.237 OA
ATOM     70  O   UNL     1       9.587  10.828  11.761  1.00  0.00    -0.237 OA
ATOM     71  O   UNL     1      11.831  11.725  11.276  1.00  0.00    -0.744 OA
ENDBRANCH  64  68
ENDBRANCH  38  61
ENDBRANCH  12  13
ENDBRANCH   5   7
ENDBRANCH   2   3
ENDBRANCH   1   2
BRANCH   1  72
ATOM     72  C   UNL     1       3.922  -3.692  -1.453  1.00  0.00     0.002 C 
BRANCH  72  73
ATOM     73  C   UNL     1       4.650  -3.488  -2.787  1.00  0.00     0.002 C 
BRANCH  73  74
ATOM     74  C   UNL     1       6.181  -3.525  -2.715  1.00  0.00     0.021 C 
BRANCH  74  75
ATOM     75  C   UNL     1       6.751  -4.822  -2.146  1.00  0.00     0.116 C 
BRANCH  75  76
ATOM     76  N   UNL     1       6.646  -5.918  -3.092  1.00  0.00    -0.351 N 
ATOM     77  C   UNL     1       7.585  -6.557  -3.846  1.00  0.00     0.279 C 
ATOM     78  H   UNL     1       5.731  -6.261  -3.211  1.00  0.00     0.163 HD
ATOM     79  O   UNL     1       7.181  -7.396  -4.658  1.00  0.00    -0.268 OA
BRANCH  77  80
ATOM     80  C   UNL     1       9.091  -6.256  -3.714  1.00  0.00     0.284 C 
ATOM     81  C   UNL     1       9.446  -4.851  -4.189  1.00  0.00     0.151 C 
ATOM     82  N   UNL     1       9.583  -6.575  -2.347  1.00  0.00    -0.319 N 
ATOM     83  S   UNL     1      10.291  -4.062  -2.811  1.00  0.00    -0.085 SA
ATOM     84  C   UNL     1      10.671  -5.646  -1.998  1.00  0.00     0.303 C 
ATOM     85  H   UNL     1       9.932  -7.533  -2.324  1.00  0.00     0.348 HD
ATOM     86  H   UNL     1       8.820  -6.479  -1.676  1.00  0.00     0.348 HD
BRANCH  84  87
ATOM     87  C   UNL     1      12.082  -6.086  -2.352  1.00  0.00     0.163 A 
ATOM     88  N   UNL     1      13.149  -5.386  -2.017  1.00  0.00    -0.234 NA
ATOM     89  S   UNL     1      12.422  -7.527  -3.234  1.00  0.00    -0.112 S 
ATOM     90  C   UNL     1      14.287  -5.938  -2.565  1.00  0.00     0.082 A 
ATOM     91  C   UNL     1      14.091  -7.119  -3.279  1.00  0.00     0.055 A 
ATOM     92  C   UNL     1      15.586  -5.403  -2.472  1.00  0.00     0.030 A 
ATOM     93  C   UNL     1      15.154  -7.788  -3.907  1.00  0.00     0.021 A 
ATOM     94  C   UNL     1      16.649  -6.051  -3.106  1.00  0.00     0.002 A 
ATOM     95  C   UNL     1      16.433  -7.229  -3.814  1.00  0.00     0.002 A 
ENDBRANCH  84  87
ENDBRANCH  77  80
ENDBRANCH  75  76
ENDBRANCH  74  75
ENDBRANCH  73  74
ENDBRANCH  72  73
ENDBRANCH   1  72
TORSDOF 17
