REMARK SMILES O=C(NCCCCCCNC(=O)[C@H](c1c[nH]c2ccc(Cl)cc12)[NH+]1CCN(c2cccc(Cl)c2)CC1)c1ccc(-c2c3nc(c(-c4cc(S(=O)(=O)[O-])ccc4F)c4ccc([nH]4)c(-c4cc(S(=O)(=O)[O-])ccc4F)c4nc(c(-c5cc(S(=O)(=O)[O-])ccc5F)c5ccc2[nH]5)C=C4)C=C3)cc1
REMARK SMILES IDX 6 1 5 2 4 3 3 4 1 5 2 6 37 8 38 9 99 10 39 11 98 12 40 13
REMARK SMILES IDX 41 14 42 15 92 16 43 17 97 18 91 19 93 20 44 21 96 22 90 23
REMARK SMILES IDX 89 24 45 26 77 27 57 28 76 29 58 30 61 31 75 32 94 33 59 34
REMARK SMILES IDX 60 35 74 37 95 38 62 39 46 40 47 41 55 42 48 43 54 44 56 45
REMARK SMILES IDX 53 46 49 47 50 48 51 49 52 50 78 51 79 52 87 53 80 54 86 55
REMARK SMILES IDX 88 56 85 57 81 58 82 59 83 60 84 61 63 62 64 63 72 64 65 65
REMARK SMILES IDX 71 66 73 67 70 68 66 69 67 70 68 71 69 72 7 73 8 74 9 75
REMARK SMILES IDX 10 76 11 77 12 79 13 80 24 81 25 82 36 83 26 85 35 86 27 87
REMARK SMILES IDX 28 88 29 89 34 90 30 91 32 92 31 93 33 94 14 95 15 96 23 97
REMARK SMILES IDX 16 98 17 99 22 100 18 102 20 103 19 104 21 105
REMARK H PARENT 3 7 93 25 61 36 10 78 24 84 16 101
REMARK Flexibility Score: inf
ROOT
ATOM      1  C   UNL     1      11.121  -7.992  -4.689  1.00  0.00     0.002 C 
ENDROOT
BRANCH   1   2
ATOM      2  C   UNL     1      11.872  -9.321  -4.774  1.00  0.00     0.021 C 
BRANCH   2   3
ATOM      3  C   UNL     1      11.216 -10.354  -5.678  1.00  0.00     0.116 C 
BRANCH   3   4
ATOM      4  N   UNL     1      11.209  -9.939  -7.072  1.00  0.00    -0.352 N 
ATOM      5  O   UNL     1      11.718 -10.099  -9.266  1.00  0.00    -0.269 OA
ATOM      6  C   UNL     1      11.618 -10.650  -8.173  1.00  0.00     0.251 C 
ATOM      7  H   UNL     1      10.869  -9.032  -7.248  1.00  0.00     0.163 HD
BRANCH   6   8
ATOM      8  C   UNL     1      11.952 -12.082  -8.021  1.00  0.00     0.039 A 
ATOM      9  C   UNL     1      11.101 -12.931  -7.308  1.00  0.00     0.014 A 
ATOM     10  C   UNL     1      13.133 -12.573  -8.583  1.00  0.00     0.014 A 
ATOM     11  C   UNL     1      11.490 -14.239  -7.052  1.00  0.00     0.010 A 
ATOM     12  C   UNL     1      13.481 -13.913  -8.395  1.00  0.00     0.010 A 
ATOM     13  C   UNL     1      12.672 -14.751  -7.610  1.00  0.00    -0.014 A 
BRANCH  13  14
ATOM     14  C   UNL     1      13.003 -16.186  -7.416  1.00  0.00     0.031 A 
ATOM     15  C   UNL     1      14.217 -16.608  -6.639  1.00  0.00     0.074 A 
ATOM     16  C   UNL     1      12.172 -17.109  -7.939  1.00  0.00     0.049 A 
ATOM     17  N   UNL     1      14.648 -17.815  -6.376  1.00  0.00    -0.248 NA
ATOM     18  C   UNL     1      15.062 -15.535  -6.096  1.00  0.00     0.031 C 
ATOM     19  C   UNL     1      10.966 -16.809  -8.716  1.00  0.00     0.029 A 
ATOM     20  N   UNL     1      12.200 -18.478  -7.886  1.00  0.00    -0.354 N 
ATOM     21  C   UNL     1      15.822 -17.652  -5.649  1.00  0.00     0.074 A 
ATOM     22  C   UNL     1      16.052 -16.225  -5.546  1.00  0.00     0.031 C 
ATOM     23  C   UNL     1      10.347 -17.955  -9.027  1.00  0.00     0.029 A 
ATOM     24  C   UNL     1      11.145 -19.072  -8.537  1.00  0.00     0.049 A 
ATOM     25  H   UNL     1      12.906 -18.986  -7.427  1.00  0.00     0.167 HD
ATOM     26  C   UNL     1      16.626 -18.606  -5.112  1.00  0.00     0.034 A 
ATOM     27  C   UNL     1      10.861 -20.372  -8.741  1.00  0.00     0.034 A 
ATOM     28  C   UNL     1      16.377 -20.025  -5.234  1.00  0.00     0.049 A 
ATOM     29  C   UNL     1      11.793 -21.409  -8.181  1.00  0.00     0.074 A 
ATOM     30  C   UNL     1      17.105 -21.078  -4.704  1.00  0.00     0.029 A 
ATOM     31  N   UNL     1      15.327 -20.594  -5.946  1.00  0.00    -0.354 N 
ATOM     32  N   UNL     1      12.891 -21.239  -7.480  1.00  0.00    -0.248 NA
ATOM     33  C   UNL     1      11.448 -22.811  -8.437  1.00  0.00     0.031 C 
ATOM     34  C   UNL     1      16.538 -22.277  -5.153  1.00  0.00     0.029 A 
ATOM     35  C   UNL     1      15.409 -21.979  -5.899  1.00  0.00     0.049 A 
ATOM     36  H   UNL     1      14.625 -20.087  -6.415  1.00  0.00     0.167 HD
ATOM     37  C   UNL     1      13.361 -22.517  -7.199  1.00  0.00     0.074 A 
ATOM     38  C   UNL     1      12.414 -23.445  -7.787  1.00  0.00     0.031 C 
ATOM     39  C   UNL     1      14.472 -22.891  -6.516  1.00  0.00     0.034 A 
BRANCH  26  40
ATOM     40  C   UNL     1      17.871 -18.142  -4.392  1.00  0.00     0.023 A 
ATOM     41  C   UNL     1      17.807 -17.355  -3.229  1.00  0.00     0.031 A 
ATOM     42  C   UNL     1      19.145 -18.465  -4.894  1.00  0.00     0.131 A 
ATOM     43  C   UNL     1      18.985 -16.854  -2.653  1.00  0.00     0.055 A 
ATOM     44  C   UNL     1      20.317 -18.032  -4.270  1.00  0.00     0.041 A 
ATOM     45  F   UNL     1      19.273 -19.197  -6.013  1.00  0.00    -0.206 F 
ATOM     46  C   UNL     1      20.241 -17.207  -3.151  1.00  0.00     0.022 A 
BRANCH  43  47
ATOM     47  S   UNL     1      18.849 -15.613  -1.336  1.00  0.00     0.124 S 
ATOM     48  O   UNL     1      18.048 -14.577  -1.986  1.00  0.00    -0.237 OA
ATOM     49  O   UNL     1      18.187 -16.355  -0.270  1.00  0.00    -0.237 OA
ATOM     50  O   UNL     1      20.236 -15.240  -1.070  1.00  0.00    -0.744 OA
ENDBRANCH  43  47
ENDBRANCH  26  40
BRANCH  27  51
ATOM     51  C   UNL     1       9.662 -20.756  -9.537  1.00  0.00     0.023 A 
ATOM     52  C   UNL     1       8.592 -21.446  -8.948  1.00  0.00     0.031 A 
ATOM     53  C   UNL     1       9.575 -20.440 -10.905  1.00  0.00     0.131 A 
ATOM     54  C   UNL     1       7.492 -21.824  -9.733  1.00  0.00     0.055 A 
ATOM     55  C   UNL     1       8.456 -20.772 -11.668  1.00  0.00     0.041 A 
ATOM     56  F   UNL     1      10.570 -19.774 -11.513  1.00  0.00    -0.206 F 
ATOM     57  C   UNL     1       7.410 -21.479 -11.084  1.00  0.00     0.022 A 
BRANCH  54  58
ATOM     58  S   UNL     1       6.189 -22.831  -8.973  1.00  0.00     0.124 S 
ATOM     59  O   UNL     1       6.936 -24.006  -8.539  1.00  0.00    -0.237 OA
ATOM     60  O   UNL     1       5.705 -21.952  -7.914  1.00  0.00    -0.237 OA
ATOM     61  O   UNL     1       5.251 -23.057 -10.070  1.00  0.00    -0.744 OA
ENDBRANCH  54  58
ENDBRANCH  27  51
BRANCH  39  62
ATOM     62  C   UNL     1      14.696 -24.374  -6.350  1.00  0.00     0.023 A 
ATOM     63  C   UNL     1      14.992 -25.202  -7.448  1.00  0.00     0.031 A 
ATOM     64  C   UNL     1      14.579 -24.971  -5.083  1.00  0.00     0.131 A 
ATOM     65  C   UNL     1      15.101 -26.589  -7.266  1.00  0.00     0.055 A 
ATOM     66  C   UNL     1      14.749 -26.343  -4.899  1.00  0.00     0.041 A 
ATOM     67  F   UNL     1      14.293 -24.228  -4.002  1.00  0.00    -0.206 F 
ATOM     68  C   UNL     1      14.998 -27.163  -5.997  1.00  0.00     0.022 A 
BRANCH  65  69
ATOM     69  S   UNL     1      15.284 -27.647  -8.729  1.00  0.00     0.124 S 
ATOM     70  O   UNL     1      14.080 -27.324  -9.488  1.00  0.00    -0.237 OA
ATOM     71  O   UNL     1      16.543 -27.178  -9.299  1.00  0.00    -0.237 OA
ATOM     72  O   UNL     1      15.322 -28.998  -8.172  1.00  0.00    -0.744 OA
ENDBRANCH  65  69
ENDBRANCH  39  62
ENDBRANCH  13  14
ENDBRANCH   6   8
ENDBRANCH   3   4
ENDBRANCH   2   3
ENDBRANCH   1   2
BRANCH   1  73
ATOM     73  C   UNL     1       9.664  -8.108  -4.230  1.00  0.00     0.002 C 
BRANCH  73  74
ATOM     74  C   UNL     1       9.461  -8.835  -2.891  1.00  0.00     0.021 C 
BRANCH  74  75
ATOM     75  C   UNL     1      10.261  -8.229  -1.738  1.00  0.00     0.116 C 
BRANCH  75  76
ATOM     76  N   UNL     1       9.884  -6.838  -1.557  1.00  0.00    -0.351 N 
ATOM     77  C   UNL     1       8.895  -6.324  -0.761  1.00  0.00     0.283 C 
ATOM     78  H   UNL     1      10.406  -6.181  -2.072  1.00  0.00     0.163 HD
ATOM     79  O   UNL     1       8.417  -5.237  -1.098  1.00  0.00    -0.268 OA
BRANCH  77  80
ATOM     80  C   UNL     1       8.500  -7.070   0.539  1.00  0.00     0.307 C 
BRANCH  80  81
ATOM     81  N   UNL     1       8.956  -6.392   1.786  1.00  0.00    -0.318 N 
ATOM     82  C   UNL     1      10.048  -5.403   1.656  1.00  0.00     0.284 C 
ATOM     83  C   UNL     1       7.970  -5.917   2.758  1.00  0.00     0.284 C 
ATOM     84  H   UNL     1       9.338  -7.244   2.197  1.00  0.00     0.349 HD
ATOM     85  C   UNL     1       9.616  -3.922   1.445  1.00  0.00     0.178 C 
ATOM     86  C   UNL     1       7.446  -4.492   2.510  1.00  0.00     0.178 C 
ATOM     87  N   UNL     1       8.560  -3.531   2.395  1.00  0.00    -0.360 N 
BRANCH  87  88
ATOM     88  C   UNL     1       8.143  -2.201   2.451  1.00  0.00     0.038 A 
ATOM     89  C   UNL     1       7.781  -1.662   3.695  1.00  0.00     0.026 A 
ATOM     90  C   UNL     1       7.993  -1.395   1.316  1.00  0.00     0.046 A 
ATOM     91  C   UNL     1       7.280  -0.364   3.812  1.00  0.00     0.004 A 
ATOM     92  C   UNL     1       7.484  -0.099   1.430  1.00  0.00     0.043 A 
ATOM     93  C   UNL     1       7.126   0.420   2.673  1.00  0.00     0.020 A 
ATOM     94  Cl  UNL     1       7.268   0.865   0.019  1.00  0.00    -0.084 Cl
ENDBRANCH  87  88
ENDBRANCH  80  81
BRANCH  80  95
ATOM     95  C   UNL     1       7.038  -7.471   0.504  1.00  0.00     0.044 A 
ATOM     96  C   UNL     1       5.943  -6.656   0.263  1.00  0.00     0.094 A 
ATOM     97  C   UNL     1       6.510  -8.806   0.632  1.00  0.00     0.011 A 
ATOM     98  N   UNL     1       4.803  -7.399   0.370  1.00  0.00    -0.361 N 
ATOM     99  C   UNL     1       5.117  -8.719   0.571  1.00  0.00     0.046 A 
ATOM    100  C   UNL     1       7.089 -10.085   0.783  1.00  0.00     0.031 A 
ATOM    101  H   UNL     1       3.888  -7.039   0.312  1.00  0.00     0.166 HD
ATOM    102  C   UNL     1       4.273  -9.831   0.684  1.00  0.00     0.028 A 
ATOM    103  C   UNL     1       6.257 -11.207   0.862  1.00  0.00     0.041 A 
ATOM    104  C   UNL     1       4.872 -11.085   0.824  1.00  0.00     0.022 A 
ATOM    105  Cl  UNL     1       6.962 -12.773   0.997  1.00  0.00    -0.084 Cl
ENDBRANCH  80  95
ENDBRANCH  77  80
ENDBRANCH  75  76
ENDBRANCH  74  75
ENDBRANCH  73  74
ENDBRANCH   1  73
TORSDOF 19
