REMARK SMILES Cc1c(CC(=O)NCCCCCCNC(=O)c2ccc(-c3c4nc(c(-c5cc(S(=O)(=O)[O-])ccc5F)c5ccc([nH]5)c(-c5cc(S(=O)(=O)[O-])ccc5F)c5nc(c(-c6cc(S(=O)(=O)[O-])ccc6F)c6ccc3[nH]6)C=C5)C=C4)cc2)cc(-c2ccc(S(C)(=O)=O)cc2)n1-c1cccc(F)c1
REMARK SMILES IDX 10 1 9 2 8 3 7 4 5 5 6 6 4 8 3 9 1 10 2 11 92 12 80 13 81 14
REMARK SMILES IDX 93 15 94 16 99 17 95 18 97 19 96 20 98 21 82 22 83 23 91 24
REMARK SMILES IDX 84 25 90 26 85 27 86 28 87 29 88 30 89 31 11 32 12 33 13 34
REMARK SMILES IDX 14 35 15 36 16 38 17 39 18 40 79 41 19 42 78 43 20 44 21 45
REMARK SMILES IDX 22 46 72 47 23 48 77 49 71 50 73 51 24 52 76 53 70 54 69 55
REMARK SMILES IDX 25 57 57 58 37 59 56 60 38 61 41 62 55 63 74 64 39 65 40 66
REMARK SMILES IDX 54 68 75 69 42 70 26 71 27 72 35 73 28 74 34 75 36 76 33 77
REMARK SMILES IDX 29 78 30 79 31 80 32 81 58 82 59 83 67 84 60 85 66 86 68 87
REMARK SMILES IDX 65 88 61 89 62 90 63 91 64 92 43 93 44 94 52 95 45 96 51 97
REMARK SMILES IDX 53 98 50 99 46 100 47 101 48 102 49 103
REMARK H PARENT 7 7 14 37 73 56 41 67
REMARK Flexibility Score: inf
ROOT
ATOM      1  C   UNL     1      -4.074  -2.324   0.256  1.00  0.00     0.002 C 
ENDROOT
BRANCH   1   2
ATOM      2  C   UNL     1      -2.798  -2.308   1.107  1.00  0.00     0.021 C 
BRANCH   2   3
ATOM      3  C   UNL     1      -1.937  -3.565   0.989  1.00  0.00     0.116 C 
BRANCH   3   4
ATOM      4  N   UNL     1      -1.179  -3.584  -0.250  1.00  0.00    -0.356 N 
ATOM      5  C   UNL     1       0.134  -3.272  -0.465  1.00  0.00     0.224 C 
ATOM      6  O   UNL     1       0.566  -3.328  -1.619  1.00  0.00    -0.275 OA
ATOM      7  H   UNL     1      -1.683  -3.862  -1.048  1.00  0.00     0.163 HD
BRANCH   5   8
ATOM      8  C   UNL     1       1.052  -2.938   0.698  1.00  0.00     0.137 C 
BRANCH   8   9
ATOM      9  C   UNL     1       0.682  -1.681   1.415  1.00  0.00    -0.017 A 
ATOM     10  C   UNL     1       1.054   0.111  -0.412  1.00  0.00     0.065 C 
ATOM     11  C   UNL     1       0.627  -0.376   0.932  1.00  0.00     0.024 A 
ATOM     12  N   UNL     1       0.205   0.459   1.965  1.00  0.00    -0.313 N 
ATOM     13  C   UNL     1       0.368  -1.624   2.788  1.00  0.00     0.033 A 
ATOM     14  C   UNL     1       0.064  -0.321   3.108  1.00  0.00     0.053 A 
BRANCH  12  15
ATOM     15  C   UNL     1      -0.052   1.859   1.885  1.00  0.00     0.049 A 
ATOM     16  C   UNL     1       0.495   2.737   2.836  1.00  0.00     0.027 A 
ATOM     17  C   UNL     1      -0.944   2.340   0.923  1.00  0.00     0.065 A 
ATOM     18  C   UNL     1       0.139   4.088   2.830  1.00  0.00     0.005 A 
ATOM     19  C   UNL     1      -1.288   3.688   0.934  1.00  0.00     0.125 A 
ATOM     20  C   UNL     1      -0.759   4.564   1.878  1.00  0.00     0.039 A 
ATOM     21  F   UNL     1      -2.164   4.147   0.030  1.00  0.00    -0.207 F 
ENDBRANCH  12  15
BRANCH  14  22
ATOM     22  C   UNL     1      -0.310   0.170   4.419  1.00  0.00    -0.001 A 
ATOM     23  C   UNL     1      -1.489   0.899   4.619  1.00  0.00     0.011 A 
ATOM     24  C   UNL     1       0.590  -0.049   5.469  1.00  0.00     0.011 A 
ATOM     25  C   UNL     1      -1.702   1.515   5.841  1.00  0.00     0.021 A 
ATOM     26  C   UNL     1       0.379   0.555   6.688  1.00  0.00     0.021 A 
ATOM     27  C   UNL     1      -0.734   1.371   6.840  1.00  0.00     0.067 A 
BRANCH  27  28
ATOM     28  S   UNL     1      -0.893   2.209   8.378  1.00  0.00     0.175 S 
ATOM     29  C   UNL     1      -1.353   3.869   7.869  1.00  0.00     0.163 C 
ATOM     30  O   UNL     1      -1.960   1.442   9.013  1.00  0.00    -0.224 OA
ATOM     31  O   UNL     1       0.416   2.277   8.966  1.00  0.00    -0.224 OA
ENDBRANCH  27  28
ENDBRANCH  14  22
ENDBRANCH   8   9
ENDBRANCH   5   8
ENDBRANCH   3   4
ENDBRANCH   2   3
ENDBRANCH   1   2
BRANCH   1  32
ATOM     32  C   UNL     1      -5.134  -3.365   0.640  1.00  0.00     0.002 C 
BRANCH  32  33
ATOM     33  C   UNL     1      -5.455  -3.530   2.137  1.00  0.00     0.021 C 
BRANCH  33  34
ATOM     34  C   UNL     1      -5.616  -2.251   2.979  1.00  0.00     0.116 C 
BRANCH  34  35
ATOM     35  N   UNL     1      -6.983  -1.851   3.206  1.00  0.00    -0.352 N 
ATOM     36  C   UNL     1      -7.447  -0.924   4.123  1.00  0.00     0.251 C 
ATOM     37  H   UNL     1      -7.664  -2.287   2.644  1.00  0.00     0.163 HD
ATOM     38  O   UNL     1      -8.622  -0.577   4.043  1.00  0.00    -0.269 OA
BRANCH  36  39
ATOM     39  C   UNL     1      -6.574  -0.384   5.222  1.00  0.00     0.039 A 
ATOM     40  C   UNL     1      -6.322  -1.176   6.335  1.00  0.00     0.014 A 
ATOM     41  C   UNL     1      -6.207   0.973   5.298  1.00  0.00     0.014 A 
ATOM     42  C   UNL     1      -5.711  -0.613   7.485  1.00  0.00     0.010 A 
ATOM     43  C   UNL     1      -5.639   1.553   6.490  1.00  0.00     0.010 A 
ATOM     44  C   UNL     1      -5.406   0.784   7.640  1.00  0.00    -0.014 A 
BRANCH  44  45
ATOM     45  C   UNL     1      -5.400   1.290   9.125  1.00  0.00     0.031 A 
ATOM     46  C   UNL     1      -6.732   0.864   9.633  1.00  0.00     0.074 A 
ATOM     47  C   UNL     1      -4.752   2.167   9.975  1.00  0.00     0.049 A 
ATOM     48  N   UNL     1      -7.810   1.235   8.995  1.00  0.00    -0.248 NA
ATOM     49  C   UNL     1      -6.927  -0.216  10.593  1.00  0.00     0.031 C 
ATOM     50  C   UNL     1      -3.852   3.254   9.611  1.00  0.00     0.029 A 
ATOM     51  N   UNL     1      -4.698   2.282  11.388  1.00  0.00    -0.354 N 
ATOM     52  C   UNL     1      -8.863   0.716   9.701  1.00  0.00     0.074 A 
ATOM     53  C   UNL     1      -8.254  -0.349  10.496  1.00  0.00     0.031 C 
ATOM     54  C   UNL     1      -3.128   3.696  10.676  1.00  0.00     0.029 A 
ATOM     55  C   UNL     1      -3.587   3.042  11.890  1.00  0.00     0.049 A 
ATOM     56  H   UNL     1      -5.370   1.872  11.979  1.00  0.00     0.167 HD
ATOM     57  C   UNL     1      -9.780   1.634  10.128  1.00  0.00     0.034 A 
ATOM     58  C   UNL     1      -3.168   3.327  13.177  1.00  0.00     0.034 A 
ATOM     59  C   UNL     1      -9.542   2.035  11.490  1.00  0.00     0.049 A 
ATOM     60  C   UNL     1      -4.418   3.619  13.878  1.00  0.00     0.074 A 
ATOM     61  C   UNL     1      -9.354   1.328  12.657  1.00  0.00     0.029 A 
ATOM     62  N   UNL     1      -9.037   3.304  11.699  1.00  0.00    -0.354 N 
ATOM     63  N   UNL     1      -5.103   4.698  13.646  1.00  0.00    -0.248 NA
ATOM     64  C   UNL     1      -4.979   2.707  14.862  1.00  0.00     0.031 C 
ATOM     65  C   UNL     1      -8.385   2.053  13.383  1.00  0.00     0.029 A 
ATOM     66  C   UNL     1      -8.225   3.312  12.816  1.00  0.00     0.049 A 
ATOM     67  H   UNL     1      -9.227   4.087  11.134  1.00  0.00     0.167 HD
ATOM     68  C   UNL     1      -6.366   4.306  13.968  1.00  0.00     0.074 A 
ATOM     69  C   UNL     1      -6.190   3.257  14.957  1.00  0.00     0.031 C 
ATOM     70  C   UNL     1      -7.327   4.437  13.015  1.00  0.00     0.034 A 
BRANCH  57  71
ATOM     71  C   UNL     1     -10.310   2.562   9.073  1.00  0.00     0.023 A 
ATOM     72  C   UNL     1     -11.645   2.422   8.672  1.00  0.00     0.031 A 
ATOM     73  C   UNL     1      -9.530   3.544   8.427  1.00  0.00     0.131 A 
ATOM     74  C   UNL     1     -12.151   3.215   7.628  1.00  0.00     0.055 A 
ATOM     75  C   UNL     1     -10.022   4.299   7.362  1.00  0.00     0.041 A 
ATOM     76  F   UNL     1      -8.283   3.817   8.843  1.00  0.00    -0.206 F 
ATOM     77  C   UNL     1     -11.341   4.132   6.953  1.00  0.00     0.022 A 
BRANCH  74  78
ATOM     78  S   UNL     1     -13.906   3.066   7.200  1.00  0.00     0.124 S 
ATOM     79  O   UNL     1     -13.988   1.706   6.676  1.00  0.00    -0.237 OA
ATOM     80  O   UNL     1     -14.561   3.284   8.488  1.00  0.00    -0.237 OA
ATOM     81  O   UNL     1     -14.117   4.126   6.216  1.00  0.00    -0.744 OA
ENDBRANCH  74  78
ENDBRANCH  57  71
BRANCH  58  82
ATOM     82  C   UNL     1      -1.946   3.791  13.969  1.00  0.00     0.023 A 
ATOM     83  C   UNL     1      -2.073   4.569  15.170  1.00  0.00     0.031 A 
ATOM     84  C   UNL     1      -0.703   3.162  13.800  1.00  0.00     0.131 A 
ATOM     85  C   UNL     1      -1.044   4.640  16.144  1.00  0.00     0.055 A 
ATOM     86  C   UNL     1       0.330   3.252  14.761  1.00  0.00     0.041 A 
ATOM     87  F   UNL     1      -0.493   2.345  12.758  1.00  0.00    -0.206 F 
ATOM     88  C   UNL     1       0.158   3.971  15.943  1.00  0.00     0.022 A 
BRANCH  85  89
ATOM     89  S   UNL     1      -1.337   5.434  17.774  1.00  0.00     0.124 S 
ATOM     90  O   UNL     1      -1.244   6.855  17.465  1.00  0.00    -0.237 OA
ATOM     91  O   UNL     1      -2.658   4.933  18.143  1.00  0.00    -0.237 OA
ATOM     92  O   UNL     1      -0.248   4.917  18.607  1.00  0.00    -0.744 OA
ENDBRANCH  85  89
ENDBRANCH  58  82
BRANCH  70  93
ATOM     93  C   UNL     1      -7.276   5.684  12.129  1.00  0.00     0.023 A 
ATOM     94  C   UNL     1      -6.128   6.212  11.480  1.00  0.00     0.031 A 
ATOM     95  C   UNL     1      -8.460   6.428  11.991  1.00  0.00     0.131 A 
ATOM     96  C   UNL     1      -6.180   7.436  10.779  1.00  0.00     0.055 A 
ATOM     97  C   UNL     1      -8.522   7.625  11.271  1.00  0.00     0.041 A 
ATOM     98  F   UNL     1      -9.594   6.003  12.571  1.00  0.00    -0.206 F 
ATOM     99  C   UNL     1      -7.377   8.144  10.676  1.00  0.00     0.022 A 
BRANCH  96 100
ATOM    100  S   UNL     1      -4.664   8.146  10.046  1.00  0.00     0.124 S 
ATOM    101  O   UNL     1      -3.724   8.162  11.160  1.00  0.00    -0.237 OA
ATOM    102  O   UNL     1      -4.351   7.208   8.970  1.00  0.00    -0.237 OA
ATOM    103  O   UNL     1      -5.091   9.472   9.593  1.00  0.00    -0.744 OA
ENDBRANCH  96 100
ENDBRANCH  70  93
ENDBRANCH  44  45
ENDBRANCH  36  39
ENDBRANCH  34  35
ENDBRANCH  33  34
ENDBRANCH  32  33
ENDBRANCH   1  32
TORSDOF 20
