REMARK SMILES O=C(NCCCCCCNC(=O)c1ccccc1NC(=O)c1ccncc1)c1ccc(-c2c3nc(c(-c4cc(S(=O)(=O)[O-])ccc4F)c4ccc([nH]4)c(-c4cc(S(=O)(=O)[O-])ccc4F)c4nc(c(-c5cc(S(=O)(=O)[O-])ccc5F)c5ccc2[nH]5)C=C4)C=C3)cc1
REMARK SMILES IDX 6 1 5 2 4 3 3 4 1 5 2 6 28 8 29 9 90 10 30 11 89 12 31 13
REMARK SMILES IDX 32 14 33 15 83 16 34 17 88 18 82 19 84 20 35 21 87 22 81 23
REMARK SMILES IDX 80 24 36 26 68 27 48 28 67 29 49 30 52 31 66 32 85 33 50 34
REMARK SMILES IDX 51 35 65 37 86 38 53 39 37 40 38 41 46 42 39 43 45 44 47 45
REMARK SMILES IDX 44 46 40 47 41 48 42 49 43 50 69 51 70 52 78 53 71 54 77 55
REMARK SMILES IDX 79 56 76 57 72 58 73 59 74 60 75 61 54 62 55 63 63 64 56 65
REMARK SMILES IDX 62 66 64 67 61 68 57 69 58 70 59 71 60 72 7 73 8 74 9 75
REMARK SMILES IDX 10 76 11 77 12 79 13 80 14 81 18 82 15 83 17 84 16 85 19 86
REMARK SMILES IDX 20 87 21 89 22 90 23 91 27 92 24 93 26 94 25 95
REMARK H PARENT 3 7 84 25 52 36 10 78 19 88
REMARK Flexibility Score: inf
ROOT
ATOM      1  C   UNL     1       4.260   3.940   0.108  1.00  0.00     0.002 C 
ENDROOT
BRANCH   1   2
ATOM      2  C   UNL     1       4.717   2.665  -0.600  1.00  0.00     0.021 C 
BRANCH   2   3
ATOM      3  C   UNL     1       4.439   1.371   0.152  1.00  0.00     0.116 C 
BRANCH   3   4
ATOM      4  N   UNL     1       3.020   1.110   0.324  1.00  0.00    -0.352 N 
ATOM      5  O   UNL     1       1.102  -0.068   0.148  1.00  0.00    -0.269 OA
ATOM      6  C   UNL     1       2.329  -0.053   0.080  1.00  0.00     0.251 C 
ATOM      7  H   UNL     1       2.483   1.865   0.658  1.00  0.00     0.163 HD
BRANCH   6   8
ATOM      8  C   UNL     1       3.071  -1.280  -0.283  1.00  0.00     0.039 A 
ATOM      9  C   UNL     1       4.210  -1.659   0.433  1.00  0.00     0.014 A 
ATOM     10  C   UNL     1       2.623  -2.061  -1.353  1.00  0.00     0.014 A 
ATOM     11  C   UNL     1       4.965  -2.746   0.008  1.00  0.00     0.010 A 
ATOM     12  C   UNL     1       3.339  -3.202  -1.728  1.00  0.00     0.010 A 
ATOM     13  C   UNL     1       4.526  -3.545  -1.060  1.00  0.00    -0.014 A 
BRANCH  13  14
ATOM     14  C   UNL     1       5.272  -4.787  -1.390  1.00  0.00     0.031 A 
ATOM     15  C   UNL     1       5.978  -4.950  -2.708  1.00  0.00     0.074 A 
ATOM     16  C   UNL     1       5.316  -5.767  -0.465  1.00  0.00     0.049 A 
ATOM     17  N   UNL     1       6.670  -5.970  -3.147  1.00  0.00    -0.248 NA
ATOM     18  C   UNL     1       5.893  -3.829  -3.656  1.00  0.00     0.031 C 
ATOM     19  C   UNL     1       4.658  -5.714   0.844  1.00  0.00     0.029 A 
ATOM     20  N   UNL     1       5.943  -6.986  -0.468  1.00  0.00    -0.354 N 
ATOM     21  C   UNL     1       7.090  -5.627  -4.428  1.00  0.00     0.074 A 
ATOM     22  C   UNL     1       6.556  -4.308  -4.702  1.00  0.00     0.031 C 
ATOM     23  C   UNL     1       4.948  -6.829   1.530  1.00  0.00     0.029 A 
ATOM     24  C   UNL     1       5.747  -7.709   0.686  1.00  0.00     0.049 A 
ATOM     25  H   UNL     1       6.483  -7.313  -1.224  1.00  0.00     0.167 HD
ATOM     26  C   UNL     1       7.851  -6.348  -5.288  1.00  0.00     0.034 A 
ATOM     27  C   UNL     1       6.138  -8.953   1.020  1.00  0.00     0.034 A 
ATOM     28  C   UNL     1       8.379  -7.659  -4.991  1.00  0.00     0.049 A 
ATOM     29  C   UNL     1       6.950  -9.741   0.028  1.00  0.00     0.074 A 
ATOM     30  C   UNL     1       9.202  -8.453  -5.772  1.00  0.00     0.029 A 
ATOM     31  N   UNL     1       8.129  -8.377  -3.828  1.00  0.00    -0.354 N 
ATOM     32  N   UNL     1       7.367  -9.384  -1.165  1.00  0.00    -0.248 NA
ATOM     33  C   UNL     1       7.347 -11.096   0.426  1.00  0.00     0.031 C 
ATOM     34  C   UNL     1       9.389  -9.675  -5.116  1.00  0.00     0.029 A 
ATOM     35  C   UNL     1       8.749  -9.617  -3.889  1.00  0.00     0.049 A 
ATOM     36  H   UNL     1       7.590  -8.053  -3.070  1.00  0.00     0.167 HD
ATOM     37  C   UNL     1       8.092 -10.467  -1.651  1.00  0.00     0.074 A 
ATOM     38  C   UNL     1       8.079 -11.475  -0.610  1.00  0.00     0.031 C 
ATOM     39  C   UNL     1       8.711 -10.618  -2.849  1.00  0.00     0.034 A 
BRANCH  26  40
ATOM     40  C   UNL     1       8.125  -5.762  -6.652  1.00  0.00     0.023 A 
ATOM     41  C   UNL     1       8.925  -4.620  -6.827  1.00  0.00     0.031 A 
ATOM     42  C   UNL     1       7.599  -6.380  -7.802  1.00  0.00     0.131 A 
ATOM     43  C   UNL     1       9.141  -4.108  -8.116  1.00  0.00     0.055 A 
ATOM     44  C   UNL     1       7.869  -5.903  -9.086  1.00  0.00     0.041 A 
ATOM     45  F   UNL     1       6.814  -7.464  -7.695  1.00  0.00    -0.206 F 
ATOM     46  C   UNL     1       8.639  -4.755  -9.248  1.00  0.00     0.022 A 
BRANCH  43  47
ATOM     47  S   UNL     1      10.015  -2.528  -8.291  1.00  0.00     0.124 S 
ATOM     48  O   UNL     1       9.144  -1.624  -7.544  1.00  0.00    -0.237 OA
ATOM     49  O   UNL     1      11.309  -2.814  -7.684  1.00  0.00    -0.237 OA
ATOM     50  O   UNL     1      10.040  -2.307  -9.736  1.00  0.00    -0.744 OA
ENDBRANCH  43  47
ENDBRANCH  26  40
BRANCH  27  51
ATOM     51  C   UNL     1       5.731  -9.549   2.324  1.00  0.00     0.023 A 
ATOM     52  C   UNL     1       6.687  -9.935   3.276  1.00  0.00     0.031 A 
ATOM     53  C   UNL     1       4.376  -9.788   2.618  1.00  0.00     0.131 A 
ATOM     54  C   UNL     1       6.280 -10.586   4.450  1.00  0.00     0.055 A 
ATOM     55  C   UNL     1       3.971 -10.378   3.815  1.00  0.00     0.041 A 
ATOM     56  F   UNL     1       3.419  -9.437   1.743  1.00  0.00    -0.206 F 
ATOM     57  C   UNL     1       4.928 -10.797   4.733  1.00  0.00     0.022 A 
BRANCH  54  58
ATOM     58  S   UNL     1       7.553 -11.255   5.555  1.00  0.00     0.124 S 
ATOM     59  O   UNL     1       8.325 -12.094   4.646  1.00  0.00    -0.237 OA
ATOM     60  O   UNL     1       8.212 -10.041   6.024  1.00  0.00    -0.237 OA
ATOM     61  O   UNL     1       6.781 -11.974   6.566  1.00  0.00    -0.744 OA
ENDBRANCH  54  58
ENDBRANCH  27  51
BRANCH  39  62
ATOM     62  C   UNL     1       9.449 -11.914  -3.069  1.00  0.00     0.023 A 
ATOM     63  C   UNL     1       8.770 -13.141  -3.165  1.00  0.00     0.031 A 
ATOM     64  C   UNL     1      10.853 -11.925  -3.149  1.00  0.00     0.131 A 
ATOM     65  C   UNL     1       9.498 -14.335  -3.271  1.00  0.00     0.055 A 
ATOM     66  C   UNL     1      11.568 -13.111  -3.318  1.00  0.00     0.041 A 
ATOM     67  F   UNL     1      11.552 -10.782  -3.060  1.00  0.00    -0.206 F 
ATOM     68  C   UNL     1      10.892 -14.326  -3.365  1.00  0.00     0.022 A 
BRANCH  65  69
ATOM     69  S   UNL     1       8.602 -15.910  -3.184  1.00  0.00     0.124 S 
ATOM     70  O   UNL     1       7.958 -15.821  -1.877  1.00  0.00    -0.237 OA
ATOM     71  O   UNL     1       7.715 -15.829  -4.339  1.00  0.00    -0.237 OA
ATOM     72  O   UNL     1       9.661 -16.913  -3.286  1.00  0.00    -0.744 OA
ENDBRANCH  65  69
ENDBRANCH  39  62
ENDBRANCH  13  14
ENDBRANCH   6   8
ENDBRANCH   3   4
ENDBRANCH   2   3
ENDBRANCH   1   2
BRANCH   1  73
ATOM     73  C   UNL     1       4.775   4.128   1.538  1.00  0.00     0.002 C 
BRANCH  73  74
ATOM     74  C   UNL     1       6.295   4.036   1.729  1.00  0.00     0.021 C 
BRANCH  74  75
ATOM     75  C   UNL     1       7.129   4.929   0.813  1.00  0.00     0.116 C 
BRANCH  75  76
ATOM     76  N   UNL     1       6.769   6.330   0.948  1.00  0.00    -0.352 N 
ATOM     77  C   UNL     1       7.563   7.423   1.167  1.00  0.00     0.253 C 
ATOM     78  H   UNL     1       5.807   6.523   0.871  1.00  0.00     0.163 HD
ATOM     79  O   UNL     1       7.047   8.505   1.435  1.00  0.00    -0.269 OA
BRANCH  77  80
ATOM     80  C   UNL     1       9.037   7.333   1.078  1.00  0.00     0.063 A 
ATOM     81  C   UNL     1       9.743   7.793   2.202  1.00  0.00     0.016 A 
ATOM     82  C   UNL     1       9.718   6.924  -0.087  1.00  0.00     0.054 A 
ATOM     83  C   UNL     1      11.133   7.859   2.178  1.00  0.00     0.001 A 
ATOM     84  C   UNL     1      11.109   7.081  -0.112  1.00  0.00     0.027 A 
ATOM     85  C   UNL     1      11.812   7.521   1.014  1.00  0.00     0.002 A 
BRANCH  82  86
ATOM     86  N   UNL     1       8.984   6.416  -1.183  1.00  0.00    -0.321 N 
ATOM     87  C   UNL     1       9.323   5.688  -2.300  1.00  0.00     0.255 C 
ATOM     88  H   UNL     1       8.024   6.630  -1.137  1.00  0.00     0.170 HD
ATOM     89  O   UNL     1       8.464   5.469  -3.153  1.00  0.00    -0.269 OA
BRANCH  87  90
ATOM     90  C   UNL     1      10.671   5.134  -2.506  1.00  0.00     0.043 A 
ATOM     91  C   UNL     1      11.288   4.323  -1.553  1.00  0.00     0.034 A 
ATOM     92  C   UNL     1      11.326   5.445  -3.695  1.00  0.00     0.034 A 
ATOM     93  C   UNL     1      12.598   3.949  -1.790  1.00  0.00     0.112 A 
ATOM     94  C   UNL     1      12.628   5.009  -3.840  1.00  0.00     0.112 A 
ATOM     95  N   UNL     1      13.289   4.303  -2.896  1.00  0.00    -0.265 NA
ENDBRANCH  87  90
ENDBRANCH  82  86
ENDBRANCH  77  80
ENDBRANCH  75  76
ENDBRANCH  74  75
ENDBRANCH  73  74
ENDBRANCH   1  73
TORSDOF 18
