REMARK SMILES O=C(NCCCCCCNC(=O)[C@H]1CC2(CCN(C(=O)C3CC3)CC2)CN1C(=O)CCn1cccn1)c1ccc(-c2c3nc(c(-c4cc(S(=O)(=O)[O-])ccc4F)c4ccc([nH]4)c(-c4cc(S(=O)(=O)[O-])ccc4F)c4nc(c(-c5cc(S(=O)(=O)[O-])ccc5F)c5ccc2[nH]5)C=C4)C=C3)cc1
REMARK SMILES IDX 7 1 6 2 5 3 4 4 3 5 1 6 2 7 37 9 38 10 99 11 39 12 98 13
REMARK SMILES IDX 40 14 41 15 42 16 92 17 43 18 97 19 91 20 93 21 44 22 96 23
REMARK SMILES IDX 90 24 89 25 45 27 77 28 57 29 76 30 58 31 61 32 75 33 94 34
REMARK SMILES IDX 59 35 60 36 74 38 95 39 62 40 46 41 47 42 55 43 48 44 54 45
REMARK SMILES IDX 56 46 53 47 49 48 50 49 51 50 52 51 78 52 79 53 87 54 80 55
REMARK SMILES IDX 86 56 88 57 85 58 81 59 82 60 83 61 84 62 63 63 64 64 72 65
REMARK SMILES IDX 65 66 71 67 73 68 70 69 66 70 67 71 68 72 69 73 8 74 9 75
REMARK SMILES IDX 10 76 11 77 12 79 13 80 14 81 27 82 15 83 26 84 16 85 25 86
REMARK SMILES IDX 17 87 24 88 18 89 19 90 20 91 28 92 29 93 30 94 31 95 32 96
REMARK SMILES IDX 33 97 36 98 34 99 35 100 21 101 22 102 23 103
REMARK H PARENT 3 8 93 26 61 37 10 78
REMARK Flexibility Score: inf
ROOT
ATOM      1  C   UNL     1       5.203  -3.803   1.885  1.00  0.00     0.002 C 
ENDROOT
BRANCH   1   2
ATOM      2  C   UNL     1       4.996  -4.624   0.610  1.00  0.00     0.002 C 
BRANCH   2   3
ATOM      3  C   UNL     1       3.841  -5.628   0.675  1.00  0.00     0.021 C 
BRANCH   3   4
ATOM      4  C   UNL     1       2.514  -5.025   1.131  1.00  0.00     0.116 C 
BRANCH   4   5
ATOM      5  N   UNL     1       1.958  -4.056   0.216  1.00  0.00    -0.352 N 
ATOM      6  O   UNL     1       0.837  -3.114  -1.442  1.00  0.00    -0.269 OA
ATOM      7  C   UNL     1       1.276  -4.163  -0.963  1.00  0.00     0.251 C 
ATOM      8  H   UNL     1       2.101  -3.124   0.501  1.00  0.00     0.163 HD
BRANCH   7   9
ATOM      9  C   UNL     1       1.103  -5.434  -1.717  1.00  0.00     0.039 A 
ATOM     10  C   UNL     1       1.177  -6.720  -1.178  1.00  0.00     0.014 A 
ATOM     11  C   UNL     1       0.840  -5.293  -3.091  1.00  0.00     0.014 A 
ATOM     12  C   UNL     1       1.077  -7.838  -2.002  1.00  0.00     0.010 A 
ATOM     13  C   UNL     1       0.716  -6.405  -3.915  1.00  0.00     0.010 A 
ATOM     14  C   UNL     1       0.859  -7.679  -3.372  1.00  0.00    -0.014 A 
BRANCH  14  15
ATOM     15  C   UNL     1       0.546  -8.869  -4.164  1.00  0.00     0.031 A 
ATOM     16  C   UNL     1      -0.736  -9.525  -3.776  1.00  0.00     0.074 A 
ATOM     17  C   UNL     1       1.230  -9.259  -5.259  1.00  0.00     0.049 A 
ATOM     18  N   UNL     1      -0.915 -10.716  -3.307  1.00  0.00    -0.248 NA
ATOM     19  C   UNL     1      -1.958  -8.702  -3.778  1.00  0.00     0.031 C 
ATOM     20  C   UNL     1       2.334  -8.560  -5.916  1.00  0.00     0.029 A 
ATOM     21  N   UNL     1       1.002 -10.320  -6.088  1.00  0.00    -0.354 N 
ATOM     22  C   UNL     1      -2.293 -10.874  -3.171  1.00  0.00     0.074 A 
ATOM     23  C   UNL     1      -2.857  -9.558  -3.292  1.00  0.00     0.031 C 
ATOM     24  C   UNL     1       2.522  -9.083  -7.149  1.00  0.00     0.029 A 
ATOM     25  C   UNL     1       1.641 -10.228  -7.324  1.00  0.00     0.049 A 
ATOM     26  H   UNL     1       0.436 -11.085  -5.835  1.00  0.00     0.167 HD
ATOM     27  C   UNL     1      -2.873 -12.107  -3.200  1.00  0.00     0.034 A 
ATOM     28  C   UNL     1       1.416 -10.988  -8.433  1.00  0.00     0.034 A 
ATOM     29  C   UNL     1      -1.900 -13.145  -2.950  1.00  0.00     0.049 A 
ATOM     30  C   UNL     1       0.779 -12.247  -7.977  1.00  0.00     0.074 A 
ATOM     31  C   UNL     1      -1.030 -13.431  -1.915  1.00  0.00     0.029 A 
ATOM     32  N   UNL     1      -1.455 -13.892  -4.018  1.00  0.00    -0.354 N 
ATOM     33  N   UNL     1       1.389 -13.133  -7.239  1.00  0.00    -0.248 NA
ATOM     34  C   UNL     1      -0.675 -12.304  -7.936  1.00  0.00     0.031 C 
ATOM     35  C   UNL     1       0.156 -13.899  -2.554  1.00  0.00     0.029 A 
ATOM     36  C   UNL     1      -0.087 -13.949  -3.928  1.00  0.00     0.049 A 
ATOM     37  H   UNL     1      -2.013 -14.308  -4.714  1.00  0.00     0.167 HD
ATOM     38  C   UNL     1       0.439 -13.546  -6.319  1.00  0.00     0.074 A 
ATOM     39  C   UNL     1      -0.837 -13.078  -6.859  1.00  0.00     0.031 C 
ATOM     40  C   UNL     1       0.799 -13.978  -5.074  1.00  0.00     0.034 A 
BRANCH  27  41
ATOM     41  C   UNL     1      -4.222 -12.412  -3.823  1.00  0.00     0.023 A 
ATOM     42  C   UNL     1      -4.639 -13.758  -3.815  1.00  0.00     0.031 A 
ATOM     43  C   UNL     1      -4.950 -11.553  -4.676  1.00  0.00     0.131 A 
ATOM     44  C   UNL     1      -5.617 -14.219  -4.713  1.00  0.00     0.055 A 
ATOM     45  C   UNL     1      -5.975 -12.004  -5.515  1.00  0.00     0.041 A 
ATOM     46  F   UNL     1      -4.661 -10.256  -4.823  1.00  0.00    -0.206 F 
ATOM     47  C   UNL     1      -6.287 -13.350  -5.568  1.00  0.00     0.022 A 
BRANCH  44  48
ATOM     48  S   UNL     1      -5.842 -16.008  -4.886  1.00  0.00     0.124 S 
ATOM     49  O   UNL     1      -4.481 -16.444  -5.181  1.00  0.00    -0.237 OA
ATOM     50  O   UNL     1      -6.367 -16.372  -3.574  1.00  0.00    -0.237 OA
ATOM     51  O   UNL     1      -6.790 -16.124  -5.991  1.00  0.00    -0.744 OA
ENDBRANCH  44  48
ENDBRANCH  27  41
BRANCH  28  52
ATOM     52  C   UNL     1       1.427 -10.547  -9.860  1.00  0.00     0.023 A 
ATOM     53  C   UNL     1       1.521 -11.443 -10.950  1.00  0.00     0.031 A 
ATOM     54  C   UNL     1       1.092  -9.210 -10.174  1.00  0.00     0.131 A 
ATOM     55  C   UNL     1       1.289 -10.988 -12.274  1.00  0.00     0.055 A 
ATOM     56  C   UNL     1       0.868  -8.767 -11.479  1.00  0.00     0.041 A 
ATOM     57  F   UNL     1       0.881  -8.301  -9.210  1.00  0.00    -0.206 F 
ATOM     58  C   UNL     1       0.957  -9.657 -12.536  1.00  0.00     0.022 A 
BRANCH  55  59
ATOM     59  S   UNL     1       1.326 -12.146 -13.684  1.00  0.00     0.124 S 
ATOM     60  O   UNL     1       2.739 -12.495 -13.765  1.00  0.00    -0.237 OA
ATOM     61  O   UNL     1       0.419 -13.202 -13.249  1.00  0.00    -0.237 OA
ATOM     62  O   UNL     1       0.830 -11.340 -14.802  1.00  0.00    -0.744 OA
ENDBRANCH  55  59
ENDBRANCH  28  52
BRANCH  40  63
ATOM     63  C   UNL     1       2.254 -14.305  -4.808  1.00  0.00     0.023 A 
ATOM     64  C   UNL     1       3.334 -13.410  -4.981  1.00  0.00     0.031 A 
ATOM     65  C   UNL     1       2.531 -15.559  -4.234  1.00  0.00     0.131 A 
ATOM     66  C   UNL     1       4.633 -13.792  -4.592  1.00  0.00     0.055 A 
ATOM     67  C   UNL     1       3.814 -15.924  -3.830  1.00  0.00     0.041 A 
ATOM     68  F   UNL     1       1.543 -16.443  -4.017  1.00  0.00    -0.206 F 
ATOM     69  C   UNL     1       4.872 -15.043  -4.014  1.00  0.00     0.022 A 
BRANCH  66  70
ATOM     70  S   UNL     1       6.050 -12.671  -4.840  1.00  0.00     0.124 S 
ATOM     71  O   UNL     1       5.890 -12.215  -6.215  1.00  0.00    -0.237 OA
ATOM     72  O   UNL     1       5.842 -11.664  -3.802  1.00  0.00    -0.237 OA
ATOM     73  O   UNL     1       7.210 -13.536  -4.617  1.00  0.00    -0.744 OA
ENDBRANCH  66  70
ENDBRANCH  40  63
ENDBRANCH  14  15
ENDBRANCH   7   9
ENDBRANCH   4   5
ENDBRANCH   3   4
ENDBRANCH   2   3
ENDBRANCH   1   2
BRANCH   1  74
ATOM     74  C   UNL     1       5.262  -4.628   3.180  1.00  0.00     0.021 C 
BRANCH  74  75
ATOM     75  C   UNL     1       6.387  -5.666   3.207  1.00  0.00     0.116 C 
BRANCH  75  76
ATOM     76  N   UNL     1       7.677  -5.018   3.126  1.00  0.00    -0.354 N 
ATOM     77  C   UNL     1       8.109  -4.253   4.179  1.00  0.00     0.242 C 
ATOM     78  H   UNL     1       8.239  -5.124   2.325  1.00  0.00     0.163 HD
ATOM     79  O   UNL     1       7.955  -3.037   4.101  1.00  0.00    -0.273 OA
BRANCH  77  80
ATOM     80  C   UNL     1       8.510  -5.003   5.462  1.00  0.00     0.175 C 
ATOM     81  C   UNL     1       9.077  -6.416   5.242  1.00  0.00     0.044 C 
ATOM     82  N   UNL     1       9.392  -4.499   6.525  1.00  0.00    -0.330 N 
ATOM     83  C   UNL     1       9.603  -6.872   6.633  1.00  0.00    -0.006 C 
ATOM     84  C   UNL     1       9.508  -5.586   7.495  1.00  0.00     0.127 C 
ATOM     85  C   UNL     1      11.072  -7.349   6.600  1.00  0.00     0.030 C 
ATOM     86  C   UNL     1       8.737  -8.022   7.182  1.00  0.00     0.030 C 
ATOM     87  C   UNL     1      11.275  -8.689   5.895  1.00  0.00     0.120 C 
ATOM     88  C   UNL     1       8.966  -9.326   6.404  1.00  0.00     0.120 C 
ATOM     89  N   UNL     1      10.379  -9.712   6.421  1.00  0.00    -0.342 N 
ATOM     90  C   UNL     1      10.680 -11.018   6.816  1.00  0.00     0.225 C 
ATOM     91  O   UNL     1       9.778 -11.790   7.154  1.00  0.00    -0.275 OA
BRANCH  82  92
ATOM     92  C   UNL     1      10.381  -3.533   6.498  1.00  0.00     0.225 C 
ATOM     93  O   UNL     1      11.303  -3.542   7.324  1.00  0.00    -0.275 OA
BRANCH  92  94
ATOM     94  C   UNL     1      10.345  -2.376   5.528  1.00  0.00     0.124 C 
BRANCH  94  95
ATOM     95  C   UNL     1      11.283  -2.503   4.333  1.00  0.00     0.154 C 
BRANCH  95  96
ATOM     96  N   UNL     1      11.216  -3.709   3.536  1.00  0.00    -0.272 N 
ATOM     97  C   UNL     1      11.947  -4.849   3.731  1.00  0.00     0.108 A 
ATOM     98  N   UNL     1      10.529  -3.727   2.377  1.00  0.00    -0.182 NA
ATOM     99  C   UNL     1      11.663  -5.678   2.670  1.00  0.00     0.042 A 
ATOM    100  C   UNL     1      10.784  -4.934   1.865  1.00  0.00     0.135 A 
ENDBRANCH  95  96
ENDBRANCH  94  95
ENDBRANCH  92  94
ENDBRANCH  82  92
BRANCH  90 101
ATOM    101  C   UNL     1      12.056 -11.592   6.934  1.00  0.00     0.079 C 
ATOM    102  C   UNL     1      13.363 -11.215   6.307  1.00  0.00     0.014 C 
ATOM    103  C   UNL     1      13.108 -10.883   7.753  1.00  0.00     0.014 C 
ENDBRANCH  90 101
ENDBRANCH  77  80
ENDBRANCH  75  76
ENDBRANCH  74  75
ENDBRANCH   1  74
TORSDOF 21
