REMARK SMILES COc1ccc(-c2nc(SCC(=O)NCCCCCCNC(=O)c3ccc(-c4c5nc(c(-c6cc(S(=O)(=O)[O-])ccc6F)c6ccc([nH]6)c(-c6cc(S(=O)(=O)[O-])ccc6F)c6nc(c(-c7cc(S(=O)(=O)[O-])ccc7F)c7ccc4[nH]7)C=C6)C=C5)cc3)[nH]c2C)cc1
REMARK SMILES IDX 17 1 16 2 15 3 14 4 12 5 13 6 11 8 10 9 9 10 7 11 8 12 88 13
REMARK SMILES IDX 87 14 89 15 6 17 3 18 4 19 91 20 5 21 90 22 2 23 1 24 18 25
REMARK SMILES IDX 19 26 20 27 21 28 22 29 23 31 24 32 25 33 86 34 26 35 85 36
REMARK SMILES IDX 27 37 28 38 29 39 79 40 30 41 84 42 78 43 80 44 31 45 83 46
REMARK SMILES IDX 77 47 76 48 32 50 64 51 44 52 63 53 45 54 48 55 62 56 81 57
REMARK SMILES IDX 46 58 47 59 61 61 82 62 49 63 33 64 34 65 42 66 35 67 41 68
REMARK SMILES IDX 43 69 40 70 36 71 37 72 38 73 39 74 65 75 66 76 74 77 67 78
REMARK SMILES IDX 73 79 75 80 72 81 68 82 69 83 70 84 71 85 50 86 51 87 59 88
REMARK SMILES IDX 52 89 58 90 60 91 57 92 53 93 54 94 55 95 56 96
REMARK H PARENT 14 7 87 16 21 30 80 49 48 60
REMARK Flexibility Score: inf
ROOT
ATOM      1  C   UNL     1      -1.695 -10.770   3.712  1.00  0.00     0.002 C 
ENDROOT
BRANCH   1   2
ATOM      2  C   UNL     1      -0.454 -11.070   2.859  1.00  0.00     0.021 C 
BRANCH   2   3
ATOM      3  C   UNL     1      -0.760 -11.290   1.376  1.00  0.00     0.116 C 
BRANCH   3   4
ATOM      4  N   UNL     1      -1.244 -10.069   0.763  1.00  0.00    -0.355 N 
ATOM      5  C   UNL     1      -0.643  -9.230  -0.129  1.00  0.00     0.230 C 
ATOM      6  O   UNL     1      -1.294  -8.248  -0.498  1.00  0.00    -0.274 OA
ATOM      7  H   UNL     1      -2.152  -9.803   1.033  1.00  0.00     0.163 HD
BRANCH   5   8
ATOM      8  C   UNL     1       0.689  -9.581  -0.768  1.00  0.00     0.178 C 
BRANCH   8   9
ATOM      9  S   UNL     1       2.074  -9.776   0.381  1.00  0.00    -0.078 SA
BRANCH   9  10
ATOM     10  C   UNL     1       2.219  -8.208   1.059  1.00  0.00     0.166 A 
ATOM     11  C   UNL     1       2.121  -6.138   1.528  1.00  0.00     0.092 A 
ATOM     12  N   UNL     1       1.585  -7.117   0.724  1.00  0.00    -0.222 NA
ATOM     13  C   UNL     1       3.080  -6.660   2.379  1.00  0.00     0.040 A 
ATOM     14  N   UNL     1       3.115  -7.996   2.062  1.00  0.00    -0.337 N 
ATOM     15  C   UNL     1       3.943  -6.082   3.432  1.00  0.00     0.067 C 
ATOM     16  H   UNL     1       3.686  -8.678   2.485  1.00  0.00     0.168 HD
BRANCH  11  17
ATOM     17  C   UNL     1       1.719  -4.752   1.440  1.00  0.00     0.002 A 
ATOM     18  C   UNL     1       0.930  -2.072   1.218  1.00  0.00     0.118 A 
ATOM     19  C   UNL     1       0.002  -3.050   1.579  1.00  0.00     0.047 A 
ATOM     20  C   UNL     1       2.260  -2.429   0.990  1.00  0.00     0.047 A 
ATOM     21  C   UNL     1       0.389  -4.390   1.671  1.00  0.00     0.014 A 
ATOM     22  C   UNL     1       2.652  -3.766   1.099  1.00  0.00     0.014 A 
BRANCH  18  23
ATOM     23  O   UNL     1       0.458  -0.788   1.162  1.00  0.00    -0.497 OA
ATOM     24  C   UNL     1       1.007  -0.006   0.106  1.00  0.00     0.278 C 
ENDBRANCH  18  23
ENDBRANCH  11  17
ENDBRANCH   9  10
ENDBRANCH   8   9
ENDBRANCH   5   8
ENDBRANCH   3   4
ENDBRANCH   2   3
ENDBRANCH   1   2
BRANCH   1  25
ATOM     25  C   UNL     1      -2.780 -11.852   3.682  1.00  0.00     0.002 C 
BRANCH  25  26
ATOM     26  C   UNL     1      -2.308 -13.250   4.085  1.00  0.00     0.021 C 
BRANCH  26  27
ATOM     27  C   UNL     1      -1.721 -13.342   5.490  1.00  0.00     0.116 C 
BRANCH  27  28
ATOM     28  N   UNL     1      -2.704 -13.023   6.514  1.00  0.00    -0.352 N 
ATOM     29  C   UNL     1      -3.094 -13.758   7.605  1.00  0.00     0.251 C 
ATOM     30  H   UNL     1      -3.154 -12.153   6.410  1.00  0.00     0.163 HD
ATOM     31  O   UNL     1      -4.091 -13.419   8.242  1.00  0.00    -0.269 OA
BRANCH  29  32
ATOM     32  C   UNL     1      -2.334 -14.966   7.996  1.00  0.00     0.039 A 
ATOM     33  C   UNL     1      -3.036 -16.118   8.358  1.00  0.00     0.014 A 
ATOM     34  C   UNL     1      -0.936 -14.964   8.006  1.00  0.00     0.014 A 
ATOM     35  C   UNL     1      -2.336 -17.285   8.667  1.00  0.00     0.010 A 
ATOM     36  C   UNL     1      -0.243 -16.150   8.237  1.00  0.00     0.010 A 
ATOM     37  C   UNL     1      -0.934 -17.324   8.571  1.00  0.00    -0.014 A 
BRANCH  37  38
ATOM     38  C   UNL     1      -0.186 -18.588   8.802  1.00  0.00     0.031 A 
ATOM     39  C   UNL     1       0.802 -18.695   9.930  1.00  0.00     0.074 A 
ATOM     40  C   UNL     1      -0.355 -19.622   7.954  1.00  0.00     0.049 A 
ATOM     41  N   UNL     1       1.579 -19.695  10.259  1.00  0.00    -0.248 NA
ATOM     42  C   UNL     1       0.960 -17.506  10.780  1.00  0.00     0.031 C 
ATOM     43  C   UNL     1      -1.247 -19.621   6.792  1.00  0.00     0.029 A 
ATOM     44  N   UNL     1       0.217 -20.869   7.930  1.00  0.00    -0.354 N 
ATOM     45  C   UNL     1       2.326 -19.255  11.347  1.00  0.00     0.074 A 
ATOM     46  C   UNL     1       1.955 -17.873  11.573  1.00  0.00     0.031 C 
ATOM     47  C   UNL     1      -1.183 -20.817   6.188  1.00  0.00     0.029 A 
ATOM     48  C   UNL     1      -0.211 -21.653   6.884  1.00  0.00     0.049 A 
ATOM     49  H   UNL     1       0.871 -21.175   8.599  1.00  0.00     0.167 HD
ATOM     50  C   UNL     1       3.220 -19.945  12.099  1.00  0.00     0.034 A 
ATOM     51  C   UNL     1       0.149 -22.898   6.514  1.00  0.00     0.034 A 
ATOM     52  C   UNL     1       3.576 -21.324  11.854  1.00  0.00     0.049 A 
ATOM     53  C   UNL     1       1.163 -23.640   7.344  1.00  0.00     0.074 A 
ATOM     54  C   UNL     1       4.416 -22.141  12.591  1.00  0.00     0.029 A 
ATOM     55  N   UNL     1       3.130 -22.085  10.779  1.00  0.00    -0.354 N 
ATOM     56  N   UNL     1       1.810 -23.235   8.413  1.00  0.00    -0.248 NA
ATOM     57  C   UNL     1       1.487 -25.009   6.925  1.00  0.00     0.031 C 
ATOM     58  C   UNL     1       4.547 -23.360  11.915  1.00  0.00     0.029 A 
ATOM     59  C   UNL     1       3.715 -23.343  10.807  1.00  0.00     0.049 A 
ATOM     60  H   UNL     1       2.491 -21.776  10.097  1.00  0.00     0.167 HD
ATOM     61  C   UNL     1       2.601 -24.310   8.808  1.00  0.00     0.074 A 
ATOM     62  C   UNL     1       2.334 -25.384   7.872  1.00  0.00     0.031 C 
ATOM     63  C   UNL     1       3.464 -24.402   9.854  1.00  0.00     0.034 A 
BRANCH  50  64
ATOM     64  C   UNL     1       3.900 -19.201  13.228  1.00  0.00     0.023 A 
ATOM     65  C   UNL     1       3.169 -18.625  14.283  1.00  0.00     0.031 A 
ATOM     66  C   UNL     1       5.295 -19.021  13.227  1.00  0.00     0.131 A 
ATOM     67  C   UNL     1       3.818 -17.817  15.230  1.00  0.00     0.055 A 
ATOM     68  C   UNL     1       5.947 -18.298  14.228  1.00  0.00     0.041 A 
ATOM     69  F   UNL     1       6.049 -19.526  12.238  1.00  0.00    -0.206 F 
ATOM     70  C   UNL     1       5.206 -17.673  15.226  1.00  0.00     0.022 A 
BRANCH  67  71
ATOM     71  S   UNL     1       2.803 -16.810  16.347  1.00  0.00     0.124 S 
ATOM     72  O   UNL     1       1.982 -16.058  15.401  1.00  0.00    -0.237 OA
ATOM     73  O   UNL     1       2.107 -17.820  17.136  1.00  0.00    -0.237 OA
ATOM     74  O   UNL     1       3.786 -16.012  17.077  1.00  0.00    -0.744 OA
ENDBRANCH  67  71
ENDBRANCH  50  64
BRANCH  51  75
ATOM     75  C   UNL     1      -0.443 -23.511   5.290  1.00  0.00     0.023 A 
ATOM     76  C   UNL     1      -1.280 -24.636   5.369  1.00  0.00     0.031 A 
ATOM     77  C   UNL     1      -0.173 -22.977   4.017  1.00  0.00     0.131 A 
ATOM     78  C   UNL     1      -1.793 -25.208   4.193  1.00  0.00     0.055 A 
ATOM     79  C   UNL     1      -0.728 -23.518   2.856  1.00  0.00     0.041 A 
ATOM     80  F   UNL     1       0.617 -21.899   3.886  1.00  0.00    -0.206 F 
ATOM     81  C   UNL     1      -1.537 -24.646   2.940  1.00  0.00     0.022 A 
BRANCH  78  82
ATOM     82  S   UNL     1      -2.756 -26.740   4.319  1.00  0.00     0.124 S 
ATOM     83  O   UNL     1      -1.791 -27.648   4.927  1.00  0.00    -0.237 OA
ATOM     84  O   UNL     1      -3.873 -26.328   5.163  1.00  0.00    -0.237 OA
ATOM     85  O   UNL     1      -3.105 -27.036   2.931  1.00  0.00    -0.744 OA
ENDBRANCH  78  82
ENDBRANCH  51  75
BRANCH  63  86
ATOM     86  C   UNL     1       4.161 -25.728  10.055  1.00  0.00     0.023 A 
ATOM     87  C   UNL     1       5.073 -26.239   9.115  1.00  0.00     0.031 A 
ATOM     88  C   UNL     1       3.896 -26.500  11.201  1.00  0.00     0.131 A 
ATOM     89  C   UNL     1       5.638 -27.509   9.306  1.00  0.00     0.055 A 
ATOM     90  C   UNL     1       4.516 -27.731  11.421  1.00  0.00     0.041 A 
ATOM     91  F   UNL     1       3.029 -26.068  12.132  1.00  0.00    -0.206 F 
ATOM     92  C   UNL     1       5.382 -28.249  10.463  1.00  0.00     0.022 A 
BRANCH  89  93
ATOM     93  S   UNL     1       6.630 -28.232   7.970  1.00  0.00     0.124 S 
ATOM     94  O   UNL     1       5.685 -28.227   6.857  1.00  0.00    -0.237 OA
ATOM     95  O   UNL     1       7.743 -27.295   7.864  1.00  0.00    -0.237 OA
ATOM     96  O   UNL     1       6.980 -29.556   8.480  1.00  0.00    -0.744 OA
ENDBRANCH  89  93
ENDBRANCH  63  86
ENDBRANCH  37  38
ENDBRANCH  29  32
ENDBRANCH  27  28
ENDBRANCH  26  27
ENDBRANCH  25  26
ENDBRANCH   1  25
TORSDOF 20
