REMARK SMILES O=C(NCCCCCCNC(=O)[C@@H]1CCC(=O)N(CCCOC2CCCCC2)[C@H]1c1ccco1)c1ccc(-c2c3nc(c(-c4cc(S(=O)(=O)[O-])ccc4F)c4ccc([nH]4)c(-c4cc(S(=O)(=O)[O-])ccc4F)c4nc(c(-c5cc(S(=O)(=O)[O-])ccc5F)c5ccc2[nH]5)C=C4)C=C3)cc1
REMARK SMILES IDX 7 1 6 2 5 3 4 4 3 5 1 6 2 7 35 9 36 10 97 11 37 12 96 13
REMARK SMILES IDX 38 14 39 15 40 16 90 17 41 18 95 19 89 20 91 21 42 22 94 23
REMARK SMILES IDX 88 24 87 25 43 27 75 28 55 29 74 30 56 31 59 32 73 33 92 34
REMARK SMILES IDX 57 35 58 36 72 38 93 39 60 40 44 41 45 42 53 43 46 44 52 45
REMARK SMILES IDX 54 46 51 47 47 48 48 49 49 50 50 51 76 52 77 53 85 54 78 55
REMARK SMILES IDX 84 56 86 57 83 58 79 59 80 60 81 61 82 62 61 63 62 64 70 65
REMARK SMILES IDX 63 66 69 67 71 68 68 69 64 70 65 71 66 72 67 73 8 74 9 75
REMARK SMILES IDX 10 76 11 77 12 79 13 80 14 81 29 82 15 83 18 84 16 85 17 86
REMARK SMILES IDX 30 87 31 88 34 89 32 90 33 91 19 92 20 93 21 94 22 95 23 96
REMARK SMILES IDX 24 97 28 98 25 99 27 100 26 101
REMARK H PARENT 3 8 91 26 59 37 10 78
REMARK Flexibility Score: inf
ROOT
ATOM      1  C   UNL     1       4.471  -1.099  -4.040  1.00  0.00     0.002 C 
ENDROOT
BRANCH   1   2
ATOM      2  C   UNL     1       3.852  -2.106  -3.063  1.00  0.00     0.002 C 
BRANCH   2   3
ATOM      3  C   UNL     1       4.347  -1.991  -1.620  1.00  0.00     0.021 C 
BRANCH   3   4
ATOM      4  C   UNL     1       4.258  -0.590  -1.030  1.00  0.00     0.116 C 
BRANCH   4   5
ATOM      5  N   UNL     1       2.881  -0.144  -0.895  1.00  0.00    -0.352 N 
ATOM      6  O   UNL     1       0.983   0.324   0.237  1.00  0.00    -0.269 OA
ATOM      7  C   UNL     1       2.201   0.163   0.255  1.00  0.00     0.251 C 
ATOM      8  H   UNL     1       2.374  -0.051  -1.734  1.00  0.00     0.163 HD
BRANCH   7   9
ATOM      9  C   UNL     1       2.958   0.286   1.516  1.00  0.00     0.039 A 
ATOM     10  C   UNL     1       4.126   1.053   1.553  1.00  0.00     0.014 A 
ATOM     11  C   UNL     1       2.518  -0.392   2.654  1.00  0.00     0.014 A 
ATOM     12  C   UNL     1       4.921   1.040   2.690  1.00  0.00     0.010 A 
ATOM     13  C   UNL     1       3.271  -0.323   3.829  1.00  0.00     0.010 A 
ATOM     14  C   UNL     1       4.487   0.381   3.852  1.00  0.00    -0.014 A 
BRANCH  14  15
ATOM     15  C   UNL     1       5.276   0.525   5.101  1.00  0.00     0.031 A 
ATOM     16  C   UNL     1       5.917  -0.660   5.764  1.00  0.00     0.074 A 
ATOM     17  C   UNL     1       5.416   1.760   5.624  1.00  0.00     0.049 A 
ATOM     18  N   UNL     1       6.618  -0.705   6.869  1.00  0.00    -0.248 NA
ATOM     19  C   UNL     1       5.739  -1.965   5.113  1.00  0.00     0.031 C 
ATOM     20  C   UNL     1       4.830   2.981   5.059  1.00  0.00     0.029 A 
ATOM     21  N   UNL     1       6.097   2.203   6.727  1.00  0.00    -0.354 N 
ATOM     22  C   UNL     1       6.954  -2.041   7.057  1.00  0.00     0.074 A 
ATOM     23  C   UNL     1       6.349  -2.778   5.966  1.00  0.00     0.031 C 
ATOM     24  C   UNL     1       5.214   4.034   5.791  1.00  0.00     0.029 A 
ATOM     25  C   UNL     1       5.997   3.561   6.924  1.00  0.00     0.049 A 
ATOM     26  H   UNL     1       6.608   1.607   7.321  1.00  0.00     0.167 HD
ATOM     27  C   UNL     1       7.700  -2.592   8.047  1.00  0.00     0.034 A 
ATOM     28  C   UNL     1       6.454   4.339   7.924  1.00  0.00     0.034 A 
ATOM     29  C   UNL     1       8.290  -1.830   9.125  1.00  0.00     0.049 A 
ATOM     30  C   UNL     1       7.235   3.693   9.034  1.00  0.00     0.074 A 
ATOM     31  C   UNL     1       9.090  -2.281  10.161  1.00  0.00     0.029 A 
ATOM     32  N   UNL     1       8.133  -0.462   9.318  1.00  0.00    -0.354 N 
ATOM     33  N   UNL     1       7.558   2.430   9.189  1.00  0.00    -0.248 NA
ATOM     34  C   UNL     1       7.716   4.576  10.101  1.00  0.00     0.031 C 
ATOM     35  C   UNL     1       9.346  -1.208  11.020  1.00  0.00     0.029 A 
ATOM     36  C   UNL     1       8.788  -0.063  10.475  1.00  0.00     0.049 A 
ATOM     37  H   UNL     1       7.630   0.137   8.720  1.00  0.00     0.167 HD
ATOM     38  C   UNL     1       8.302   2.371  10.362  1.00  0.00     0.074 A 
ATOM     39  C   UNL     1       8.397   3.730  10.859  1.00  0.00     0.031 C 
ATOM     40  C   UNL     1       8.858   1.293  10.971  1.00  0.00     0.034 A 
BRANCH  27  41
ATOM     41  C   UNL     1       7.877  -4.094   8.041  1.00  0.00     0.023 A 
ATOM     42  C   UNL     1       8.550  -4.764   7.004  1.00  0.00     0.031 A 
ATOM     43  C   UNL     1       7.360  -4.871   9.094  1.00  0.00     0.131 A 
ATOM     44  C   UNL     1       8.633  -6.166   7.011  1.00  0.00     0.055 A 
ATOM     45  C   UNL     1       7.515  -6.258   9.136  1.00  0.00     0.041 A 
ATOM     46  F   UNL     1       6.687  -4.293  10.103  1.00  0.00    -0.206 F 
ATOM     47  C   UNL     1       8.143  -6.915   8.083  1.00  0.00     0.022 A 
BRANCH  44  48
ATOM     48  S   UNL     1       9.268  -7.007   5.534  1.00  0.00     0.124 S 
ATOM     49  O   UNL     1       8.356  -6.523   4.501  1.00  0.00    -0.237 OA
ATOM     50  O   UNL     1      10.639  -6.518   5.456  1.00  0.00    -0.237 OA
ATOM     51  O   UNL     1       9.129  -8.425   5.860  1.00  0.00    -0.744 OA
ENDBRANCH  44  48
ENDBRANCH  27  41
BRANCH  28  52
ATOM     52  C   UNL     1       6.142   5.796   7.939  1.00  0.00     0.023 A 
ATOM     53  C   UNL     1       7.160   6.759   7.872  1.00  0.00     0.031 A 
ATOM     54  C   UNL     1       4.813   6.248   8.044  1.00  0.00     0.131 A 
ATOM     55  C   UNL     1       6.838   8.122   7.955  1.00  0.00     0.055 A 
ATOM     56  C   UNL     1       4.493   7.605   8.061  1.00  0.00     0.041 A 
ATOM     57  F   UNL     1       3.800   5.370   8.109  1.00  0.00    -0.206 F 
ATOM     58  C   UNL     1       5.511   8.552   8.030  1.00  0.00     0.022 A 
BRANCH  55  59
ATOM     59  S   UNL     1       8.188   9.328   8.055  1.00  0.00     0.124 S 
ATOM     60  O   UNL     1       8.911   8.866   9.234  1.00  0.00    -0.237 OA
ATOM     61  O   UNL     1       8.860   9.139   6.774  1.00  0.00    -0.237 OA
ATOM     62  O   UNL     1       7.493  10.604   8.210  1.00  0.00    -0.744 OA
ENDBRANCH  55  59
ENDBRANCH  28  52
BRANCH  40  63
ATOM     63  C   UNL     1       9.657   1.558  12.225  1.00  0.00     0.023 A 
ATOM     64  C   UNL     1       9.056   2.048  13.398  1.00  0.00     0.031 A 
ATOM     65  C   UNL     1      11.047   1.340  12.236  1.00  0.00     0.131 A 
ATOM     66  C   UNL     1       9.851   2.365  14.510  1.00  0.00     0.055 A 
ATOM     67  C   UNL     1      11.821   1.591  13.369  1.00  0.00     0.041 A 
ATOM     68  F   UNL     1      11.676   0.880  11.143  1.00  0.00    -0.206 F 
ATOM     69  C   UNL     1      11.226   2.121  14.510  1.00  0.00     0.022 A 
BRANCH  66  70
ATOM     70  S   UNL     1       9.079   3.207  15.920  1.00  0.00     0.124 S 
ATOM     71  O   UNL     1       8.537   4.409  15.295  1.00  0.00    -0.237 OA
ATOM     72  O   UNL     1       8.099   2.225  16.372  1.00  0.00    -0.237 OA
ATOM     73  O   UNL     1      10.195   3.434  16.836  1.00  0.00    -0.744 OA
ENDBRANCH  66  70
ENDBRANCH  40  63
ENDBRANCH  14  15
ENDBRANCH   7   9
ENDBRANCH   4   5
ENDBRANCH   3   4
ENDBRANCH   2   3
ENDBRANCH   1   2
BRANCH   1  74
ATOM     74  C   UNL     1       5.995  -0.993  -3.950  1.00  0.00     0.021 C 
BRANCH  74  75
ATOM     75  C   UNL     1       6.744  -2.255  -4.352  1.00  0.00     0.116 C 
BRANCH  75  76
ATOM     76  N   UNL     1       6.875  -2.428  -5.780  1.00  0.00    -0.356 N 
ATOM     77  C   UNL     1       7.939  -2.769  -6.550  1.00  0.00     0.225 C 
ATOM     78  H   UNL     1       6.044  -2.271  -6.285  1.00  0.00     0.163 HD
ATOM     79  O   UNL     1       7.692  -2.975  -7.747  1.00  0.00    -0.275 OA
BRANCH  77  80
ATOM     80  C   UNL     1       9.403  -2.832  -6.081  1.00  0.00     0.109 C 
ATOM     81  C   UNL     1       9.741  -3.655  -4.853  1.00  0.00     0.026 C 
ATOM     82  C   UNL     1      10.035  -1.448  -6.051  1.00  0.00     0.164 C 
ATOM     83  C   UNL     1      10.016  -2.872  -3.571  1.00  0.00     0.101 C 
ATOM     84  N   UNL     1       9.779  -0.714  -4.818  1.00  0.00    -0.332 N 
ATOM     85  C   UNL     1       9.914  -1.347  -3.590  1.00  0.00     0.223 C 
ATOM     86  O   UNL     1       9.857  -0.738  -2.521  1.00  0.00    -0.275 OA
BRANCH  82  87
ATOM     87  C   UNL     1      11.510  -1.445  -6.351  1.00  0.00     0.127 A 
ATOM     88  C   UNL     1      12.223  -1.600  -7.526  1.00  0.00     0.048 A 
ATOM     89  O   UNL     1      12.365  -1.104  -5.343  1.00  0.00    -0.467 OA
ATOM     90  C   UNL     1      13.569  -1.278  -7.223  1.00  0.00     0.042 A 
ATOM     91  C   UNL     1      13.601  -0.980  -5.882  1.00  0.00     0.195 A 
ENDBRANCH  82  87
BRANCH  84  92
ATOM     92  C   UNL     1       9.419   0.718  -4.864  1.00  0.00     0.122 C 
BRANCH  92  93
ATOM     93  C   UNL     1      10.455   1.713  -5.413  1.00  0.00     0.050 C 
BRANCH  93  94
ATOM     94  C   UNL     1      10.600   1.869  -6.935  1.00  0.00     0.162 C 
BRANCH  94  95
ATOM     95  O   UNL     1       9.753   2.834  -7.565  1.00  0.00    -0.378 OA
BRANCH  95  96
ATOM     96  C   UNL     1       8.403   2.518  -7.932  1.00  0.00     0.118 C 
ATOM     97  C   UNL     1       8.127   1.046  -8.239  1.00  0.00     0.032 C 
ATOM     98  C   UNL     1       7.454   3.148  -6.907  1.00  0.00     0.032 C 
ATOM     99  C   UNL     1       6.660   0.667  -8.356  1.00  0.00     0.003 C 
ATOM    100  C   UNL     1       6.002   2.707  -7.062  1.00  0.00     0.003 C 
ATOM    101  C   UNL     1       5.890   1.195  -7.157  1.00  0.00     0.000 C 
ENDBRANCH  95  96
ENDBRANCH  94  95
ENDBRANCH  93  94
ENDBRANCH  92  93
ENDBRANCH  84  92
ENDBRANCH  77  80
ENDBRANCH  75  76
ENDBRANCH  74  75
ENDBRANCH   1  74
TORSDOF 22
