REMARK SMILES CCN1C(=O)N/C(=C/c2cc(Cl)c(OCc3cccc(C(=O)NCCCCCCNC(=O)c4ccc(-c5c6nc(c(-c7cc(S(=O)(=O)[O-])ccc7F)c7ccc([nH]7)c(-c7cc(S(=O)(=O)[O-])ccc7F)c7nc(c(-c8cc(S(=O)(=O)[O-])ccc8F)c8ccc5[nH]8)C=C7)C=C6)cc4)c3)c(OC)c2)C1=O
REMARK SMILES IDX 25 1 24 2 23 3 21 4 22 5 20 7 16 8 17 9 96 10 18 11 19 12
REMARK SMILES IDX 15 13 14 14 13 15 9 16 10 17 100 18 11 19 97 20 12 21 8 22
REMARK SMILES IDX 3 23 4 24 101 25 5 26 6 27 7 28 102 29 2 31 1 32 98 33 99 34
REMARK SMILES IDX 26 35 27 36 28 37 29 38 30 39 31 40 32 42 33 43 34 44 95 45
REMARK SMILES IDX 35 46 94 47 36 48 37 49 38 50 88 51 39 52 93 53 87 54 89 55
REMARK SMILES IDX 40 56 92 57 86 58 85 59 41 61 73 62 53 63 72 64 54 65 57 66
REMARK SMILES IDX 71 67 90 68 55 69 56 70 70 72 91 73 58 74 42 75 43 76 51 77
REMARK SMILES IDX 44 78 50 79 52 80 49 81 45 82 46 83 47 84 48 85 74 86 75 87
REMARK SMILES IDX 83 88 76 89 82 90 84 91 81 92 77 93 78 94 79 95 80 96 59 97
REMARK SMILES IDX 60 98 68 99 61 100 67 101 69 102 66 103 62 104 63 105 64 106
REMARK SMILES IDX 65 107
REMARK H PARENT 23 6 6 30 30 41 89 60 57 71
REMARK Flexibility Score: inf
ROOT
ATOM      1  C   UNL     1       4.478   6.634   7.409  1.00  0.00     0.021 C 
ENDROOT
BRANCH   1   2
ATOM      2  C   UNL     1       3.226   5.847   7.048  1.00  0.00     0.116 C 
BRANCH   2   3
ATOM      3  N   UNL     1       2.521   6.330   5.871  1.00  0.00    -0.352 N 
ATOM      4  C   UNL     1       1.994   5.659   4.787  1.00  0.00     0.251 C 
ATOM      5  O   UNL     1       1.438   6.310   3.904  1.00  0.00    -0.269 OA
ATOM      6  H   UNL     1       2.399   7.306   5.843  1.00  0.00     0.163 HD
BRANCH   4   7
ATOM      7  C   UNL     1       2.157   4.189   4.619  1.00  0.00     0.040 A 
ATOM      8  C   UNL     1       2.724   2.008   5.558  1.00  0.00    -0.010 A 
ATOM      9  C   UNL     1       2.955   1.538   4.262  1.00  0.00     0.007 A 
ATOM     10  C   UNL     1       2.213   3.309   5.701  1.00  0.00     0.021 A 
ATOM     11  C   UNL     1       2.697   2.349   3.151  1.00  0.00     0.001 A 
ATOM     12  C   UNL     1       2.333   3.683   3.329  1.00  0.00     0.014 A 
BRANCH   8  13
ATOM     13  C   UNL     1       3.082   1.282   6.848  1.00  0.00     0.265 C 
BRANCH  13  14
ATOM     14  O   UNL     1       3.707   0.005   6.822  1.00  0.00    -0.483 OA
BRANCH  14  15
ATOM     15  C   UNL     1       3.149  -1.047   6.152  1.00  0.00     0.180 A 
ATOM     16  C   UNL     1       2.350  -3.099   4.421  1.00  0.00    -0.018 A 
ATOM     17  C   UNL     1       1.397  -2.299   5.056  1.00  0.00     0.033 A 
ATOM     18  C   UNL     1       3.700  -2.956   4.737  1.00  0.00     0.058 A 
ATOM     19  C   UNL     1       1.787  -1.283   5.929  1.00  0.00     0.087 A 
ATOM     20  C   UNL     1       4.104  -1.942   5.609  1.00  0.00     0.162 A 
ATOM     21  Cl  UNL     1       0.495  -0.417   6.682  1.00  0.00    -0.080 Cl
BRANCH  16  22
ATOM     22  C   UNL     1       1.929  -4.032   3.377  1.00  0.00     0.040 C 
ATOM     23  N   UNL     1       0.831  -2.364   0.392  1.00  0.00    -0.259 N 
ATOM     24  C   UNL     1       0.590  -3.697   0.121  1.00  0.00     0.328 C 
ATOM     25  C   UNL     1       1.427  -2.218   1.623  1.00  0.00     0.278 C 
ATOM     26  O   UNL     1       0.075  -4.170  -0.879  1.00  0.00    -0.248 OA
ATOM     27  N   UNL     1       1.021  -4.441   1.205  1.00  0.00    -0.303 N 
ATOM     28  C   UNL     1       1.509  -3.619   2.175  1.00  0.00     0.109 C 
ATOM     29  O   UNL     1       1.832  -1.209   2.161  1.00  0.00    -0.267 OA
ATOM     30  H   UNL     1       0.981  -5.423   1.265  1.00  0.00     0.172 HD
BRANCH  23  31
ATOM     31  C   UNL     1       0.437  -1.315  -0.532  1.00  0.00     0.127 C 
ATOM     32  C   UNL     1       0.859   0.102  -0.185  1.00  0.00     0.028 C 
ENDBRANCH  23  31
ENDBRANCH  16  22
BRANCH  20  33
ATOM     33  O   UNL     1       5.419  -1.695   5.931  1.00  0.00    -0.493 OA
ATOM     34  C   UNL     1       6.358  -2.737   5.699  1.00  0.00     0.278 C 
ENDBRANCH  20  33
ENDBRANCH  14  15
ENDBRANCH  13  14
ENDBRANCH   8  13
ENDBRANCH   4   7
ENDBRANCH   2   3
ENDBRANCH   1   2
BRANCH   1  35
ATOM     35  C   UNL     1       4.266   8.093   7.801  1.00  0.00     0.002 C 
BRANCH  35  36
ATOM     36  C   UNL     1       3.226   8.346   8.895  1.00  0.00     0.002 C 
BRANCH  36  37
ATOM     37  C   UNL     1       3.399   7.544  10.188  1.00  0.00     0.021 C 
BRANCH  37  38
ATOM     38  C   UNL     1       4.766   7.658  10.853  1.00  0.00     0.116 C 
BRANCH  38  39
ATOM     39  N   UNL     1       5.092   9.028  11.206  1.00  0.00    -0.352 N 
ATOM     40  C   UNL     1       5.480   9.550  12.414  1.00  0.00     0.251 C 
ATOM     41  H   UNL     1       5.026   9.678  10.470  1.00  0.00     0.163 HD
ATOM     42  O   UNL     1       5.508  10.769  12.561  1.00  0.00    -0.269 OA
BRANCH  40  43
ATOM     43  C   UNL     1       5.843   8.655  13.536  1.00  0.00     0.039 A 
ATOM     44  C   UNL     1       5.430   8.996  14.827  1.00  0.00     0.014 A 
ATOM     45  C   UNL     1       6.610   7.504  13.331  1.00  0.00     0.014 A 
ATOM     46  C   UNL     1       5.754   8.165  15.901  1.00  0.00     0.010 A 
ATOM     47  C   UNL     1       6.859   6.633  14.390  1.00  0.00     0.010 A 
ATOM     48  C   UNL     1       6.450   6.962  15.691  1.00  0.00    -0.014 A 
BRANCH  48  49
ATOM     49  C   UNL     1       6.779   6.063  16.829  1.00  0.00     0.031 A 
ATOM     50  C   UNL     1       8.217   5.795  17.191  1.00  0.00     0.074 A 
ATOM     51  C   UNL     1       5.786   5.470  17.520  1.00  0.00     0.049 A 
ATOM     52  N   UNL     1       8.705   5.032  18.135  1.00  0.00    -0.248 NA
ATOM     53  C   UNL     1       9.241   6.450  16.363  1.00  0.00     0.031 C 
ATOM     54  C   UNL     1       4.356   5.621  17.239  1.00  0.00     0.029 A 
ATOM     55  N   UNL     1       5.822   4.625  18.602  1.00  0.00    -0.354 N 
ATOM     56  C   UNL     1      10.088   5.109  18.011  1.00  0.00     0.074 A 
ATOM     57  C   UNL     1      10.357   5.935  16.854  1.00  0.00     0.031 C 
ATOM     58  C   UNL     1       3.653   4.927  18.148  1.00  0.00     0.029 A 
ATOM     59  C   UNL     1       4.577   4.240  19.045  1.00  0.00     0.049 A 
ATOM     60  H   UNL     1       6.660   4.323  19.021  1.00  0.00     0.167 HD
ATOM     61  C   UNL     1      11.045   4.566  18.804  1.00  0.00     0.034 A 
ATOM     62  C   UNL     1       4.220   3.421  20.054  1.00  0.00     0.034 A 
ATOM     63  C   UNL     1      10.757   3.749  19.958  1.00  0.00     0.049 A 
ATOM     64  C   UNL     1       5.302   2.801  20.903  1.00  0.00     0.074 A 
ATOM     65  C   UNL     1      11.645   3.186  20.859  1.00  0.00     0.029 A 
ATOM     66  N   UNL     1       9.485   3.367  20.368  1.00  0.00    -0.354 N 
ATOM     67  N   UNL     1       6.606   2.929  20.804  1.00  0.00    -0.248 NA
ATOM     68  C   UNL     1       4.864   1.940  22.008  1.00  0.00     0.031 C 
ATOM     69  C   UNL     1      10.919   2.400  21.759  1.00  0.00     0.029 A 
ATOM     70  C   UNL     1       9.569   2.547  21.484  1.00  0.00     0.049 A 
ATOM     71  H   UNL     1       8.647   3.639  19.929  1.00  0.00     0.167 HD
ATOM     72  C   UNL     1       7.140   2.192  21.858  1.00  0.00     0.074 A 
ATOM     73  C   UNL     1       6.016   1.641  22.587  1.00  0.00     0.031 C 
ATOM     74  C   UNL     1       8.441   1.992  22.196  1.00  0.00     0.034 A 
BRANCH  61  75
ATOM     75  C   UNL     1      12.489   4.816  18.428  1.00  0.00     0.023 A 
ATOM     76  C   UNL     1      13.029   6.115  18.384  1.00  0.00     0.031 A 
ATOM     77  C   UNL     1      13.332   3.745  18.081  1.00  0.00     0.131 A 
ATOM     78  C   UNL     1      14.340   6.315  17.927  1.00  0.00     0.055 A 
ATOM     79  C   UNL     1      14.664   3.944  17.714  1.00  0.00     0.041 A 
ATOM     80  F   UNL     1      12.870   2.485  18.079  1.00  0.00    -0.206 F 
ATOM     81  C   UNL     1      15.171   5.236  17.619  1.00  0.00     0.022 A 
BRANCH  78  82
ATOM     82  S   UNL     1      14.889   8.010  17.587  1.00  0.00     0.124 S 
ATOM     83  O   UNL     1      13.899   8.450  16.607  1.00  0.00    -0.237 OA
ATOM     84  O   UNL     1      14.810   8.637  18.901  1.00  0.00    -0.237 OA
ATOM     85  O   UNL     1      16.241   7.833  17.059  1.00  0.00    -0.744 OA
ENDBRANCH  78  82
ENDBRANCH  61  75
BRANCH  62  86
ATOM     86  C   UNL     1       2.780   3.129  20.320  1.00  0.00     0.023 A 
ATOM     87  C   UNL     1       2.177   3.492  21.534  1.00  0.00     0.031 A 
ATOM     88  C   UNL     1       1.997   2.437  19.378  1.00  0.00     0.131 A 
ATOM     89  C   UNL     1       0.850   3.117  21.797  1.00  0.00     0.055 A 
ATOM     90  C   UNL     1       0.659   2.121  19.619  1.00  0.00     0.041 A 
ATOM     91  F   UNL     1       2.522   2.065  18.199  1.00  0.00    -0.206 F 
ATOM     92  C   UNL     1       0.082   2.449  20.841  1.00  0.00     0.022 A 
BRANCH  89  93
ATOM     93  S   UNL     1       0.170   3.427  23.450  1.00  0.00     0.124 S 
ATOM     94  O   UNL     1       1.112   2.705  24.298  1.00  0.00    -0.237 OA
ATOM     95  O   UNL     1       0.219   4.883  23.530  1.00  0.00    -0.237 OA
ATOM     96  O   UNL     1      -1.173   2.854  23.378  1.00  0.00    -0.744 OA
ENDBRANCH  89  93
ENDBRANCH  62  86
BRANCH  74  97
ATOM     97  C   UNL     1       8.710   1.182  23.444  1.00  0.00     0.023 A 
ATOM     98  C   UNL     1       8.351  -0.173  23.543  1.00  0.00     0.031 A 
ATOM     99  C   UNL     1       9.319   1.785  24.559  1.00  0.00     0.131 A 
ATOM    100  C   UNL     1       8.536  -0.860  24.753  1.00  0.00     0.055 A 
ATOM    101  C   UNL     1       9.570   1.076  25.735  1.00  0.00     0.041 A 
ATOM    102  F   UNL     1       9.680   3.078  24.526  1.00  0.00    -0.206 F 
ATOM    103  C   UNL     1       9.162  -0.249  25.842  1.00  0.00     0.022 A 
BRANCH 100 104
ATOM    104  S   UNL     1       7.836  -2.524  24.924  1.00  0.00     0.124 S 
ATOM    105  O   UNL     1       6.426  -2.292  24.628  1.00  0.00    -0.237 OA
ATOM    106  O   UNL     1       8.581  -3.281  23.923  1.00  0.00    -0.237 OA
ATOM    107  O   UNL     1       8.128  -2.878  26.312  1.00  0.00    -0.744 OA
ENDBRANCH 100 104
ENDBRANCH  74  97
ENDBRANCH  48  49
ENDBRANCH  40  43
ENDBRANCH  38  39
ENDBRANCH  37  38
ENDBRANCH  36  37
ENDBRANCH  35  36
ENDBRANCH   1  35
TORSDOF 22
