REMARK SMILES C[C@H](C(=O)NCCCCCCNC(=O)c1ccc(-c2c3nc(c(-c4cc(S(=O)(=O)[O-])ccc4F)c4ccc([nH]4)c(-c4cc(S(=O)(=O)[O-])ccc4F)c4nc(c(-c5cc(S(=O)(=O)[O-])ccc5F)c5ccc2[nH]5)C=C4)C=C3)cc1)[NH+]1CC[NH+](C[C@H]2COc3ccccc32)CC1
REMARK SMILES IDX 8 1 7 2 6 3 5 4 3 5 4 6 2 8 1 9 78 10 79 11 93 12 80 14
REMARK SMILES IDX 92 15 81 16 82 18 83 19 84 20 91 21 85 22 86 23 90 24 87 25
REMARK SMILES IDX 89 26 88 27 9 28 10 29 11 30 12 31 13 32 14 34 15 35 16 36
REMARK SMILES IDX 77 37 17 38 76 39 18 40 19 41 20 42 70 43 21 44 75 45 69 46
REMARK SMILES IDX 71 47 22 48 74 49 68 50 67 51 23 53 55 54 35 55 54 56 36 57
REMARK SMILES IDX 39 58 53 59 72 60 37 61 38 62 52 64 73 65 40 66 24 67 25 68
REMARK SMILES IDX 33 69 26 70 32 71 34 72 31 73 27 74 28 75 29 76 30 77 56 78
REMARK SMILES IDX 57 79 65 80 58 81 64 82 66 83 63 84 59 85 60 86 61 87 62 88
REMARK SMILES IDX 41 89 42 90 50 91 43 92 49 93 51 94 48 95 44 96 45 97 46 98
REMARK SMILES IDX 47 99
REMARK H PARENT 5 7 78 13 81 17 12 33 71 52 39 63
REMARK Flexibility Score: inf
ROOT
ATOM      1  C   UNL     1      -0.979  -0.915   7.999  1.00  0.00     0.002 C 
ENDROOT
BRANCH   1   2
ATOM      2  C   UNL     1      -1.588  -0.010   6.918  1.00  0.00     0.021 C 
BRANCH   2   3
ATOM      3  C   UNL     1      -1.132   1.451   7.005  1.00  0.00     0.116 C 
BRANCH   3   4
ATOM      4  N   UNL     1       0.305   1.534   6.817  1.00  0.00    -0.351 N 
ATOM      5  C   UNL     1       1.047   1.948   5.751  1.00  0.00     0.278 C 
ATOM      6  O   UNL     1       2.256   1.692   5.798  1.00  0.00    -0.268 OA
ATOM      7  H   UNL     1       0.835   1.240   7.593  1.00  0.00     0.163 HD
BRANCH   5   8
ATOM      8  C   UNL     1       0.435   2.829   4.633  1.00  0.00     0.271 C 
ATOM      9  C   UNL     1       1.466   3.209   3.562  1.00  0.00     0.086 C 
BRANCH   8  10
ATOM     10  N   UNL     1      -0.833   2.306   4.097  1.00  0.00    -0.316 N 
ATOM     11  C   UNL     1      -1.661   3.326   3.450  1.00  0.00     0.325 C 
ATOM     12  C   UNL     1      -0.827   1.010   3.414  1.00  0.00     0.325 C 
ATOM     13  H   UNL     1      -1.309   2.041   4.959  1.00  0.00     0.349 HD
ATOM     14  C   UNL     1      -1.698   3.294   1.904  1.00  0.00     0.324 C 
ATOM     15  C   UNL     1      -0.906   1.034   1.872  1.00  0.00     0.324 C 
ATOM     16  N   UNL     1      -1.892   1.971   1.306  1.00  0.00    -0.325 N 
ATOM     17  H   UNL     1      -1.718   2.094   0.309  1.00  0.00     0.348 HD
BRANCH  16  18
ATOM     18  C   UNL     1      -3.270   1.440   1.236  1.00  0.00     0.274 C 
BRANCH  18  19
ATOM     19  C   UNL     1      -4.343   1.845   2.267  1.00  0.00     0.116 C 
ATOM     20  C   UNL     1      -4.864   3.285   2.079  1.00  0.00     0.244 C 
ATOM     21  C   UNL     1      -5.659   1.141   2.195  1.00  0.00     0.006 A 
ATOM     22  O   UNL     1      -6.253   3.363   2.450  1.00  0.00    -0.492 OA
ATOM     23  C   UNL     1      -6.681   2.068   2.358  1.00  0.00     0.123 A 
ATOM     24  C   UNL     1      -5.952  -0.213   2.154  1.00  0.00     0.008 A 
ATOM     25  C   UNL     1      -8.006   1.703   2.476  1.00  0.00     0.047 A 
ATOM     26  C   UNL     1      -7.291  -0.607   2.268  1.00  0.00     0.001 A 
ATOM     27  C   UNL     1      -8.312   0.345   2.429  1.00  0.00     0.004 A 
ENDBRANCH  18  19
ENDBRANCH  16  18
ENDBRANCH   8  10
ENDBRANCH   5   8
ENDBRANCH   3   4
ENDBRANCH   2   3
ENDBRANCH   1   2
BRANCH   1  28
ATOM     28  C   UNL     1      -1.266  -0.476   9.438  1.00  0.00     0.002 C 
BRANCH  28  29
ATOM     29  C   UNL     1      -2.752  -0.421   9.800  1.00  0.00     0.021 C 
BRANCH  29  30
ATOM     30  C   UNL     1      -3.481  -1.757   9.673  1.00  0.00     0.116 C 
BRANCH  30  31
ATOM     31  N   UNL     1      -2.928  -2.764  10.568  1.00  0.00    -0.352 N 
ATOM     32  C   UNL     1      -3.545  -3.480  11.562  1.00  0.00     0.251 C 
ATOM     33  H   UNL     1      -1.972  -2.960  10.440  1.00  0.00     0.163 HD
ATOM     34  O   UNL     1      -2.868  -4.123  12.362  1.00  0.00    -0.269 OA
BRANCH  32  35
ATOM     35  C   UNL     1      -5.018  -3.455  11.682  1.00  0.00     0.039 A 
ATOM     36  C   UNL     1      -5.591  -3.264  12.941  1.00  0.00     0.014 A 
ATOM     37  C   UNL     1      -5.832  -3.605  10.554  1.00  0.00     0.014 A 
ATOM     38  C   UNL     1      -6.977  -3.139  13.056  1.00  0.00     0.010 A 
ATOM     39  C   UNL     1      -7.207  -3.412  10.662  1.00  0.00     0.010 A 
ATOM     40  C   UNL     1      -7.793  -3.160  11.912  1.00  0.00    -0.014 A 
BRANCH  40  41
ATOM     41  C   UNL     1      -9.247  -2.860  12.002  1.00  0.00     0.031 A 
ATOM     42  C   UNL     1     -10.268  -3.901  11.632  1.00  0.00     0.074 A 
ATOM     43  C   UNL     1      -9.639  -1.618  12.354  1.00  0.00     0.049 A 
ATOM     44  N   UNL     1     -11.571  -3.795  11.582  1.00  0.00    -0.248 NA
ATOM     45  C   UNL     1      -9.760  -5.228  11.249  1.00  0.00     0.031 C 
ATOM     46  C   UNL     1      -8.736  -0.514  12.697  1.00  0.00     0.029 A 
ATOM     47  N   UNL     1     -10.890  -1.064  12.472  1.00  0.00    -0.354 N 
ATOM     48  C   UNL     1     -12.039  -5.032  11.153  1.00  0.00     0.074 A 
ATOM     49  C   UNL     1     -10.877  -5.862  10.919  1.00  0.00     0.031 C 
ATOM     50  C   UNL     1      -9.463   0.572  13.003  1.00  0.00     0.029 A 
ATOM     51  C   UNL     1     -10.877   0.268  12.822  1.00  0.00     0.049 A 
ATOM     52  H   UNL     1     -11.720  -1.573  12.320  1.00  0.00     0.167 HD
ATOM     53  C   UNL     1     -13.321  -5.436  10.982  1.00  0.00     0.034 A 
ATOM     54  C   UNL     1     -11.887   1.153  12.955  1.00  0.00     0.034 A 
ATOM     55  C   UNL     1     -14.469  -4.599  11.236  1.00  0.00     0.049 A 
ATOM     56  C   UNL     1     -13.301   0.679  12.719  1.00  0.00     0.074 A 
ATOM     57  C   UNL     1     -15.809  -4.941  11.176  1.00  0.00     0.029 A 
ATOM     58  N   UNL     1     -14.419  -3.254  11.577  1.00  0.00    -0.354 N 
ATOM     59  N   UNL     1     -13.726  -0.521  12.396  1.00  0.00    -0.248 NA
ATOM     60  C   UNL     1     -14.370   1.674  12.870  1.00  0.00     0.031 C 
ATOM     61  C   UNL     1     -16.567  -3.787  11.391  1.00  0.00     0.029 A 
ATOM     62  C   UNL     1     -15.704  -2.741  11.676  1.00  0.00     0.049 A 
ATOM     63  H   UNL     1     -13.593  -2.740  11.726  1.00  0.00     0.167 HD
ATOM     64  C   UNL     1     -15.114  -0.425  12.333  1.00  0.00     0.074 A 
ATOM     65  C   UNL     1     -15.454   0.938  12.681  1.00  0.00     0.031 C 
ATOM     66  C   UNL     1     -16.028  -1.376  12.011  1.00  0.00     0.034 A 
BRANCH  53  67
ATOM     67  C   UNL     1     -13.566  -6.833  10.469  1.00  0.00     0.023 A 
ATOM     68  C   UNL     1     -13.243  -7.972  11.225  1.00  0.00     0.031 A 
ATOM     69  C   UNL     1     -14.181  -7.024   9.218  1.00  0.00     0.131 A 
ATOM     70  C   UNL     1     -13.504  -9.251  10.709  1.00  0.00     0.055 A 
ATOM     71  C   UNL     1     -14.500  -8.296   8.740  1.00  0.00     0.041 A 
ATOM     72  F   UNL     1     -14.492  -5.973   8.442  1.00  0.00    -0.206 F 
ATOM     73  C   UNL     1     -14.155  -9.420   9.484  1.00  0.00     0.022 A 
BRANCH  70  74
ATOM     74  S   UNL     1     -12.899 -10.698  11.619  1.00  0.00     0.124 S 
ATOM     75  O   UNL     1     -11.458 -10.457  11.633  1.00  0.00    -0.237 OA
ATOM     76  O   UNL     1     -13.580 -10.573  12.902  1.00  0.00    -0.237 OA
ATOM     77  O   UNL     1     -13.326 -11.826  10.793  1.00  0.00    -0.744 OA
ENDBRANCH  70  74
ENDBRANCH  53  67
BRANCH  54  78
ATOM     78  C   UNL     1     -11.615   2.586  13.281  1.00  0.00     0.023 A 
ATOM     79  C   UNL     1     -12.158   3.183  14.430  1.00  0.00     0.031 A 
ATOM     80  C   UNL     1     -10.886   3.405  12.399  1.00  0.00     0.131 A 
ATOM     81  C   UNL     1     -12.031   4.566  14.627  1.00  0.00     0.055 A 
ATOM     82  C   UNL     1     -10.699   4.767  12.639  1.00  0.00     0.041 A 
ATOM     83  F   UNL     1     -10.346   2.892  11.283  1.00  0.00    -0.206 F 
ATOM     84  C   UNL     1     -11.292   5.360  13.748  1.00  0.00     0.022 A 
BRANCH  81  85
ATOM     85  S   UNL     1     -12.973   5.338  15.972  1.00  0.00     0.124 S 
ATOM     86  O   UNL     1     -14.331   4.897  15.673  1.00  0.00    -0.237 OA
ATOM     87  O   UNL     1     -12.352   4.748  17.153  1.00  0.00    -0.237 OA
ATOM     88  O   UNL     1     -12.725   6.766  15.785  1.00  0.00    -0.744 OA
ENDBRANCH  81  85
ENDBRANCH  54  78
BRANCH  66  89
ATOM     89  C   UNL     1     -17.482  -0.974  12.054  1.00  0.00     0.023 A 
ATOM     90  C   UNL     1     -18.009  -0.021  11.165  1.00  0.00     0.031 A 
ATOM     91  C   UNL     1     -18.349  -1.542  13.004  1.00  0.00     0.131 A 
ATOM     92  C   UNL     1     -19.349   0.378  11.281  1.00  0.00     0.055 A 
ATOM     93  C   UNL     1     -19.698  -1.191  13.070  1.00  0.00     0.041 A 
ATOM     94  F   UNL     1     -17.900  -2.453  13.882  1.00  0.00    -0.206 F 
ATOM     95  C   UNL     1     -20.202  -0.216  12.215  1.00  0.00     0.022 A 
BRANCH  92  96
ATOM     96  S   UNL     1     -19.938   1.755  10.258  1.00  0.00     0.124 S 
ATOM     97  O   UNL     1     -19.052   2.838  10.669  1.00  0.00    -0.237 OA
ATOM     98  O   UNL     1     -19.738   1.247   8.905  1.00  0.00    -0.237 OA
ATOM     99  O   UNL     1     -21.335   1.908  10.661  1.00  0.00    -0.744 OA
ENDBRANCH  92  96
ENDBRANCH  66  89
ENDBRANCH  40  41
ENDBRANCH  32  35
ENDBRANCH  30  31
ENDBRANCH  29  30
ENDBRANCH  28  29
ENDBRANCH   1  28
TORSDOF 19
