REMARK SMILES O=C(NCCCCCCNC(=O)c1cccc(Nc2nc(-c3ccc(F)cc3F)cs2)c1)c1ccc(-c2c3nc(c(-c4cc(S(=O)(=O)[O-])ccc4F)c4ccc([nH]4)c(-c4cc(S(=O)(=O)[O-])ccc4F)c4nc(c(-c5cc(S(=O)(=O)[O-])ccc5F)c5ccc2[nH]5)C=C4)C=C3)cc1
REMARK SMILES IDX 6 1 5 2 4 3 3 4 1 5 2 6 33 8 34 9 95 10 35 11 94 12 36 13
REMARK SMILES IDX 37 14 38 15 88 16 39 17 93 18 87 19 89 20 40 21 92 22 86 23
REMARK SMILES IDX 85 24 41 26 73 27 53 28 72 29 54 30 57 31 71 32 90 33 55 34
REMARK SMILES IDX 56 35 70 37 91 38 58 39 42 40 43 41 51 42 44 43 50 44 52 45
REMARK SMILES IDX 49 46 45 47 46 48 47 49 48 50 74 51 75 52 83 53 76 54 82 55
REMARK SMILES IDX 84 56 81 57 77 58 78 59 79 60 80 61 59 62 60 63 68 64 61 65
REMARK SMILES IDX 67 66 69 67 66 68 62 69 63 70 64 71 65 72 7 73 8 74 9 75
REMARK SMILES IDX 10 76 11 77 12 79 13 80 14 81 32 82 15 83 17 84 16 85 18 86
REMARK SMILES IDX 19 88 20 89 31 90 21 91 30 92 22 93 23 94 28 95 24 96 27 97
REMARK SMILES IDX 29 98 25 99 26 100
REMARK H PARENT 3 7 89 25 57 36 10 78 18 87
REMARK Flexibility Score: inf
ROOT
ATOM      1  C   UNL     1       4.269   3.279  -2.063  1.00  0.00     0.002 C 
ENDROOT
BRANCH   1   2
ATOM      2  C   UNL     1       4.726   1.821  -2.002  1.00  0.00     0.021 C 
BRANCH   2   3
ATOM      3  C   UNL     1       4.484   1.121  -0.671  1.00  0.00     0.116 C 
BRANCH   3   4
ATOM      4  N   UNL     1       3.072   0.982  -0.356  1.00  0.00    -0.352 N 
ATOM      5  O   UNL     1       1.156  -0.114   0.112  1.00  0.00    -0.269 OA
ATOM      6  C   UNL     1       2.381  -0.144   0.025  1.00  0.00     0.251 C 
ATOM      7  H   UNL     1       2.537   1.806  -0.425  1.00  0.00     0.163 HD
BRANCH   6   8
ATOM      8  C   UNL     1       3.118  -1.396   0.311  1.00  0.00     0.039 A 
ATOM      9  C   UNL     1       4.277  -1.378   1.090  1.00  0.00     0.014 A 
ATOM     10  C   UNL     1       2.638  -2.604  -0.204  1.00  0.00     0.014 A 
ATOM     11  C   UNL     1       5.023  -2.541   1.248  1.00  0.00     0.010 A 
ATOM     12  C   UNL     1       3.347  -3.788   0.026  1.00  0.00     0.010 A 
ATOM     13  C   UNL     1       4.558  -3.763   0.736  1.00  0.00    -0.014 A 
BRANCH  13  14
ATOM     14  C   UNL     1       5.317  -5.006   1.027  1.00  0.00     0.031 A 
ATOM     15  C   UNL     1       5.982  -5.792  -0.070  1.00  0.00     0.074 A 
ATOM     16  C   UNL     1       5.426  -5.404   2.310  1.00  0.00     0.049 A 
ATOM     17  N   UNL     1       6.695  -6.886   0.017  1.00  0.00    -0.248 NA
ATOM     18  C   UNL     1       5.818  -5.290  -1.442  1.00  0.00     0.031 C 
ATOM     19  C   UNL     1       4.814  -4.720   3.454  1.00  0.00     0.029 A 
ATOM     20  N   UNL     1       6.097  -6.456   2.876  1.00  0.00    -0.354 N 
ATOM     21  C   UNL     1       7.059  -7.212  -1.285  1.00  0.00     0.074 A 
ATOM     22  C   UNL     1       6.457  -6.215  -2.146  1.00  0.00     0.031 C 
ATOM     23  C   UNL     1       5.175  -5.343   4.584  1.00  0.00     0.029 A 
ATOM     24  C   UNL     1       5.984  -6.508   4.247  1.00  0.00     0.049 A 
ATOM     25  H   UNL     1       6.611  -7.113   2.353  1.00  0.00     0.167 HD
ATOM     26  C   UNL     1       7.829  -8.244  -1.716  1.00  0.00     0.034 A 
ATOM     27  C   UNL     1       6.457  -7.403   5.133  1.00  0.00     0.034 A 
ATOM     28  C   UNL     1       8.418  -9.230  -0.838  1.00  0.00     0.049 A 
ATOM     29  C   UNL     1       7.274  -8.558   4.623  1.00  0.00     0.074 A 
ATOM     30  C   UNL     1       9.235 -10.299  -1.167  1.00  0.00     0.029 A 
ATOM     31  N   UNL     1       8.245  -9.277   0.540  1.00  0.00    -0.354 N 
ATOM     32  N   UNL     1       7.623  -8.840   3.388  1.00  0.00    -0.248 NA
ATOM     33  C   UNL     1       7.763  -9.513   5.623  1.00  0.00     0.031 C 
ATOM     34  C   UNL     1       9.501 -11.026  -0.000  1.00  0.00     0.029 A 
ATOM     35  C   UNL     1       8.913 -10.372   1.070  1.00  0.00     0.049 A 
ATOM     36  H   UNL     1       7.725  -8.627   1.065  1.00  0.00     0.167 HD
ATOM     37  C   UNL     1       8.387 -10.000   3.468  1.00  0.00     0.074 A 
ATOM     38  C   UNL     1       8.470 -10.345   4.873  1.00  0.00     0.031 C 
ATOM     39  C   UNL     1       8.965 -10.717   2.471  1.00  0.00     0.034 A 
BRANCH  26  40
ATOM     40  C   UNL     1       8.041  -8.383  -3.205  1.00  0.00     0.023 A 
ATOM     41  C   UNL     1       8.750  -7.423  -3.948  1.00  0.00     0.031 A 
ATOM     42  C   UNL     1       7.523  -9.495  -3.894  1.00  0.00     0.131 A 
ATOM     43  C   UNL     1       8.873  -7.563  -5.340  1.00  0.00     0.055 A 
ATOM     44  C   UNL     1       7.708  -9.665  -5.268  1.00  0.00     0.041 A 
ATOM     45  F   UNL     1       6.820 -10.435  -3.243  1.00  0.00    -0.206 F 
ATOM     46  C   UNL     1       8.377  -8.689  -6.001  1.00  0.00     0.022 A 
BRANCH  43  47
ATOM     47  S   UNL     1       9.585  -6.193  -6.293  1.00  0.00     0.124 S 
ATOM     48  O   UNL     1       8.682  -5.095  -5.955  1.00  0.00    -0.237 OA
ATOM     49  O   UNL     1      10.935  -6.099  -5.751  1.00  0.00    -0.237 OA
ATOM     50  O   UNL     1       9.499  -6.656  -7.677  1.00  0.00    -0.744 OA
ENDBRANCH  43  47
ENDBRANCH  26  40
BRANCH  27  51
ATOM     51  C   UNL     1       6.141  -7.265   6.583  1.00  0.00     0.023 A 
ATOM     52  C   UNL     1       7.153  -7.055   7.531  1.00  0.00     0.031 A 
ATOM     53  C   UNL     1       4.816  -7.374   7.044  1.00  0.00     0.131 A 
ATOM     54  C   UNL     1       6.830  -7.001   8.896  1.00  0.00     0.055 A 
ATOM     55  C   UNL     1       4.494  -7.263   8.397  1.00  0.00     0.041 A 
ATOM     56  F   UNL     1       3.809  -7.573   6.178  1.00  0.00    -0.206 F 
ATOM     57  C   UNL     1       5.507  -7.089   9.333  1.00  0.00     0.022 A 
BRANCH  54  58
ATOM     58  S   UNL     1       8.181  -6.903  10.102  1.00  0.00     0.124 S 
ATOM     59  O   UNL     1       8.975  -8.076   9.757  1.00  0.00    -0.237 OA
ATOM     60  O   UNL     1       8.775  -5.609   9.786  1.00  0.00    -0.237 OA
ATOM     61  O   UNL     1       7.492  -6.973  11.389  1.00  0.00    -0.744 OA
ENDBRANCH  54  58
ENDBRANCH  27  51
BRANCH  39  62
ATOM     62  C   UNL     1       9.760 -11.930   2.888  1.00  0.00     0.023 A 
ATOM     63  C   UNL     1       9.139 -13.055   3.460  1.00  0.00     0.031 A 
ATOM     64  C   UNL     1      11.159 -11.943   2.749  1.00  0.00     0.131 A 
ATOM     65  C   UNL     1       9.921 -14.119   3.932  1.00  0.00     0.055 A 
ATOM     66  C   UNL     1      11.926 -13.032   3.165  1.00  0.00     0.041 A 
ATOM     67  F   UNL     1      11.802 -10.894   2.213  1.00  0.00    -0.206 F 
ATOM     68  C   UNL     1      11.310 -14.121   3.775  1.00  0.00     0.022 A 
BRANCH  65  69
ATOM     69  S   UNL     1       9.108 -15.456   4.849  1.00  0.00     0.124 S 
ATOM     70  O   UNL     1       8.492 -14.733   5.957  1.00  0.00    -0.237 OA
ATOM     71  O   UNL     1       8.191 -16.003   3.856  1.00  0.00    -0.237 OA
ATOM     72  O   UNL     1      10.214 -16.337   5.223  1.00  0.00    -0.744 OA
ENDBRANCH  65  69
ENDBRANCH  39  62
ENDBRANCH  13  14
ENDBRANCH   6   8
ENDBRANCH   3   4
ENDBRANCH   2   3
ENDBRANCH   1   2
BRANCH   1  73
ATOM     73  C   UNL     1       4.840   4.199  -0.980  1.00  0.00     0.002 C 
BRANCH  73  74
ATOM     74  C   UNL     1       6.367   4.204  -0.841  1.00  0.00     0.021 C 
BRANCH  74  75
ATOM     75  C   UNL     1       7.143   4.498  -2.125  1.00  0.00     0.116 C 
BRANCH  75  76
ATOM     76  N   UNL     1       6.816   5.805  -2.670  1.00  0.00    -0.352 N 
ATOM     77  C   UNL     1       7.648   6.854  -2.958  1.00  0.00     0.251 C 
ATOM     78  H   UNL     1       5.862   5.958  -2.858  1.00  0.00     0.163 HD
ATOM     79  O   UNL     1       7.185   7.952  -3.254  1.00  0.00    -0.269 OA
BRANCH  77  80
ATOM     80  C   UNL     1       9.111   6.670  -2.904  1.00  0.00     0.041 A 
ATOM     81  C   UNL     1       9.865   7.543  -2.122  1.00  0.00     0.014 A 
ATOM     82  C   UNL     1       9.736   5.676  -3.670  1.00  0.00     0.040 A 
ATOM     83  C   UNL     1      11.244   7.377  -2.054  1.00  0.00     0.003 A 
ATOM     84  C   UNL     1      11.128   5.514  -3.632  1.00  0.00     0.041 A 
ATOM     85  C   UNL     1      11.863   6.359  -2.789  1.00  0.00     0.026 A 
BRANCH  84  86
ATOM     86  N   UNL     1      11.714   4.511  -4.425  1.00  0.00    -0.332 N 
ATOM     87  H   UNL     1      11.121   4.082  -5.083  1.00  0.00     0.169 HD
BRANCH  86  88
ATOM     88  C   UNL     1      12.990   4.060  -4.398  1.00  0.00     0.187 A 
ATOM     89  N   UNL     1      13.826   4.092  -3.381  1.00  0.00    -0.220 NA
ATOM     90  S   UNL     1      13.641   3.343  -5.833  1.00  0.00    -0.105 S 
ATOM     91  C   UNL     1      15.013   3.472  -3.715  1.00  0.00     0.086 A 
ATOM     92  C   UNL     1      15.126   3.073  -5.029  1.00  0.00     0.097 A 
BRANCH  91  93
ATOM     93  C   UNL     1      16.055   3.241  -2.739  1.00  0.00     0.037 A 
ATOM     94  C   UNL     1      17.187   4.064  -2.694  1.00  0.00     0.016 A 
ATOM     95  C   UNL     1      15.950   2.166  -1.848  1.00  0.00     0.135 A 
ATOM     96  C   UNL     1      18.202   3.795  -1.771  1.00  0.00     0.040 A 
ATOM     97  C   UNL     1      16.958   1.894  -0.929  1.00  0.00     0.079 A 
ATOM     98  F   UNL     1      14.883   1.355  -1.883  1.00  0.00    -0.206 F 
ATOM     99  C   UNL     1      18.078   2.713  -0.902  1.00  0.00     0.126 A 
ATOM    100  F   UNL     1      19.063   2.457  -0.031  1.00  0.00    -0.207 F 
ENDBRANCH  91  93
ENDBRANCH  86  88
ENDBRANCH  84  86
ENDBRANCH  77  80
ENDBRANCH  75  76
ENDBRANCH  74  75
ENDBRANCH  73  74
ENDBRANCH   1  73
TORSDOF 19
