REMARK SMILES C[C@H](C(=O)NCCCCCCNC(=O)c1ccc(-c2c3nc(c(-c4cc(S(=O)(=O)[O-])ccc4F)c4ccc([nH]4)c(-c4cc(S(=O)(=O)[O-])ccc4F)c4nc(c(-c5cc(S(=O)(=O)[O-])ccc5F)c5ccc2[nH]5)C=C4)C=C3)cc1)c1ccc2c3cc(Cl)ccc3n(C(=O)c3cocn3)c2c1
REMARK SMILES IDX 8 1 7 2 6 3 5 4 3 5 4 6 2 8 1 9 78 10 79 11 98 12 80 13
REMARK SMILES IDX 97 14 81 15 89 16 82 17 88 18 83 19 87 20 84 21 86 22 85 23
REMARK SMILES IDX 90 24 91 25 92 26 93 27 96 28 94 29 95 30 9 31 10 32 11 33
REMARK SMILES IDX 12 34 13 35 14 37 15 38 16 39 77 40 17 41 76 42 18 43 19 44
REMARK SMILES IDX 20 45 70 46 21 47 75 48 69 49 71 50 22 51 74 52 68 53 67 54
REMARK SMILES IDX 23 56 55 57 35 58 54 59 36 60 39 61 53 62 72 63 37 64 38 65
REMARK SMILES IDX 52 67 73 68 40 69 24 70 25 71 33 72 26 73 32 74 34 75 31 76
REMARK SMILES IDX 27 77 28 78 29 79 30 80 56 81 57 82 65 83 58 84 64 85 66 86
REMARK SMILES IDX 63 87 59 88 60 89 61 90 62 91 41 92 42 93 50 94 43 95 49 96
REMARK SMILES IDX 51 97 48 98 44 99 45 100 46 101 47 102
REMARK H PARENT 5 7 12 36 71 55 39 66
REMARK Flexibility Score: inf
ROOT
ATOM      1  C   UNL     1       1.684   2.970   3.107  1.00  0.00     0.002 C 
ENDROOT
BRANCH   1   2
ATOM      2  C   UNL     1       0.715   1.782   3.114  1.00  0.00     0.021 C 
BRANCH   2   3
ATOM      3  C   UNL     1       0.146   1.379   1.755  1.00  0.00     0.116 C 
BRANCH   3   4
ATOM      4  N   UNL     1       1.173   1.180   0.747  1.00  0.00    -0.356 N 
ATOM      5  C   UNL     1       1.402   0.134  -0.094  1.00  0.00     0.227 C 
ATOM      6  O   UNL     1       2.252   0.295  -0.976  1.00  0.00    -0.274 OA
ATOM      7  H   UNL     1       1.810   1.925   0.658  1.00  0.00     0.163 HD
BRANCH   5   8
ATOM      8  C   UNL     1       0.700  -1.213   0.068  1.00  0.00     0.105 C 
ATOM      9  C   UNL     1       1.188  -1.858   1.376  1.00  0.00     0.023 C 
BRANCH   8  10
ATOM     10  C   UNL     1      -0.817  -1.224  -0.122  1.00  0.00    -0.034 A 
ATOM     11  C   UNL     1      -1.508  -0.167  -0.723  1.00  0.00     0.005 A 
ATOM     12  C   UNL     1      -1.551  -2.354   0.283  1.00  0.00     0.032 A 
ATOM     13  C   UNL     1      -2.906  -0.176  -0.828  1.00  0.00     0.011 A 
ATOM     14  C   UNL     1      -2.959  -2.358   0.199  1.00  0.00     0.058 A 
ATOM     15  C   UNL     1      -3.643  -1.278  -0.347  1.00  0.00     0.008 A 
ATOM     16  N   UNL     1      -3.895  -3.340   0.553  1.00  0.00    -0.274 N 
ATOM     17  C   UNL     1      -5.035  -1.559  -0.249  1.00  0.00     0.009 A 
ATOM     18  C   UNL     1      -5.179  -2.812   0.360  1.00  0.00     0.057 A 
ATOM     19  C   UNL     1      -6.185  -0.811  -0.585  1.00  0.00     0.031 A 
ATOM     20  C   UNL     1      -6.456  -3.288   0.725  1.00  0.00     0.029 A 
ATOM     21  C   UNL     1      -7.446  -1.309  -0.263  1.00  0.00     0.041 A 
ATOM     22  C   UNL     1      -7.581  -2.524   0.394  1.00  0.00     0.023 A 
ATOM     23  Cl  UNL     1      -8.847  -0.391  -0.658  1.00  0.00    -0.084 Cl
BRANCH  16  24
ATOM     24  C   UNL     1      -3.554  -4.625   1.057  1.00  0.00     0.284 C 
ATOM     25  O   UNL     1      -2.500  -4.692   1.697  1.00  0.00    -0.266 OA
BRANCH  24  26
ATOM     26  C   UNL     1      -4.320  -5.845   0.814  1.00  0.00     0.167 A 
ATOM     27  C   UNL     1      -5.223  -6.120  -0.191  1.00  0.00     0.231 A 
ATOM     28  N   UNL     1      -4.122  -7.007   1.550  1.00  0.00    -0.211 NA
ATOM     29  O   UNL     1      -5.612  -7.424  -0.082  1.00  0.00    -0.451 OA
ATOM     30  C   UNL     1      -4.902  -7.891   0.979  1.00  0.00     0.308 A 
ENDBRANCH  24  26
ENDBRANCH  16  24
ENDBRANCH   8  10
ENDBRANCH   5   8
ENDBRANCH   3   4
ENDBRANCH   2   3
ENDBRANCH   1   2
BRANCH   1  31
ATOM     31  C   UNL     1       1.170   4.258   2.458  1.00  0.00     0.002 C 
BRANCH  31  32
ATOM     32  C   UNL     1      -0.119   4.833   3.045  1.00  0.00     0.021 C 
BRANCH  32  33
ATOM     33  C   UNL     1      -0.101   5.090   4.548  1.00  0.00     0.116 C 
BRANCH  33  34
ATOM     34  N   UNL     1       0.909   6.058   4.948  1.00  0.00    -0.352 N 
ATOM     35  C   UNL     1       0.786   7.144   5.783  1.00  0.00     0.251 C 
ATOM     36  H   UNL     1       1.806   5.915   4.568  1.00  0.00     0.163 HD
ATOM     37  O   UNL     1       1.720   7.931   5.909  1.00  0.00    -0.269 OA
BRANCH  35  38
ATOM     38  C   UNL     1      -0.489   7.378   6.498  1.00  0.00     0.039 A 
ATOM     39  C   UNL     1      -1.061   8.653   6.469  1.00  0.00     0.014 A 
ATOM     40  C   UNL     1      -1.131   6.336   7.171  1.00  0.00     0.014 A 
ATOM     41  C   UNL     1      -2.316   8.865   7.047  1.00  0.00     0.010 A 
ATOM     42  C   UNL     1      -2.409   6.532   7.686  1.00  0.00     0.010 A 
ATOM     43  C   UNL     1      -3.018   7.796   7.625  1.00  0.00    -0.014 A 
BRANCH  43  44
ATOM     44  C   UNL     1      -4.388   7.960   8.179  1.00  0.00     0.031 A 
ATOM     45  C   UNL     1      -4.633   7.717   9.642  1.00  0.00     0.074 A 
ATOM     46  C   UNL     1      -5.424   8.208   7.353  1.00  0.00     0.049 A 
ATOM     47  N   UNL     1      -5.764   7.623  10.292  1.00  0.00    -0.248 NA
ATOM     48  C   UNL     1      -3.438   7.510  10.472  1.00  0.00     0.031 C 
ATOM     49  C   UNL     1      -5.320   8.424   5.909  1.00  0.00     0.029 A 
ATOM     50  N   UNL     1      -6.772   8.285   7.605  1.00  0.00    -0.354 N 
ATOM     51  C   UNL     1      -5.420   7.315  11.604  1.00  0.00     0.074 A 
ATOM     52  C   UNL     1      -3.977   7.184  11.636  1.00  0.00     0.031 C 
ATOM     53  C   UNL     1      -6.551   8.598   5.402  1.00  0.00     0.029 A 
ATOM     54  C   UNL     1      -7.534   8.458   6.473  1.00  0.00     0.049 A 
ATOM     55  H   UNL     1      -7.156   8.222   8.509  1.00  0.00     0.167 HD
ATOM     56  C   UNL     1      -6.231   7.171  12.683  1.00  0.00     0.034 A 
ATOM     57  C   UNL     1      -8.872   8.468   6.307  1.00  0.00     0.034 A 
ATOM     58  C   UNL     1      -7.665   7.320  12.629  1.00  0.00     0.049 A 
ATOM     59  C   UNL     1      -9.761   8.294   7.510  1.00  0.00     0.074 A 
ATOM     60  C   UNL     1      -8.578   7.272  13.669  1.00  0.00     0.029 A 
ATOM     61  N   UNL     1      -8.399   7.533  11.468  1.00  0.00    -0.354 N 
ATOM     62  N   UNL     1      -9.423   8.056   8.756  1.00  0.00    -0.248 NA
ATOM     63  C   UNL     1     -11.210   8.398   7.288  1.00  0.00     0.031 C 
ATOM     64  C   UNL     1      -9.864   7.385  13.130  1.00  0.00     0.029 A 
ATOM     65  C   UNL     1      -9.754   7.583  11.762  1.00  0.00     0.049 A 
ATOM     66  H   UNL     1      -8.014   7.634  10.568  1.00  0.00     0.167 HD
ATOM     67  C   UNL     1     -10.616   8.011   9.472  1.00  0.00     0.074 A 
ATOM     68  C   UNL     1     -11.682   8.244   8.519  1.00  0.00     0.031 C 
ATOM     69  C   UNL     1     -10.808   7.808  10.800  1.00  0.00     0.034 A 
BRANCH  56  70
ATOM     70  C   UNL     1      -5.576   6.798  13.993  1.00  0.00     0.023 A 
ATOM     71  C   UNL     1      -4.605   7.619  14.594  1.00  0.00     0.031 A 
ATOM     72  C   UNL     1      -5.876   5.574  14.618  1.00  0.00     0.131 A 
ATOM     73  C   UNL     1      -3.893   7.159  15.712  1.00  0.00     0.055 A 
ATOM     74  C   UNL     1      -5.232   5.167  15.789  1.00  0.00     0.041 A 
ATOM     75  F   UNL     1      -6.781   4.738  14.086  1.00  0.00    -0.206 F 
ATOM     76  C   UNL     1      -4.217   5.950  16.329  1.00  0.00     0.022 A 
BRANCH  73  77
ATOM     77  S   UNL     1      -2.411   8.073  16.223  1.00  0.00     0.124 S 
ATOM     78  O   UNL     1      -1.631   8.085  14.987  1.00  0.00    -0.237 OA
ATOM     79  O   UNL     1      -2.962   9.356  16.643  1.00  0.00    -0.237 OA
ATOM     80  O   UNL     1      -1.853   7.250  17.294  1.00  0.00    -0.744 OA
ENDBRANCH  73  77
ENDBRANCH  56  70
BRANCH  57  81
ATOM     81  C   UNL     1      -9.445   8.616   4.940  1.00  0.00     0.023 A 
ATOM     82  C   UNL     1     -10.130   9.779   4.559  1.00  0.00     0.031 A 
ATOM     83  C   UNL     1      -9.302   7.589   3.989  1.00  0.00     0.131 A 
ATOM     84  C   UNL     1     -10.668   9.879   3.265  1.00  0.00     0.055 A 
ATOM     85  C   UNL     1      -9.803   7.710   2.692  1.00  0.00     0.041 A 
ATOM     86  F   UNL     1      -8.645   6.461   4.302  1.00  0.00    -0.206 F 
ATOM     87  C   UNL     1     -10.498   8.859   2.326  1.00  0.00     0.022 A 
BRANCH  84  88
ATOM     88  S   UNL     1     -11.633  11.354   2.835  1.00  0.00     0.124 S 
ATOM     89  O   UNL     1     -12.737  11.274   3.785  1.00  0.00    -0.237 OA
ATOM     90  O   UNL     1     -10.668  12.425   3.061  1.00  0.00    -0.237 OA
ATOM     91  O   UNL     1     -11.993  11.129   1.437  1.00  0.00    -0.744 OA
ENDBRANCH  84  88
ENDBRANCH  57  81
BRANCH  69  92
ATOM     92  C   UNL     1     -12.224   7.883  11.315  1.00  0.00     0.023 A 
ATOM     93  C   UNL     1     -13.174   6.887  11.034  1.00  0.00     0.031 A 
ATOM     94  C   UNL     1     -12.612   8.960  12.133  1.00  0.00     0.131 A 
ATOM     95  C   UNL     1     -14.476   7.002  11.545  1.00  0.00     0.055 A 
ATOM     96  C   UNL     1     -13.894   9.044  12.678  1.00  0.00     0.041 A 
ATOM     97  F   UNL     1     -11.742   9.939  12.431  1.00  0.00    -0.206 F 
ATOM     98  C   UNL     1     -14.836   8.065  12.379  1.00  0.00     0.022 A 
BRANCH  95  99
ATOM     99  S   UNL     1     -15.716   5.765  11.073  1.00  0.00     0.124 S 
ATOM    100  O   UNL     1     -15.796   5.953   9.628  1.00  0.00    -0.237 OA
ATOM    101  O   UNL     1     -15.104   4.519  11.522  1.00  0.00    -0.237 OA
ATOM    102  O   UNL     1     -16.907   6.171  11.818  1.00  0.00    -0.744 OA
ENDBRANCH  95  99
ENDBRANCH  69  92
ENDBRANCH  43  44
ENDBRANCH  35  38
ENDBRANCH  33  34
ENDBRANCH  32  33
ENDBRANCH  31  32
ENDBRANCH   1  31
TORSDOF 19
