REMARK SMILES O=C(NCCCCCCNC(=O)[C@@H]1CCCCC[C@H]1NS(=O)(=O)C(F)F)c1ccc(-c2c3nc(c(-c4cc(S(=O)(=O)[O-])ccc4F)c4ccc([nH]4)c(-c4cc(S(=O)(=O)[O-])ccc4F)c4nc(c(-c5cc(S(=O)(=O)[O-])ccc5F)c5ccc2[nH]5)C=C4)C=C3)cc1
REMARK SMILES IDX 7 1 6 2 5 3 4 4 3 5 1 6 2 7 27 9 28 10 89 11 29 12 88 13
REMARK SMILES IDX 30 14 31 15 32 16 82 17 33 18 87 19 81 20 83 21 34 22 86 23
REMARK SMILES IDX 80 24 79 25 35 27 67 28 47 29 66 30 48 31 51 32 65 33 84 34
REMARK SMILES IDX 49 35 50 36 64 38 85 39 52 40 36 41 37 42 45 43 38 44 44 45
REMARK SMILES IDX 46 46 43 47 39 48 40 49 41 50 42 51 68 52 69 53 77 54 70 55
REMARK SMILES IDX 76 56 78 57 75 58 71 59 72 60 73 61 74 62 53 63 54 64 62 65
REMARK SMILES IDX 55 66 61 67 63 68 60 69 56 70 57 71 58 72 59 73 8 74 9 75
REMARK SMILES IDX 10 76 11 77 12 79 13 80 14 81 15 82 19 84 18 85 17 86 16 87
REMARK SMILES IDX 20 89 21 91 22 92 23 93 24 94 25 95 26 96
REMARK H PARENT 3 8 83 26 51 37 10 78 20 90
REMARK Flexibility Score: 100.00
ROOT
ATOM      1  C   UNL     1       4.632  -3.456   2.499  1.00  0.00     0.002 C 
ENDROOT
BRANCH   1   2
ATOM      2  C   UNL     1       4.194  -2.112   3.088  1.00  0.00     0.002 C 
BRANCH   2   3
ATOM      3  C   UNL     1       4.685  -0.870   2.343  1.00  0.00     0.021 C 
BRANCH   3   4
ATOM      4  C   UNL     1       4.390  -0.850   0.847  1.00  0.00     0.116 C 
BRANCH   4   5
ATOM      5  N   UNL     1       2.967  -0.915   0.560  1.00  0.00    -0.352 N 
ATOM      6  O   UNL     1       0.970  -0.187  -0.184  1.00  0.00    -0.269 OA
ATOM      7  C   UNL     1       2.192  -0.062  -0.183  1.00  0.00     0.251 C 
ATOM      8  H   UNL     1       2.491  -1.681   0.956  1.00  0.00     0.163 HD
BRANCH   7   9
ATOM      9  C   UNL     1       2.829   1.018  -0.967  1.00  0.00     0.039 A 
ATOM     10  C   UNL     1       3.943   0.761  -1.772  1.00  0.00     0.014 A 
ATOM     11  C   UNL     1       2.289   2.304  -0.903  1.00  0.00     0.014 A 
ATOM     12  C   UNL     1       4.585   1.810  -2.425  1.00  0.00     0.010 A 
ATOM     13  C   UNL     1       2.893   3.342  -1.615  1.00  0.00     0.010 A 
ATOM     14  C   UNL     1       4.058   3.109  -2.364  1.00  0.00    -0.014 A 
BRANCH  14  15
ATOM     15  C   UNL     1       4.700   4.218  -3.114  1.00  0.00     0.031 A 
ATOM     16  C   UNL     1       5.302   5.385  -2.384  1.00  0.00     0.074 A 
ATOM     17  C   UNL     1       4.701   4.188  -4.460  1.00  0.00     0.049 A 
ATOM     18  N   UNL     1       5.795   6.498  -2.863  1.00  0.00    -0.248 NA
ATOM     19  C   UNL     1       5.340   5.289  -0.918  1.00  0.00     0.031 C 
ATOM     20  C   UNL     1       4.155   3.102  -5.276  1.00  0.00     0.029 A 
ATOM     21  N   UNL     1       5.157   5.099  -5.378  1.00  0.00    -0.354 N 
ATOM     22  C   UNL     1       6.183   7.249  -1.759  1.00  0.00     0.074 A 
ATOM     23  C   UNL     1       5.830   6.474  -0.586  1.00  0.00     0.031 C 
ATOM     24  C   UNL     1       4.309   3.409  -6.572  1.00  0.00     0.029 A 
ATOM     25  C   UNL     1       4.895   4.740  -6.679  1.00  0.00     0.049 A 
ATOM     26  H   UNL     1       5.626   5.929  -5.130  1.00  0.00     0.167 HD
ATOM     27  C   UNL     1       6.781   8.468  -1.732  1.00  0.00     0.034 A 
ATOM     28  C   UNL     1       5.061   5.422  -7.829  1.00  0.00     0.034 A 
ATOM     29  C   UNL     1       7.105   9.226  -2.918  1.00  0.00     0.049 A 
ATOM     30  C   UNL     1       5.654   6.804  -7.778  1.00  0.00     0.074 A 
ATOM     31  C   UNL     1       7.735  10.455  -3.012  1.00  0.00     0.029 A 
ATOM     32  N   UNL     1       6.806   8.837  -4.220  1.00  0.00    -0.354 N 
ATOM     33  N   UNL     1       6.029   7.500  -6.730  1.00  0.00    -0.248 NA
ATOM     34  C   UNL     1       5.853   7.489  -9.060  1.00  0.00     0.031 C 
ATOM     35  C   UNL     1       7.741  10.846  -4.356  1.00  0.00     0.029 A 
ATOM     36  C   UNL     1       7.204   9.819  -5.116  1.00  0.00     0.049 A 
ATOM     37  H   UNL     1       6.375   7.988  -4.470  1.00  0.00     0.167 HD
ATOM     38  C   UNL     1       6.541   8.694  -7.230  1.00  0.00     0.074 A 
ATOM     39  C   UNL     1       6.422   8.623  -8.673  1.00  0.00     0.031 C 
ATOM     40  C   UNL     1       7.075   9.743  -6.555  1.00  0.00     0.034 A 
BRANCH  27  41
ATOM     41  C   UNL     1       7.061   9.071  -0.373  1.00  0.00     0.023 A 
ATOM     42  C   UNL     1       7.901   8.437   0.559  1.00  0.00     0.031 A 
ATOM     43  C   UNL     1       6.433  10.267   0.020  1.00  0.00     0.131 A 
ATOM     44  C   UNL     1       8.007   8.940   1.865  1.00  0.00     0.055 A 
ATOM     45  C   UNL     1       6.621  10.817   1.290  1.00  0.00     0.041 A 
ATOM     46  F   UNL     1       5.604  10.911  -0.816  1.00  0.00    -0.206 F 
ATOM     47  C   UNL     1       7.394  10.141   2.229  1.00  0.00     0.022 A 
BRANCH  44  48
ATOM     48  S   UNL     1       8.794   7.901   3.127  1.00  0.00     0.124 S 
ATOM     49  O   UNL     1       8.031   6.659   3.010  1.00  0.00    -0.237 OA
ATOM     50  O   UNL     1      10.177   7.842   2.670  1.00  0.00    -0.237 OA
ATOM     51  O   UNL     1       8.574   8.641   4.367  1.00  0.00    -0.744 OA
ENDBRANCH  44  48
ENDBRANCH  27  41
BRANCH  28  52
ATOM     52  C   UNL     1       4.611   4.815  -9.113  1.00  0.00     0.023 A 
ATOM     53  C   UNL     1       5.530   4.443 -10.103  1.00  0.00     0.031 A 
ATOM     54  C   UNL     1       3.244   4.579  -9.353  1.00  0.00     0.131 A 
ATOM     55  C   UNL     1       5.070   3.873 -11.301  1.00  0.00     0.055 A 
ATOM     56  C   UNL     1       2.796   3.967 -10.524  1.00  0.00     0.041 A 
ATOM     57  F   UNL     1       2.326   4.910  -8.432  1.00  0.00    -0.206 F 
ATOM     58  C   UNL     1       3.712   3.616 -11.510  1.00  0.00     0.022 A 
BRANCH  55  59
ATOM     59  S   UNL     1       6.272   3.511 -12.609  1.00  0.00     0.124 S 
ATOM     60  O   UNL     1       6.818   4.835 -12.884  1.00  0.00    -0.237 OA
ATOM     61  O   UNL     1       7.170   2.571 -11.945  1.00  0.00    -0.237 OA
ATOM     62  O   UNL     1       5.453   2.938 -13.675  1.00  0.00    -0.744 OA
ENDBRANCH  55  59
ENDBRANCH  28  52
BRANCH  40  63
ATOM     63  C   UNL     1       7.643  10.878  -7.372  1.00  0.00     0.023 A 
ATOM     64  C   UNL     1       6.829  11.745  -8.122  1.00  0.00     0.031 A 
ATOM     65  C   UNL     1       9.031  11.107  -7.373  1.00  0.00     0.131 A 
ATOM     66  C   UNL     1       7.415  12.781  -8.866  1.00  0.00     0.055 A 
ATOM     67  C   UNL     1       9.602  12.172  -8.069  1.00  0.00     0.041 A 
ATOM     68  F   UNL     1       9.855  10.305  -6.679  1.00  0.00    -0.206 F 
ATOM     69  C   UNL     1       8.793  13.012  -8.827  1.00  0.00     0.022 A 
BRANCH  66  70
ATOM     70  S   UNL     1       6.361  13.794  -9.940  1.00  0.00     0.124 S 
ATOM     71  O   UNL     1       5.817  12.798 -10.857  1.00  0.00    -0.237 OA
ATOM     72  O   UNL     1       5.414  14.375  -8.994  1.00  0.00    -0.237 OA
ATOM     73  O   UNL     1       7.295  14.745 -10.541  1.00  0.00    -0.744 OA
ENDBRANCH  66  70
ENDBRANCH  40  63
ENDBRANCH  14  15
ENDBRANCH   7   9
ENDBRANCH   4   5
ENDBRANCH   3   4
ENDBRANCH   2   3
ENDBRANCH   1   2
BRANCH   1  74
ATOM     74  C   UNL     1       6.139  -3.639   2.289  1.00  0.00     0.021 C 
BRANCH  74  75
ATOM     75  C   UNL     1       7.003  -3.393   3.521  1.00  0.00     0.116 C 
BRANCH  75  76
ATOM     76  N   UNL     1       6.676  -4.277   4.622  1.00  0.00    -0.356 N 
ATOM     77  C   UNL     1       7.488  -4.812   5.575  1.00  0.00     0.224 C 
ATOM     78  H   UNL     1       5.726  -4.527   4.692  1.00  0.00     0.163 HD
ATOM     79  O   UNL     1       6.951  -5.459   6.475  1.00  0.00    -0.275 OA
BRANCH  77  80
ATOM     80  C   UNL     1       9.010  -4.627   5.483  1.00  0.00     0.096 C 
BRANCH  80  81
ATOM     81  C   UNL     1       9.682  -5.674   6.399  1.00  0.00     0.015 C 
BRANCH  81  82
ATOM     82  C   UNL     1      11.182  -5.519   6.624  1.00  0.00     0.001 CG0
ATOM     83  G   UNL     1      11.505  -4.621   7.813  1.00  0.00     0.000 G0
ENDBRANCH  81  82
ENDBRANCH  80  81
BRANCH  80  84
ATOM     84  C   UNL     1       9.397  -3.144   5.734  1.00  0.00     0.082 C 
BRANCH  84  85
ATOM     85  C   UNL     1       9.777  -2.820   7.184  1.00  0.00     0.021 C 
BRANCH  85  86
ATOM     86  C   UNL     1      11.209  -3.144   7.605  1.00  0.00     0.002 C 
BRANCH  86  87
ATOM     87  C   UNL     1      11.505  -4.621   7.813  1.00  0.00     0.000 CG0
ATOM     88  G   UNL     1      11.182  -5.519   6.624  1.00  0.00     0.000 G0
ENDBRANCH  86  87
ENDBRANCH  85  86
ENDBRANCH  84  85
BRANCH  84  89
ATOM     89  N   UNL     1      10.450  -2.769   4.758  1.00  0.00    -0.206 NA
ATOM     90  H   UNL     1      10.162  -3.171   3.866  1.00  0.00     0.141 HD
BRANCH  89  91
ATOM     91  S   UNL     1      10.881  -1.172   4.426  1.00  0.00     0.274 S 
ATOM     92  O   UNL     1      11.037  -0.490   5.693  1.00  0.00    -0.206 OA
ATOM     93  O   UNL     1      12.026  -1.310   3.543  1.00  0.00    -0.206 OA
BRANCH  91  94
ATOM     94  C   UNL     1       9.468  -0.464   3.487  1.00  0.00     0.473 C 
ATOM     95  F   UNL     1       9.161  -1.214   2.387  1.00  0.00    -0.191 F 
ATOM     96  F   UNL     1       8.328  -0.433   4.240  1.00  0.00    -0.191 F 
ENDBRANCH  91  94
ENDBRANCH  89  91
ENDBRANCH  84  89
ENDBRANCH  80  84
ENDBRANCH  77  80
ENDBRANCH  75  76
ENDBRANCH  74  75
ENDBRANCH   1  74
TORSDOF 19
