REMARK SMILES C[C@@H](CCC(=O)NCCCCCCNC(=O)c1ccc(-c2c3nc(c(-c4cc(S(=O)(=O)[O-])ccc4F)c4ccc([nH]4)c(-c4cc(S(=O)(=O)[O-])ccc4F)c4nc(c(-c5cc(S(=O)(=O)[O-])ccc5F)c5ccc2[nH]5)C=C4)C=C3)cc1)[C@@H]1CC[C@@H]2[C@H]3CC[C@@H]4CC(=O)CC[C@]4(C)[C@@H]3CC(=O)[C@]21C
REMARK SMILES IDX 10 1 9 2 8 3 7 4 5 5 6 6 4 8 3 9 2 10 1 11 80 12 81 13 99 14
REMARK SMILES IDX 82 15 83 16 97 17 100 18 84 19 96 20 98 21 85 22 95 23 86 24
REMARK SMILES IDX 93 25 87 26 92 27 94 28 88 29 91 30 89 31 90 32 11 33 12 34
REMARK SMILES IDX 13 35 14 36 15 37 16 39 17 40 18 41 79 42 19 43 78 44 20 45
REMARK SMILES IDX 21 46 22 47 72 48 23 49 77 50 71 51 73 52 24 53 76 54 70 55
REMARK SMILES IDX 69 56 25 58 57 59 37 60 56 61 38 62 41 63 55 64 74 65 39 66
REMARK SMILES IDX 40 67 54 69 75 70 42 71 26 72 27 73 35 74 28 75 34 76 36 77
REMARK SMILES IDX 33 78 29 79 30 80 31 81 32 82 58 83 59 84 67 85 60 86 66 87
REMARK SMILES IDX 68 88 65 89 61 90 62 91 63 92 64 93 43 94 44 95 52 96 45 97
REMARK SMILES IDX 51 98 53 99 50 100 46 101 47 102 48 103 49 104
REMARK H PARENT 7 7 14 38 73 57 41 68
REMARK Flexibility Score: inf
ROOT
ATOM      1  C   UNL     1       0.500   2.027   0.603  1.00  0.00     0.002 C 
ENDROOT
BRANCH   1   2
ATOM      2  C   UNL     1      -0.122   0.714   1.111  1.00  0.00     0.021 C 
BRANCH   2   3
ATOM      3  C   UNL     1      -1.359   0.670   2.040  1.00  0.00     0.116 C 
BRANCH   3   4
ATOM      4  N   UNL     1      -2.640   1.198   1.563  1.00  0.00    -0.356 N 
ATOM      5  C   UNL     1      -3.759   0.682   0.977  1.00  0.00     0.220 C 
ATOM      6  O   UNL     1      -4.723   1.449   0.855  1.00  0.00    -0.275 OA
ATOM      7  H   UNL     1      -2.711   2.170   1.700  1.00  0.00     0.163 HD
BRANCH   5   8
ATOM      8  C   UNL     1      -3.874  -0.728   0.432  1.00  0.00     0.100 C 
BRANCH   8   9
ATOM      9  C   UNL     1      -3.727  -0.878  -1.098  1.00  0.00     0.013 C 
BRANCH   9  10
ATOM     10  C   UNL     1      -2.322  -0.808  -1.716  1.00  0.00    -0.010 C 
ATOM     11  C   UNL     1      -1.360  -1.713  -0.913  1.00  0.00     0.008 C 
BRANCH  10  12
ATOM     12  C   UNL     1      -1.768   0.611  -2.075  1.00  0.00     0.005 C 
ATOM     13  C   UNL     1      -2.320   1.869  -1.364  1.00  0.00     0.005 C 
ATOM     14  C   UNL     1      -1.970   1.092  -3.538  1.00  0.00     0.032 C 
ATOM     15  C   UNL     1      -1.948   3.092  -2.208  1.00  0.00     0.005 C 
ATOM     16  C   UNL     1      -1.277   2.472  -3.418  1.00  0.00     0.006 C 
ATOM     17  C   UNL     1      -1.204   0.374  -4.625  1.00  0.00     0.139 C 
ATOM     18  C   UNL     1      -3.459   1.136  -3.947  1.00  0.00     0.020 C 
ATOM     19  C   UNL     1      -1.246   3.321  -4.684  1.00  0.00    -0.003 C 
ATOM     20  C   UNL     1      -1.248   1.061  -5.979  1.00  0.00     0.080 C 
ATOM     21  O   UNL     1      -0.605  -0.682  -4.446  1.00  0.00    -0.299 OA
ATOM     22  C   UNL     1      -0.358   4.561  -4.466  1.00  0.00     0.004 C 
ATOM     23  C   UNL     1      -0.686   2.492  -5.875  1.00  0.00     0.006 C 
ATOM     24  C   UNL     1      -0.141   5.381  -5.732  1.00  0.00     0.005 C 
ATOM     25  C   UNL     1      -0.736   3.327  -7.203  1.00  0.00    -0.025 C 
ATOM     26  C   UNL     1       0.212   4.541  -6.981  1.00  0.00     0.002 C 
ATOM     27  C   UNL     1      -2.166   3.796  -7.606  1.00  0.00     0.015 C 
ATOM     28  C   UNL     1      -0.215   2.440  -8.364  1.00  0.00     0.012 C 
ATOM     29  C   UNL     1       0.282   5.431  -8.218  1.00  0.00     0.079 C 
ATOM     30  C   UNL     1      -2.318   5.231  -8.122  1.00  0.00     0.076 C 
ATOM     31  C   UNL     1      -1.077   5.939  -8.623  1.00  0.00     0.133 C 
ATOM     32  O   UNL     1      -1.178   6.944  -9.330  1.00  0.00    -0.300 OA
ENDBRANCH  10  12
ENDBRANCH   9  10
ENDBRANCH   8   9
ENDBRANCH   5   8
ENDBRANCH   3   4
ENDBRANCH   2   3
ENDBRANCH   1   2
BRANCH   1  33
ATOM     33  C   UNL     1       1.373   2.828   1.558  1.00  0.00     0.002 C 
BRANCH  33  34
ATOM     34  C   UNL     1       2.574   2.085   2.133  1.00  0.00     0.021 C 
BRANCH  34  35
ATOM     35  C   UNL     1       3.574   1.570   1.101  1.00  0.00     0.116 C 
BRANCH  35  36
ATOM     36  N   UNL     1       4.356   2.644   0.503  1.00  0.00    -0.352 N 
ATOM     37  C   UNL     1       5.718   2.831   0.564  1.00  0.00     0.251 C 
ATOM     38  H   UNL     1       3.849   3.317  -0.006  1.00  0.00     0.163 HD
ATOM     39  O   UNL     1       6.224   3.889   0.200  1.00  0.00    -0.269 OA
BRANCH  37  40
ATOM     40  C   UNL     1       6.555   1.735   1.093  1.00  0.00     0.039 A 
ATOM     41  C   UNL     1       7.420   1.978   2.161  1.00  0.00     0.014 A 
ATOM     42  C   UNL     1       6.423   0.449   0.561  1.00  0.00     0.014 A 
ATOM     43  C   UNL     1       8.121   0.912   2.730  1.00  0.00     0.010 A 
ATOM     44  C   UNL     1       7.064  -0.620   1.178  1.00  0.00     0.010 A 
ATOM     45  C   UNL     1       7.932  -0.399   2.259  1.00  0.00    -0.014 A 
BRANCH  45  46
ATOM     46  C   UNL     1       8.686  -1.542   2.840  1.00  0.00     0.031 A 
ATOM     47  C   UNL     1       9.668  -2.290   1.976  1.00  0.00     0.074 A 
ATOM     48  C   UNL     1       8.467  -1.928   4.113  1.00  0.00     0.049 A 
ATOM     49  N   UNL     1      10.378  -3.353   2.255  1.00  0.00    -0.248 NA
ATOM     50  C   UNL     1       9.850  -1.791   0.603  1.00  0.00     0.031 C 
ATOM     51  C   UNL     1       7.511  -1.307   5.033  1.00  0.00     0.029 A 
ATOM     52  N   UNL     1       9.028  -2.938   4.854  1.00  0.00    -0.354 N 
ATOM     53  C   UNL     1      11.087  -3.648   1.095  1.00  0.00     0.074 A 
ATOM     54  C   UNL     1      10.655  -2.705   0.087  1.00  0.00     0.031 C 
ATOM     55  C   UNL     1       7.570  -1.935   6.219  1.00  0.00     0.029 A 
ATOM     56  C   UNL     1       8.538  -3.026   6.137  1.00  0.00     0.049 A 
ATOM     57  H   UNL     1       9.719  -3.543   4.500  1.00  0.00     0.167 HD
ATOM     58  C   UNL     1      12.041  -4.591   0.898  1.00  0.00     0.034 A 
ATOM     59  C   UNL     1       8.832  -3.891   7.129  1.00  0.00     0.034 A 
ATOM     60  C   UNL     1      12.469  -5.517   1.915  1.00  0.00     0.049 A 
ATOM     61  C   UNL     1       9.888  -4.944   6.881  1.00  0.00     0.074 A 
ATOM     62  C   UNL     1      13.425  -6.514   1.831  1.00  0.00     0.029 A 
ATOM     63  N   UNL     1      11.972  -5.554   3.212  1.00  0.00    -0.354 N 
ATOM     64  N   UNL     1      10.570  -5.190   5.784  1.00  0.00    -0.248 NA
ATOM     65  C   UNL     1      10.233  -5.818   8.009  1.00  0.00     0.031 C 
ATOM     66  C   UNL     1      13.472  -7.184   3.058  1.00  0.00     0.029 A 
ATOM     67  C   UNL     1      12.599  -6.557   3.933  1.00  0.00     0.049 A 
ATOM     68  H   UNL     1      11.276  -4.955   3.567  1.00  0.00     0.167 HD
ATOM     69  C   UNL     1      11.455  -6.215   6.110  1.00  0.00     0.074 A 
ATOM     70  C   UNL     1      11.232  -6.527   7.506  1.00  0.00     0.031 C 
ATOM     71  C   UNL     1      12.373  -6.842   5.330  1.00  0.00     0.034 A 
BRANCH  58  72
ATOM     72  C   UNL     1      12.675  -4.657  -0.471  1.00  0.00     0.023 A 
ATOM     73  C   UNL     1      13.416  -3.578  -0.986  1.00  0.00     0.031 A 
ATOM     74  C   UNL     1      12.517  -5.793  -1.284  1.00  0.00     0.131 A 
ATOM     75  C   UNL     1      13.906  -3.626  -2.299  1.00  0.00     0.055 A 
ATOM     76  C   UNL     1      13.080  -5.868  -2.559  1.00  0.00     0.041 A 
ATOM     77  F   UNL     1      11.801  -6.845  -0.857  1.00  0.00    -0.206 F 
ATOM     78  C   UNL     1      13.767  -4.775  -3.080  1.00  0.00     0.022 A 
BRANCH  75  79
ATOM     79  S   UNL     1      14.607  -2.115  -3.016  1.00  0.00     0.124 S 
ATOM     80  O   UNL     1      13.461  -1.211  -2.973  1.00  0.00    -0.237 OA
ATOM     81  O   UNL     1      15.699  -1.807  -2.100  1.00  0.00    -0.237 OA
ATOM     82  O   UNL     1      15.015  -2.530  -4.357  1.00  0.00    -0.744 OA
ENDBRANCH  75  79
ENDBRANCH  58  72
BRANCH  59  83
ATOM     83  C   UNL     1       8.131  -3.818   8.446  1.00  0.00     0.023 A 
ATOM     84  C   UNL     1       8.839  -3.572   9.634  1.00  0.00     0.031 A 
ATOM     85  C   UNL     1       6.752  -4.075   8.547  1.00  0.00     0.131 A 
ATOM     86  C   UNL     1       8.185  -3.662  10.873  1.00  0.00     0.055 A 
ATOM     87  C   UNL     1       6.092  -4.098   9.778  1.00  0.00     0.041 A 
ATOM     88  F   UNL     1       6.022  -4.311   7.445  1.00  0.00    -0.206 F 
ATOM     89  C   UNL     1       6.813  -3.911  10.952  1.00  0.00     0.022 A 
BRANCH  86  90
ATOM     90  S   UNL     1       9.180  -3.580  12.389  1.00  0.00     0.124 S 
ATOM     91  O   UNL     1      10.166  -4.629  12.152  1.00  0.00    -0.237 OA
ATOM     92  O   UNL     1       9.678  -2.209  12.347  1.00  0.00    -0.237 OA
ATOM     93  O   UNL     1       8.212  -3.859  13.446  1.00  0.00    -0.744 OA
ENDBRANCH  86  90
ENDBRANCH  59  83
BRANCH  71  94
ATOM     94  C   UNL     1      13.252  -7.872   5.996  1.00  0.00     0.023 A 
ATOM     95  C   UNL     1      12.735  -9.071   6.515  1.00  0.00     0.031 A 
ATOM     96  C   UNL     1      14.633  -7.635   6.129  1.00  0.00     0.131 A 
ATOM     97  C   UNL     1      13.579  -9.956   7.203  1.00  0.00     0.055 A 
ATOM     98  C   UNL     1      15.479  -8.549   6.756  1.00  0.00     0.041 A 
ATOM     99  F   UNL     1      15.181  -6.506   5.652  1.00  0.00    -0.206 F 
ATOM    100  C   UNL     1      14.951  -9.710   7.312  1.00  0.00     0.022 A 
BRANCH  97 101
ATOM    101  S   UNL     1      12.841 -11.379   8.052  1.00  0.00     0.124 S 
ATOM    102  O   UNL     1      11.864 -10.738   8.926  1.00  0.00    -0.237 OA
ATOM    103  O   UNL     1      12.293 -12.152   6.942  1.00  0.00    -0.237 OA
ATOM    104  O   UNL     1      13.976 -11.996   8.736  1.00  0.00    -0.744 OA
ENDBRANCH  97 101
ENDBRANCH  71  94
ENDBRANCH  45  46
ENDBRANCH  37  40
ENDBRANCH  35  36
ENDBRANCH  34  35
ENDBRANCH  33  34
ENDBRANCH   1  33
TORSDOF 19
