REMARK SMILES CC(C)[C@H](NC(=O)[C@H](C)NC(=O)CNC(=O)OCc1ccccc1)C(=O)NCCCCCCNC(=O)c1ccc(-c2c3nc(c(-c4cc(S(=O)(=O)[O-])ccc4F)c4ccc([nH]4)c(-c4cc(S(=O)(=O)[O-])ccc4F)c4nc(c(-c5cc(S(=O)(=O)[O-])ccc5F)c5ccc2[nH]5)C=C4)C=C3)cc1
REMARK SMILES IDX 28 1 27 2 25 3 26 4 4 6 2 7 1 8 3 9 5 10 6 11 7 13 8 14 9 15
REMARK SMILES IDX 10 16 11 17 12 19 13 20 14 21 15 22 16 24 17 25 18 26 19 27
REMARK SMILES IDX 20 28 24 29 21 30 23 31 22 32 29 33 30 34 31 35 32 36 33 37
REMARK SMILES IDX 34 38 35 39 36 41 37 42 38 43 99 44 39 45 98 46 40 47 41 48
REMARK SMILES IDX 42 49 92 50 43 51 97 52 91 53 93 54 44 55 96 56 90 57 89 58
REMARK SMILES IDX 45 60 77 61 57 62 76 63 58 64 61 65 75 66 94 67 59 68 60 69
REMARK SMILES IDX 74 71 95 72 62 73 46 74 47 75 55 76 48 77 54 78 56 79 53 80
REMARK SMILES IDX 49 81 50 82 51 83 52 84 78 85 79 86 87 87 80 88 86 89 88 90
REMARK SMILES IDX 85 91 81 92 82 93 83 94 84 95 63 96 64 97 72 98 65 99 71 100
REMARK SMILES IDX 73 101 70 102 66 103 67 104 68 105 69 106
REMARK H PARENT 27 5 5 12 10 18 14 23 34 40 93 59 61 70
REMARK Flexibility Score: inf
ROOT
ATOM      1  C   UNL     1       0.237   2.544  -5.454  1.00  0.00     0.116 C 
ENDROOT
BRANCH   1   2
ATOM      2  N   UNL     1      -1.016   3.280  -5.429  1.00  0.00    -0.354 N 
ATOM      3  C   UNL     1      -1.845   3.581  -4.388  1.00  0.00     0.242 C 
ATOM      4  O   UNL     1      -2.752   4.393  -4.594  1.00  0.00    -0.273 OA
ATOM      5  H   UNL     1      -1.314   3.617  -6.305  1.00  0.00     0.163 HD
BRANCH   3   6
ATOM      6  C   UNL     1      -1.566   3.052  -2.963  1.00  0.00     0.173 C 
BRANCH   6   7
ATOM      7  C   UNL     1      -0.579   3.954  -2.194  1.00  0.00     0.015 C 
ATOM      8  C   UNL     1       0.180   5.031  -2.976  1.00  0.00     0.010 C 
ATOM      9  C   UNL     1      -1.319   4.649  -1.040  1.00  0.00     0.010 C 
ENDBRANCH   6   7
BRANCH   6  10
ATOM     10  N   UNL     1      -1.339   1.590  -3.018  1.00  0.00    -0.342 N 
ATOM     11  C   UNL     1      -0.718   0.613  -2.310  1.00  0.00     0.242 C 
ATOM     12  H   UNL     1      -1.773   1.208  -3.815  1.00  0.00     0.164 HD
ATOM     13  O   UNL     1      -1.000  -0.539  -2.659  1.00  0.00    -0.273 OA
BRANCH  11  14
ATOM     14  C   UNL     1       0.372   0.877  -1.246  1.00  0.00     0.168 C 
ATOM     15  C   UNL     1       1.044  -0.437  -0.838  1.00  0.00     0.041 C 
BRANCH  14  16
ATOM     16  N   UNL     1      -0.139   1.546  -0.055  1.00  0.00    -0.343 N 
ATOM     17  C   UNL     1       0.452   2.467   0.762  1.00  0.00     0.240 C 
ATOM     18  H   UNL     1      -1.055   1.294   0.201  1.00  0.00     0.164 HD
ATOM     19  O   UNL     1      -0.218   2.872   1.719  1.00  0.00    -0.273 OA
BRANCH  17  20
ATOM     20  C   UNL     1       1.800   3.140   0.427  1.00  0.00     0.219 C 
BRANCH  20  21
ATOM     21  N   UNL     1       2.902   2.239   0.179  1.00  0.00    -0.312 N 
ATOM     22  C   UNL     1       3.555   2.004  -0.994  1.00  0.00     0.407 C 
ATOM     23  H   UNL     1       3.222   1.728   0.958  1.00  0.00     0.167 HD
ATOM     24  O   UNL     1       4.425   1.157  -1.058  1.00  0.00    -0.225 OA
BRANCH  22  25
ATOM     25  O   UNL     1       3.085   2.741  -2.034  1.00  0.00    -0.445 OA
BRANCH  25  26
ATOM     26  C   UNL     1       3.658   2.413  -3.310  1.00  0.00     0.270 C 
BRANCH  26  27
ATOM     27  C   UNL     1       4.869   3.263  -3.567  1.00  0.00    -0.011 A 
ATOM     28  C   UNL     1       6.141   2.784  -3.225  1.00  0.00     0.007 A 
ATOM     29  C   UNL     1       4.743   4.560  -4.082  1.00  0.00     0.007 A 
ATOM     30  C   UNL     1       7.265   3.593  -3.374  1.00  0.00     0.000 A 
ATOM     31  C   UNL     1       5.872   5.366  -4.238  1.00  0.00     0.000 A 
ATOM     32  C   UNL     1       7.130   4.885  -3.875  1.00  0.00     0.000 A 
ENDBRANCH  26  27
ENDBRANCH  25  26
ENDBRANCH  22  25
ENDBRANCH  20  21
ENDBRANCH  17  20
ENDBRANCH  14  16
ENDBRANCH  11  14
ENDBRANCH   6  10
ENDBRANCH   3   6
ENDBRANCH   1   2
BRANCH   1  33
ATOM     33  C   UNL     1       0.361   1.688  -6.707  1.00  0.00     0.021 C 
BRANCH  33  34
ATOM     34  C   UNL     1       0.597   2.506  -7.982  1.00  0.00     0.002 C 
BRANCH  34  35
ATOM     35  C   UNL     1       1.867   3.368  -7.973  1.00  0.00     0.002 C 
BRANCH  35  36
ATOM     36  C   UNL     1       3.165   2.606  -7.696  1.00  0.00     0.021 C 
BRANCH  36  37
ATOM     37  C   UNL     1       3.424   1.438  -8.639  1.00  0.00     0.116 C 
BRANCH  37  38
ATOM     38  N   UNL     1       3.514   1.862 -10.028  1.00  0.00    -0.352 N 
ATOM     39  C   UNL     1       4.460   1.526 -10.964  1.00  0.00     0.251 C 
ATOM     40  H   UNL     1       2.803   2.470 -10.336  1.00  0.00     0.163 HD
ATOM     41  O   UNL     1       4.500   2.110 -12.042  1.00  0.00    -0.269 OA
BRANCH  39  42
ATOM     42  C   UNL     1       5.441   0.472 -10.637  1.00  0.00     0.039 A 
ATOM     43  C   UNL     1       6.801   0.714 -10.845  1.00  0.00     0.014 A 
ATOM     44  C   UNL     1       5.011  -0.737 -10.083  1.00  0.00     0.014 A 
ATOM     45  C   UNL     1       7.738  -0.238 -10.438  1.00  0.00     0.010 A 
ATOM     46  C   UNL     1       5.948  -1.647  -9.610  1.00  0.00     0.010 A 
ATOM     47  C   UNL     1       7.321  -1.410  -9.787  1.00  0.00    -0.014 A 
BRANCH  47  48
ATOM     48  C   UNL     1       8.289  -2.430  -9.309  1.00  0.00     0.031 A 
ATOM     49  C   UNL     1       8.245  -3.816  -9.892  1.00  0.00     0.074 A 
ATOM     50  C   UNL     1       9.138  -2.142  -8.303  1.00  0.00     0.049 A 
ATOM     51  N   UNL     1       8.877  -4.897  -9.515  1.00  0.00    -0.248 NA
ATOM     52  C   UNL     1       7.337  -4.016 -11.032  1.00  0.00     0.031 C 
ATOM     53  C   UNL     1       9.261  -0.839  -7.646  1.00  0.00     0.029 A 
ATOM     54  N   UNL     1      10.047  -2.931  -7.644  1.00  0.00    -0.354 N 
ATOM     55  C   UNL     1       8.427  -5.909 -10.355  1.00  0.00     0.074 A 
ATOM     56  C   UNL     1       7.422  -5.324 -11.217  1.00  0.00     0.031 C 
ATOM     57  C   UNL     1      10.202  -0.915  -6.691  1.00  0.00     0.029 A 
ATOM     58  C   UNL     1      10.708  -2.283  -6.626  1.00  0.00     0.049 A 
ATOM     59  H   UNL     1      10.210  -3.874  -7.877  1.00  0.00     0.167 HD
ATOM     60  C   UNL     1       8.830  -7.202 -10.417  1.00  0.00     0.034 A 
ATOM     61  C   UNL     1      11.602  -2.746  -5.728  1.00  0.00     0.034 A 
ATOM     62  C   UNL     1       9.843  -7.763  -9.557  1.00  0.00     0.049 A 
ATOM     63  C   UNL     1      12.004  -4.200  -5.784  1.00  0.00     0.074 A 
ATOM     64  C   UNL     1      10.358  -9.047  -9.555  1.00  0.00     0.029 A 
ATOM     65  N   UNL     1      10.494  -7.073  -8.541  1.00  0.00    -0.354 N 
ATOM     66  N   UNL     1      11.587  -5.142  -6.599  1.00  0.00    -0.248 NA
ATOM     67  C   UNL     1      13.001  -4.652  -4.804  1.00  0.00     0.031 C 
ATOM     68  C   UNL     1      11.264  -9.154  -8.495  1.00  0.00     0.029 A 
ATOM     69  C   UNL     1      11.384  -7.913  -7.890  1.00  0.00     0.049 A 
ATOM     70  H   UNL     1      10.344  -6.126  -8.316  1.00  0.00     0.167 HD
ATOM     71  C   UNL     1      12.306  -6.285  -6.257  1.00  0.00     0.074 A 
ATOM     72  C   UNL     1      13.181  -5.915  -5.165  1.00  0.00     0.031 C 
ATOM     73  C   UNL     1      12.256  -7.526  -6.806  1.00  0.00     0.034 A 
BRANCH  60  74
ATOM     74  C   UNL     1       8.150  -8.095 -11.428  1.00  0.00     0.023 A 
ATOM     75  C   UNL     1       8.219  -7.833 -12.808  1.00  0.00     0.031 A 
ATOM     76  C   UNL     1       7.390  -9.200 -11.008  1.00  0.00     0.131 A 
ATOM     77  C   UNL     1       7.472  -8.608 -13.707  1.00  0.00     0.055 A 
ATOM     78  C   UNL     1       6.724 -10.025 -11.916  1.00  0.00     0.041 A 
ATOM     79  F   UNL     1       7.267  -9.489  -9.703  1.00  0.00    -0.206 F 
ATOM     80  C   UNL     1       6.747  -9.720 -13.274  1.00  0.00     0.022 A 
BRANCH  77  81
ATOM     81  S   UNL     1       7.331  -8.043 -15.425  1.00  0.00     0.124 S 
ATOM     82  O   UNL     1       6.746  -6.715 -15.250  1.00  0.00    -0.237 OA
ATOM     83  O   UNL     1       8.715  -8.076 -15.883  1.00  0.00    -0.237 OA
ATOM     84  O   UNL     1       6.445  -9.030 -16.039  1.00  0.00    -0.744 OA
ENDBRANCH  77  81
ENDBRANCH  60  74
BRANCH  61  85
ATOM     85  C   UNL     1      12.173  -1.839  -4.690  1.00  0.00     0.023 A 
ATOM     86  C   UNL     1      13.546  -1.551  -4.661  1.00  0.00     0.031 A 
ATOM     87  C   UNL     1      11.363  -1.282  -3.684  1.00  0.00     0.131 A 
ATOM     88  C   UNL     1      14.078  -0.775  -3.619  1.00  0.00     0.055 A 
ATOM     89  C   UNL     1      11.887  -0.463  -2.683  1.00  0.00     0.041 A 
ATOM     90  F   UNL     1      10.042  -1.521  -3.665  1.00  0.00    -0.206 F 
ATOM     91  C   UNL     1      13.256  -0.217  -2.638  1.00  0.00     0.022 A 
BRANCH  88  92
ATOM     92  S   UNL     1      15.879  -0.583  -3.512  1.00  0.00     0.124 S 
ATOM     93  O   UNL     1      16.318  -1.971  -3.418  1.00  0.00    -0.237 OA
ATOM     94  O   UNL     1      16.185   0.105  -4.762  1.00  0.00    -0.237 OA
ATOM     95  O   UNL     1      16.064   0.215  -2.302  1.00  0.00    -0.744 OA
ENDBRANCH  88  92
ENDBRANCH  61  85
BRANCH  73  96
ATOM     96  C   UNL     1      13.230  -8.555  -6.286  1.00  0.00     0.023 A 
ATOM     97  C   UNL     1      13.142  -9.081  -4.986  1.00  0.00     0.031 A 
ATOM     98  C   UNL     1      14.254  -9.032  -7.125  1.00  0.00     0.131 A 
ATOM     99  C   UNL     1      14.087 -10.023  -4.549  1.00  0.00     0.055 A 
ATOM    100  C   UNL     1      15.153 -10.012  -6.706  1.00  0.00     0.041 A 
ATOM    101  F   UNL     1      14.385  -8.562  -8.376  1.00  0.00    -0.206 F 
ATOM    102  C   UNL     1      15.079 -10.505  -5.407  1.00  0.00     0.022 A 
BRANCH  99 103
ATOM    103  S   UNL     1      14.050 -10.560  -2.817  1.00  0.00     0.124 S 
ATOM    104  O   UNL     1      14.236  -9.300  -2.104  1.00  0.00    -0.237 OA
ATOM    105  O   UNL     1      12.727 -11.166  -2.705  1.00  0.00    -0.237 OA
ATOM    106  O   UNL     1      15.168 -11.497  -2.724  1.00  0.00    -0.744 OA
ENDBRANCH  99 103
ENDBRANCH  73  96
ENDBRANCH  47  48
ENDBRANCH  39  42
ENDBRANCH  37  38
ENDBRANCH  36  37
ENDBRANCH  35  36
ENDBRANCH  34  35
ENDBRANCH  33  34
ENDBRANCH   1  33
TORSDOF 25
