REMARK SMILES COCCNC(=O)NC(=O)C[N@H+]1CC[C@H](C(=O)NCCCCCCNC(=O)c2ccc(-c3c4nc(c(-c5cc(S(=O)(=O)[O-])ccc5F)c5ccc([nH]5)c(-c5cc(S(=O)(=O)[O-])ccc5F)c5nc(c(-c6cc(S(=O)(=O)[O-])ccc6F)c6ccc3[nH]6)C=C5)C=C4)cc2)[C@@H]1C
REMARK SMILES IDX 20 1 19 2 18 3 16 4 17 5 15 7 12 8 13 9 91 10 14 12 92 13
REMARK SMILES IDX 11 14 9 15 5 16 6 17 7 19 8 20 10 22 4 23 3 24 2 25 1 26
REMARK SMILES IDX 21 27 22 28 23 29 24 30 25 31 26 32 27 34 28 35 29 36 90 37
REMARK SMILES IDX 30 38 89 39 31 40 32 41 33 42 83 43 34 44 88 45 82 46 84 47
REMARK SMILES IDX 35 48 87 49 81 50 80 51 36 53 68 54 48 55 67 56 49 57 52 58
REMARK SMILES IDX 66 59 85 60 50 61 51 62 65 64 86 65 53 66 37 67 38 68 46 69
REMARK SMILES IDX 39 70 45 71 47 72 44 73 40 74 41 75 42 76 43 77 69 78 70 79
REMARK SMILES IDX 78 80 71 81 77 82 79 83 76 84 72 85 73 86 74 87 75 88 54 89
REMARK SMILES IDX 55 90 63 91 56 92 62 93 64 94 61 95 57 96 58 97 59 98 60 99
REMARK H PARENT 18 6 12 11 5 18 8 21 25 33 84 52 52 63
REMARK Flexibility Score: inf
ROOT
ATOM      1  C   UNL     1       2.775   3.017  -2.111  1.00  0.00     0.021 C 
ENDROOT
BRANCH   1   2
ATOM      2  C   UNL     1       3.234   1.595  -1.805  1.00  0.00     0.116 C 
BRANCH   2   3
ATOM      3  N   UNL     1       3.536   1.419  -0.394  1.00  0.00    -0.356 N 
ATOM      4  C   UNL     1       3.437   0.296   0.372  1.00  0.00     0.229 C 
ATOM      5  O   UNL     1       3.868   0.339   1.520  1.00  0.00    -0.275 OA
ATOM      6  H   UNL     1       3.856   2.224   0.074  1.00  0.00     0.163 HD
BRANCH   4   7
ATOM      7  C   UNL     1       2.824  -0.927  -0.273  1.00  0.00     0.142 C 
ATOM      8  N   UNL     1       2.731  -3.269   0.227  1.00  0.00    -0.324 N 
ATOM      9  C   UNL     1       3.959  -3.053  -0.522  1.00  0.00     0.263 C 
ATOM     10  C   UNL     1       2.175  -1.978   0.619  1.00  0.00     0.194 C 
ATOM     11  H   UNL     1       3.021  -3.788   1.055  1.00  0.00     0.348 HD
ATOM     12  C   UNL     1       3.836  -1.671  -1.139  1.00  0.00     0.081 C 
ATOM     13  C   UNL     1       2.206  -1.811   2.132  1.00  0.00     0.076 C 
BRANCH   8  14
ATOM     14  C   UNL     1       1.763  -4.267  -0.236  1.00  0.00     0.364 C 
BRANCH  14  15
ATOM     15  C   UNL     1       1.725  -4.568  -1.729  1.00  0.00     0.283 C 
ATOM     16  N   UNL     1      -0.216  -1.973  -1.806  1.00  0.00    -0.335 N 
ATOM     17  C   UNL     1       0.741  -2.469  -2.615  1.00  0.00     0.321 C 
ATOM     18  H   UNL     1      -0.162  -1.003  -1.646  1.00  0.00     0.165 HD
ATOM     19  O   UNL     1       1.292  -1.704  -3.404  1.00  0.00    -0.248 OA
ATOM     20  N   UNL     1       1.021  -3.796  -2.623  1.00  0.00    -0.273 N 
ATOM     21  H   UNL     1       0.661  -4.287  -3.396  1.00  0.00     0.175 HD
ATOM     22  O   UNL     1       2.336  -5.543  -2.184  1.00  0.00    -0.268 OA
BRANCH  16  23
ATOM     23  C   UNL     1      -1.315  -2.644  -1.134  1.00  0.00     0.146 C 
BRANCH  23  24
ATOM     24  C   UNL     1      -1.592  -2.142   0.293  1.00  0.00     0.181 C 
BRANCH  24  25
ATOM     25  O   UNL     1      -2.055  -0.791   0.355  1.00  0.00    -0.383 OA
ATOM     26  C   UNL     1      -1.035   0.201   0.349  1.00  0.00     0.194 C 
ENDBRANCH  24  25
ENDBRANCH  23  24
ENDBRANCH  16  23
ENDBRANCH  14  15
ENDBRANCH   8  14
ENDBRANCH   4   7
ENDBRANCH   2   3
ENDBRANCH   1   2
BRANCH   1  27
ATOM     27  C   UNL     1       3.736   4.107  -1.627  1.00  0.00     0.002 C 
BRANCH  27  28
ATOM     28  C   UNL     1       5.201   3.885  -2.015  1.00  0.00     0.002 C 
BRANCH  28  29
ATOM     29  C   UNL     1       5.446   3.757  -3.518  1.00  0.00     0.021 C 
BRANCH  29  30
ATOM     30  C   UNL     1       4.939   4.939  -4.330  1.00  0.00     0.116 C 
BRANCH  30  31
ATOM     31  N   UNL     1       5.561   6.185  -3.912  1.00  0.00    -0.352 N 
ATOM     32  C   UNL     1       6.195   7.127  -4.683  1.00  0.00     0.251 C 
ATOM     33  H   UNL     1       5.521   6.379  -2.947  1.00  0.00     0.163 HD
ATOM     34  O   UNL     1       6.865   8.005  -4.159  1.00  0.00    -0.269 OA
BRANCH  32  35
ATOM     35  C   UNL     1       6.070   7.040  -6.152  1.00  0.00     0.039 A 
ATOM     36  C   UNL     1       7.216   7.156  -6.939  1.00  0.00     0.014 A 
ATOM     37  C   UNL     1       4.823   6.805  -6.740  1.00  0.00     0.014 A 
ATOM     38  C   UNL     1       7.117   6.982  -8.320  1.00  0.00     0.010 A 
ATOM     39  C   UNL     1       4.742   6.547  -8.102  1.00  0.00     0.010 A 
ATOM     40  C   UNL     1       5.887   6.640  -8.908  1.00  0.00    -0.014 A 
BRANCH  40  41
ATOM     41  C   UNL     1       5.777   6.388 -10.367  1.00  0.00     0.031 A 
ATOM     42  C   UNL     1       4.908   7.274 -11.217  1.00  0.00     0.074 A 
ATOM     43  C   UNL     1       6.414   5.332 -10.910  1.00  0.00     0.049 A 
ATOM     44  N   UNL     1       4.632   7.183 -12.492  1.00  0.00    -0.248 NA
ATOM     45  C   UNL     1       4.236   8.391 -10.535  1.00  0.00     0.031 C 
ATOM     46  C   UNL     1       7.251   4.382 -10.175  1.00  0.00     0.029 A 
ATOM     47  N   UNL     1       6.455   4.877 -12.204  1.00  0.00    -0.354 N 
ATOM     48  C   UNL     1       3.749   8.223 -12.763  1.00  0.00     0.074 A 
ATOM     49  C   UNL     1       3.482   8.885 -11.504  1.00  0.00     0.031 C 
ATOM     50  C   UNL     1       7.749   3.478 -11.034  1.00  0.00     0.029 A 
ATOM     51  C   UNL     1       7.226   3.749 -12.369  1.00  0.00     0.049 A 
ATOM     52  H   UNL     1       5.979   5.317 -12.945  1.00  0.00     0.167 HD
ATOM     53  C   UNL     1       3.231   8.605 -13.956  1.00  0.00     0.034 A 
ATOM     54  C   UNL     1       7.471   3.009 -13.468  1.00  0.00     0.034 A 
ATOM     55  C   UNL     1       3.516   7.934 -15.201  1.00  0.00     0.049 A 
ATOM     56  C   UNL     1       6.852   3.430 -14.778  1.00  0.00     0.074 A 
ATOM     57  C   UNL     1       3.088   8.264 -16.475  1.00  0.00     0.029 A 
ATOM     58  N   UNL     1       4.292   6.788 -15.329  1.00  0.00    -0.354 N 
ATOM     59  N   UNL     1       6.060   4.448 -15.028  1.00  0.00    -0.248 NA
ATOM     60  C   UNL     1       7.168   2.611 -15.954  1.00  0.00     0.031 C 
ATOM     61  C   UNL     1       3.535   7.276 -17.357  1.00  0.00     0.029 A 
ATOM     62  C   UNL     1       4.322   6.379 -16.653  1.00  0.00     0.049 A 
ATOM     63  H   UNL     1       4.752   6.333 -14.587  1.00  0.00     0.167 HD
ATOM     64  C   UNL     1       5.815   4.410 -16.398  1.00  0.00     0.074 A 
ATOM     65  C   UNL     1       6.552   3.277 -16.919  1.00  0.00     0.031 C 
ATOM     66  C   UNL     1       5.056   5.241 -17.158  1.00  0.00     0.034 A 
BRANCH  53  67
ATOM     67  C   UNL     1       2.284   9.783 -13.960  1.00  0.00     0.023 A 
ATOM     68  C   UNL     1       2.692  11.063 -13.542  1.00  0.00     0.031 A 
ATOM     69  C   UNL     1       0.946   9.621 -14.361  1.00  0.00     0.131 A 
ATOM     70  C   UNL     1       1.757  12.105 -13.459  1.00  0.00     0.055 A 
ATOM     71  C   UNL     1       0.042  10.685 -14.362  1.00  0.00     0.041 A 
ATOM     72  F   UNL     1       0.489   8.419 -14.747  1.00  0.00    -0.206 F 
ATOM     73  C   UNL     1       0.441  11.933 -13.893  1.00  0.00     0.022 A 
BRANCH  70  74
ATOM     74  S   UNL     1       2.245  13.641 -12.626  1.00  0.00     0.124 S 
ATOM     75  O   UNL     1       2.631  13.150 -11.305  1.00  0.00    -0.237 OA
ATOM     76  O   UNL     1       3.332  14.125 -13.470  1.00  0.00    -0.237 OA
ATOM     77  O   UNL     1       1.027  14.447 -12.651  1.00  0.00    -0.744 OA
ENDBRANCH  70  74
ENDBRANCH  53  67
BRANCH  54  78
ATOM     78  C   UNL     1       8.329   1.791 -13.384  1.00  0.00     0.023 A 
ATOM     79  C   UNL     1       9.541   1.708 -14.087  1.00  0.00     0.031 A 
ATOM     80  C   UNL     1       7.928   0.673 -12.630  1.00  0.00     0.131 A 
ATOM     81  C   UNL     1      10.284   0.518 -14.064  1.00  0.00     0.055 A 
ATOM     82  C   UNL     1       8.702  -0.487 -12.561  1.00  0.00     0.041 A 
ATOM     83  F   UNL     1       6.779   0.698 -11.936  1.00  0.00    -0.206 F 
ATOM     84  C   UNL     1       9.882  -0.574 -13.293  1.00  0.00     0.022 A 
BRANCH  81  85
ATOM     85  S   UNL     1      11.741   0.383 -15.136  1.00  0.00     0.124 S 
ATOM     86  O   UNL     1      11.163   0.630 -16.452  1.00  0.00    -0.237 OA
ATOM     87  O   UNL     1      12.605   1.433 -14.607  1.00  0.00    -0.237 OA
ATOM     88  O   UNL     1      12.208  -0.982 -14.905  1.00  0.00    -0.744 OA
ENDBRANCH  81  85
ENDBRANCH  54  78
BRANCH  66  89
ATOM     89  C   UNL     1       5.030   4.984 -18.646  1.00  0.00     0.023 A 
ATOM     90  C   UNL     1       4.459   3.821 -19.192  1.00  0.00     0.031 A 
ATOM     91  C   UNL     1       5.588   5.925 -19.531  1.00  0.00     0.131 A 
ATOM     92  C   UNL     1       4.508   3.604 -20.578  1.00  0.00     0.055 A 
ATOM     93  C   UNL     1       5.573   5.734 -20.913  1.00  0.00     0.041 A 
ATOM     94  F   UNL     1       6.151   7.051 -19.066  1.00  0.00    -0.206 F 
ATOM     95  C   UNL     1       5.043   4.562 -21.443  1.00  0.00     0.022 A 
BRANCH  92  96
ATOM     96  S   UNL     1       3.951   2.005 -21.229  1.00  0.00     0.124 S 
ATOM     97  O   UNL     1       4.820   1.070 -20.521  1.00  0.00    -0.237 OA
ATOM     98  O   UNL     1       2.544   1.984 -20.843  1.00  0.00    -0.237 OA
ATOM     99  O   UNL     1       4.198   2.115 -22.666  1.00  0.00    -0.744 OA
ENDBRANCH  92  96
ENDBRANCH  66  89
ENDBRANCH  40  41
ENDBRANCH  32  35
ENDBRANCH  30  31
ENDBRANCH  29  30
ENDBRANCH  28  29
ENDBRANCH  27  28
ENDBRANCH   1  27
TORSDOF 21
