REMARK SMILES C#CC[N@@H+](CC(=O)NCCCCCCNC(=O)c1ccc(-c2c3nc(c(-c4cc(S(=O)(=O)[O-])ccc4F)c4ccc([nH]4)c(-c4cc(S(=O)(=O)[O-])ccc4F)c4nc(c(-c5cc(S(=O)(=O)[O-])ccc5F)c5ccc2[nH]5)C=C4)C=C3)cc1)CC(=O)Nc1c(Cl)cccc1Cl
REMARK SMILES IDX 11 1 10 2 9 3 8 4 6 5 7 6 5 8 4 9 3 11 2 12 1 13 81 14 82 15
REMARK SMILES IDX 83 16 84 17 85 19 86 20 91 21 87 22 88 23 90 24 92 25 89 26
REMARK SMILES IDX 12 27 13 28 14 29 15 30 16 31 17 33 18 34 19 35 80 36 20 37
REMARK SMILES IDX 79 38 21 39 22 40 23 41 73 42 24 43 78 44 72 45 74 46 25 47
REMARK SMILES IDX 77 48 71 49 70 50 26 52 58 53 38 54 57 55 39 56 42 57 56 58
REMARK SMILES IDX 75 59 40 60 41 61 55 63 76 64 43 65 27 66 28 67 36 68 29 69
REMARK SMILES IDX 35 70 37 71 34 72 30 73 31 74 32 75 33 76 59 77 60 78 68 79
REMARK SMILES IDX 61 80 67 81 69 82 66 83 62 84 63 85 64 86 65 87 44 88 45 89
REMARK SMILES IDX 53 90 46 91 52 92 54 93 51 94 47 95 48 96 49 97 50 98
REMARK H PARENT 8 7 4 10 84 18 15 32 74 51 42 62
REMARK Flexibility Score: inf
ROOT
ATOM      1  C   UNL     1      -2.700   4.236  -1.397  1.00  0.00     0.002 C 
ENDROOT
BRANCH   1   2
ATOM      2  C   UNL     1      -2.315   3.129  -0.417  1.00  0.00     0.021 C 
BRANCH   2   3
ATOM      3  C   UNL     1      -3.484   2.634   0.450  1.00  0.00     0.116 C 
BRANCH   3   4
ATOM      4  N   UNL     1      -4.461   1.983  -0.374  1.00  0.00    -0.351 N 
ATOM      5  C   UNL     1      -4.613   0.680  -0.703  1.00  0.00     0.275 C 
ATOM      6  O   UNL     1      -5.169   0.527  -1.792  1.00  0.00    -0.269 OA
ATOM      7  H   UNL     1      -5.134   2.585  -0.766  1.00  0.00     0.163 HD
BRANCH   5   8
ATOM      8  C   UNL     1      -4.143  -0.493   0.229  1.00  0.00     0.364 C 
BRANCH   8   9
ATOM      9  N   UNL     1      -2.841  -1.125  -0.108  1.00  0.00    -0.309 N 
ATOM     10  H   UNL     1      -2.550  -1.863   0.534  1.00  0.00     0.349 HD
BRANCH   9  11
ATOM     11  C   UNL     1      -1.915  -0.026  -0.033  1.00  0.00     0.354 C 
BRANCH  11  12
ATOM     12  C   UNL     1      -0.395  -0.026  -0.033  1.00  0.00    -0.047 C 
ATOM     13  C   UNL     1       0.909  -0.026  -0.033  1.00  0.00     0.010 C 
ENDBRANCH  11  12
ENDBRANCH   9  11
BRANCH   9  14
ATOM     14  C   UNL     1      -2.867  -1.947  -1.344  1.00  0.00     0.365 C 
BRANCH  14  15
ATOM     15  C   UNL     1      -3.572  -1.434  -2.611  1.00  0.00     0.279 C 
ATOM     16  O   UNL     1      -2.915  -0.760  -3.421  1.00  0.00    -0.268 OA
ATOM     17  N   UNL     1      -4.837  -1.798  -3.011  1.00  0.00    -0.319 N 
ATOM     18  H   UNL     1      -4.973  -1.585  -3.963  1.00  0.00     0.170 HD
BRANCH  17  19
ATOM     19  C   UNL     1      -6.012  -2.393  -2.458  1.00  0.00     0.079 A 
ATOM     20  C   UNL     1      -6.964  -2.918  -3.347  1.00  0.00     0.066 A 
ATOM     21  C   UNL     1      -6.387  -2.455  -1.107  1.00  0.00     0.066 A 
ATOM     22  Cl  UNL     1      -6.856  -2.638  -5.051  1.00  0.00    -0.082 Cl
ATOM     23  C   UNL     1      -8.034  -3.698  -2.880  1.00  0.00     0.023 A 
ATOM     24  C   UNL     1      -7.218  -3.482  -0.638  1.00  0.00     0.023 A 
ATOM     25  Cl  UNL     1      -7.218  -0.948  -0.479  1.00  0.00    -0.082 Cl
ATOM     26  C   UNL     1      -8.115  -4.044  -1.532  1.00  0.00     0.003 A 
ENDBRANCH  17  19
ENDBRANCH  14  15
ENDBRANCH   9  14
ENDBRANCH   8   9
ENDBRANCH   5   8
ENDBRANCH   3   4
ENDBRANCH   2   3
ENDBRANCH   1   2
BRANCH   1  27
ATOM     27  C   UNL     1      -3.345   5.433  -0.714  1.00  0.00     0.002 C 
BRANCH  27  28
ATOM     28  C   UNL     1      -2.578   5.894   0.526  1.00  0.00     0.021 C 
BRANCH  28  29
ATOM     29  C   UNL     1      -1.098   6.128   0.260  1.00  0.00     0.116 C 
BRANCH  29  30
ATOM     30  N   UNL     1      -0.922   7.197  -0.699  1.00  0.00    -0.352 N 
ATOM     31  C   UNL     1      -0.370   8.429  -0.459  1.00  0.00     0.251 C 
ATOM     32  H   UNL     1      -1.229   7.022  -1.618  1.00  0.00     0.163 HD
ATOM     33  O   UNL     1      -0.587   9.371  -1.202  1.00  0.00    -0.269 OA
BRANCH  31  34
ATOM     34  C   UNL     1       0.477   8.564   0.742  1.00  0.00     0.039 A 
ATOM     35  C   UNL     1       0.241   9.614   1.624  1.00  0.00     0.014 A 
ATOM     36  C   UNL     1       1.456   7.598   1.011  1.00  0.00     0.014 A 
ATOM     37  C   UNL     1       0.988   9.690   2.797  1.00  0.00     0.010 A 
ATOM     38  C   UNL     1       2.129   7.625   2.223  1.00  0.00     0.010 A 
ATOM     39  C   UNL     1       1.924   8.689   3.113  1.00  0.00    -0.014 A 
BRANCH  39  40
ATOM     40  C   UNL     1       2.739   8.774   4.348  1.00  0.00     0.031 A 
ATOM     41  C   UNL     1       4.232   8.924   4.240  1.00  0.00     0.074 A 
ATOM     42  C   UNL     1       2.139   8.691   5.551  1.00  0.00     0.049 A 
ATOM     43  N   UNL     1       5.127   8.990   5.191  1.00  0.00    -0.248 NA
ATOM     44  C   UNL     1       4.796   8.977   2.881  1.00  0.00     0.031 C 
ATOM     45  C   UNL     1       0.702   8.508   5.767  1.00  0.00     0.029 A 
ATOM     46  N   UNL     1       2.659   8.755   6.817  1.00  0.00    -0.354 N 
ATOM     47  C   UNL     1       6.356   9.084   4.546  1.00  0.00     0.074 A 
ATOM     48  C   UNL     1       6.096   8.989   3.127  1.00  0.00     0.031 C 
ATOM     49  C   UNL     1       0.453   8.513   7.086  1.00  0.00     0.029 A 
ATOM     50  C   UNL     1       1.713   8.647   7.810  1.00  0.00     0.049 A 
ATOM     51  H   UNL     1       3.620   8.867   7.000  1.00  0.00     0.167 HD
ATOM     52  C   UNL     1       7.584   9.264   5.090  1.00  0.00     0.034 A 
ATOM     53  C   UNL     1       1.851   8.646   9.150  1.00  0.00     0.034 A 
ATOM     54  C   UNL     1       7.816   9.365   6.509  1.00  0.00     0.049 A 
ATOM     55  C   UNL     1       3.233   8.810   9.732  1.00  0.00     0.074 A 
ATOM     56  C   UNL     1       9.008   9.594   7.172  1.00  0.00     0.029 A 
ATOM     57  N   UNL     1       6.837   9.234   7.486  1.00  0.00    -0.354 N 
ATOM     58  N   UNL     1       4.381   8.951   9.109  1.00  0.00    -0.248 NA
ATOM     59  C   UNL     1       3.336   8.828  11.196  1.00  0.00     0.031 C 
ATOM     60  C   UNL     1       8.765   9.519   8.547  1.00  0.00     0.029 A 
ATOM     61  C   UNL     1       7.405   9.339   8.746  1.00  0.00     0.049 A 
ATOM     62  H   UNL     1       5.879   9.088   7.309  1.00  0.00     0.167 HD
ATOM     63  C   UNL     1       5.338   9.108  10.108  1.00  0.00     0.074 A 
ATOM     64  C   UNL     1       4.628   9.062  11.370  1.00  0.00     0.031 C 
ATOM     65  C   UNL     1       6.681   9.280   9.995  1.00  0.00     0.034 A 
BRANCH  52  66
ATOM     66  C   UNL     1       8.761   9.333   4.145  1.00  0.00     0.023 A 
ATOM     67  C   UNL     1       8.870  10.340   3.169  1.00  0.00     0.031 A 
ATOM     68  C   UNL     1       9.776   8.363   4.201  1.00  0.00     0.131 A 
ATOM     69  C   UNL     1       9.923  10.309   2.243  1.00  0.00     0.055 A 
ATOM     70  C   UNL     1      10.870   8.389   3.333  1.00  0.00     0.041 A 
ATOM     71  F   UNL     1       9.716   7.361   5.093  1.00  0.00    -0.206 F 
ATOM     72  C   UNL     1      10.940   9.357   2.337  1.00  0.00     0.022 A 
BRANCH  69  73
ATOM     73  S   UNL     1       9.863  11.437   0.824  1.00  0.00     0.124 S 
ATOM     74  O   UNL     1       8.596  11.060   0.202  1.00  0.00    -0.237 OA
ATOM     75  O   UNL     1       9.897  12.748   1.461  1.00  0.00    -0.237 OA
ATOM     76  O   UNL     1      11.055  11.085   0.055  1.00  0.00    -0.744 OA
ENDBRANCH  69  73
ENDBRANCH  52  66
BRANCH  53  77
ATOM     77  C   UNL     1       0.661   8.477  10.034  1.00  0.00     0.023 A 
ATOM     78  C   UNL     1       0.274   9.486  10.930  1.00  0.00     0.031 A 
ATOM     79  C   UNL     1      -0.081   7.282  10.029  1.00  0.00     0.131 A 
ATOM     80  C   UNL     1      -0.789   9.262  11.820  1.00  0.00     0.055 A 
ATOM     81  C   UNL     1      -1.175   7.088  10.873  1.00  0.00     0.041 A 
ATOM     82  F   UNL     1       0.244   6.284   9.191  1.00  0.00    -0.206 F 
ATOM     83  C   UNL     1      -1.525   8.076  11.787  1.00  0.00     0.022 A 
BRANCH  80  84
ATOM     84  S   UNL     1      -1.129  10.506  13.095  1.00  0.00     0.124 S 
ATOM     85  O   UNL     1       0.154  10.582  13.784  1.00  0.00    -0.237 OA
ATOM     86  O   UNL     1      -1.499  11.668  12.294  1.00  0.00    -0.237 OA
ATOM     87  O   UNL     1      -2.219   9.911  13.867  1.00  0.00    -0.744 OA
ENDBRANCH  80  84
ENDBRANCH  53  77
BRANCH  65  88
ATOM     88  C   UNL     1       7.457   9.479  11.275  1.00  0.00     0.023 A 
ATOM     89  C   UNL     1       7.564   8.466  12.244  1.00  0.00     0.031 A 
ATOM     90  C   UNL     1       8.094  10.707  11.530  1.00  0.00     0.131 A 
ATOM     91  C   UNL     1       8.235   8.721  13.449  1.00  0.00     0.055 A 
ATOM     92  C   UNL     1       8.822  10.929  12.698  1.00  0.00     0.041 A 
ATOM     93  F   UNL     1       8.023  11.711  10.641  1.00  0.00    -0.206 F 
ATOM     94  C   UNL     1       8.883   9.938  13.673  1.00  0.00     0.022 A 
BRANCH  91  95
ATOM     95  S   UNL     1       8.158   7.477  14.766  1.00  0.00     0.124 S 
ATOM     96  O   UNL     1       6.720   7.343  14.973  1.00  0.00    -0.237 OA
ATOM     97  O   UNL     1       8.823   6.331  14.154  1.00  0.00    -0.237 OA
ATOM     98  O   UNL     1       8.888   8.100  15.869  1.00  0.00    -0.744 OA
ENDBRANCH  91  95
ENDBRANCH  65  88
ENDBRANCH  39  40
ENDBRANCH  31  34
ENDBRANCH  29  30
ENDBRANCH  28  29
ENDBRANCH  27  28
ENDBRANCH   1  27
TORSDOF 22
