REMARK SMILES O=C(NCCCCCCNC(=O)[C@@H]1C[C@@H]2CC[C@H]1N2c1ncnc2c1CCCCC2)c1ccc(-c2c3nc(c(-c4cc(S(=O)(=O)[O-])ccc4F)c4ccc([nH]4)c(-c4cc(S(=O)(=O)[O-])ccc4F)c4nc(c(-c5cc(S(=O)(=O)[O-])ccc5F)c5ccc2[nH]5)C=C4)C=C3)cc1
REMARK SMILES IDX 7 1 6 2 5 3 4 4 3 5 1 6 2 7 31 9 32 10 93 11 33 12 92 13
REMARK SMILES IDX 34 14 35 15 36 16 86 17 37 18 91 19 85 20 87 21 38 22 90 23
REMARK SMILES IDX 84 24 83 25 39 27 71 28 51 29 70 30 52 31 55 32 69 33 88 34
REMARK SMILES IDX 53 35 54 36 68 38 89 39 56 40 40 41 41 42 49 43 42 44 48 45
REMARK SMILES IDX 50 46 47 47 43 48 44 49 45 50 46 51 72 52 73 53 81 54 74 55
REMARK SMILES IDX 80 56 82 57 79 58 75 59 76 60 77 61 78 62 57 63 58 64 66 65
REMARK SMILES IDX 59 66 65 67 67 68 64 69 60 70 61 71 62 72 63 73 8 74 9 75
REMARK SMILES IDX 10 76 11 77 12 79 13 80 14 81 18 82 15 83 17 84 19 85 16 86
REMARK SMILES IDX 20 87 21 88 25 89 22 90 24 91 23 92 26 93 27 94 28 95 30 97
REMARK SMILES IDX 29 98
REMARK H PARENT 3 8 87 26 55 37 10 78
REMARK Flexibility Score: 90.00
ROOT
ATOM      1  C   UNL     1       5.050   4.321   0.119  1.00  0.00     0.002 C 
ENDROOT
BRANCH   1   2
ATOM      2  C   UNL     1       4.423   3.698  -1.132  1.00  0.00     0.002 C 
BRANCH   2   3
ATOM      3  C   UNL     1       4.811   2.245  -1.405  1.00  0.00     0.021 C 
BRANCH   3   4
ATOM      4  C   UNL     1       4.499   1.272  -0.274  1.00  0.00     0.116 C 
BRANCH   4   5
ATOM      5  N   UNL     1       3.072   1.139  -0.025  1.00  0.00    -0.352 N 
ATOM      6  O   UNL     1       1.108   0.042   0.185  1.00  0.00    -0.269 OA
ATOM      7  C   UNL     1       2.334  -0.011   0.128  1.00  0.00     0.251 C 
ATOM      8  H   UNL     1       2.569   1.982   0.043  1.00  0.00     0.163 HD
BRANCH   7   9
ATOM      9  C   UNL     1       3.029  -1.315   0.200  1.00  0.00     0.039 A 
ATOM     10  C   UNL     1       4.137  -1.478   1.034  1.00  0.00     0.014 A 
ATOM     11  C   UNL     1       2.574  -2.378  -0.585  1.00  0.00     0.014 A 
ATOM     12  C   UNL     1       4.865  -2.662   0.989  1.00  0.00     0.010 A 
ATOM     13  C   UNL     1       3.266  -3.593  -0.574  1.00  0.00     0.010 A 
ATOM     14  C   UNL     1       4.432  -3.735   0.194  1.00  0.00    -0.014 A 
BRANCH  14  15
ATOM     15  C   UNL     1       5.189  -5.012   0.226  1.00  0.00     0.031 A 
ATOM     16  C   UNL     1       5.947  -5.495  -0.978  1.00  0.00     0.074 A 
ATOM     17  C   UNL     1       5.230  -5.707   1.380  1.00  0.00     0.049 A 
ATOM     18  N   UNL     1       6.679  -6.572  -1.110  1.00  0.00    -0.248 NA
ATOM     19  C   UNL     1       5.877  -4.665  -2.190  1.00  0.00     0.031 C 
ATOM     20  C   UNL     1       4.546  -5.319   2.617  1.00  0.00     0.029 A 
ATOM     21  N   UNL     1       5.892  -6.859   1.714  1.00  0.00    -0.354 N 
ATOM     22  C   UNL     1       7.155  -6.554  -2.416  1.00  0.00     0.074 A 
ATOM     23  C   UNL     1       6.600  -5.374  -3.047  1.00  0.00     0.031 C 
ATOM     24  C   UNL     1       4.872  -6.184   3.588  1.00  0.00     0.029 A 
ATOM     25  C   UNL     1       5.730  -7.223   3.030  1.00  0.00     0.049 A 
ATOM     26  H   UNL     1       6.431  -7.377   1.074  1.00  0.00     0.167 HD
ATOM     27  C   UNL     1       7.987  -7.434  -3.025  1.00  0.00     0.034 A 
ATOM     28  C   UNL     1       6.206  -8.282   3.713  1.00  0.00     0.034 A 
ATOM     29  C   UNL     1       8.531  -8.606  -2.383  1.00  0.00     0.049 A 
ATOM     30  C   UNL     1       7.066  -9.282   2.993  1.00  0.00     0.074 A 
ATOM     31  C   UNL     1       9.389  -9.557  -2.910  1.00  0.00     0.029 A 
ATOM     32  N   UNL     1       8.270  -8.991  -1.074  1.00  0.00    -0.354 N 
ATOM     33  N   UNL     1       7.482  -9.263   1.749  1.00  0.00    -0.248 NA
ATOM     34  C   UNL     1       7.508 -10.451   3.763  1.00  0.00     0.031 C 
ATOM     35  C   UNL     1       9.598 -10.545  -1.942  1.00  0.00     0.029 A 
ATOM     36  C   UNL     1       8.925 -10.179  -0.788  1.00  0.00     0.049 A 
ATOM     37  H   UNL     1       7.703  -8.493  -0.442  1.00  0.00     0.167 HD
ATOM     38  C   UNL     1       8.243 -10.415   1.588  1.00  0.00     0.074 A 
ATOM     39  C   UNL     1       8.239 -11.099   2.866  1.00  0.00     0.031 C 
ATOM     40  C   UNL     1       8.888 -10.863   0.483  1.00  0.00     0.034 A 
BRANCH  27  41
ATOM     41  C   UNL     1       8.336  -7.183  -4.470  1.00  0.00     0.023 A 
ATOM     42  C   UNL     1       9.140  -6.097  -4.854  1.00  0.00     0.031 A 
ATOM     43  C   UNL     1       7.876  -8.054  -5.473  1.00  0.00     0.131 A 
ATOM     44  C   UNL     1       9.426  -5.885  -6.212  1.00  0.00     0.055 A 
ATOM     45  C   UNL     1       8.214  -7.873  -6.816  1.00  0.00     0.041 A 
ATOM     46  F   UNL     1       7.091  -9.098  -5.164  1.00  0.00    -0.206 F 
ATOM     47  C   UNL     1       8.988  -6.778  -7.193  1.00  0.00     0.022 A 
BRANCH  44  48
ATOM     48  S   UNL     1      10.310  -4.375  -6.689  1.00  0.00     0.124 S 
ATOM     49  O   UNL     1       9.368  -3.338  -6.274  1.00  0.00    -0.237 OA
ATOM     50  O   UNL     1      11.540  -4.468  -5.911  1.00  0.00    -0.237 OA
ATOM     51  O   UNL     1      10.474  -4.516  -8.134  1.00  0.00    -0.744 OA
ENDBRANCH  44  48
ENDBRANCH  27  41
BRANCH  28  52
ATOM     52  C   UNL     1       5.854  -8.454   5.147  1.00  0.00     0.023 A 
ATOM     53  C   UNL     1       6.823  -8.312   6.151  1.00  0.00     0.031 A 
ATOM     54  C   UNL     1       4.532  -8.738   5.535  1.00  0.00     0.131 A 
ATOM     55  C   UNL     1       6.459  -8.468   7.497  1.00  0.00     0.055 A 
ATOM     56  C   UNL     1       4.167  -8.853   6.876  1.00  0.00     0.041 A 
ATOM     57  F   UNL     1       3.568  -8.872   4.609  1.00  0.00    -0.206 F 
ATOM     58  C   UNL     1       5.135  -8.722   7.866  1.00  0.00     0.022 A 
BRANCH  55  59
ATOM     59  S   UNL     1       7.747  -8.348   8.767  1.00  0.00     0.124 S 
ATOM     60  O   UNL     1       8.589  -9.494   8.444  1.00  0.00    -0.237 OA
ATOM     61  O   UNL     1       8.320  -7.033   8.499  1.00  0.00    -0.237 OA
ATOM     62  O   UNL     1       7.000  -8.453  10.019  1.00  0.00    -0.744 OA
ENDBRANCH  55  59
ENDBRANCH  28  52
BRANCH  40  63
ATOM     63  C   UNL     1       9.654 -12.152   0.612  1.00  0.00     0.023 A 
ATOM     64  C   UNL     1       8.994 -13.387   0.722  1.00  0.00     0.031 A 
ATOM     65  C   UNL     1      11.060 -12.145   0.598  1.00  0.00     0.131 A 
ATOM     66  C   UNL     1       9.741 -14.567   0.844  1.00  0.00     0.055 A 
ATOM     67  C   UNL     1      11.798 -13.326   0.674  1.00  0.00     0.041 A 
ATOM     68  F   UNL     1      11.736 -10.990   0.494  1.00  0.00    -0.206 F 
ATOM     69  C   UNL     1      11.139 -14.546   0.804  1.00  0.00     0.022 A 
BRANCH  66  70
ATOM     70  S   UNL     1       8.864 -16.134   1.095  1.00  0.00     0.124 S 
ATOM     71  O   UNL     1       8.247 -15.928   2.402  1.00  0.00    -0.237 OA
ATOM     72  O   UNL     1       7.951 -16.171  -0.042  1.00  0.00    -0.237 OA
ATOM     73  O   UNL     1       9.931 -17.133   1.063  1.00  0.00    -0.744 OA
ENDBRANCH  66  70
ENDBRANCH  40  63
ENDBRANCH  14  15
ENDBRANCH   7   9
ENDBRANCH   4   5
ENDBRANCH   3   4
ENDBRANCH   2   3
ENDBRANCH   1   2
BRANCH   1  74
ATOM     74  C   UNL     1       6.585   4.310   0.181  1.00  0.00     0.021 C 
BRANCH  74  75
ATOM     75  C   UNL     1       7.296   4.934  -1.020  1.00  0.00     0.116 C 
BRANCH  75  76
ATOM     76  N   UNL     1       6.803   6.269  -1.301  1.00  0.00    -0.356 N 
ATOM     77  C   UNL     1       7.472   7.423  -1.551  1.00  0.00     0.225 C 
ATOM     78  H   UNL     1       5.822   6.351  -1.313  1.00  0.00     0.163 HD
ATOM     79  O   UNL     1       6.805   8.373  -1.967  1.00  0.00    -0.275 OA
BRANCH  77  80
ATOM     80  C   UNL     1       8.976   7.491  -1.387  1.00  0.00     0.103 C 
ATOM     81  C   UNL     1       9.536   7.252   0.032  1.00  0.00     0.040 C 
ATOM     82  C   UNL     1       9.547   8.890  -1.730  1.00  0.00     0.096 C 
ATOM     83  C   UNL     1      10.487   8.451   0.237  1.00  0.00     0.085 C 
ATOM     84  C   UNL     1       8.974  10.002  -0.808  1.00  0.00     0.028 C 
ATOM     85  N   UNL     1      10.868   8.799  -1.123  1.00  0.00    -0.349 N 
ATOM     86  C   UNL     1       9.632   9.694   0.556  1.00  0.00     0.027 C 
BRANCH  85  87
ATOM     87  C   UNL     1      12.091   8.646  -1.678  1.00  0.00     0.135 A 
ATOM     88  N   UNL     1      12.842   7.638  -1.197  1.00  0.00    -0.219 NA
ATOM     89  C   UNL     1      12.613   9.554  -2.604  1.00  0.00     0.016 A 
ATOM     90  C   UNL     1      14.094   7.526  -1.656  1.00  0.00     0.224 A 
ATOM     91  C   UNL     1      13.950   9.378  -2.964  1.00  0.00     0.049 A 
ATOM     92  N   UNL     1      14.699   8.355  -2.511  1.00  0.00    -0.241 NA
BRANCH  89  93
ATOM     93  C   UNL     1      11.880  10.780  -3.081  1.00  0.00     0.041 C 
BRANCH  93  94
ATOM     94  C   UNL     1      12.384  12.046  -2.393  1.00  0.00     0.005 C 
BRANCH  94  95
ATOM     95  C   UNL     1      13.626  12.636  -3.059  1.00  0.00     0.001 CG0
ATOM     96  G   UNL     1      14.862  11.733  -3.057  1.00  0.00     0.000 G0
ENDBRANCH  94  95
ENDBRANCH  93  94
ENDBRANCH  89  93
BRANCH  91  97
ATOM     97  C   UNL     1      14.681  10.403  -3.798  1.00  0.00     0.057 C 
BRANCH  97  98
ATOM     98  C   UNL     1      14.862  11.733  -3.057  1.00  0.00     0.006 CG0
ATOM     99  G   UNL     1      13.626  12.636  -3.059  1.00  0.00     0.000 G0
ENDBRANCH  97  98
ENDBRANCH  91  97
ENDBRANCH  85  87
ENDBRANCH  77  80
ENDBRANCH  75  76
ENDBRANCH  74  75
ENDBRANCH   1  74
TORSDOF 17
