REMARK SMILES CC1(C)CCCC[C@H]1NC(=O)Nc1ccccc1C(=O)NCCCCCCNC(=O)c1ccc(-c2c3nc(c(-c4cc(S(=O)(=O)[O-])ccc4F)c4ccc([nH]4)c(-c4cc(S(=O)(=O)[O-])ccc4F)c4nc(c(-c5cc(S(=O)(=O)[O-])ccc5F)c5ccc2[nH]5)C=C4)C=C3)cc1
REMARK SMILES IDX 25 1 24 2 23 3 22 4 21 5 19 6 20 7 18 9 13 10 14 11 15 12
REMARK SMILES IDX 17 13 16 14 12 15 9 16 10 17 11 19 8 21 1 22 2 23 3 24 4 25
REMARK SMILES IDX 5 26 7 27 6 28 26 29 27 30 28 31 29 32 30 34 31 35 32 36
REMARK SMILES IDX 93 37 33 38 92 39 34 40 35 41 36 42 86 43 37 44 91 45 85 46
REMARK SMILES IDX 87 47 38 48 90 49 84 50 83 51 39 53 71 54 51 55 70 56 52 57
REMARK SMILES IDX 55 58 69 59 88 60 53 61 54 62 68 64 89 65 56 66 40 67 41 68
REMARK SMILES IDX 49 69 42 70 48 71 50 72 47 73 43 74 44 75 45 76 46 77 72 78
REMARK SMILES IDX 73 79 81 80 74 81 80 82 82 83 79 84 75 85 76 86 77 87 78 88
REMARK SMILES IDX 57 89 58 90 66 91 59 92 65 93 67 94 64 95 60 96 61 97 62 98
REMARK SMILES IDX 63 99
REMARK H PARENT 21 8 9 18 12 20 28 33 87 52 55 63
REMARK Flexibility Score: inf
ROOT
ATOM      1  C   UNL     1       5.129  -4.809  -0.364  1.00  0.00     0.002 C 
ENDROOT
BRANCH   1   2
ATOM      2  C   UNL     1       4.311  -6.107  -0.466  1.00  0.00     0.002 C 
BRANCH   2   3
ATOM      3  C   UNL     1       3.486  -6.518   0.764  1.00  0.00     0.021 C 
BRANCH   3   4
ATOM      4  C   UNL     1       2.504  -5.463   1.251  1.00  0.00     0.116 C 
BRANCH   4   5
ATOM      5  N   UNL     1       1.231  -5.471   0.581  1.00  0.00    -0.352 N 
ATOM      6  C   UNL     1       0.017  -4.953   0.947  1.00  0.00     0.253 C 
ATOM      7  O   UNL     1      -0.882  -5.073   0.105  1.00  0.00    -0.269 OA
ATOM      8  H   UNL     1       1.233  -5.927  -0.292  1.00  0.00     0.163 HD
BRANCH   6   9
ATOM      9  C   UNL     1      -0.332  -4.338   2.278  1.00  0.00     0.063 A 
ATOM     10  C   UNL     1       0.472  -3.707   3.251  1.00  0.00     0.055 A 
ATOM     11  C   UNL     1      -0.090  -3.410   4.516  1.00  0.00     0.027 A 
ATOM     12  C   UNL     1      -1.454  -3.539   4.766  1.00  0.00     0.002 A 
ATOM     13  C   UNL     1      -1.723  -4.434   2.560  1.00  0.00     0.016 A 
ATOM     14  C   UNL     1      -2.283  -4.013   3.767  1.00  0.00     0.001 A 
BRANCH  10  15
ATOM     15  N   UNL     1       1.783  -3.201   3.140  1.00  0.00    -0.307 N 
ATOM     16  N   UNL     1       1.918  -2.007   1.092  1.00  0.00    -0.335 N 
ATOM     17  C   UNL     1       2.481  -2.563   2.179  1.00  0.00     0.319 C 
ATOM     18  H   UNL     1       2.500  -1.940   0.300  1.00  0.00     0.165 HD
ATOM     19  O   UNL     1       3.702  -2.460   2.318  1.00  0.00    -0.248 OA
ATOM     20  H   UNL     1       2.314  -3.348   3.956  1.00  0.00     0.171 HD
BRANCH  16  21
ATOM     21  C   UNL     1       0.575  -1.492   0.925  1.00  0.00     0.089 C 
ATOM     22  C   UNL     1       1.186   0.888   0.146  1.00  0.00     0.013 C 
ATOM     23  C   UNL     1       0.454   0.033   1.200  1.00  0.00    -0.015 C 
ATOM     24  C   UNL     1       1.044   0.390   2.581  1.00  0.00     0.013 C 
ATOM     25  C   UNL     1      -1.064   0.351   1.204  1.00  0.00     0.008 C 
ATOM     26  C   UNL     1      -1.800  -0.117  -0.059  1.00  0.00     0.001 C 
ATOM     27  C   UNL     1      -0.007  -1.867  -0.440  1.00  0.00     0.025 C 
ATOM     28  C   UNL     1      -1.502  -1.567  -0.442  1.00  0.00     0.002 C 
ENDBRANCH  16  21
ENDBRANCH  10  15
ENDBRANCH   6   9
ENDBRANCH   4   5
ENDBRANCH   3   4
ENDBRANCH   2   3
ENDBRANCH   1   2
BRANCH   1  29
ATOM     29  C   UNL     1       6.012  -4.645   0.875  1.00  0.00     0.021 C 
BRANCH  29  30
ATOM     30  C   UNL     1       6.951  -5.804   1.183  1.00  0.00     0.116 C 
BRANCH  30  31
ATOM     31  N   UNL     1       7.800  -6.162   0.062  1.00  0.00    -0.352 N 
ATOM     32  C   UNL     1       9.141  -6.459   0.043  1.00  0.00     0.251 C 
ATOM     33  H   UNL     1       7.349  -6.198  -0.812  1.00  0.00     0.163 HD
ATOM     34  O   UNL     1       9.713  -6.616  -1.028  1.00  0.00    -0.269 OA
BRANCH  32  35
ATOM     35  C   UNL     1       9.894  -6.551   1.315  1.00  0.00     0.039 A 
ATOM     36  C   UNL     1      11.146  -5.937   1.394  1.00  0.00     0.014 A 
ATOM     37  C   UNL     1       9.375  -7.231   2.420  1.00  0.00     0.014 A 
ATOM     38  C   UNL     1      11.851  -5.956   2.600  1.00  0.00     0.010 A 
ATOM     39  C   UNL     1      10.042  -7.180   3.642  1.00  0.00     0.010 A 
ATOM     40  C   UNL     1      11.289  -6.546   3.744  1.00  0.00    -0.014 A 
BRANCH  40  41
ATOM     41  C   UNL     1      11.995  -6.508   5.051  1.00  0.00     0.031 A 
ATOM     42  C   UNL     1      12.436  -7.787   5.710  1.00  0.00     0.074 A 
ATOM     43  C   UNL     1      12.194  -5.324   5.665  1.00  0.00     0.049 A 
ATOM     44  N   UNL     1      13.012  -7.963   6.871  1.00  0.00    -0.248 NA
ATOM     45  C   UNL     1      12.167  -9.034   4.978  1.00  0.00     0.031 C 
ATOM     46  C   UNL     1      11.777  -4.021   5.140  1.00  0.00     0.029 A 
ATOM     47  N   UNL     1      12.791  -5.020   6.863  1.00  0.00    -0.354 N 
ATOM     48  C   UNL     1      13.160  -9.339   7.016  1.00  0.00     0.074 A 
ATOM     49  C   UNL     1      12.562  -9.950   5.849  1.00  0.00     0.031 C 
ATOM     50  C   UNL     1      12.161  -3.059   5.994  1.00  0.00     0.029 A 
ATOM     51  C   UNL     1      12.800  -3.675   7.152  1.00  0.00     0.049 A 
ATOM     52  H   UNL     1      13.178  -5.702   7.460  1.00  0.00     0.167 HD
ATOM     53  C   UNL     1      13.758 -10.024   8.022  1.00  0.00     0.034 A 
ATOM     54  C   UNL     1      13.258  -3.012   8.233  1.00  0.00     0.034 A 
ATOM     55  C   UNL     1      14.361  -9.393   9.171  1.00  0.00     0.049 A 
ATOM     56  C   UNL     1      13.897  -3.798   9.349  1.00  0.00     0.074 A 
ATOM     57  C   UNL     1      15.047  -9.987  10.216  1.00  0.00     0.029 A 
ATOM     58  N   UNL     1      14.340  -8.029   9.436  1.00  0.00    -0.354 N 
ATOM     59  N   UNL     1      14.073  -5.096   9.449  1.00  0.00    -0.248 NA
ATOM     60  C   UNL     1      14.408  -3.031  10.491  1.00  0.00     0.031 C 
ATOM     61  C   UNL     1      15.366  -8.996  11.150  1.00  0.00     0.029 A 
ATOM     62  C   UNL     1      14.966  -7.769  10.646  1.00  0.00     0.049 A 
ATOM     63  H   UNL     1      13.940  -7.346   8.850  1.00  0.00     0.167 HD
ATOM     64  C   UNL     1      14.743  -5.296  10.653  1.00  0.00     0.074 A 
ATOM     65  C   UNL     1      14.951  -3.985  11.233  1.00  0.00     0.031 C 
ATOM     66  C   UNL     1      15.154  -6.457  11.224  1.00  0.00     0.034 A 
BRANCH  53  67
ATOM     67  C   UNL     1      13.756 -11.533   7.941  1.00  0.00     0.023 A 
ATOM     68  C   UNL     1      14.409 -12.224   6.905  1.00  0.00     0.031 A 
ATOM     69  C   UNL     1      13.084 -12.293   8.915  1.00  0.00     0.131 A 
ATOM     70  C   UNL     1      14.321 -13.623   6.831  1.00  0.00     0.055 A 
ATOM     71  C   UNL     1      13.070 -13.689   8.882  1.00  0.00     0.041 A 
ATOM     72  F   UNL     1      12.422 -11.691   9.916  1.00  0.00    -0.206 F 
ATOM     73  C   UNL     1      13.680 -14.362   7.828  1.00  0.00     0.022 A 
BRANCH  70  74
ATOM     74  S   UNL     1      14.938 -14.454   5.342  1.00  0.00     0.124 S 
ATOM     75  O   UNL     1      14.136 -13.821   4.297  1.00  0.00    -0.237 OA
ATOM     76  O   UNL     1      16.356 -14.113   5.354  1.00  0.00    -0.237 OA
ATOM     77  O   UNL     1      14.632 -15.863   5.583  1.00  0.00    -0.744 OA
ENDBRANCH  70  74
ENDBRANCH  53  67
BRANCH  54  78
ATOM     78  C   UNL     1      13.119  -1.529   8.321  1.00  0.00     0.023 A 
ATOM     79  C   UNL     1      14.246  -0.693   8.353  1.00  0.00     0.031 A 
ATOM     80  C   UNL     1      11.850  -0.926   8.402  1.00  0.00     0.131 A 
ATOM     81  C   UNL     1      14.086   0.694   8.503  1.00  0.00     0.055 A 
ATOM     82  C   UNL     1      11.694   0.458   8.493  1.00  0.00     0.041 A 
ATOM     83  F   UNL     1      10.738  -1.678   8.375  1.00  0.00    -0.206 F 
ATOM     84  C   UNL     1      12.818   1.276   8.556  1.00  0.00     0.022 A 
BRANCH  81  85
ATOM     85  S   UNL     1      15.565   1.724   8.707  1.00  0.00     0.124 S 
ATOM     86  O   UNL     1      16.165   1.147   9.905  1.00  0.00    -0.237 OA
ATOM     87  O   UNL     1      16.275   1.488   7.455  1.00  0.00    -0.237 OA
ATOM     88  O   UNL     1      15.021   3.071   8.869  1.00  0.00    -0.744 OA
ENDBRANCH  81  85
ENDBRANCH  54  78
BRANCH  66  89
ATOM     89  C   UNL     1      15.912  -6.356  12.526  1.00  0.00     0.023 A 
ATOM     90  C   UNL     1      15.309  -5.880  13.703  1.00  0.00     0.031 A 
ATOM     91  C   UNL     1      17.264  -6.741  12.587  1.00  0.00     0.131 A 
ATOM     92  C   UNL     1      16.070  -5.746  14.874  1.00  0.00     0.055 A 
ATOM     93  C   UNL     1      17.997  -6.671  13.772  1.00  0.00     0.041 A 
ATOM     94  F   UNL     1      17.895  -7.198  11.493  1.00  0.00    -0.206 F 
ATOM     95  C   UNL     1      17.404  -6.158  14.921  1.00  0.00     0.022 A 
BRANCH  92  96
ATOM     96  S   UNL     1      15.322  -4.927  16.309  1.00  0.00     0.124 S 
ATOM     97  O   UNL     1      14.957  -3.626  15.759  1.00  0.00    -0.237 OA
ATOM     98  O   UNL     1      14.212  -5.817  16.634  1.00  0.00    -0.237 OA
ATOM     99  O   UNL     1      16.404  -4.903  17.292  1.00  0.00    -0.744 OA
ENDBRANCH  92  96
ENDBRANCH  66  89
ENDBRANCH  40  41
ENDBRANCH  32  35
ENDBRANCH  30  31
ENDBRANCH  29  30
ENDBRANCH   1  29
TORSDOF 18
