REMARK SMILES Cc1ccccc1[C@@H](C)NS(=O)(=O)CC(=O)NCCCCCCNC(=O)c1ccc(-c2c3nc(c(-c4cc(S(=O)(=O)[O-])ccc4F)c4ccc([nH]4)c(-c4cc(S(=O)(=O)[O-])ccc4F)c4nc(c(-c5cc(S(=O)(=O)[O-])ccc5F)c5ccc2[nH]5)C=C4)C=C3)cc1
REMARK SMILES IDX 20 1 19 2 18 3 17 4 15 5 16 6 14 8 11 9 12 10 13 11 10 12
REMARK SMILES IDX 8 14 9 15 7 16 1 17 2 18 3 19 4 20 6 21 5 22 21 23 22 24
REMARK SMILES IDX 23 25 24 26 25 27 26 29 27 30 28 31 89 32 29 33 88 34 30 35
REMARK SMILES IDX 31 36 32 37 82 38 33 39 87 40 81 41 83 42 34 43 86 44 80 45
REMARK SMILES IDX 79 46 35 48 67 49 47 50 66 51 48 52 51 53 65 54 84 55 49 56
REMARK SMILES IDX 50 57 64 59 85 60 52 61 36 62 37 63 45 64 38 65 44 66 46 67
REMARK SMILES IDX 43 68 39 69 40 70 41 71 42 72 68 73 69 74 77 75 70 76 76 77
REMARK SMILES IDX 78 78 75 79 71 80 72 81 73 82 74 83 53 84 54 85 62 86 55 87
REMARK SMILES IDX 61 88 63 89 60 90 56 91 57 92 58 93 59 94
REMARK H PARENT 17 7 10 13 24 28 83 47 51 58
REMARK Flexibility Score: inf
ROOT
ATOM      1  C   UNL     1       2.162   4.900   6.217  1.00  0.00     0.002 C 
ENDROOT
BRANCH   1   2
ATOM      2  C   UNL     1       1.831   5.400   4.807  1.00  0.00     0.021 C 
BRANCH   2   3
ATOM      3  C   UNL     1       3.051   5.542   3.898  1.00  0.00     0.116 C 
BRANCH   3   4
ATOM      4  N   UNL     1       3.465   4.247   3.391  1.00  0.00    -0.355 N 
ATOM      5  C   UNL     1       3.379   3.770   2.119  1.00  0.00     0.236 C 
ATOM      6  O   UNL     1       3.642   2.583   1.912  1.00  0.00    -0.274 OA
ATOM      7  H   UNL     1       3.857   3.633   4.053  1.00  0.00     0.163 HD
BRANCH   5   8
ATOM      8  C   UNL     1       3.113   4.698   0.981  1.00  0.00     0.253 C 
BRANCH   8   9
ATOM      9  S   UNL     1       1.392   4.993   0.666  1.00  0.00     0.221 S 
ATOM     10  O   UNL     1       1.308   5.630  -0.619  1.00  0.00    -0.212 OA
ATOM     11  O   UNL     1       0.806   5.654   1.825  1.00  0.00    -0.212 OA
BRANCH   9  12
ATOM     12  N   UNL     1       0.650   3.517   0.576  1.00  0.00    -0.208 NA
ATOM     13  H   UNL     1       0.809   3.066   1.477  1.00  0.00     0.141 HD
BRANCH  12  14
ATOM     14  C   UNL     1       0.991   2.517  -0.443  1.00  0.00     0.096 C 
ATOM     15  C   UNL     1       0.573   2.999  -1.836  1.00  0.00     0.031 C 
BRANCH  14  16
ATOM     16  C   UNL     1       0.305   1.182  -0.152  1.00  0.00    -0.027 A 
ATOM     17  C   UNL     1       2.500  -0.176  -0.018  1.00  0.00     0.044 C 
ATOM     18  C   UNL     1       1.001  -0.039  -0.007  1.00  0.00    -0.046 A 
ATOM     19  C   UNL     1       0.266  -1.235   0.118  1.00  0.00     0.004 A 
ATOM     20  C   UNL     1      -1.127  -1.233   0.148  1.00  0.00     0.000 A 
ATOM     21  C   UNL     1      -1.107   1.162  -0.079  1.00  0.00     0.005 A 
ATOM     22  C   UNL     1      -1.814  -0.030   0.068  1.00  0.00     0.000 A 
ENDBRANCH  14  16
ENDBRANCH  12  14
ENDBRANCH   9  12
ENDBRANCH   8   9
ENDBRANCH   5   8
ENDBRANCH   3   4
ENDBRANCH   2   3
ENDBRANCH   1   2
BRANCH   1  23
ATOM     23  C   UNL     1       3.249   5.691   6.962  1.00  0.00     0.002 C 
BRANCH  23  24
ATOM     24  C   UNL     1       3.099   7.210   6.942  1.00  0.00     0.021 C 
BRANCH  24  25
ATOM     25  C   UNL     1       1.860   7.718   7.659  1.00  0.00     0.116 C 
BRANCH  25  26
ATOM     26  N   UNL     1       2.096   8.136   9.031  1.00  0.00    -0.352 N 
ATOM     27  C   UNL     1       1.281   8.864   9.879  1.00  0.00     0.251 C 
ATOM     28  H   UNL     1       2.961   7.861   9.412  1.00  0.00     0.163 HD
ATOM     29  O   UNL     1       1.718   9.350  10.920  1.00  0.00    -0.269 OA
BRANCH  27  30
ATOM     30  C   UNL     1      -0.188   8.868   9.645  1.00  0.00     0.039 A 
ATOM     31  C   UNL     1      -0.983   8.553  10.758  1.00  0.00     0.014 A 
ATOM     32  C   UNL     1      -0.720   8.796   8.364  1.00  0.00     0.014 A 
ATOM     33  C   UNL     1      -2.174   7.866  10.570  1.00  0.00     0.010 A 
ATOM     34  C   UNL     1      -1.821   8.004   8.169  1.00  0.00     0.010 A 
ATOM     35  C   UNL     1      -2.498   7.489   9.273  1.00  0.00    -0.014 A 
BRANCH  35  36
ATOM     36  C   UNL     1      -3.541   6.548   8.937  1.00  0.00     0.031 A 
ATOM     37  C   UNL     1      -4.852   7.096   8.579  1.00  0.00     0.074 A 
ATOM     38  C   UNL     1      -3.206   5.247   8.814  1.00  0.00     0.049 A 
ATOM     39  N   UNL     1      -5.958   6.456   8.659  1.00  0.00    -0.248 NA
ATOM     40  C   UNL     1      -5.017   8.477   8.132  1.00  0.00     0.031 C 
ATOM     41  C   UNL     1      -3.985   4.150   8.254  1.00  0.00     0.029 A 
ATOM     42  N   UNL     1      -2.110   4.623   9.408  1.00  0.00    -0.354 N 
ATOM     43  C   UNL     1      -6.908   7.196   7.990  1.00  0.00     0.074 A 
ATOM     44  C   UNL     1      -6.300   8.483   7.766  1.00  0.00     0.031 C 
ATOM     45  C   UNL     1      -3.521   2.992   8.762  1.00  0.00     0.029 A 
ATOM     46  C   UNL     1      -2.526   3.329   9.769  1.00  0.00     0.049 A 
ATOM     47  H   UNL     1      -1.217   5.014   9.549  1.00  0.00     0.167 HD
ATOM     48  C   UNL     1      -8.035   6.564   7.561  1.00  0.00     0.034 A 
ATOM     49  C   UNL     1      -2.616   3.018  11.097  1.00  0.00     0.034 A 
ATOM     50  C   UNL     1      -8.032   5.175   8.021  1.00  0.00     0.049 A 
ATOM     51  C   UNL     1      -4.056   2.821  11.533  1.00  0.00     0.074 A 
ATOM     52  C   UNL     1      -7.639   3.992   7.416  1.00  0.00     0.029 A 
ATOM     53  N   UNL     1      -8.077   4.922   9.387  1.00  0.00    -0.354 N 
ATOM     54  N   UNL     1      -5.096   3.275  10.882  1.00  0.00    -0.248 NA
ATOM     55  C   UNL     1      -4.431   2.044  12.709  1.00  0.00     0.031 C 
ATOM     56  C   UNL     1      -7.332   3.061   8.447  1.00  0.00     0.029 A 
ATOM     57  C   UNL     1      -7.582   3.663   9.670  1.00  0.00     0.049 A 
ATOM     58  H   UNL     1      -8.416   5.553  10.062  1.00  0.00     0.167 HD
ATOM     59  C   UNL     1      -6.249   2.866  11.504  1.00  0.00     0.074 A 
ATOM     60  C   UNL     1      -5.772   2.080  12.632  1.00  0.00     0.031 C 
ATOM     61  C   UNL     1      -7.499   3.198  11.049  1.00  0.00     0.034 A 
BRANCH  48  62
ATOM     62  C   UNL     1      -8.946   7.090   6.479  1.00  0.00     0.023 A 
ATOM     63  C   UNL     1      -9.626   6.159   5.667  1.00  0.00     0.031 A 
ATOM     64  C   UNL     1      -9.164   8.443   6.158  1.00  0.00     0.131 A 
ATOM     65  C   UNL     1     -10.396   6.566   4.564  1.00  0.00     0.055 A 
ATOM     66  C   UNL     1      -9.894   8.851   5.032  1.00  0.00     0.041 A 
ATOM     67  F   UNL     1      -8.726   9.436   6.944  1.00  0.00    -0.206 F 
ATOM     68  C   UNL     1     -10.511   7.909   4.222  1.00  0.00     0.022 A 
BRANCH  65  69
ATOM     69  S   UNL     1     -11.255   5.303   3.589  1.00  0.00     0.124 S 
ATOM     70  O   UNL     1     -10.147   4.508   3.070  1.00  0.00    -0.237 OA
ATOM     71  O   UNL     1     -12.097   4.659   4.591  1.00  0.00    -0.237 OA
ATOM     72  O   UNL     1     -11.980   6.083   2.587  1.00  0.00    -0.744 OA
ENDBRANCH  65  69
ENDBRANCH  48  62
BRANCH  49  73
ATOM     73  C   UNL     1      -1.508   3.647  11.893  1.00  0.00     0.023 A 
ATOM     74  C   UNL     1      -0.186   3.340  11.485  1.00  0.00     0.031 A 
ATOM     75  C   UNL     1      -1.698   4.813  12.645  1.00  0.00     0.131 A 
ATOM     76  C   UNL     1       0.844   4.283  11.639  1.00  0.00     0.055 A 
ATOM     77  C   UNL     1      -0.644   5.712  12.870  1.00  0.00     0.041 A 
ATOM     78  F   UNL     1      -2.923   5.174  13.053  1.00  0.00    -0.206 F 
ATOM     79  C   UNL     1       0.616   5.480  12.315  1.00  0.00     0.022 A 
BRANCH  76  80
ATOM     80  S   UNL     1       2.378   4.065  10.684  1.00  0.00     0.124 S 
ATOM     81  O   UNL     1       3.171   3.213  11.562  1.00  0.00    -0.237 OA
ATOM     82  O   UNL     1       1.903   3.438   9.452  1.00  0.00    -0.237 OA
ATOM     83  O   UNL     1       2.876   5.429  10.510  1.00  0.00    -0.744 OA
ENDBRANCH  76  80
ENDBRANCH  49  73
BRANCH  61  84
ATOM     84  C   UNL     1      -8.784   3.036  11.838  1.00  0.00     0.023 A 
ATOM     85  C   UNL     1      -8.798   2.782  13.214  1.00  0.00     0.031 A 
ATOM     86  C   UNL     1     -10.059   3.208  11.241  1.00  0.00     0.131 A 
ATOM     87  C   UNL     1     -10.001   2.573  13.905  1.00  0.00     0.055 A 
ATOM     88  C   UNL     1     -11.256   3.126  11.958  1.00  0.00     0.041 A 
ATOM     89  F   UNL     1     -10.205   3.470   9.934  1.00  0.00    -0.206 F 
ATOM     90  C   UNL     1     -11.235   2.775  13.297  1.00  0.00     0.022 A 
BRANCH  87  91
ATOM     91  S   UNL     1      -9.895   1.902  15.582  1.00  0.00     0.124 S 
ATOM     92  O   UNL     1      -9.235   0.621  15.346  1.00  0.00    -0.237 OA
ATOM     93  O   UNL     1      -9.095   2.907  16.273  1.00  0.00    -0.237 OA
ATOM     94  O   UNL     1     -11.290   1.813  16.005  1.00  0.00    -0.744 OA
ENDBRANCH  87  91
ENDBRANCH  61  84
ENDBRANCH  35  36
ENDBRANCH  27  30
ENDBRANCH  25  26
ENDBRANCH  24  25
ENDBRANCH  23  24
ENDBRANCH   1  23
TORSDOF 20
