REMARK SMILES CC[NH+]1CCC2(CC1)OC[C@@H](C(=O)NCCCCCCNC(=O)c1ccc(-c3c4nc(c(-c5cc(S(=O)(=O)[O-])ccc5F)c5ccc([nH]5)c(-c5cc(S(=O)(=O)[O-])ccc5F)c5nc(c(-c6cc(S(=O)(=O)[O-])ccc6F)c6ccc3[nH]6)C=C5)C=C4)cc1)N2C(=O)c1ccc(Cl)c([N+](=O)[O-])c1
REMARK SMILES IDX 17 1 16 2 15 3 14 4 12 5 13 6 11 8 3 9 4 10 8 11 5 13 7 14
REMARK SMILES IDX 6 15 9 16 87 17 10 18 2 19 1 20 88 21 89 22 90 23 91 24
REMARK SMILES IDX 99 25 92 26 95 27 93 28 94 29 96 30 97 31 98 32 18 33 19 34
REMARK SMILES IDX 20 35 21 36 22 37 23 39 24 40 25 41 86 42 26 43 85 44 27 45
REMARK SMILES IDX 28 46 29 47 79 48 30 49 84 50 78 51 80 52 31 53 83 54 77 55
REMARK SMILES IDX 76 56 32 58 64 59 44 60 63 61 45 62 48 63 62 64 81 65 46 66
REMARK SMILES IDX 47 67 61 69 82 70 49 71 33 72 34 73 42 74 35 75 41 76 43 77
REMARK SMILES IDX 40 78 36 79 37 80 38 81 39 82 65 83 66 84 74 85 67 86 73 87
REMARK SMILES IDX 75 88 72 89 68 90 69 91 70 92 71 93 50 94 51 95 59 96 52 97
REMARK SMILES IDX 58 98 60 99 57 100 53 101 54 102 55 103 56 104
REMARK H PARENT 14 7 3 12 21 38 80 57 48 68
REMARK Flexibility Score: inf
ROOT
ATOM      1  C   UNL     1       0.930  -3.980   9.298  1.00  0.00     0.002 C 
ENDROOT
BRANCH   1   2
ATOM      2  C   UNL     1       0.719  -3.511   7.856  1.00  0.00     0.021 C 
BRANCH   2   3
ATOM      3  C   UNL     1      -0.740  -3.418   7.427  1.00  0.00     0.116 C 
BRANCH   3   4
ATOM      4  N   UNL     1      -1.415  -2.364   8.147  1.00  0.00    -0.354 N 
ATOM      5  C   UNL     1      -1.881  -1.165   7.707  1.00  0.00     0.245 C 
ATOM      6  O   UNL     1      -2.517  -0.483   8.521  1.00  0.00    -0.273 OA
ATOM      7  H   UNL     1      -1.560  -2.540   9.104  1.00  0.00     0.163 HD
BRANCH   5   8
ATOM      8  C   UNL     1      -1.876  -0.775   6.217  1.00  0.00     0.203 C 
ATOM      9  N   UNL     1       0.420  -0.890   1.620  1.00  0.00    -0.335 N 
ATOM     10  C   UNL     1      -0.459   0.109   2.219  1.00  0.00     0.267 C 
ATOM     11  C   UNL     1       0.657  -2.121   2.368  1.00  0.00     0.267 C 
ATOM     12  H   UNL     1       1.329  -0.433   1.695  1.00  0.00     0.348 HD
ATOM     13  C   UNL     1      -1.608  -0.425   3.046  1.00  0.00     0.120 C 
ATOM     14  C   UNL     1      -0.417  -2.603   3.326  1.00  0.00     0.120 C 
ATOM     15  C   UNL     1      -1.196  -1.511   4.048  1.00  0.00     0.155 C 
ATOM     16  O   UNL     1      -2.447  -2.172   4.397  1.00  0.00    -0.352 OA
ATOM     17  N   UNL     1      -0.717  -1.005   5.352  1.00  0.00    -0.295 N 
ATOM     18  C   UNL     1      -2.999  -1.559   5.563  1.00  0.00     0.198 C 
BRANCH   9  19
ATOM     19  C   UNL     1       0.166  -1.110   0.195  1.00  0.00     0.258 C 
ATOM     20  C   UNL     1       0.783   0.013  -0.632  1.00  0.00     0.071 C 
ENDBRANCH   9  19
BRANCH  17  21
ATOM     21  C   UNL     1       0.469  -0.411   5.775  1.00  0.00     0.257 C 
ATOM     22  O   UNL     1       0.550   0.218   6.830  1.00  0.00    -0.269 OA
BRANCH  21  23
ATOM     23  C   UNL     1       1.733  -0.520   5.033  1.00  0.00     0.047 A 
ATOM     24  C   UNL     1       2.596  -1.599   5.229  1.00  0.00     0.016 A 
ATOM     25  C   UNL     1       2.141   0.540   4.223  1.00  0.00     0.101 A 
ATOM     26  C   UNL     1       3.800  -1.670   4.516  1.00  0.00     0.028 A 
ATOM     27  C   UNL     1       3.290   0.416   3.415  1.00  0.00     0.288 A 
ATOM     28  C   UNL     1       4.139  -0.686   3.574  1.00  0.00     0.118 A 
ATOM     29  Cl  UNL     1       5.622  -0.940   2.728  1.00  0.00    -0.077 Cl
BRANCH  27  30
ATOM     30  N   UNL     1       3.479   1.433   2.373  1.00  0.00     0.064 N 
ATOM     31  O   UNL     1       4.203   1.179   1.404  1.00  0.00    -0.258 OA
ATOM     32  O   UNL     1       2.850   2.495   2.501  1.00  0.00    -0.258 OA
ENDBRANCH  27  30
ENDBRANCH  21  23
ENDBRANCH  17  21
ENDBRANCH   5   8
ENDBRANCH   3   4
ENDBRANCH   2   3
ENDBRANCH   1   2
BRANCH   1  33
ATOM     33  C   UNL     1       0.298  -5.331   9.640  1.00  0.00     0.002 C 
BRANCH  33  34
ATOM     34  C   UNL     1       0.681  -6.479   8.705  1.00  0.00     0.021 C 
BRANCH  34  35
ATOM     35  C   UNL     1       2.182  -6.712   8.565  1.00  0.00     0.116 C 
BRANCH  35  36
ATOM     36  N   UNL     1       2.805  -7.048   9.834  1.00  0.00    -0.352 N 
ATOM     37  C   UNL     1       3.492  -8.185  10.193  1.00  0.00     0.251 C 
ATOM     38  H   UNL     1       2.723  -6.365  10.539  1.00  0.00     0.163 HD
ATOM     39  O   UNL     1       3.768  -8.393  11.364  1.00  0.00    -0.269 OA
BRANCH  37  40
ATOM     40  C   UNL     1       3.864  -9.160   9.145  1.00  0.00     0.039 A 
ATOM     41  C   UNL     1       3.572 -10.511   9.343  1.00  0.00     0.014 A 
ATOM     42  C   UNL     1       4.468  -8.733   7.959  1.00  0.00     0.014 A 
ATOM     43  C   UNL     1       3.810 -11.424   8.313  1.00  0.00     0.010 A 
ATOM     44  C   UNL     1       4.639  -9.632   6.910  1.00  0.00     0.010 A 
ATOM     45  C   UNL     1       4.299 -10.984   7.072  1.00  0.00    -0.014 A 
BRANCH  45  46
ATOM     46  C   UNL     1       4.431 -11.911   5.919  1.00  0.00     0.031 A 
ATOM     47  C   UNL     1       5.785 -12.193   5.328  1.00  0.00     0.074 A 
ATOM     48  C   UNL     1       3.323 -12.433   5.356  1.00  0.00     0.049 A 
ATOM     49  N   UNL     1       6.093 -12.876   4.256  1.00  0.00    -0.248 NA
ATOM     50  C   UNL     1       6.940 -11.604   6.021  1.00  0.00     0.031 C 
ATOM     51  C   UNL     1       1.953 -12.210   5.825  1.00  0.00     0.029 A 
ATOM     52  N   UNL     1       3.168 -13.244   4.259  1.00  0.00    -0.354 N 
ATOM     53  C   UNL     1       7.476 -12.794   4.140  1.00  0.00     0.074 A 
ATOM     54  C   UNL     1       7.937 -11.945   5.218  1.00  0.00     0.031 C 
ATOM     55  C   UNL     1       1.102 -12.882   5.034  1.00  0.00     0.029 A 
ATOM     56  C   UNL     1       1.854 -13.535   3.967  1.00  0.00     0.049 A 
ATOM     57  H   UNL     1       3.925 -13.586   3.731  1.00  0.00     0.167 HD
ATOM     58  C   UNL     1       8.286 -13.389   3.228  1.00  0.00     0.034 A 
ATOM     59  C   UNL     1       1.314 -14.226   2.943  1.00  0.00     0.034 A 
ATOM     60  C   UNL     1       7.808 -14.235   2.162  1.00  0.00     0.049 A 
ATOM     61  C   UNL     1       2.232 -14.824   1.906  1.00  0.00     0.074 A 
ATOM     62  C   UNL     1       8.544 -14.932   1.220  1.00  0.00     0.029 A 
ATOM     63  N   UNL     1       6.470 -14.488   1.884  1.00  0.00    -0.354 N 
ATOM     64  N   UNL     1       3.542 -14.779   1.839  1.00  0.00    -0.248 NA
ATOM     65  C   UNL     1       1.598 -15.567   0.809  1.00  0.00     0.031 C 
ATOM     66  C   UNL     1       7.654 -15.538   0.327  1.00  0.00     0.029 A 
ATOM     67  C   UNL     1       6.361 -15.291   0.758  1.00  0.00     0.049 A 
ATOM     68  H   UNL     1       5.710 -14.147   2.409  1.00  0.00     0.167 HD
ATOM     69  C   UNL     1       3.889 -15.509   0.705  1.00  0.00     0.074 A 
ATOM     70  C   UNL     1       2.652 -15.998   0.132  1.00  0.00     0.031 C 
ATOM     71  C   UNL     1       5.119 -15.756   0.186  1.00  0.00     0.034 A 
BRANCH  58  72
ATOM     72  C   UNL     1       9.768 -13.116   3.330  1.00  0.00     0.023 A 
ATOM     73  C   UNL     1      10.514 -13.502   4.457  1.00  0.00     0.031 A 
ATOM     74  C   UNL     1      10.442 -12.446   2.294  1.00  0.00     0.131 A 
ATOM     75  C   UNL     1      11.869 -13.150   4.556  1.00  0.00     0.055 A 
ATOM     76  C   UNL     1      11.810 -12.173   2.361  1.00  0.00     0.041 A 
ATOM     77  F   UNL     1       9.779 -12.033   1.202  1.00  0.00    -0.206 F 
ATOM     78  C   UNL     1      12.529 -12.511   3.503  1.00  0.00     0.022 A 
BRANCH  75  79
ATOM     79  S   UNL     1      12.716 -13.406   6.138  1.00  0.00     0.124 S 
ATOM     80  O   UNL     1      11.886 -12.620   7.048  1.00  0.00    -0.237 OA
ATOM     81  O   UNL     1      12.649 -14.854   6.301  1.00  0.00    -0.237 OA
ATOM     82  O   UNL     1      14.053 -12.865   5.903  1.00  0.00    -0.744 OA
ENDBRANCH  75  79
ENDBRANCH  58  72
BRANCH  59  83
ATOM     83  C   UNL     1      -0.166 -14.366   2.821  1.00  0.00     0.023 A 
ATOM     84  C   UNL     1      -0.780 -15.626   2.884  1.00  0.00     0.031 A 
ATOM     85  C   UNL     1      -0.985 -13.245   2.592  1.00  0.00     0.131 A 
ATOM     86  C   UNL     1      -2.163 -15.742   2.671  1.00  0.00     0.055 A 
ATOM     87  C   UNL     1      -2.368 -13.359   2.441  1.00  0.00     0.041 A 
ATOM     88  F   UNL     1      -0.451 -12.015   2.524  1.00  0.00    -0.206 F 
ATOM     89  C   UNL     1      -2.963 -14.616   2.466  1.00  0.00     0.022 A 
BRANCH  86  90
ATOM     90  S   UNL     1      -2.889 -17.401   2.574  1.00  0.00     0.124 S 
ATOM     91  O   UNL     1      -2.130 -17.992   1.477  1.00  0.00    -0.237 OA
ATOM     92  O   UNL     1      -2.614 -17.930   3.905  1.00  0.00    -0.237 OA
ATOM     93  O   UNL     1      -4.298 -17.138   2.288  1.00  0.00    -0.744 OA
ENDBRANCH  86  90
ENDBRANCH  59  83
BRANCH  71  94
ATOM     94  C   UNL     1       5.182 -16.619  -1.051  1.00  0.00     0.023 A 
ATOM     95  C   UNL     1       4.667 -16.181  -2.284  1.00  0.00     0.031 A 
ATOM     96  C   UNL     1       5.769 -17.895  -0.996  1.00  0.00     0.131 A 
ATOM     97  C   UNL     1       4.704 -17.032  -3.399  1.00  0.00     0.055 A 
ATOM     98  C   UNL     1       5.860 -18.713  -2.123  1.00  0.00     0.041 A 
ATOM     99  F   UNL     1       6.274 -18.366   0.156  1.00  0.00    -0.206 F 
ATOM    100  C   UNL     1       5.315 -18.287  -3.331  1.00  0.00     0.022 A 
BRANCH  97 101
ATOM    101  S   UNL     1       3.869 -16.509  -4.921  1.00  0.00     0.124 S 
ATOM    102  O   UNL     1       2.490 -16.353  -4.472  1.00  0.00    -0.237 OA
ATOM    103  O   UNL     1       4.573 -15.276  -5.258  1.00  0.00    -0.237 OA
ATOM    104  O   UNL     1       4.099 -17.624  -5.839  1.00  0.00    -0.744 OA
ENDBRANCH  97 101
ENDBRANCH  71  94
ENDBRANCH  45  46
ENDBRANCH  37  40
ENDBRANCH  35  36
ENDBRANCH  34  35
ENDBRANCH  33  34
ENDBRANCH   1  33
TORSDOF 20
