REMARK SMILES O=C(CC(=O)c1ccccc1)Nc1cccc(C(=O)NCCCCCCNC(=O)c2ccc(-c3c4nc(c(-c5cc(S(=O)(=O)[O-])ccc5F)c5ccc([nH]5)c(-c5cc(S(=O)(=O)[O-])ccc5F)c5nc(c(-c6cc(S(=O)(=O)[O-])ccc6F)c6ccc3[nH]6)C=C5)C=C4)cc2)c1
REMARK SMILES IDX 23 1 22 2 21 3 20 4 18 5 19 6 17 8 13 9 14 10 93 11 15 12
REMARK SMILES IDX 16 13 12 14 1 15 2 16 3 18 4 19 5 20 6 21 7 22 11 23 8 24
REMARK SMILES IDX 10 25 9 26 24 27 25 28 26 29 27 30 28 31 29 33 30 34 31 35
REMARK SMILES IDX 92 36 32 37 91 38 33 39 34 40 35 41 85 42 36 43 90 44 84 45
REMARK SMILES IDX 86 46 37 47 89 48 83 49 82 50 38 52 70 53 50 54 69 55 51 56
REMARK SMILES IDX 54 57 68 58 87 59 52 60 53 61 67 63 88 64 55 65 39 66 40 67
REMARK SMILES IDX 48 68 41 69 47 70 49 71 46 72 42 73 43 74 44 75 45 76 71 77
REMARK SMILES IDX 72 78 80 79 73 80 79 81 81 82 78 83 74 84 75 85 76 86 77 87
REMARK SMILES IDX 56 88 57 89 65 90 58 91 64 92 66 93 63 94 59 95 60 96 61 97
REMARK SMILES IDX 62 98
REMARK H PARENT 20 7 12 17 27 32 86 51 54 62
REMARK Flexibility Score: inf
ROOT
ATOM      1  C   UNL     1      -1.209   3.644   4.317  1.00  0.00     0.002 C 
ENDROOT
BRANCH   1   2
ATOM      2  C   UNL     1       0.052   3.482   3.472  1.00  0.00     0.021 C 
BRANCH   2   3
ATOM      3  C   UNL     1      -0.157   3.091   2.014  1.00  0.00     0.116 C 
BRANCH   3   4
ATOM      4  N   UNL     1      -0.825   4.103   1.202  1.00  0.00    -0.352 N 
ATOM      5  C   UNL     1      -0.573   4.529  -0.088  1.00  0.00     0.251 C 
ATOM      6  O   UNL     1      -1.265   5.423  -0.573  1.00  0.00    -0.269 OA
ATOM      7  H   UNL     1      -1.578   4.556   1.645  1.00  0.00     0.163 HD
BRANCH   5   8
ATOM      8  C   UNL     1       0.565   3.985  -0.879  1.00  0.00     0.041 A 
ATOM      9  C   UNL     1       2.238   2.264  -1.180  1.00  0.00     0.041 A 
ATOM     10  C   UNL     1       2.960   3.121  -2.015  1.00  0.00     0.026 A 
ATOM     11  C   UNL     1       0.979   2.662  -0.743  1.00  0.00     0.040 A 
ATOM     12  C   UNL     1       2.455   4.387  -2.329  1.00  0.00     0.003 A 
ATOM     13  C   UNL     1       1.277   4.835  -1.728  1.00  0.00     0.014 A 
BRANCH   9  14
ATOM     14  N   UNL     1       2.847   1.060  -0.760  1.00  0.00    -0.326 N 
ATOM     15  O   UNL     1       1.223   0.211   0.683  1.00  0.00    -0.274 OA
ATOM     16  C   UNL     1       2.300   0.116   0.100  1.00  0.00     0.232 C 
ATOM     17  H   UNL     1       3.747   0.872  -1.112  1.00  0.00     0.169 HD
BRANCH  16  18
ATOM     18  C   UNL     1       3.157  -1.095   0.330  1.00  0.00     0.181 C 
BRANCH  18  19
ATOM     19  C   UNL     1       3.911  -1.617  -0.860  1.00  0.00     0.172 C 
ATOM     20  O   UNL     1       5.141  -1.592  -0.891  1.00  0.00    -0.294 OA
BRANCH  19  21
ATOM     21  C   UNL     1       3.184  -2.173  -2.031  1.00  0.00     0.018 A 
ATOM     22  C   UNL     1       3.681  -3.352  -2.598  1.00  0.00     0.012 A 
ATOM     23  C   UNL     1       2.114  -1.512  -2.644  1.00  0.00     0.012 A 
ATOM     24  C   UNL     1       3.115  -3.858  -3.769  1.00  0.00     0.001 A 
ATOM     25  C   UNL     1       1.567  -2.008  -3.828  1.00  0.00     0.001 A 
ATOM     26  C   UNL     1       2.068  -3.179  -4.390  1.00  0.00     0.000 A 
ENDBRANCH  19  21
ENDBRANCH  18  19
ENDBRANCH  16  18
ENDBRANCH   9  14
ENDBRANCH   5   8
ENDBRANCH   3   4
ENDBRANCH   2   3
ENDBRANCH   1   2
BRANCH   1  27
ATOM     27  C   UNL     1      -2.163   2.447   4.344  1.00  0.00     0.002 C 
BRANCH  27  28
ATOM     28  C   UNL     1      -1.547   1.094   4.710  1.00  0.00     0.021 C 
BRANCH  28  29
ATOM     29  C   UNL     1      -0.771   1.051   6.024  1.00  0.00     0.116 C 
BRANCH  29  30
ATOM     30  N   UNL     1      -1.593   1.402   7.169  1.00  0.00    -0.352 N 
ATOM     31  C   UNL     1      -1.816   0.711   8.336  1.00  0.00     0.251 C 
ATOM     32  H   UNL     1      -2.061   2.265   7.099  1.00  0.00     0.163 HD
ATOM     33  O   UNL     1      -2.688   1.094   9.108  1.00  0.00    -0.269 OA
BRANCH  31  34
ATOM     34  C   UNL     1      -1.028  -0.504   8.648  1.00  0.00     0.039 A 
ATOM     35  C   UNL     1      -1.689  -1.619   9.169  1.00  0.00     0.014 A 
ATOM     36  C   UNL     1       0.355  -0.545   8.444  1.00  0.00     0.014 A 
ATOM     37  C   UNL     1      -0.976  -2.793   9.425  1.00  0.00     0.010 A 
ATOM     38  C   UNL     1       1.050  -1.739   8.629  1.00  0.00     0.010 A 
ATOM     39  C   UNL     1       0.393  -2.877   9.122  1.00  0.00    -0.014 A 
BRANCH  39  40
ATOM     40  C   UNL     1       1.144  -4.148   9.306  1.00  0.00     0.031 A 
ATOM     41  C   UNL     1       2.284  -4.225  10.284  1.00  0.00     0.074 A 
ATOM     42  C   UNL     1       0.833  -5.218   8.548  1.00  0.00     0.049 A 
ATOM     43  N   UNL     1       3.087  -5.226  10.545  1.00  0.00    -0.248 NA
ATOM     44  C   UNL     1       2.580  -3.004  11.047  1.00  0.00     0.031 C 
ATOM     45  C   UNL     1      -0.221  -5.252   7.532  1.00  0.00     0.029 A 
ATOM     46  N   UNL     1       1.375  -6.479   8.504  1.00  0.00    -0.354 N 
ATOM     47  C   UNL     1       3.991  -4.752  11.491  1.00  0.00     0.074 A 
ATOM     48  C   UNL     1       3.674  -3.356  11.705  1.00  0.00     0.031 C 
ATOM     49  C   UNL     1      -0.266  -6.476   6.985  1.00  0.00     0.029 A 
ATOM     50  C   UNL     1       0.787  -7.301   7.570  1.00  0.00     0.049 A 
ATOM     51  H   UNL     1       2.114  -6.768   9.086  1.00  0.00     0.167 HD
ATOM     52  C   UNL     1       4.978  -5.426  12.134  1.00  0.00     0.034 A 
ATOM     53  C   UNL     1       1.072  -8.568   7.211  1.00  0.00     0.034 A 
ATOM     54  C   UNL     1       5.276  -6.820  11.905  1.00  0.00     0.049 A 
ATOM     55  C   UNL     1       2.189  -9.291   7.917  1.00  0.00     0.074 A 
ATOM     56  C   UNL     1       6.205  -7.620  12.547  1.00  0.00     0.029 A 
ATOM     57  N   UNL     1       4.664  -7.620  10.946  1.00  0.00    -0.354 N 
ATOM     58  N   UNL     1       2.993  -8.851   8.859  1.00  0.00    -0.248 NA
ATOM     59  C   UNL     1       2.430 -10.684   7.522  1.00  0.00     0.031 C 
ATOM     60  C   UNL     1       6.217  -8.871  11.920  1.00  0.00     0.029 A 
ATOM     61  C   UNL     1       5.228  -8.888  10.949  1.00  0.00     0.049 A 
ATOM     62  H   UNL     1       3.935  -7.330  10.351  1.00  0.00     0.167 HD
ATOM     63  C   UNL     1       3.818  -9.923   9.186  1.00  0.00     0.074 A 
ATOM     64  C   UNL     1       3.402 -11.033   8.352  1.00  0.00     0.031 C 
ATOM     65  C   UNL     1       4.824  -9.985  10.097  1.00  0.00     0.034 A 
BRANCH  52  66
ATOM     66  C   UNL     1       5.829  -4.646  13.112  1.00  0.00     0.023 A 
ATOM     67  C   UNL     1       5.274  -4.016  14.242  1.00  0.00     0.031 A 
ATOM     68  C   UNL     1       7.210  -4.492  12.892  1.00  0.00     0.131 A 
ATOM     69  C   UNL     1       6.072  -3.190  15.048  1.00  0.00     0.055 A 
ATOM     70  C   UNL     1       8.017  -3.746  13.754  1.00  0.00     0.041 A 
ATOM     71  F   UNL     1       7.798  -5.050  11.822  1.00  0.00    -0.206 F 
ATOM     72  C   UNL     1       7.445  -3.072  14.829  1.00  0.00     0.022 A 
BRANCH  69  73
ATOM     73  S   UNL     1       5.255  -2.132  16.276  1.00  0.00     0.124 S 
ATOM     74  O   UNL     1       4.312  -1.389  15.443  1.00  0.00    -0.237 OA
ATOM     75  O   UNL     1       4.671  -3.105  17.192  1.00  0.00    -0.237 OA
ATOM     76  O   UNL     1       6.351  -1.335  16.825  1.00  0.00    -0.744 OA
ENDBRANCH  69  73
ENDBRANCH  52  66
BRANCH  53  77
ATOM     77  C   UNL     1       0.299  -9.226   6.117  1.00  0.00     0.023 A 
ATOM     78  C   UNL     1      -0.523 -10.335   6.370  1.00  0.00     0.031 A 
ATOM     79  C   UNL     1       0.383  -8.755   4.794  1.00  0.00     0.131 A 
ATOM     80  C   UNL     1      -1.202 -10.957   5.310  1.00  0.00     0.055 A 
ATOM     81  C   UNL     1      -0.336  -9.343   3.753  1.00  0.00     0.041 A 
ATOM     82  F   UNL     1       1.153  -7.695   4.498  1.00  0.00    -0.206 F 
ATOM     83  C   UNL     1      -1.128 -10.458   4.007  1.00  0.00     0.022 A 
BRANCH  80  84
ATOM     84  S   UNL     1      -2.137 -12.476   5.645  1.00  0.00     0.124 S 
ATOM     85  O   UNL     1      -1.095 -13.358   6.158  1.00  0.00    -0.237 OA
ATOM     86  O   UNL     1      -3.125 -12.016   6.615  1.00  0.00    -0.237 OA
ATOM     87  O   UNL     1      -2.675 -12.839   4.336  1.00  0.00    -0.744 OA
ENDBRANCH  80  84
ENDBRANCH  53  77
BRANCH  65  88
ATOM     88  C   UNL     1       5.521 -11.315  10.263  1.00  0.00     0.023 A 
ATOM     89  C   UNL     1       6.283 -11.890   9.230  1.00  0.00     0.031 A 
ATOM     90  C   UNL     1       5.412 -12.024  11.473  1.00  0.00     0.131 A 
ATOM     91  C   UNL     1       6.854 -13.160   9.405  1.00  0.00     0.055 A 
ATOM     92  C   UNL     1       6.041 -13.255  11.666  1.00  0.00     0.041 A 
ATOM     93  F   UNL     1       4.693 -11.529  12.494  1.00  0.00    -0.206 F 
ATOM     94  C   UNL     1       6.756 -13.836  10.623  1.00  0.00     0.022 A 
BRANCH  91  95
ATOM     95  S   UNL     1       7.640 -13.966   7.982  1.00  0.00     0.124 S 
ATOM     96  O   UNL     1       6.548 -14.001   7.014  1.00  0.00    -0.237 OA
ATOM     97  O   UNL     1       8.737 -13.055   7.673  1.00  0.00    -0.237 OA
ATOM     98  O   UNL     1       8.045 -15.269   8.507  1.00  0.00    -0.744 OA
ENDBRANCH  91  95
ENDBRANCH  65  88
ENDBRANCH  39  40
ENDBRANCH  31  34
ENDBRANCH  29  30
ENDBRANCH  28  29
ENDBRANCH  27  28
ENDBRANCH   1  27
TORSDOF 20
