REMARK SMILES COc1ccc(OC)c(/C=N/[NH+]=C2/NC(=O)[C@@H](CC(=O)NCCCCCCNC(=O)c3ccc(-c4c5nc(c(-c6cc(S(=O)(=O)[O-])ccc6F)c6ccc([nH]6)c(-c6cc(S(=O)(=O)[O-])ccc6F)c6nc(c(-c7cc(S(=O)(=O)[O-])ccc7F)c7ccc4[nH]7)C=C6)C=C5)cc3)S2)c1
REMARK SMILES IDX 24 1 23 2 22 3 21 4 19 5 20 6 18 8 17 9 12 10 13 11 14 13
REMARK SMILES IDX 94 14 15 15 16 17 11 18 10 19 9 20 3 21 4 22 95 23 5 24 6 25
REMARK SMILES IDX 2 26 1 27 7 28 8 29 25 30 26 31 27 32 28 33 29 34 30 36
REMARK SMILES IDX 31 37 32 38 93 39 33 40 92 41 34 42 35 43 36 44 86 45 37 46
REMARK SMILES IDX 91 47 85 48 87 49 38 50 90 51 84 52 83 53 39 55 71 56 51 57
REMARK SMILES IDX 70 58 52 59 55 60 69 61 88 62 53 63 54 64 68 66 89 67 56 68
REMARK SMILES IDX 40 69 41 70 49 71 42 72 48 73 50 74 47 75 43 76 44 77 45 78
REMARK SMILES IDX 46 79 72 80 73 81 81 82 74 83 80 84 82 85 79 86 75 87 76 88
REMARK SMILES IDX 77 89 78 90 57 91 58 92 66 93 59 94 65 95 67 96 64 97 60 98
REMARK SMILES IDX 61 99 62 100 63 101
REMARK H PARENT 21 7 12 12 14 16 28 35 87 54 55 65
REMARK Flexibility Score: inf
ROOT
ATOM      1  C   UNL     1       7.348   1.469  -5.648  1.00  0.00     0.002 C 
ENDROOT
BRANCH   1   2
ATOM      2  C   UNL     1       8.073   0.155  -5.345  1.00  0.00     0.021 C 
BRANCH   2   3
ATOM      3  C   UNL     1       8.768   0.111  -3.984  1.00  0.00     0.116 C 
BRANCH   3   4
ATOM      4  N   UNL     1       7.792  -0.053  -2.921  1.00  0.00    -0.356 N 
ATOM      5  C   UNL     1       7.623  -1.039  -2.002  1.00  0.00     0.221 C 
ATOM      6  O   UNL     1       6.677  -0.931  -1.219  1.00  0.00    -0.275 OA
ATOM      7  H   UNL     1       7.137   0.679  -2.856  1.00  0.00     0.163 HD
BRANCH   5   8
ATOM      8  C   UNL     1       8.573  -2.221  -1.925  1.00  0.00     0.127 C 
BRANCH   8   9
ATOM      9  C   UNL     1       8.225  -3.445  -2.775  1.00  0.00     0.183 C 
ATOM     10  N   UNL     1       5.529  -2.718  -5.356  1.00  0.00    -0.142 N 
ATOM     11  C   UNL     1       6.489  -3.163  -4.622  1.00  0.00     0.337 C 
ATOM     12  H   UNL     1       5.691  -2.315  -6.239  1.00  0.00     0.343 HD
ATOM     13  N   UNL     1       7.759  -3.134  -5.085  1.00  0.00    -0.202 N 
ATOM     14  S   UNL     1       6.446  -3.772  -2.996  1.00  0.00    -0.020 SA
ATOM     15  C   UNL     1       8.766  -3.300  -4.183  1.00  0.00     0.322 C 
ATOM     16  H   UNL     1       7.949  -2.997  -6.041  1.00  0.00     0.316 HD
ATOM     17  O   UNL     1       9.949  -3.238  -4.471  1.00  0.00    -0.246 OA
BRANCH  10  18
ATOM     18  N   UNL     1       4.253  -2.842  -4.825  1.00  0.00    -0.093 NA
ATOM     19  C   UNL     1       3.789  -1.738  -4.335  1.00  0.00     0.170 C 
BRANCH  19  20
ATOM     20  C   UNL     1       2.380  -1.657  -3.926  1.00  0.00     0.042 A 
ATOM     21  C   UNL     1       0.829  -1.363  -2.085  1.00  0.00     0.119 A 
ATOM     22  C   UNL     1      -0.210  -1.780  -2.913  1.00  0.00     0.050 A 
ATOM     23  C   UNL     1       2.131  -1.299  -2.586  1.00  0.00     0.060 A 
ATOM     24  C   UNL     1       0.037  -2.085  -4.251  1.00  0.00     0.051 A 
ATOM     25  C   UNL     1       1.329  -2.013  -4.785  1.00  0.00     0.128 A 
BRANCH  21  26
ATOM     26  O   UNL     1       0.481  -1.151  -0.779  1.00  0.00    -0.497 OA
ATOM     27  C   UNL     1       1.090  -0.018  -0.172  1.00  0.00     0.278 C 
ENDBRANCH  21  26
BRANCH  25  28
ATOM     28  O   UNL     1       1.356  -2.347  -6.109  1.00  0.00    -0.496 OA
ATOM     29  C   UNL     1       2.407  -1.872  -6.940  1.00  0.00     0.278 C 
ENDBRANCH  25  28
ENDBRANCH  19  20
ENDBRANCH  10  18
ENDBRANCH   8   9
ENDBRANCH   5   8
ENDBRANCH   3   4
ENDBRANCH   2   3
ENDBRANCH   1   2
BRANCH   1  30
ATOM     30  C   UNL     1       8.265   2.666  -5.901  1.00  0.00     0.002 C 
BRANCH  30  31
ATOM     31  C   UNL     1       9.320   2.457  -6.990  1.00  0.00     0.021 C 
BRANCH  31  32
ATOM     32  C   UNL     1       8.772   1.980  -8.332  1.00  0.00     0.116 C 
BRANCH  32  33
ATOM     33  N   UNL     1       7.872   2.954  -8.927  1.00  0.00    -0.352 N 
ATOM     34  C   UNL     1       8.008   3.653 -10.102  1.00  0.00     0.251 C 
ATOM     35  H   UNL     1       7.051   3.139  -8.417  1.00  0.00     0.163 HD
ATOM     36  O   UNL     1       7.279   4.614 -10.329  1.00  0.00    -0.269 OA
BRANCH  34  37
ATOM     37  C   UNL     1       9.047   3.252 -11.074  1.00  0.00     0.039 A 
ATOM     38  C   UNL     1       9.857   4.235 -11.647  1.00  0.00     0.014 A 
ATOM     39  C   UNL     1       9.223   1.908 -11.415  1.00  0.00     0.014 A 
ATOM     40  C   UNL     1      10.883   3.862 -12.518  1.00  0.00     0.010 A 
ATOM     41  C   UNL     1      10.294   1.532 -12.222  1.00  0.00     0.010 A 
ATOM     42  C   UNL     1      11.133   2.506 -12.786  1.00  0.00    -0.014 A 
BRANCH  42  43
ATOM     43  C   UNL     1      12.270   2.091 -13.651  1.00  0.00     0.031 A 
ATOM     44  C   UNL     1      12.013   1.363 -14.941  1.00  0.00     0.074 A 
ATOM     45  C   UNL     1      13.533   2.312 -13.239  1.00  0.00     0.049 A 
ATOM     46  N   UNL     1      12.870   0.870 -15.799  1.00  0.00    -0.248 NA
ATOM     47  C   UNL     1      10.606   1.129 -15.295  1.00  0.00     0.031 C 
ATOM     48  C   UNL     1      13.908   2.957 -11.979  1.00  0.00     0.029 A 
ATOM     49  N   UNL     1      14.736   2.007 -13.825  1.00  0.00    -0.354 N 
ATOM     50  C   UNL     1      12.107   0.253 -16.785  1.00  0.00     0.074 A 
ATOM     51  C   UNL     1      10.723   0.379 -16.379  1.00  0.00     0.031 C 
ATOM     52  C   UNL     1      15.246   3.013 -11.894  1.00  0.00     0.029 A 
ATOM     53  C   UNL     1      15.826   2.368 -13.067  1.00  0.00     0.049 A 
ATOM     54  H   UNL     1      14.812   1.572 -14.705  1.00  0.00     0.167 HD
ATOM     55  C   UNL     1      12.523  -0.344 -17.931  1.00  0.00     0.034 A 
ATOM     56  C   UNL     1      17.145   2.182 -13.279  1.00  0.00     0.034 A 
ATOM     57  C   UNL     1      13.910  -0.454 -18.316  1.00  0.00     0.049 A 
ATOM     58  C   UNL     1      17.589   1.506 -14.550  1.00  0.00     0.074 A 
ATOM     59  C   UNL     1      14.442  -0.965 -19.487  1.00  0.00     0.029 A 
ATOM     60  N   UNL     1      14.990  -0.069 -17.528  1.00  0.00    -0.354 N 
ATOM     61  N   UNL     1      16.856   1.000 -15.515  1.00  0.00    -0.248 NA
ATOM     62  C   UNL     1      19.036   1.390 -14.767  1.00  0.00     0.031 C 
ATOM     63  C   UNL     1      15.837  -0.970 -19.371  1.00  0.00     0.029 A 
ATOM     64  C   UNL     1      16.183  -0.375 -18.167  1.00  0.00     0.049 A 
ATOM     65  H   UNL     1      14.918   0.359 -16.644  1.00  0.00     0.167 HD
ATOM     66  C   UNL     1      17.755   0.522 -16.465  1.00  0.00     0.074 A 
ATOM     67  C   UNL     1      19.081   0.819 -15.962  1.00  0.00     0.031 C 
ATOM     68  C   UNL     1      17.504  -0.100 -17.646  1.00  0.00     0.034 A 
BRANCH  55  69
ATOM     69  C   UNL     1      11.461  -0.954 -18.821  1.00  0.00     0.023 A 
ATOM     70  C   UNL     1      10.420  -0.184 -19.372  1.00  0.00     0.031 A 
ATOM     71  C   UNL     1      11.458  -2.336 -19.080  1.00  0.00     0.131 A 
ATOM     72  C   UNL     1       9.371  -0.811 -20.060  1.00  0.00     0.055 A 
ATOM     73  C   UNL     1      10.462  -2.941 -19.851  1.00  0.00     0.041 A 
ATOM     74  F   UNL     1      12.411  -3.131 -18.569  1.00  0.00    -0.206 F 
ATOM     75  C   UNL     1       9.398  -2.181 -20.327  1.00  0.00     0.022 A 
BRANCH  72  76
ATOM     76  S   UNL     1       7.882   0.157 -20.431  1.00  0.00     0.124 S 
ATOM     77  O   UNL     1       7.509   0.645 -19.105  1.00  0.00    -0.237 OA
ATOM     78  O   UNL     1       8.383   1.159 -21.364  1.00  0.00    -0.237 OA
ATOM     79  O   UNL     1       6.966  -0.828 -21.003  1.00  0.00    -0.744 OA
ENDBRANCH  72  76
ENDBRANCH  55  69
BRANCH  56  80
ATOM     80  C   UNL     1      18.130   2.618 -12.248  1.00  0.00     0.023 A 
ATOM     81  C   UNL     1      19.039   3.658 -12.495  1.00  0.00     0.031 A 
ATOM     82  C   UNL     1      18.170   1.991 -10.989  1.00  0.00     0.131 A 
ATOM     83  C   UNL     1      19.968   4.023 -11.507  1.00  0.00     0.055 A 
ATOM     84  C   UNL     1      19.061   2.391  -9.992  1.00  0.00     0.041 A 
ATOM     85  F   UNL     1      17.317   0.996 -10.699  1.00  0.00    -0.206 F 
ATOM     86  C   UNL     1      19.974   3.408 -10.252  1.00  0.00     0.022 A 
BRANCH  83  87
ATOM     87  S   UNL     1      21.212   5.283 -11.901  1.00  0.00     0.124 S 
ATOM     88  O   UNL     1      21.910   4.670 -13.026  1.00  0.00    -0.237 OA
ATOM     89  O   UNL     1      20.382   6.441 -12.214  1.00  0.00    -0.237 OA
ATOM     90  O   UNL     1      21.989   5.391 -10.668  1.00  0.00    -0.744 OA
ENDBRANCH  83  87
ENDBRANCH  56  80
BRANCH  68  91
ATOM     91  C   UNL     1      18.698  -0.474 -18.493  1.00  0.00     0.023 A 
ATOM     92  C   UNL     1      19.636  -1.434 -18.073  1.00  0.00     0.031 A 
ATOM     93  C   UNL     1      18.905   0.147 -19.738  1.00  0.00     0.131 A 
ATOM     94  C   UNL     1      20.765  -1.703 -18.863  1.00  0.00     0.055 A 
ATOM     95  C   UNL     1      19.993  -0.175 -20.551  1.00  0.00     0.041 A 
ATOM     96  F   UNL     1      18.047   1.077 -20.190  1.00  0.00    -0.206 F 
ATOM     97  C   UNL     1      20.938  -1.095 -20.108  1.00  0.00     0.022 A 
BRANCH  94  98
ATOM     98  S   UNL     1      22.060  -2.783 -18.194  1.00  0.00     0.124 S 
ATOM     99  O   UNL     1      22.427  -2.088 -16.964  1.00  0.00    -0.237 OA
ATOM    100  O   UNL     1      21.355  -4.049 -18.026  1.00  0.00    -0.237 OA
ATOM    101  O   UNL     1      23.083  -2.777 -19.238  1.00  0.00    -0.744 OA
ENDBRANCH  94  98
ENDBRANCH  68  91
ENDBRANCH  42  43
ENDBRANCH  34  37
ENDBRANCH  32  33
ENDBRANCH  31  32
ENDBRANCH  30  31
ENDBRANCH   1  30
TORSDOF 21
