REMARK SMILES CC(=O)c1nnn(-c2ccc(C(=O)NCCCCCCNC(=O)c3ccc(-c4c5nc(c(-c6cc(S(=O)(=O)[O-])ccc6F)c6ccc([nH]6)c(-c6cc(S(=O)(=O)[O-])ccc6F)c6nc(c(-c7cc(S(=O)(=O)[O-])ccc7F)c7ccc4[nH]7)C=C6)C=C5)cc3)cc2)c1C
REMARK SMILES IDX 18 1 17 2 16 3 15 4 14 5 12 6 13 7 11 9 8 10 9 11 88 12
REMARK SMILES IDX 10 13 87 14 7 15 4 16 5 17 89 18 6 19 90 20 2 21 1 22 3 23
REMARK SMILES IDX 19 24 20 25 21 26 22 27 23 29 24 30 25 31 86 32 26 33 85 34
REMARK SMILES IDX 27 35 28 36 29 37 79 38 30 39 84 40 78 41 80 42 31 43 83 44
REMARK SMILES IDX 77 45 76 46 32 48 64 49 44 50 63 51 45 52 48 53 62 54 81 55
REMARK SMILES IDX 46 56 47 57 61 59 82 60 49 61 33 62 34 63 42 64 35 65 41 66
REMARK SMILES IDX 43 67 40 68 36 69 37 70 38 71 39 72 65 73 66 74 74 75 67 76
REMARK SMILES IDX 73 77 75 78 72 79 68 80 69 81 70 82 71 83 50 84 51 85 59 86
REMARK SMILES IDX 52 87 58 88 60 89 57 90 53 91 54 92 55 93 56 94
REMARK H PARENT 14 8 21 28 80 47 48 58
REMARK Flexibility Score: inf
ROOT
ATOM      1  C   UNL     1      11.467  -6.034   1.207  1.00  0.00     0.002 C 
ENDROOT
BRANCH   1   2
ATOM      2  C   UNL     1      10.366  -7.095   1.381  1.00  0.00     0.002 C 
BRANCH   2   3
ATOM      3  C   UNL     1       8.931  -6.557   1.465  1.00  0.00     0.021 C 
BRANCH   3   4
ATOM      4  C   UNL     1       8.524  -5.728   0.245  1.00  0.00     0.116 C 
BRANCH   4   5
ATOM      5  N   UNL     1       8.189  -6.596  -0.870  1.00  0.00    -0.352 N 
ATOM      6  C   UNL     1       7.001  -6.973  -1.445  1.00  0.00     0.251 C 
ATOM      7  O   UNL     1       7.054  -7.719  -2.423  1.00  0.00    -0.269 OA
ATOM      8  H   UNL     1       8.976  -6.998  -1.302  1.00  0.00     0.163 HD
BRANCH   6   9
ATOM      9  C   UNL     1       5.678  -6.439  -1.013  1.00  0.00     0.039 A 
ATOM     10  C   UNL     1       3.284  -5.102  -0.492  1.00  0.00     0.067 A 
ATOM     11  C   UNL     1       3.441  -5.750  -1.716  1.00  0.00     0.029 A 
ATOM     12  C   UNL     1       4.239  -5.241   0.518  1.00  0.00     0.029 A 
ATOM     13  C   UNL     1       4.657  -6.388  -1.982  1.00  0.00     0.016 A 
ATOM     14  C   UNL     1       5.406  -5.963   0.270  1.00  0.00     0.016 A 
BRANCH  10  15
ATOM     15  N   UNL     1       2.194  -4.238  -0.290  1.00  0.00    -0.217 N 
ATOM     16  C   UNL     1       0.912  -2.573   0.271  1.00  0.00     0.151 A 
ATOM     17  N   UNL     1       0.134  -3.663  -0.033  1.00  0.00    -0.126 NA
ATOM     18  C   UNL     1       2.241  -2.890   0.036  1.00  0.00     0.073 A 
ATOM     19  N   UNL     1       0.922  -4.625  -0.493  1.00  0.00    -0.061 NA
ATOM     20  C   UNL     1       3.497  -2.101   0.022  1.00  0.00     0.069 C 
BRANCH  16  21
ATOM     21  C   UNL     1       0.315  -1.315   0.698  1.00  0.00     0.181 C 
ATOM     22  C   UNL     1       0.678  -0.061  -0.056  1.00  0.00     0.095 C 
ATOM     23  O   UNL     1      -0.490  -1.263   1.627  1.00  0.00    -0.293 OA
ENDBRANCH  16  21
ENDBRANCH  10  15
ENDBRANCH   6   9
ENDBRANCH   4   5
ENDBRANCH   3   4
ENDBRANCH   2   3
ENDBRANCH   1   2
BRANCH   1  24
ATOM     24  C   UNL     1      11.444  -4.856   2.193  1.00  0.00     0.021 C 
BRANCH  24  25
ATOM     25  C   UNL     1      11.744  -5.253   3.630  1.00  0.00     0.116 C 
BRANCH  25  26
ATOM     26  N   UNL     1      13.121  -5.724   3.802  1.00  0.00    -0.352 N 
ATOM     27  C   UNL     1      13.733  -6.255   4.928  1.00  0.00     0.251 C 
ATOM     28  H   UNL     1      13.694  -5.653   3.004  1.00  0.00     0.163 HD
ATOM     29  O   UNL     1      14.946  -6.213   5.046  1.00  0.00    -0.269 OA
BRANCH  27  30
ATOM     30  C   UNL     1      12.887  -6.875   5.969  1.00  0.00     0.039 A 
ATOM     31  C   UNL     1      13.217  -6.848   7.327  1.00  0.00     0.014 A 
ATOM     32  C   UNL     1      11.720  -7.496   5.546  1.00  0.00     0.014 A 
ATOM     33  C   UNL     1      12.323  -7.412   8.240  1.00  0.00     0.010 A 
ATOM     34  C   UNL     1      10.743  -7.802   6.445  1.00  0.00     0.010 A 
ATOM     35  C   UNL     1      11.081  -7.883   7.782  1.00  0.00    -0.014 A 
BRANCH  35  36
ATOM     36  C   UNL     1      10.037  -8.368   8.673  1.00  0.00     0.031 A 
ATOM     37  C   UNL     1       9.619  -7.359   9.671  1.00  0.00     0.074 A 
ATOM     38  C   UNL     1       9.333  -9.501   8.442  1.00  0.00     0.049 A 
ATOM     39  N   UNL     1       9.937  -7.322  10.920  1.00  0.00    -0.248 NA
ATOM     40  C   UNL     1       8.970  -6.127   9.188  1.00  0.00     0.031 C 
ATOM     41  C   UNL     1       9.434 -10.423   7.302  1.00  0.00     0.029 A 
ATOM     42  N   UNL     1       8.287 -10.021   9.138  1.00  0.00    -0.354 N 
ATOM     43  C   UNL     1       9.263  -6.224  11.437  1.00  0.00     0.074 A 
ATOM     44  C   UNL     1       8.949  -5.397  10.305  1.00  0.00     0.031 C 
ATOM     45  C   UNL     1       8.357 -11.241   7.276  1.00  0.00     0.029 A 
ATOM     46  C   UNL     1       7.569 -11.018   8.476  1.00  0.00     0.049 A 
ATOM     47  H   UNL     1       8.053  -9.715  10.044  1.00  0.00     0.167 HD
ATOM     48  C   UNL     1       8.751  -6.260  12.699  1.00  0.00     0.034 A 
ATOM     49  C   UNL     1       6.406 -11.606   8.880  1.00  0.00     0.034 A 
ATOM     50  C   UNL     1       9.297  -7.386  13.436  1.00  0.00     0.049 A 
ATOM     51  C   UNL     1       6.322 -11.393  10.348  1.00  0.00     0.074 A 
ATOM     52  C   UNL     1      10.577  -7.806  13.749  1.00  0.00     0.029 A 
ATOM     53  N   UNL     1       8.498  -8.500  13.595  1.00  0.00    -0.354 N 
ATOM     54  N   UNL     1       7.170 -11.917  11.191  1.00  0.00    -0.248 NA
ATOM     55  C   UNL     1       5.644 -10.195  10.822  1.00  0.00     0.031 C 
ATOM     56  C   UNL     1      10.553  -9.222  13.565  1.00  0.00     0.029 A 
ATOM     57  C   UNL     1       9.244  -9.606  13.262  1.00  0.00     0.049 A 
ATOM     58  H   UNL     1       7.560  -8.503  13.894  1.00  0.00     0.167 HD
ATOM     59  C   UNL     1       7.470 -10.896  12.080  1.00  0.00     0.074 A 
ATOM     60  C   UNL     1       6.428  -9.890  11.861  1.00  0.00     0.031 C 
ATOM     61  C   UNL     1       8.692 -10.822  12.689  1.00  0.00     0.034 A 
BRANCH  48  62
ATOM     62  C   UNL     1       7.479  -5.561  13.137  1.00  0.00     0.023 A 
ATOM     63  C   UNL     1       7.089  -5.752  14.476  1.00  0.00     0.031 A 
ATOM     64  C   UNL     1       6.504  -4.975  12.297  1.00  0.00     0.131 A 
ATOM     65  C   UNL     1       5.771  -5.502  14.889  1.00  0.00     0.055 A 
ATOM     66  C   UNL     1       5.212  -4.664  12.732  1.00  0.00     0.041 A 
ATOM     67  F   UNL     1       6.697  -4.746  10.995  1.00  0.00    -0.206 F 
ATOM     68  C   UNL     1       4.825  -4.962  14.024  1.00  0.00     0.022 A 
BRANCH  65  69
ATOM     69  S   UNL     1       5.272  -6.080  16.529  1.00  0.00     0.124 S 
ATOM     70  O   UNL     1       5.636  -7.491  16.461  1.00  0.00    -0.237 OA
ATOM     71  O   UNL     1       6.090  -5.244  17.401  1.00  0.00    -0.237 OA
ATOM     72  O   UNL     1       3.838  -5.803  16.562  1.00  0.00    -0.744 OA
ENDBRANCH  65  69
ENDBRANCH  48  62
BRANCH  49  73
ATOM     73  C   UNL     1       5.241 -12.032   8.043  1.00  0.00     0.023 A 
ATOM     74  C   UNL     1       4.228 -12.910   8.500  1.00  0.00     0.031 A 
ATOM     75  C   UNL     1       4.978 -11.352   6.832  1.00  0.00     0.131 A 
ATOM     76  C   UNL     1       3.026 -13.069   7.761  1.00  0.00     0.055 A 
ATOM     77  C   UNL     1       3.790 -11.509   6.112  1.00  0.00     0.041 A 
ATOM     78  F   UNL     1       5.834 -10.437   6.350  1.00  0.00    -0.206 F 
ATOM     79  C   UNL     1       2.803 -12.360   6.579  1.00  0.00     0.022 A 
BRANCH  76  80
ATOM     80  S   UNL     1       1.677 -14.142   8.370  1.00  0.00     0.124 S 
ATOM     81  O   UNL     1       2.256 -15.474   8.242  1.00  0.00    -0.237 OA
ATOM     82  O   UNL     1       1.469 -13.650   9.727  1.00  0.00    -0.237 OA
ATOM     83  O   UNL     1       0.574 -13.864   7.447  1.00  0.00    -0.744 OA
ENDBRANCH  76  80
ENDBRANCH  49  73
BRANCH  61  84
ATOM     84  C   UNL     1       9.616 -12.027  12.605  1.00  0.00     0.023 A 
ATOM     85  C   UNL     1      10.080 -12.624  11.408  1.00  0.00     0.031 A 
ATOM     86  C   UNL     1      10.136 -12.518  13.816  1.00  0.00     0.131 A 
ATOM     87  C   UNL     1      11.017 -13.679  11.460  1.00  0.00     0.055 A 
ATOM     88  C   UNL     1      11.079 -13.543  13.862  1.00  0.00     0.041 A 
ATOM     89  F   UNL     1       9.756 -11.980  14.987  1.00  0.00    -0.206 F 
ATOM     90  C   UNL     1      11.519 -14.132  12.684  1.00  0.00     0.022 A 
BRANCH  87  91
ATOM     91  S   UNL     1      11.587 -14.505   9.936  1.00  0.00     0.124 S 
ATOM     92  O   UNL     1      10.352 -14.768   9.207  1.00  0.00    -0.237 OA
ATOM     93  O   UNL     1      12.476 -13.506   9.348  1.00  0.00    -0.237 OA
ATOM     94  O   UNL     1      12.268 -15.703  10.433  1.00  0.00    -0.744 OA
ENDBRANCH  87  91
ENDBRANCH  61  84
ENDBRANCH  35  36
ENDBRANCH  27  30
ENDBRANCH  25  26
ENDBRANCH  24  25
ENDBRANCH   1  24
TORSDOF 18
