REMARK SMILES Cc1cccc(C(=O)NCCCCCCNC(=O)c2ccc(-c3c4nc(c(-c5cc(S(=O)(=O)[O-])ccc5F)c5ccc([nH]5)c(-c5cc(S(=O)(=O)[O-])ccc5F)c5nc(c(-c6cc(S(=O)(=O)[O-])ccc6F)c6ccc3[nH]6)C=C5)C=C4)cc2)c1OC[C@@H]1C[C@H]2CC[C@@H]1C2
REMARK SMILES IDX 12 1 11 2 10 3 9 4 7 5 8 6 6 8 1 9 2 10 3 11 82 12 4 13 5 14
REMARK SMILES IDX 83 15 84 16 85 17 86 18 90 19 87 20 89 21 91 22 88 23 13 24
REMARK SMILES IDX 14 25 15 26 16 27 17 28 18 30 19 31 20 32 81 33 21 34 80 35
REMARK SMILES IDX 22 36 23 37 24 38 74 39 25 40 79 41 73 42 75 43 26 44 78 45
REMARK SMILES IDX 72 46 71 47 27 49 59 50 39 51 58 52 40 53 43 54 57 55 76 56
REMARK SMILES IDX 41 57 42 58 56 60 77 61 44 62 28 63 29 64 37 65 30 66 36 67
REMARK SMILES IDX 38 68 35 69 31 70 32 71 33 72 34 73 60 74 61 75 69 76 62 77
REMARK SMILES IDX 68 78 70 79 67 80 63 81 64 82 65 83 66 84 45 85 46 86 54 87
REMARK SMILES IDX 47 88 53 89 55 90 52 91 48 92 49 93 50 94 51 95
REMARK H PARENT 9 7 16 29 75 48 43 59
REMARK Flexibility Score: inf
ROOT
ATOM      1  C   UNL     1       0.188   6.230  -0.777  1.00  0.00     0.002 C 
ENDROOT
BRANCH   1   2
ATOM      2  C   UNL     1       0.642   4.768  -0.658  1.00  0.00     0.021 C 
BRANCH   2   3
ATOM      3  C   UNL     1       0.024   4.008   0.520  1.00  0.00     0.116 C 
BRANCH   3   4
ATOM      4  N   UNL     1      -1.252   3.457   0.145  1.00  0.00    -0.352 N 
ATOM      5  C   UNL     1      -1.679   2.189  -0.115  1.00  0.00     0.255 C 
ATOM      6  O   UNL     1      -2.874   2.079  -0.419  1.00  0.00    -0.269 OA
ATOM      7  H   UNL     1      -1.961   4.134   0.059  1.00  0.00     0.163 HD
BRANCH   5   8
ATOM      8  C   UNL     1      -0.882   0.923  -0.000  1.00  0.00     0.082 A 
ATOM      9  C   UNL     1       1.941  -1.126  -1.574  1.00  0.00     0.048 C 
ATOM     10  C   UNL     1       0.806  -0.694  -0.681  1.00  0.00    -0.008 A 
ATOM     11  C   UNL     1      -0.017  -1.738  -0.215  1.00  0.00     0.007 A 
ATOM     12  C   UNL     1       0.427   0.654  -0.468  1.00  0.00     0.134 A 
ATOM     13  C   UNL     1      -1.241  -1.473   0.374  1.00  0.00     0.001 A 
ATOM     14  C   UNL     1      -1.680  -0.158   0.444  1.00  0.00     0.018 A 
BRANCH  12  15
ATOM     15  O   UNL     1       1.245   1.687  -0.818  1.00  0.00    -0.492 OA
BRANCH  15  16
ATOM     16  C   UNL     1       2.588   1.761  -0.276  1.00  0.00     0.233 C 
BRANCH  16  17
ATOM     17  C   UNL     1       2.832   1.302   1.186  1.00  0.00     0.030 C 
ATOM     18  C   UNL     1       3.722   2.302   1.984  1.00  0.00     0.011 C 
ATOM     19  C   UNL     1       3.706   0.017   1.270  1.00  0.00    -0.004 C 
ATOM     20  C   UNL     1       4.920   1.453   2.450  1.00  0.00    -0.010 C 
ATOM     21  C   UNL     1       3.626  -0.554   2.697  1.00  0.00     0.004 C 
ATOM     22  C   UNL     1       5.138   0.556   1.239  1.00  0.00     0.007 C 
ATOM     23  C   UNL     1       4.453   0.446   3.513  1.00  0.00     0.004 C 
ENDBRANCH  16  17
ENDBRANCH  15  16
ENDBRANCH  12  15
ENDBRANCH   5   8
ENDBRANCH   3   4
ENDBRANCH   2   3
ENDBRANCH   1   2
BRANCH   1  24
ATOM     24  C   UNL     1       0.431   7.106   0.462  1.00  0.00     0.002 C 
BRANCH  24  25
ATOM     25  C   UNL     1       1.830   7.022   1.075  1.00  0.00     0.021 C 
BRANCH  25  26
ATOM     26  C   UNL     1       2.912   7.657   0.206  1.00  0.00     0.116 C 
BRANCH  26  27
ATOM     27  N   UNL     1       3.400   8.930   0.728  1.00  0.00    -0.352 N 
ATOM     28  C   UNL     1       4.389   9.755   0.220  1.00  0.00     0.251 C 
ATOM     29  H   UNL     1       2.967   9.244   1.554  1.00  0.00     0.163 HD
ATOM     30  O   UNL     1       4.725  10.780   0.787  1.00  0.00    -0.269 OA
BRANCH  28  31
ATOM     31  C   UNL     1       4.949   9.428  -1.112  1.00  0.00     0.039 A 
ATOM     32  C   UNL     1       4.791  10.386  -2.119  1.00  0.00     0.014 A 
ATOM     33  C   UNL     1       5.372   8.136  -1.415  1.00  0.00     0.014 A 
ATOM     34  C   UNL     1       4.826   9.981  -3.450  1.00  0.00     0.010 A 
ATOM     35  C   UNL     1       5.328   7.717  -2.732  1.00  0.00     0.010 A 
ATOM     36  C   UNL     1       4.983   8.624  -3.740  1.00  0.00    -0.014 A 
BRANCH  36  37
ATOM     37  C   UNL     1       4.612   8.061  -5.035  1.00  0.00     0.031 A 
ATOM     38  C   UNL     1       5.629   7.639  -6.014  1.00  0.00     0.074 A 
ATOM     39  C   UNL     1       3.307   7.944  -5.371  1.00  0.00     0.049 A 
ATOM     40  N   UNL     1       5.453   7.707  -7.292  1.00  0.00    -0.248 NA
ATOM     41  C   UNL     1       6.943   7.136  -5.634  1.00  0.00     0.031 C 
ATOM     42  C   UNL     1       2.751   7.250  -6.529  1.00  0.00     0.029 A 
ATOM     43  N   UNL     1       2.234   8.659  -4.845  1.00  0.00    -0.354 N 
ATOM     44  C   UNL     1       6.479   7.018  -7.886  1.00  0.00     0.074 A 
ATOM     45  C   UNL     1       7.420   6.744  -6.821  1.00  0.00     0.031 C 
ATOM     46  C   UNL     1       1.537   7.756  -6.792  1.00  0.00     0.029 A 
ATOM     47  C   UNL     1       1.319   8.873  -5.891  1.00  0.00     0.049 A 
ATOM     48  H   UNL     1       2.135   8.959  -3.913  1.00  0.00     0.167 HD
ATOM     49  C   UNL     1       6.380   6.625  -9.185  1.00  0.00     0.034 A 
ATOM     50  C   UNL     1       0.959  10.136  -6.259  1.00  0.00     0.034 A 
ATOM     51  C   UNL     1       5.111   7.003  -9.800  1.00  0.00     0.049 A 
ATOM     52  C   UNL     1       1.324  10.501  -7.687  1.00  0.00     0.074 A 
ATOM     53  C   UNL     1       3.949   6.319 -10.120  1.00  0.00     0.029 A 
ATOM     54  N   UNL     1       4.814   8.345  -9.957  1.00  0.00    -0.354 N 
ATOM     55  N   UNL     1       1.936   9.712  -8.528  1.00  0.00    -0.248 NA
ATOM     56  C   UNL     1       1.116  11.839  -8.241  1.00  0.00     0.031 C 
ATOM     57  C   UNL     1       2.958   7.271 -10.493  1.00  0.00     0.029 A 
ATOM     58  C   UNL     1       3.523   8.530 -10.414  1.00  0.00     0.049 A 
ATOM     59  H   UNL     1       5.444   9.077  -9.766  1.00  0.00     0.167 HD
ATOM     60  C   UNL     1       2.287  10.422  -9.652  1.00  0.00     0.074 A 
ATOM     61  C   UNL     1       1.740  11.748  -9.428  1.00  0.00     0.031 C 
ATOM     62  C   UNL     1       3.055   9.887 -10.649  1.00  0.00     0.034 A 
BRANCH  49  63
ATOM     63  C   UNL     1       7.355   5.665  -9.807  1.00  0.00     0.023 A 
ATOM     64  C   UNL     1       6.893   4.680 -10.700  1.00  0.00     0.031 A 
ATOM     65  C   UNL     1       8.738   5.661  -9.544  1.00  0.00     0.131 A 
ATOM     66  C   UNL     1       7.755   3.692 -11.204  1.00  0.00     0.055 A 
ATOM     67  C   UNL     1       9.589   4.646 -10.001  1.00  0.00     0.041 A 
ATOM     68  F   UNL     1       9.316   6.652  -8.846  1.00  0.00    -0.206 F 
ATOM     69  C   UNL     1       9.094   3.644 -10.825  1.00  0.00     0.022 A 
BRANCH  66  70
ATOM     70  S   UNL     1       7.094   2.466 -12.365  1.00  0.00     0.124 S 
ATOM     71  O   UNL     1       5.993   1.882 -11.607  1.00  0.00    -0.237 OA
ATOM     72  O   UNL     1       6.723   3.294 -13.508  1.00  0.00    -0.237 OA
ATOM     73  O   UNL     1       8.228   1.571 -12.593  1.00  0.00    -0.744 OA
ENDBRANCH  66  70
ENDBRANCH  49  63
BRANCH  50  74
ATOM     74  C   UNL     1       0.920  11.086  -5.109  1.00  0.00     0.023 A 
ATOM     75  C   UNL     1       0.022  10.809  -4.054  1.00  0.00     0.031 A 
ATOM     76  C   UNL     1       1.952  12.002  -4.867  1.00  0.00     0.131 A 
ATOM     77  C   UNL     1       0.248  11.338  -2.776  1.00  0.00     0.055 A 
ATOM     78  C   UNL     1       2.145  12.566  -3.601  1.00  0.00     0.041 A 
ATOM     79  F   UNL     1       2.863  12.274  -5.814  1.00  0.00    -0.206 F 
ATOM     80  C   UNL     1       1.317  12.204  -2.539  1.00  0.00     0.022 A 
BRANCH  77  81
ATOM     81  S   UNL     1      -0.710  10.706  -1.367  1.00  0.00     0.124 S 
ATOM     82  O   UNL     1      -1.796  11.675  -1.276  1.00  0.00    -0.237 OA
ATOM     83  O   UNL     1      -1.089   9.365  -1.804  1.00  0.00    -0.237 OA
ATOM     84  O   UNL     1       0.255  10.735  -0.269  1.00  0.00    -0.744 OA
ENDBRANCH  77  81
ENDBRANCH  50  74
BRANCH  62  85
ATOM     85  C   UNL     1       3.479  10.615 -11.910  1.00  0.00     0.023 A 
ATOM     86  C   UNL     1       2.703  11.623 -12.504  1.00  0.00     0.031 A 
ATOM     87  C   UNL     1       4.663  10.265 -12.608  1.00  0.00     0.131 A 
ATOM     88  C   UNL     1       3.149  12.299 -13.657  1.00  0.00     0.055 A 
ATOM     89  C   UNL     1       5.067  10.889 -13.791  1.00  0.00     0.041 A 
ATOM     90  F   UNL     1       5.499   9.318 -12.162  1.00  0.00    -0.206 F 
ATOM     91  C   UNL     1       4.319  11.928 -14.314  1.00  0.00     0.022 A 
BRANCH  88  92
ATOM     92  S   UNL     1       2.195  13.719 -14.254  1.00  0.00     0.124 S 
ATOM     93  O   UNL     1       0.861  13.154 -14.425  1.00  0.00    -0.237 OA
ATOM     94  O   UNL     1       2.348  14.664 -13.151  1.00  0.00    -0.237 OA
ATOM     95  O   UNL     1       2.874  14.097 -15.492  1.00  0.00    -0.744 OA
ENDBRANCH  88  92
ENDBRANCH  62  85
ENDBRANCH  36  37
ENDBRANCH  28  31
ENDBRANCH  26  27
ENDBRANCH  25  26
ENDBRANCH  24  25
ENDBRANCH   1  24
TORSDOF 19
