REMARK SMILES Cc1n[nH]c(C)c1C(=O)N1CC(n2cc(C(=O)NCCCCCCNC(=O)c3ccc(-c4c5nc(c(-c6cc(S(=O)(=O)[O-])ccc6F)c6ccc([nH]6)c(-c6cc(S(=O)(=O)[O-])ccc6F)c6nc(c(-c7cc(S(=O)(=O)[O-])ccc7F)c7ccc4[nH]7)C=C6)C=C5)cc3)nn2)C1
REMARK SMILES IDX 22 1 21 2 20 3 19 4 18 5 16 6 17 7 15 9 13 10 14 11 92 12
REMARK SMILES IDX 91 13 12 14 8 15 9 16 10 17 11 18 93 19 7 20 1 21 2 22 3 23
REMARK SMILES IDX 4 24 5 25 6 27 23 28 24 29 25 30 26 31 27 33 28 34 29 35
REMARK SMILES IDX 90 36 30 37 89 38 31 39 32 40 33 41 83 42 34 43 88 44 82 45
REMARK SMILES IDX 84 46 35 47 87 48 81 49 80 50 36 52 68 53 48 54 67 55 49 56
REMARK SMILES IDX 52 57 66 58 85 59 50 60 51 61 65 63 86 64 53 65 37 66 38 67
REMARK SMILES IDX 46 68 39 69 45 70 47 71 44 72 40 73 41 74 42 75 43 76 69 77
REMARK SMILES IDX 70 78 78 79 71 80 77 81 79 82 76 83 72 84 73 85 74 86 75 87
REMARK SMILES IDX 54 88 55 89 63 90 56 91 62 92 64 93 61 94 57 95 58 96 59 97
REMARK SMILES IDX 60 98
REMARK H PARENT 18 8 4 26 25 32 84 51 52 62
REMARK Flexibility Score: inf
ROOT
ATOM      1  C   UNL     1       7.831  -6.184   6.404  1.00  0.00     0.002 C 
ENDROOT
BRANCH   1   2
ATOM      2  C   UNL     1       7.092  -7.290   5.637  1.00  0.00     0.002 C 
BRANCH   2   3
ATOM      3  C   UNL     1       5.987  -6.825   4.681  1.00  0.00     0.021 C 
BRANCH   3   4
ATOM      4  C   UNL     1       6.464  -5.885   3.577  1.00  0.00     0.116 C 
BRANCH   4   5
ATOM      5  N   UNL     1       7.208  -6.594   2.551  1.00  0.00    -0.351 N 
ATOM      6  C   UNL     1       7.053  -6.591   1.183  1.00  0.00     0.273 C 
ATOM      7  O   UNL     1       7.954  -7.073   0.500  1.00  0.00    -0.267 OA
ATOM      8  H   UNL     1       7.937  -7.165   2.886  1.00  0.00     0.163 HD
BRANCH   6   9
ATOM      9  C   UNL     1       5.868  -5.987   0.590  1.00  0.00     0.170 A 
ATOM     10  N   UNL     1       3.887  -5.242   0.118  1.00  0.00    -0.245 N 
ATOM     11  C   UNL     1       4.544  -6.073   0.980  1.00  0.00     0.145 A 
ATOM     12  N   UNL     1       4.727  -4.732  -0.799  1.00  0.00    -0.066 NA
ATOM     13  N   UNL     1       5.938  -5.205  -0.539  1.00  0.00    -0.125 NA
BRANCH  10  14
ATOM     14  C   UNL     1       2.520  -4.838   0.281  1.00  0.00     0.148 C 
ATOM     15  C   UNL     1       0.293  -2.530  -0.569  1.00  0.00     0.257 C 
ATOM     16  O   UNL     1      -0.697  -3.076  -1.051  1.00  0.00    -0.269 OA
ATOM     17  N   UNL     1       1.486  -3.208  -0.479  1.00  0.00    -0.334 N 
ATOM     18  C   UNL     1       1.801  -4.515  -1.038  1.00  0.00     0.149 C 
ATOM     19  C   UNL     1       2.435  -3.328   0.609  1.00  0.00     0.149 C 
BRANCH  15  20
ATOM     20  C   UNL     1       0.247  -1.133  -0.132  1.00  0.00     0.083 A 
ATOM     21  C   UNL     1      -2.358  -0.849   0.086  1.00  0.00     0.069 C 
ATOM     22  C   UNL     1      -0.947  -0.382   0.127  1.00  0.00     0.072 A 
ATOM     23  N   UNL     1      -0.688   0.897   0.425  1.00  0.00    -0.180 NA
ATOM     24  N   UNL     1       0.640   0.984   0.338  1.00  0.00    -0.282 N 
ATOM     25  C   UNL     1       1.260  -0.189   0.007  1.00  0.00     0.045 A 
ATOM     26  H   UNL     1       1.131   1.822   0.499  1.00  0.00     0.190 HD
ATOM     27  C   UNL     1       2.729  -0.211  -0.182  1.00  0.00     0.067 C 
ENDBRANCH  15  20
ENDBRANCH  10  14
ENDBRANCH   6   9
ENDBRANCH   4   5
ENDBRANCH   3   4
ENDBRANCH   2   3
ENDBRANCH   1   2
BRANCH   1  28
ATOM     28  C   UNL     1       6.954  -5.166   7.146  1.00  0.00     0.021 C 
BRANCH  28  29
ATOM     29  C   UNL     1       6.109  -5.753   8.275  1.00  0.00     0.116 C 
BRANCH  29  30
ATOM     30  N   UNL     1       6.931  -6.273   9.358  1.00  0.00    -0.352 N 
ATOM     31  C   UNL     1       6.580  -7.144  10.365  1.00  0.00     0.251 C 
ATOM     32  H   UNL     1       7.864  -5.959   9.373  1.00  0.00     0.163 HD
ATOM     33  O   UNL     1       7.288  -7.235  11.364  1.00  0.00    -0.269 OA
BRANCH  31  34
ATOM     34  C   UNL     1       5.333  -7.928  10.255  1.00  0.00     0.039 A 
ATOM     35  C   UNL     1       4.432  -7.941  11.320  1.00  0.00     0.014 A 
ATOM     36  C   UNL     1       5.050  -8.640   9.091  1.00  0.00     0.014 A 
ATOM     37  C   UNL     1       3.206  -8.596  11.175  1.00  0.00     0.010 A 
ATOM     38  C   UNL     1       3.803  -9.236   8.926  1.00  0.00     0.010 A 
ATOM     39  C   UNL     1       2.864  -9.224   9.964  1.00  0.00    -0.014 A 
BRANCH  39  40
ATOM     40  C   UNL     1       1.493  -9.750   9.791  1.00  0.00     0.031 A 
ATOM     41  C   UNL     1       0.351  -8.853  10.161  1.00  0.00     0.074 A 
ATOM     42  C   UNL     1       1.137 -10.867   9.119  1.00  0.00     0.049 A 
ATOM     43  N   UNL     1      -0.622  -9.095  10.979  1.00  0.00    -0.248 NA
ATOM     44  C   UNL     1       0.275  -7.529   9.527  1.00  0.00     0.031 C 
ATOM     45  C   UNL     1       1.991 -11.776   8.355  1.00  0.00     0.029 A 
ATOM     46  N   UNL     1      -0.126 -11.347   8.871  1.00  0.00    -0.354 N 
ATOM     47  C   UNL     1      -1.536  -8.053  10.835  1.00  0.00     0.074 A 
ATOM     48  C   UNL     1      -0.888  -7.072   9.999  1.00  0.00     0.031 C 
ATOM     49  C   UNL     1       1.221 -12.522   7.536  1.00  0.00     0.029 A 
ATOM     50  C   UNL     1      -0.178 -12.258   7.829  1.00  0.00     0.049 A 
ATOM     51  H   UNL     1      -0.919 -11.069   9.384  1.00  0.00     0.167 HD
ATOM     52  C   UNL     1      -2.819  -8.135  11.292  1.00  0.00     0.034 A 
ATOM     53  C   UNL     1      -1.274 -12.756   7.207  1.00  0.00     0.034 A 
ATOM     54  C   UNL     1      -2.993  -9.211  12.238  1.00  0.00     0.049 A 
ATOM     55  C   UNL     1      -2.422 -12.662   8.134  1.00  0.00     0.074 A 
ATOM     56  C   UNL     1      -2.367  -9.597  13.409  1.00  0.00     0.029 A 
ATOM     57  N   UNL     1      -3.801 -10.272  11.905  1.00  0.00    -0.354 N 
ATOM     58  N   UNL     1      -2.533 -13.360   9.229  1.00  0.00    -0.248 NA
ATOM     59  C   UNL     1      -3.364 -11.560   8.007  1.00  0.00     0.031 C 
ATOM     60  C   UNL     1      -2.439 -11.021  13.422  1.00  0.00     0.029 A 
ATOM     61  C   UNL     1      -3.115 -11.405  12.265  1.00  0.00     0.049 A 
ATOM     62  H   UNL     1      -4.694 -10.228  11.491  1.00  0.00     0.167 HD
ATOM     63  C   UNL     1      -3.250 -12.557  10.095  1.00  0.00     0.074 A 
ATOM     64  C   UNL     1      -3.870 -11.550   9.242  1.00  0.00     0.031 C 
ATOM     65  C   UNL     1      -3.027 -12.594  11.442  1.00  0.00     0.034 A 
BRANCH  52  66
ATOM     66  C   UNL     1      -4.012  -7.397  10.718  1.00  0.00     0.023 A 
ATOM     67  C   UNL     1      -5.236  -7.470  11.417  1.00  0.00     0.031 A 
ATOM     68  C   UNL     1      -4.084  -6.871   9.411  1.00  0.00     0.131 A 
ATOM     69  C   UNL     1      -6.449  -7.107  10.805  1.00  0.00     0.055 A 
ATOM     70  C   UNL     1      -5.283  -6.430   8.835  1.00  0.00     0.041 A 
ATOM     71  F   UNL     1      -3.023  -6.845   8.594  1.00  0.00    -0.206 F 
ATOM     72  C   UNL     1      -6.479  -6.571   9.521  1.00  0.00     0.022 A 
BRANCH  69  73
ATOM     73  S   UNL     1      -8.002  -7.551  11.633  1.00  0.00     0.124 S 
ATOM     74  O   UNL     1      -7.760  -8.945  11.990  1.00  0.00    -0.237 OA
ATOM     75  O   UNL     1      -8.034  -6.599  12.739  1.00  0.00    -0.237 OA
ATOM     76  O   UNL     1      -9.010  -7.340  10.597  1.00  0.00    -0.744 OA
ENDBRANCH  69  73
ENDBRANCH  52  66
BRANCH  53  77
ATOM     77  C   UNL     1      -1.388 -13.227   5.807  1.00  0.00     0.023 A 
ATOM     78  C   UNL     1      -2.415 -14.094   5.393  1.00  0.00     0.031 A 
ATOM     79  C   UNL     1      -0.584 -12.659   4.792  1.00  0.00     0.131 A 
ATOM     80  C   UNL     1      -2.589 -14.383   4.024  1.00  0.00     0.055 A 
ATOM     81  C   UNL     1      -0.741 -12.971   3.442  1.00  0.00     0.041 A 
ATOM     82  F   UNL     1       0.331 -11.716   5.074  1.00  0.00    -0.206 F 
ATOM     83  C   UNL     1      -1.750 -13.835   3.051  1.00  0.00     0.022 A 
BRANCH  80  84
ATOM     84  S   UNL     1      -4.013 -15.369   3.470  1.00  0.00     0.124 S 
ATOM     85  O   UNL     1      -3.536 -16.733   3.664  1.00  0.00    -0.237 OA
ATOM     86  O   UNL     1      -5.080 -14.921   4.358  1.00  0.00    -0.237 OA
ATOM     87  O   UNL     1      -4.174 -14.962   2.074  1.00  0.00    -0.744 OA
ENDBRANCH  80  84
ENDBRANCH  53  77
BRANCH  65  88
ATOM     88  C   UNL     1      -2.337 -13.799  12.043  1.00  0.00     0.023 A 
ATOM     89  C   UNL     1      -1.094 -14.303  11.605  1.00  0.00     0.031 A 
ATOM     90  C   UNL     1      -2.913 -14.389  13.183  1.00  0.00     0.131 A 
ATOM     91  C   UNL     1      -0.484 -15.371  12.286  1.00  0.00     0.055 A 
ATOM     92  C   UNL     1      -2.297 -15.437  13.868  1.00  0.00     0.041 A 
ATOM     93  F   UNL     1      -4.078 -13.933  13.673  1.00  0.00    -0.206 F 
ATOM     94  C   UNL     1      -1.082 -15.939  13.415  1.00  0.00     0.022 A 
BRANCH  91  95
ATOM     95  S   UNL     1       1.093 -16.058  11.693  1.00  0.00     0.124 S 
ATOM     96  O   UNL     1       0.939 -16.086  10.244  1.00  0.00    -0.237 OA
ATOM     97  O   UNL     1       2.064 -15.099  12.213  1.00  0.00    -0.237 OA
ATOM     98  O   UNL     1       1.143 -17.377  12.326  1.00  0.00    -0.744 OA
ENDBRANCH  91  95
ENDBRANCH  65  88
ENDBRANCH  39  40
ENDBRANCH  31  34
ENDBRANCH  29  30
ENDBRANCH  28  29
ENDBRANCH   1  28
TORSDOF 18
