REMARK SMILES CS(=O)(=O)c1ccc(/C=C(/C(=O)NCCCCCCNC(=O)c2ccc(-c3c4nc(c(-c5cc(S(=O)(=O)[O-])ccc5F)c5ccc([nH]5)c(-c5cc(S(=O)(=O)[O-])ccc5F)c5nc(c(-c6cc(S(=O)(=O)[O-])ccc6F)c6ccc3[nH]6)C=C5)C=C4)cc2)c2ccc(O)cc2)cc1
REMARK SMILES IDX 17 1 16 2 15 3 14 4 13 5 11 6 12 7 10 9 9 10 8 11 5 12 6 13
REMARK SMILES IDX 94 14 7 15 93 16 2 17 1 18 3 19 4 20 86 21 87 22 92 23 88 24
REMARK SMILES IDX 91 25 89 26 90 27 18 29 19 30 20 31 21 32 22 34 23 35 24 36
REMARK SMILES IDX 85 37 25 38 84 39 26 40 27 41 28 42 78 43 29 44 83 45 77 46
REMARK SMILES IDX 79 47 30 48 82 49 76 50 75 51 31 53 63 54 43 55 62 56 44 57
REMARK SMILES IDX 47 58 61 59 80 60 45 61 46 62 60 64 81 65 48 66 32 67 33 68
REMARK SMILES IDX 41 69 34 70 40 71 42 72 39 73 35 74 36 75 37 76 38 77 64 78
REMARK SMILES IDX 65 79 73 80 66 81 72 82 74 83 71 84 67 85 68 86 69 87 70 88
REMARK SMILES IDX 49 89 50 90 58 91 51 92 57 93 59 94 56 95 52 96 53 97 54 98
REMARK SMILES IDX 55 99
REMARK H PARENT 13 8 90 28 20 33 79 52 47 63
REMARK Flexibility Score: inf
ROOT
ATOM      1  C   UNL     1       1.717  12.371  -0.857  1.00  0.00     0.002 C 
ENDROOT
BRANCH   1   2
ATOM      2  C   UNL     1       1.079  11.549   0.270  1.00  0.00     0.002 C 
BRANCH   2   3
ATOM      3  C   UNL     1       0.915  10.049  -0.030  1.00  0.00     0.021 C 
BRANCH   3   4
ATOM      4  C   UNL     1       2.242   9.326  -0.286  1.00  0.00     0.116 C 
BRANCH   4   5
ATOM      5  N   UNL     1       2.990   9.228   0.952  1.00  0.00    -0.352 N 
ATOM      6  C   UNL     1       3.226   8.234   1.847  1.00  0.00     0.251 C 
ATOM      7  O   UNL     1       3.849   8.562   2.861  1.00  0.00    -0.269 OA
ATOM      8  H   UNL     1       3.426  10.075   1.201  1.00  0.00     0.163 HD
BRANCH   6   9
ATOM      9  C   UNL     1       2.862   6.785   1.611  1.00  0.00     0.047 C 
ATOM     10  C   UNL     1       1.750   6.416   0.935  1.00  0.00     0.022 C 
BRANCH  10  11
ATOM     11  C   UNL     1       1.323   5.069   0.495  1.00  0.00    -0.025 A 
ATOM     12  C   UNL     1       0.610   2.549  -0.535  1.00  0.00     0.067 A 
ATOM     13  C   UNL     1       1.012   2.668   0.794  1.00  0.00     0.021 A 
ATOM     14  C   UNL     1       0.524   3.683  -1.346  1.00  0.00     0.021 A 
ATOM     15  C   UNL     1       1.342   3.929   1.308  1.00  0.00     0.009 A 
ATOM     16  C   UNL     1       0.877   4.933  -0.830  1.00  0.00     0.009 A 
BRANCH  12  17
ATOM     17  S   UNL     1       0.225   0.981  -1.276  1.00  0.00     0.175 S 
ATOM     18  C   UNL     1       0.814  -0.280  -0.184  1.00  0.00     0.163 C 
ATOM     19  O   UNL     1       1.020   0.889  -2.485  1.00  0.00    -0.224 OA
ATOM     20  O   UNL     1      -1.223   0.886  -1.312  1.00  0.00    -0.224 OA
ENDBRANCH  12  17
ENDBRANCH  10  11
BRANCH   9  21
ATOM     21  C   UNL     1       3.699   5.774   2.307  1.00  0.00    -0.013 A 
ATOM     22  C   UNL     1       3.641   5.712   3.712  1.00  0.00     0.013 A 
ATOM     23  C   UNL     1       4.484   4.839   1.620  1.00  0.00     0.013 A 
ATOM     24  C   UNL     1       4.323   4.719   4.412  1.00  0.00     0.047 A 
ATOM     25  C   UNL     1       5.157   3.833   2.323  1.00  0.00     0.047 A 
ATOM     26  C   UNL     1       5.061   3.777   3.712  1.00  0.00     0.115 A 
BRANCH  26  27
ATOM     27  O   UNL     1       5.672   2.793   4.431  1.00  0.00    -0.508 OA
ATOM     28  H   UNL     1       5.592   2.777   5.365  1.00  0.00     0.293 HD
ENDBRANCH  26  27
ENDBRANCH   9  21
ENDBRANCH   6   9
ENDBRANCH   4   5
ENDBRANCH   3   4
ENDBRANCH   2   3
ENDBRANCH   1   2
BRANCH   1  29
ATOM     29  C   UNL     1       1.032  12.240  -2.219  1.00  0.00     0.021 C 
BRANCH  29  30
ATOM     30  C   UNL     1      -0.426  12.687  -2.236  1.00  0.00     0.116 C 
BRANCH  30  31
ATOM     31  N   UNL     1      -0.553  14.121  -2.034  1.00  0.00    -0.352 N 
ATOM     32  C   UNL     1      -1.213  15.042  -2.812  1.00  0.00     0.251 C 
ATOM     33  H   UNL     1      -0.107  14.481  -1.233  1.00  0.00     0.163 HD
ATOM     34  O   UNL     1      -1.041  16.242  -2.622  1.00  0.00    -0.269 OA
BRANCH  32  35
ATOM     35  C   UNL     1      -2.112  14.573  -3.888  1.00  0.00     0.039 A 
ATOM     36  C   UNL     1      -2.011  15.143  -5.160  1.00  0.00     0.014 A 
ATOM     37  C   UNL     1      -3.047  13.564  -3.639  1.00  0.00     0.014 A 
ATOM     38  C   UNL     1      -2.810  14.660  -6.199  1.00  0.00     0.010 A 
ATOM     39  C   UNL     1      -3.797  13.043  -4.689  1.00  0.00     0.010 A 
ATOM     40  C   UNL     1      -3.688  13.587  -5.979  1.00  0.00    -0.014 A 
BRANCH  40  41
ATOM     41  C   UNL     1      -4.526  13.026  -7.071  1.00  0.00     0.031 A 
ATOM     42  C   UNL     1      -6.024  13.135  -6.988  1.00  0.00     0.074 A 
ATOM     43  C   UNL     1      -3.949  12.352  -8.084  1.00  0.00     0.049 A 
ATOM     44  N   UNL     1      -6.939  12.593  -7.750  1.00  0.00    -0.248 NA
ATOM     45  C   UNL     1      -6.559  13.934  -5.876  1.00  0.00     0.031 C 
ATOM     46  C   UNL     1      -2.507  12.161  -8.260  1.00  0.00     0.029 A 
ATOM     47  N   UNL     1      -4.504  11.685  -9.147  1.00  0.00    -0.354 N 
ATOM     48  C   UNL     1      -8.160  12.969  -7.199  1.00  0.00     0.074 A 
ATOM     49  C   UNL     1      -7.862  13.736  -6.007  1.00  0.00     0.031 C 
ATOM     50  C   UNL     1      -2.293  11.437  -9.370  1.00  0.00     0.029 A 
ATOM     51  C   UNL     1      -3.579  11.069  -9.958  1.00  0.00     0.049 A 
ATOM     52  H   UNL     1      -5.473  11.650  -9.314  1.00  0.00     0.167 HD
ATOM     53  C   UNL     1      -9.411  12.714  -7.655  1.00  0.00     0.034 A 
ATOM     54  C   UNL     1      -3.748  10.281 -11.038  1.00  0.00     0.034 A 
ATOM     55  C   UNL     1      -9.687  11.960  -8.854  1.00  0.00     0.049 A 
ATOM     56  C   UNL     1      -5.148   9.982 -11.511  1.00  0.00     0.074 A 
ATOM     57  C   UNL     1     -10.911  11.679  -9.435  1.00  0.00     0.029 A 
ATOM     58  N   UNL     1      -8.723  11.359  -9.653  1.00  0.00    -0.354 N 
ATOM     59  N   UNL     1      -6.293  10.368 -10.997  1.00  0.00    -0.248 NA
ATOM     60  C   UNL     1      -5.279   9.148 -12.713  1.00  0.00     0.031 C 
ATOM     61  C   UNL     1     -10.692  10.861 -10.549  1.00  0.00     0.029 A 
ATOM     62  C   UNL     1      -9.326  10.689 -10.706  1.00  0.00     0.049 A 
ATOM     63  H   UNL     1      -7.752  11.402  -9.495  1.00  0.00     0.167 HD
ATOM     64  C   UNL     1      -7.278   9.852 -11.835  1.00  0.00     0.074 A 
ATOM     65  C   UNL     1      -6.593   9.131 -12.887  1.00  0.00     0.031 C 
ATOM     66  C   UNL     1      -8.627   9.973 -11.747  1.00  0.00     0.034 A 
BRANCH  53  67
ATOM     67  C   UNL     1     -10.567  13.235  -6.834  1.00  0.00     0.023 A 
ATOM     68  C   UNL     1     -10.758  14.611  -6.619  1.00  0.00     0.031 A 
ATOM     69  C   UNL     1     -11.465  12.344  -6.220  1.00  0.00     0.131 A 
ATOM     70  C   UNL     1     -11.762  15.052  -5.744  1.00  0.00     0.055 A 
ATOM     71  C   UNL     1     -12.518  12.793  -5.420  1.00  0.00     0.041 A 
ATOM     72  F   UNL     1     -11.323  11.017  -6.372  1.00  0.00    -0.206 F 
ATOM     73  C   UNL     1     -12.660  14.154  -5.163  1.00  0.00     0.022 A 
BRANCH  70  74
ATOM     74  S   UNL     1     -11.775  16.797  -5.253  1.00  0.00     0.124 S 
ATOM     75  O   UNL     1     -10.449  16.945  -4.658  1.00  0.00    -0.237 OA
ATOM     76  O   UNL     1     -11.985  17.481  -6.524  1.00  0.00    -0.237 OA
ATOM     77  O   UNL     1     -12.886  16.880  -4.308  1.00  0.00    -0.744 OA
ENDBRANCH  70  74
ENDBRANCH  53  67
BRANCH  54  78
ATOM     78  C   UNL     1      -2.567   9.705 -11.742  1.00  0.00     0.023 A 
ATOM     79  C   UNL     1      -2.254  10.088 -13.056  1.00  0.00     0.031 A 
ATOM     80  C   UNL     1      -1.753   8.740 -11.124  1.00  0.00     0.131 A 
ATOM     81  C   UNL     1      -1.181   9.480 -13.725  1.00  0.00     0.055 A 
ATOM     82  C   UNL     1      -0.657   8.172 -11.777  1.00  0.00     0.041 A 
ATOM     83  F   UNL     1      -2.005   8.344  -9.866  1.00  0.00    -0.206 F 
ATOM     84  C   UNL     1      -0.373   8.533 -13.090  1.00  0.00     0.022 A 
BRANCH  81  85
ATOM     85  S   UNL     1      -0.898   9.893 -15.468  1.00  0.00     0.124 S 
ATOM     86  O   UNL     1      -2.167   9.508 -16.074  1.00  0.00    -0.237 OA
ATOM     87  O   UNL     1      -0.627  11.325 -15.399  1.00  0.00    -0.237 OA
ATOM     88  O   UNL     1       0.247   9.062 -15.833  1.00  0.00    -0.744 OA
ENDBRANCH  81  85
ENDBRANCH  54  78
BRANCH  66  89
ATOM     89  C   UNL     1      -9.445   9.361 -12.856  1.00  0.00     0.023 A 
ATOM     90  C   UNL     1      -9.560   7.969 -13.015  1.00  0.00     0.031 A 
ATOM     91  C   UNL     1     -10.129  10.192 -13.762  1.00  0.00     0.131 A 
ATOM     92  C   UNL     1     -10.309   7.449 -14.081  1.00  0.00     0.055 A 
ATOM     93  C   UNL     1     -10.914   9.669 -14.789  1.00  0.00     0.041 A 
ATOM     94  F   UNL     1     -10.052  11.528 -13.654  1.00  0.00    -0.206 F 
ATOM     95  C   UNL     1     -11.000   8.290 -14.959  1.00  0.00     0.022 A 
BRANCH  92  96
ATOM     96  S   UNL     1     -10.323   5.655 -14.347  1.00  0.00     0.124 S 
ATOM     97  O   UNL     1      -8.911   5.374 -14.587  1.00  0.00    -0.237 OA
ATOM     98  O   UNL     1     -10.867   5.156 -13.089  1.00  0.00    -0.237 OA
ATOM     99  O   UNL     1     -11.195   5.486 -15.508  1.00  0.00    -0.744 OA
ENDBRANCH  92  96
ENDBRANCH  66  89
ENDBRANCH  40  41
ENDBRANCH  32  35
ENDBRANCH  30  31
ENDBRANCH  29  30
ENDBRANCH   1  29
TORSDOF 20
