REMARK SMILES CC(C)C[C@@H](C(=O)NCCCCCCNC(=O)c1ccc(-c2c3nc(c(-c4cc(S(=O)(=O)[O-])ccc4F)c4ccc([nH]4)c(-c4cc(S(=O)(=O)[O-])ccc4F)c4nc(c(-c5cc(S(=O)(=O)[O-])ccc5F)c5ccc2[nH]5)C=C4)C=C3)cc1)[C@@H]1CCC[C@@H](C)C1
REMARK SMILES IDX 12 1 11 2 10 3 9 4 8 5 6 6 7 7 5 9 4 10 2 11 1 12 3 13 81 14
REMARK SMILES IDX 82 15 87 16 83 17 85 18 84 19 86 20 13 21 14 22 15 23 16 24
REMARK SMILES IDX 17 26 18 27 19 28 80 29 20 30 79 31 21 32 22 33 23 34 73 35
REMARK SMILES IDX 24 36 78 37 72 38 74 39 25 40 77 41 71 42 70 43 26 45 58 46
REMARK SMILES IDX 38 47 57 48 39 49 42 50 56 51 75 52 40 53 41 54 55 56 76 57
REMARK SMILES IDX 43 58 27 59 28 60 36 61 29 62 35 63 37 64 34 65 30 66 31 67
REMARK SMILES IDX 32 68 33 69 59 70 60 71 68 72 61 73 67 74 69 75 66 76 62 77
REMARK SMILES IDX 63 78 64 79 65 80 44 81 45 82 53 83 46 84 52 85 54 86 51 87
REMARK SMILES IDX 47 88 48 89 49 90 50 91
REMARK H PARENT 8 8 15 25 74 44 42 55
REMARK Flexibility Score: inf
ROOT
ATOM      1  C   UNL     1      -0.053   7.523   1.635  1.00  0.00     0.002 C 
ENDROOT
BRANCH   1   2
ATOM      2  C   UNL     1      -0.644   6.229   2.211  1.00  0.00     0.002 C 
BRANCH   2   3
ATOM      3  C   UNL     1      -1.119   5.202   1.182  1.00  0.00     0.021 C 
BRANCH   3   4
ATOM      4  C   UNL     1      -0.042   4.782   0.183  1.00  0.00     0.116 C 
BRANCH   4   5
ATOM      5  N   UNL     1       0.374   3.411   0.365  1.00  0.00    -0.356 N 
ATOM      6  C   UNL     1       0.575   2.399  -0.511  1.00  0.00     0.223 C 
ATOM      7  O   UNL     1       1.109   1.384  -0.045  1.00  0.00    -0.275 OA
ATOM      8  H   UNL     1       0.543   3.166   1.304  1.00  0.00     0.163 HD
BRANCH   6   9
ATOM      9  C   UNL     1       0.183   2.433  -1.999  1.00  0.00     0.082 C 
BRANCH   9  10
ATOM     10  C   UNL     1       1.187   3.138  -2.951  1.00  0.00     0.016 C 
BRANCH  10  11
ATOM     11  C   UNL     1       1.420   4.657  -2.884  1.00  0.00    -0.017 C 
ATOM     12  C   UNL     1       2.626   5.017  -2.012  1.00  0.00     0.007 C 
ATOM     13  C   UNL     1       1.634   5.243  -4.285  1.00  0.00     0.007 C 
ENDBRANCH  10  11
ENDBRANCH   9  10
BRANCH   9  14
ATOM     14  C   UNL     1      -1.356   2.330  -2.301  1.00  0.00     0.002 C 
ATOM     15  C   UNL     1      -1.684   1.844  -3.733  1.00  0.00     0.004 C 
ATOM     16  C   UNL     1      -2.309   3.475  -1.938  1.00  0.00     0.007 C 
ATOM     17  C   UNL     1      -1.838   2.950  -4.778  1.00  0.00     0.001 C 
ATOM     18  C   UNL     1      -2.318   4.620  -2.951  1.00  0.00    -0.014 C 
ATOM     19  C   UNL     1      -2.744   4.091  -4.321  1.00  0.00     0.003 C 
ATOM     20  C   UNL     1      -3.212   5.766  -2.485  1.00  0.00     0.007 C 
ENDBRANCH   9  14
ENDBRANCH   6   9
ENDBRANCH   4   5
ENDBRANCH   3   4
ENDBRANCH   2   3
ENDBRANCH   1   2
BRANCH   1  21
ATOM     21  C   UNL     1      -0.915   8.256   0.603  1.00  0.00     0.021 C 
BRANCH  21  22
ATOM     22  C   UNL     1      -2.331   8.601   1.059  1.00  0.00     0.116 C 
BRANCH  22  23
ATOM     23  N   UNL     1      -2.338   9.345   2.306  1.00  0.00    -0.352 N 
ATOM     24  C   UNL     1      -2.848  10.584   2.596  1.00  0.00     0.251 C 
ATOM     25  H   UNL     1      -1.909   8.886   3.064  1.00  0.00     0.163 HD
ATOM     26  O   UNL     1      -2.557  11.120   3.661  1.00  0.00    -0.269 OA
BRANCH  24  27
ATOM     27  C   UNL     1      -3.727  11.278   1.630  1.00  0.00     0.039 A 
ATOM     28  C   UNL     1      -3.548  12.649   1.423  1.00  0.00     0.014 A 
ATOM     29  C   UNL     1      -4.750  10.598   0.963  1.00  0.00     0.014 A 
ATOM     30  C   UNL     1      -4.360  13.326   0.510  1.00  0.00     0.010 A 
ATOM     31  C   UNL     1      -5.516  11.260   0.005  1.00  0.00     0.010 A 
ATOM     32  C   UNL     1      -5.332  12.632  -0.227  1.00  0.00    -0.014 A 
BRANCH  32  33
ATOM     33  C   UNL     1      -6.172  13.326  -1.237  1.00  0.00     0.031 A 
ATOM     34  C   UNL     1      -7.658  13.443  -1.031  1.00  0.00     0.074 A 
ATOM     35  C   UNL     1      -5.604  13.801  -2.363  1.00  0.00     0.049 A 
ATOM     36  N   UNL     1      -8.569  13.935  -1.831  1.00  0.00    -0.248 NA
ATOM     37  C   UNL     1      -8.190  12.909   0.231  1.00  0.00     0.031 C 
ATOM     38  C   UNL     1      -4.178  13.722  -2.687  1.00  0.00     0.029 A 
ATOM     39  N   UNL     1      -6.155  14.435  -3.449  1.00  0.00    -0.354 N 
ATOM     40  C   UNL     1      -9.784  13.760  -1.175  1.00  0.00     0.074 A 
ATOM     41  C   UNL     1      -9.494  13.063   0.060  1.00  0.00     0.031 C 
ATOM     42  C   UNL     1      -3.965  14.301  -3.879  1.00  0.00     0.029 A 
ATOM     43  C   UNL     1      -5.241  14.751  -4.427  1.00  0.00     0.049 A 
ATOM     44  H   UNL     1      -7.114  14.644  -3.521  1.00  0.00     0.167 HD
ATOM     45  C   UNL     1     -11.021  14.164  -1.559  1.00  0.00     0.034 A 
ATOM     46  C   UNL     1      -5.413  15.323  -5.636  1.00  0.00     0.034 A 
ATOM     47  C   UNL     1     -11.289  14.866  -2.791  1.00  0.00     0.049 A 
ATOM     48  C   UNL     1      -6.802  15.731  -6.056  1.00  0.00     0.074 A 
ATOM     49  C   UNL     1     -12.494  15.364  -3.256  1.00  0.00     0.029 A 
ATOM     50  N   UNL     1     -10.339  15.164  -3.760  1.00  0.00    -0.354 N 
ATOM     51  N   UNL     1      -7.935  15.596  -5.406  1.00  0.00    -0.248 NA
ATOM     52  C   UNL     1      -6.933  16.377  -7.369  1.00  0.00     0.031 C 
ATOM     53  C   UNL     1     -12.286  15.900  -4.532  1.00  0.00     0.029 A 
ATOM     54  C   UNL     1     -10.937  15.808  -4.833  1.00  0.00     0.049 A 
ATOM     55  H   UNL     1      -9.380  14.949  -3.695  1.00  0.00     0.167 HD
ATOM     56  C   UNL     1      -8.909  16.169  -6.220  1.00  0.00     0.074 A 
ATOM     57  C   UNL     1      -8.227  16.662  -7.399  1.00  0.00     0.031 C 
ATOM     58  C   UNL     1     -10.245  16.283  -6.009  1.00  0.00     0.034 A 
BRANCH  45  59
ATOM     59  C   UNL     1     -12.176  13.827  -0.645  1.00  0.00     0.023 A 
ATOM     60  C   UNL     1     -12.255  14.335   0.664  1.00  0.00     0.031 A 
ATOM     61  C   UNL     1     -13.200  12.965  -1.076  1.00  0.00     0.131 A 
ATOM     62  C   UNL     1     -13.286  13.916   1.519  1.00  0.00     0.055 A 
ATOM     63  C   UNL     1     -14.270  12.618  -0.248  1.00  0.00     0.041 A 
ATOM     64  F   UNL     1     -13.171  12.431  -2.308  1.00  0.00    -0.206 F 
ATOM     65  C   UNL     1     -14.309  13.081   1.063  1.00  0.00     0.022 A 
BRANCH  62  66
ATOM     66  S   UNL     1     -13.188  14.359   3.275  1.00  0.00     0.124 S 
ATOM     67  O   UNL     1     -11.910  13.763   3.658  1.00  0.00    -0.237 OA
ATOM     68  O   UNL     1     -13.229  15.816   3.236  1.00  0.00    -0.237 OA
ATOM     69  O   UNL     1     -14.365  13.717   3.857  1.00  0.00    -0.744 OA
ENDBRANCH  62  66
ENDBRANCH  45  59
BRANCH  46  70
ATOM     70  C   UNL     1      -4.249  15.532  -6.543  1.00  0.00     0.023 A 
ATOM     71  C   UNL     1      -3.834  16.825  -6.900  1.00  0.00     0.031 A 
ATOM     72  C   UNL     1      -3.557  14.441  -7.099  1.00  0.00     0.131 A 
ATOM     73  C   UNL     1      -2.789  16.995  -7.821  1.00  0.00     0.055 A 
ATOM     74  C   UNL     1      -2.484  14.616  -7.974  1.00  0.00     0.041 A 
ATOM     75  F   UNL     1      -3.910  13.184  -6.787  1.00  0.00    -0.206 F 
ATOM     76  C   UNL     1      -2.103  15.900  -8.350  1.00  0.00     0.022 A 
BRANCH  73  77
ATOM     77  S   UNL     1      -2.393  18.673  -8.385  1.00  0.00     0.124 S 
ATOM     78  O   UNL     1      -3.669  19.107  -8.944  1.00  0.00    -0.237 OA
ATOM     79  O   UNL     1      -1.983  19.320  -7.143  1.00  0.00    -0.237 OA
ATOM     80  O   UNL     1      -1.324  18.461  -9.358  1.00  0.00    -0.744 OA
ENDBRANCH  73  77
ENDBRANCH  46  70
BRANCH  58  81
ATOM     81  C   UNL     1     -11.046  17.009  -7.063  1.00  0.00     0.023 A 
ATOM     82  C   UNL     1     -11.224  16.480  -8.353  1.00  0.00     0.031 A 
ATOM     83  C   UNL     1     -11.632  18.254  -6.770  1.00  0.00     0.131 A 
ATOM     84  C   UNL     1     -11.925  17.218  -9.319  1.00  0.00     0.055 A 
ATOM     85  C   UNL     1     -12.379  18.955  -7.718  1.00  0.00     0.041 A 
ATOM     86  F   UNL     1     -11.491  18.807  -5.555  1.00  0.00    -0.206 F 
ATOM     87  C   UNL     1     -12.518  18.443  -9.004  1.00  0.00     0.022 A 
BRANCH  84  88
ATOM     88  S   UNL     1     -11.980  16.593 -11.021  1.00  0.00     0.124 S 
ATOM     89  O   UNL     1     -10.564  16.527 -11.366  1.00  0.00    -0.237 OA
ATOM     90  O   UNL     1     -12.658  15.311 -10.862  1.00  0.00    -0.237 OA
ATOM     91  O   UNL     1     -12.746  17.613 -11.736  1.00  0.00    -0.744 OA
ENDBRANCH  84  88
ENDBRANCH  58  81
ENDBRANCH  32  33
ENDBRANCH  24  27
ENDBRANCH  22  23
ENDBRANCH  21  22
ENDBRANCH   1  21
TORSDOF 19
