REMARK SMILES NS(=O)(=O)c1ccc(-n2nc(C(F)F)cc2-c2ccc(C(=O)NCCCCCCNC(=O)c3ccc(-c4c5nc(c(-c6cc(S(=O)(=O)[O-])ccc6F)c6ccc([nH]6)c(-c6cc(S(=O)(=O)[O-])ccc6F)c6nc(c(-c7cc(S(=O)(=O)[O-])ccc7F)c7ccc4[nH]7)C=C6)C=C5)cc3)cc2)cc1
REMARK SMILES IDX 26 1 25 2 24 3 23 4 21 5 22 6 20 8 17 9 18 10 97 11 19 12
REMARK SMILES IDX 96 13 16 14 9 15 10 16 11 17 15 18 8 19 5 20 6 21 99 22 7 23
REMARK SMILES IDX 98 24 2 25 3 26 4 27 1 28 12 31 13 32 14 33 27 34 28 35
REMARK SMILES IDX 29 36 30 37 31 38 32 40 33 41 34 42 95 43 35 44 94 45 36 46
REMARK SMILES IDX 37 47 38 48 88 49 39 50 93 51 87 52 89 53 40 54 92 55 86 56
REMARK SMILES IDX 85 57 41 59 73 60 53 61 72 62 54 63 57 64 71 65 90 66 55 67
REMARK SMILES IDX 56 68 70 70 91 71 58 72 42 73 43 74 51 75 44 76 50 77 52 78
REMARK SMILES IDX 49 79 45 80 46 81 47 82 48 83 74 84 75 85 83 86 76 87 82 88
REMARK SMILES IDX 84 89 81 90 77 91 78 92 79 93 80 94 59 95 60 96 68 97 61 98
REMARK SMILES IDX 67 99 69 100 66 101 62 102 63 103 64 104 65 105
REMARK H PARENT 23 7 1 29 1 30 30 39 89 58 57 69
REMARK Flexibility Score: inf
ROOT
ATOM      1  C   UNL     1       4.549   1.437 -12.447  1.00  0.00     0.002 C 
ENDROOT
BRANCH   1   2
ATOM      2  C   UNL     1       4.445   2.246 -11.149  1.00  0.00     0.021 C 
BRANCH   2   3
ATOM      3  C   UNL     1       3.238   3.185 -11.122  1.00  0.00     0.116 C 
BRANCH   3   4
ATOM      4  N   UNL     1       2.031   2.440 -10.817  1.00  0.00    -0.352 N 
ATOM      5  C   UNL     1       1.269   2.349  -9.681  1.00  0.00     0.251 C 
ATOM      6  O   UNL     1       0.259   1.647  -9.714  1.00  0.00    -0.269 OA
ATOM      7  H   UNL     1       1.695   1.898 -11.567  1.00  0.00     0.163 HD
BRANCH   5   8
ATOM      8  C   UNL     1       1.565   3.144  -8.459  1.00  0.00     0.039 A 
ATOM      9  C   UNL     1       1.930   4.881  -6.286  1.00  0.00     0.000 A 
ATOM     10  C   UNL     1       0.651   4.403  -6.595  1.00  0.00     0.011 A 
ATOM     11  C   UNL     1       3.029   4.430  -7.017  1.00  0.00     0.011 A 
ATOM     12  C   UNL     1       0.470   3.546  -7.681  1.00  0.00     0.014 A 
ATOM     13  C   UNL     1       2.849   3.523  -8.062  1.00  0.00     0.014 A 
BRANCH   9  14
ATOM     14  C   UNL     1       2.127   5.822  -5.194  1.00  0.00     0.075 A 
ATOM     15  N   UNL     1       1.913   5.545  -3.852  1.00  0.00    -0.233 N 
ATOM     16  N   UNL     1       1.924   6.675  -3.099  1.00  0.00    -0.166 NA
ATOM     17  C   UNL     1       2.390   7.630  -3.925  1.00  0.00     0.129 A 
ATOM     18  C   UNL     1       2.473   7.155  -5.253  1.00  0.00     0.060 A 
BRANCH  15  19
ATOM     19  C   UNL     1       1.662   4.276  -3.270  1.00  0.00     0.065 A 
ATOM     20  C   UNL     1       1.007   1.754  -2.303  1.00  0.00     0.082 A 
ATOM     21  C   UNL     1       2.033   1.881  -3.239  1.00  0.00     0.024 A 
ATOM     22  C   UNL     1       0.327   2.881  -1.823  1.00  0.00     0.024 A 
ATOM     23  C   UNL     1       2.358   3.145  -3.725  1.00  0.00     0.030 A 
ATOM     24  C   UNL     1       0.677   4.152  -2.284  1.00  0.00     0.030 A 
BRANCH  20  25
ATOM     25  S   UNL     1       0.515   0.143  -1.764  1.00  0.00     0.238 S 
ATOM     26  O   UNL     1       1.152  -0.856  -2.600  1.00  0.00    -0.207 OA
ATOM     27  O   UNL     1      -0.901   0.148  -1.515  1.00  0.00    -0.207 OA
BRANCH  25  28
ATOM     28  N   UNL     1       1.263   0.037  -0.268  1.00  0.00    -0.225 NA
ATOM     29  H   UNL     1       1.051  -0.866   0.155  1.00  0.00     0.137 HD
ATOM     30  H   UNL     1       0.922   0.784   0.337  1.00  0.00     0.137 HD
ENDBRANCH  25  28
ENDBRANCH  20  25
ENDBRANCH  15  19
BRANCH  17  31
ATOM     31  C   UNL     1       2.743   9.012  -3.462  1.00  0.00     0.393 C 
ATOM     32  F   UNL     1       1.813   9.543  -2.623  1.00  0.00    -0.203 F 
ATOM     33  F   UNL     1       3.929   9.029  -2.792  1.00  0.00    -0.203 F 
ENDBRANCH  17  31
ENDBRANCH   9  14
ENDBRANCH   5   8
ENDBRANCH   3   4
ENDBRANCH   2   3
ENDBRANCH   1   2
BRANCH   1  34
ATOM     34  C   UNL     1       4.606   2.269 -13.739  1.00  0.00     0.002 C 
BRANCH  34  35
ATOM     35  C   UNL     1       5.649   3.398 -13.770  1.00  0.00     0.021 C 
BRANCH  35  36
ATOM     36  C   UNL     1       7.082   2.893 -13.819  1.00  0.00     0.116 C 
BRANCH  36  37
ATOM     37  N   UNL     1       7.385   2.227 -15.088  1.00  0.00    -0.352 N 
ATOM     38  C   UNL     1       8.534   1.550 -15.453  1.00  0.00     0.251 C 
ATOM     39  H   UNL     1       6.677   2.267 -15.771  1.00  0.00     0.163 HD
ATOM     40  O   UNL     1       8.816   1.392 -16.635  1.00  0.00    -0.269 OA
BRANCH  38  41
ATOM     41  C   UNL     1       9.402   1.023 -14.387  1.00  0.00     0.039 A 
ATOM     42  C   UNL     1      10.797   1.064 -14.463  1.00  0.00     0.014 A 
ATOM     43  C   UNL     1       8.766   0.515 -13.261  1.00  0.00     0.014 A 
ATOM     44  C   UNL     1      11.537   0.657 -13.353  1.00  0.00     0.010 A 
ATOM     45  C   UNL     1       9.479   0.323 -12.113  1.00  0.00     0.010 A 
ATOM     46  C   UNL     1      10.866   0.300 -12.174  1.00  0.00    -0.014 A 
BRANCH  46  47
ATOM     47  C   UNL     1      11.570  -0.020 -10.940  1.00  0.00     0.031 A 
ATOM     48  C   UNL     1      12.490   1.041 -10.461  1.00  0.00     0.074 A 
ATOM     49  C   UNL     1      11.215  -1.064 -10.157  1.00  0.00     0.049 A 
ATOM     50  N   UNL     1      13.780   1.024 -10.456  1.00  0.00    -0.248 NA
ATOM     51  C   UNL     1      11.917   2.348 -10.099  1.00  0.00     0.031 C 
ATOM     52  C   UNL     1      10.113  -2.017 -10.351  1.00  0.00     0.029 A 
ATOM     53  N   UNL     1      11.697  -1.423  -8.938  1.00  0.00    -0.354 N 
ATOM     54  C   UNL     1      14.175   2.204  -9.836  1.00  0.00     0.074 A 
ATOM     55  C   UNL     1      13.022   3.062  -9.874  1.00  0.00     0.031 C 
ATOM     56  C   UNL     1       9.865  -2.674  -9.197  1.00  0.00     0.029 A 
ATOM     57  C   UNL     1      10.903  -2.333  -8.243  1.00  0.00     0.049 A 
ATOM     58  H   UNL     1      12.540  -1.068  -8.575  1.00  0.00     0.167 HD
ATOM     59  C   UNL     1      15.325   2.260  -9.105  1.00  0.00     0.034 A 
ATOM     60  C   UNL     1      11.079  -2.776  -6.970  1.00  0.00     0.034 A 
ATOM     61  C   UNL     1      16.159   1.105  -9.380  1.00  0.00     0.049 A 
ATOM     62  C   UNL     1      12.513  -2.561  -6.653  1.00  0.00     0.074 A 
ATOM     63  C   UNL     1      16.726   0.567 -10.521  1.00  0.00     0.029 A 
ATOM     64  N   UNL     1      16.174   0.082  -8.454  1.00  0.00    -0.354 N 
ATOM     65  N   UNL     1      13.478  -3.171  -7.288  1.00  0.00    -0.248 NA
ATOM     66  C   UNL     1      12.895  -1.310  -6.013  1.00  0.00     0.031 C 
ATOM     67  C   UNL     1      16.552  -0.844 -10.385  1.00  0.00     0.029 A 
ATOM     68  C   UNL     1      15.979  -1.095  -9.136  1.00  0.00     0.049 A 
ATOM     69  H   UNL     1      16.303   0.178  -7.483  1.00  0.00     0.167 HD
ATOM     70  C   UNL     1      14.439  -2.196  -7.509  1.00  0.00     0.074 A 
ATOM     71  C   UNL     1      14.074  -1.101  -6.608  1.00  0.00     0.031 C 
ATOM     72  C   UNL     1      15.262  -2.240  -8.601  1.00  0.00     0.034 A 
BRANCH  59  73
ATOM     73  C   UNL     1      15.529   3.108  -7.863  1.00  0.00     0.023 A 
ATOM     74  C   UNL     1      16.759   2.956  -7.193  1.00  0.00     0.031 A 
ATOM     75  C   UNL     1      14.530   3.804  -7.144  1.00  0.00     0.131 A 
ATOM     76  C   UNL     1      16.906   3.334  -5.848  1.00  0.00     0.055 A 
ATOM     77  C   UNL     1      14.705   4.242  -5.827  1.00  0.00     0.041 A 
ATOM     78  F   UNL     1      13.306   4.034  -7.627  1.00  0.00    -0.206 F 
ATOM     79  C   UNL     1      15.883   3.970  -5.155  1.00  0.00     0.022 A 
BRANCH  76  80
ATOM     80  S   UNL     1      18.389   2.784  -4.968  1.00  0.00     0.124 S 
ATOM     81  O   UNL     1      18.380   1.353  -5.254  1.00  0.00    -0.237 OA
ATOM     82  O   UNL     1      19.431   3.567  -5.623  1.00  0.00    -0.237 OA
ATOM     83  O   UNL     1      18.111   3.146  -3.581  1.00  0.00    -0.744 OA
ENDBRANCH  76  80
ENDBRANCH  59  73
BRANCH  60  84
ATOM     84  C   UNL     1      10.017  -3.037  -5.957  1.00  0.00     0.023 A 
ATOM     85  C   UNL     1      10.206  -3.854  -4.820  1.00  0.00     0.031 A 
ATOM     86  C   UNL     1       8.831  -2.268  -5.991  1.00  0.00     0.131 A 
ATOM     87  C   UNL     1       9.233  -3.877  -3.788  1.00  0.00     0.055 A 
ATOM     88  C   UNL     1       7.876  -2.295  -4.972  1.00  0.00     0.041 A 
ATOM     89  F   UNL     1       8.599  -1.394  -6.984  1.00  0.00    -0.206 F 
ATOM     90  C   UNL     1       8.077  -3.095  -3.860  1.00  0.00     0.022 A 
BRANCH  87  91
ATOM     91  S   UNL     1       9.493  -4.873  -2.282  1.00  0.00     0.124 S 
ATOM     92  O   UNL     1       9.458  -6.236  -2.799  1.00  0.00    -0.237 OA
ATOM     93  O   UNL     1      10.785  -4.391  -1.808  1.00  0.00    -0.237 OA
ATOM     94  O   UNL     1       8.358  -4.511  -1.431  1.00  0.00    -0.744 OA
ENDBRANCH  87  91
ENDBRANCH  60  84
BRANCH  72  95
ATOM     95  C   UNL     1      15.275  -3.507  -9.440  1.00  0.00     0.023 A 
ATOM     96  C   UNL     1      14.154  -4.037 -10.123  1.00  0.00     0.031 A 
ATOM     97  C   UNL     1      16.518  -4.124  -9.660  1.00  0.00     0.131 A 
ATOM     98  C   UNL     1      14.305  -5.149 -10.978  1.00  0.00     0.055 A 
ATOM     99  C   UNL     1      16.668  -5.210 -10.522  1.00  0.00     0.041 A 
ATOM    100  F   UNL     1      17.626  -3.649  -9.068  1.00  0.00    -0.206 F 
ATOM    101  C   UNL     1      15.560  -5.730 -11.181  1.00  0.00     0.022 A 
BRANCH  98 102
ATOM    102  S   UNL     1      12.866  -5.862 -11.843  1.00  0.00     0.124 S 
ATOM    103  O   UNL     1      11.900  -6.081 -10.773  1.00  0.00    -0.237 OA
ATOM    104  O   UNL     1      12.525  -4.821 -12.809  1.00  0.00    -0.237 OA
ATOM    105  O   UNL     1      13.400  -7.088 -12.440  1.00  0.00    -0.744 OA
ENDBRANCH  98 102
ENDBRANCH  72  95
ENDBRANCH  46  47
ENDBRANCH  38  41
ENDBRANCH  36  37
ENDBRANCH  35  36
ENDBRANCH  34  35
ENDBRANCH   1  34
TORSDOF 21
