REMARK SMILES N#Cc1ccn2cc(C(=O)NCCCCCCNC(=O)c3ccc(-c4c5nc(c(-c6cc(S(=O)(=O)[O-])ccc6F)c6ccc([nH]6)c(-c6cc(S(=O)(=O)[O-])ccc6F)c6nc(c(-c7cc(S(=O)(=O)[O-])ccc7F)c7ccc4[nH]7)C=C6)C=C5)cc3)nc2c1
REMARK SMILES IDX 15 1 14 2 13 3 12 4 11 5 9 6 10 7 8 9 3 10 4 11 86 12 5 13
REMARK SMILES IDX 85 14 6 15 84 16 7 17 2 18 1 19 16 20 17 21 18 22 19 23
REMARK SMILES IDX 20 25 21 26 22 27 83 28 23 29 82 30 24 31 25 32 26 33 76 34
REMARK SMILES IDX 27 35 81 36 75 37 77 38 28 39 80 40 74 41 73 42 29 44 61 45
REMARK SMILES IDX 41 46 60 47 42 48 45 49 59 50 78 51 43 52 44 53 58 55 79 56
REMARK SMILES IDX 46 57 30 58 31 59 39 60 32 61 38 62 40 63 37 64 33 65 34 66
REMARK SMILES IDX 35 67 36 68 62 69 63 70 71 71 64 72 70 73 72 74 69 75 65 76
REMARK SMILES IDX 66 77 67 78 68 79 47 80 48 81 56 82 49 83 55 84 57 85 54 86
REMARK SMILES IDX 50 87 51 88 52 89 53 90
REMARK H PARENT 11 8 18 24 77 43 45 54
REMARK Flexibility Score: inf
ROOT
ATOM      1  C   UNL     1       9.355   7.514   0.118  1.00  0.00     0.002 C 
ENDROOT
BRANCH   1   2
ATOM      2  C   UNL     1       9.434   6.467   1.237  1.00  0.00     0.002 C 
BRANCH   2   3
ATOM      3  C   UNL     1       8.297   5.440   1.242  1.00  0.00     0.021 C 
BRANCH   3   4
ATOM      4  C   UNL     1       8.241   4.584  -0.021  1.00  0.00     0.116 C 
BRANCH   4   5
ATOM      5  N   UNL     1       9.318   3.603  -0.040  1.00  0.00    -0.351 N 
ATOM      6  C   UNL     1       9.293   2.234   0.024  1.00  0.00     0.271 C 
ATOM      7  O   UNL     1      10.377   1.634   0.013  1.00  0.00    -0.267 OA
ATOM      8  H   UNL     1      10.220   3.991  -0.110  1.00  0.00     0.163 HD
BRANCH   6   9
ATOM      9  C   UNL     1       8.027   1.502   0.086  1.00  0.00     0.147 A 
ATOM     10  C   UNL     1       3.825  -0.057   0.069  1.00  0.00     0.057 A 
ATOM     11  C   UNL     1       4.525  -1.343   0.048  1.00  0.00     0.038 A 
ATOM     12  C   UNL     1       4.493   1.110   0.105  1.00  0.00     0.067 A 
ATOM     13  C   UNL     1       5.871  -1.351   0.050  1.00  0.00     0.094 A 
ATOM     14  C   UNL     1       5.912   1.093   0.117  1.00  0.00     0.138 A 
ATOM     15  N   UNL     1       6.552  -0.137   0.078  1.00  0.00    -0.306 N 
ATOM     16  N   UNL     1       6.774   2.077   0.157  1.00  0.00    -0.223 NA
ATOM     17  C   UNL     1       7.896   0.121   0.067  1.00  0.00     0.127 A 
BRANCH  10  18
ATOM     18  C   UNL     1       2.305  -0.057   0.069  1.00  0.00     0.099 C 
ATOM     19  N   UNL     1       1.044  -0.057   0.069  1.00  0.00    -0.192 NA
ENDBRANCH  10  18
ENDBRANCH   6   9
ENDBRANCH   4   5
ENDBRANCH   3   4
ENDBRANCH   2   3
ENDBRANCH   1   2
BRANCH   1  20
ATOM     20  C   UNL     1       8.053   8.328   0.063  1.00  0.00     0.021 C 
BRANCH  20  21
ATOM     21  C   UNL     1       7.699   9.042   1.369  1.00  0.00     0.116 C 
BRANCH  21  22
ATOM     22  N   UNL     1       8.757   9.907   1.845  1.00  0.00    -0.352 N 
ATOM     23  C   UNL     1       9.072  11.228   1.697  1.00  0.00     0.251 C 
ATOM     24  H   UNL     1       9.406   9.429   2.410  1.00  0.00     0.163 HD
ATOM     25  O   UNL     1      10.036  11.620   2.362  1.00  0.00    -0.269 OA
BRANCH  23  26
ATOM     26  C   UNL     1       8.392  12.188   0.782  1.00  0.00     0.039 A 
ATOM     27  C   UNL     1       7.361  11.877  -0.103  1.00  0.00     0.014 A 
ATOM     28  C   UNL     1       8.917  13.496   0.763  1.00  0.00     0.014 A 
ATOM     29  C   UNL     1       6.942  12.811  -1.048  1.00  0.00     0.010 A 
ATOM     30  C   UNL     1       8.493  14.436  -0.172  1.00  0.00     0.010 A 
ATOM     31  C   UNL     1       7.547  14.071  -1.121  1.00  0.00    -0.014 A 
BRANCH  31  32
ATOM     32  C   UNL     1       7.164  14.942  -2.229  1.00  0.00     0.031 A 
ATOM     33  C   UNL     1       5.714  15.262  -2.347  1.00  0.00     0.074 A 
ATOM     34  C   UNL     1       8.033  15.436  -3.133  1.00  0.00     0.049 A 
ATOM     35  N   UNL     1       4.868  14.813  -3.218  1.00  0.00    -0.248 NA
ATOM     36  C   UNL     1       5.114  16.102  -1.305  1.00  0.00     0.031 C 
ATOM     37  C   UNL     1       9.498  15.471  -3.094  1.00  0.00     0.029 A 
ATOM     38  N   UNL     1       7.742  16.078  -4.298  1.00  0.00    -0.354 N 
ATOM     39  C   UNL     1       3.648  15.427  -2.935  1.00  0.00     0.074 A 
ATOM     40  C   UNL     1       3.834  16.120  -1.683  1.00  0.00     0.031 C 
ATOM     41  C   UNL     1       9.953  16.280  -4.080  1.00  0.00     0.029 A 
ATOM     42  C   UNL     1       8.830  16.670  -4.914  1.00  0.00     0.049 A 
ATOM     43  H   UNL     1       6.832  16.118  -4.671  1.00  0.00     0.167 HD
ATOM     44  C   UNL     1       2.607  15.433  -3.819  1.00  0.00     0.034 A 
ATOM     45  C   UNL     1       8.808  17.460  -6.015  1.00  0.00     0.034 A 
ATOM     46  C   UNL     1       2.813  14.495  -4.888  1.00  0.00     0.049 A 
ATOM     47  C   UNL     1       7.565  17.155  -6.765  1.00  0.00     0.074 A 
ATOM     48  C   UNL     1       2.871  13.120  -4.982  1.00  0.00     0.029 A 
ATOM     49  N   UNL     1       3.320  14.973  -6.071  1.00  0.00    -0.354 N 
ATOM     50  N   UNL     1       7.347  16.030  -7.386  1.00  0.00    -0.248 NA
ATOM     51  C   UNL     1       6.381  17.946  -6.469  1.00  0.00     0.031 C 
ATOM     52  C   UNL     1       3.843  12.863  -5.991  1.00  0.00     0.029 A 
ATOM     53  C   UNL     1       4.291  14.094  -6.477  1.00  0.00     0.049 A 
ATOM     54  H   UNL     1       3.040  15.792  -6.539  1.00  0.00     0.167 HD
ATOM     55  C   UNL     1       6.005  15.762  -7.164  1.00  0.00     0.074 A 
ATOM     56  C   UNL     1       5.442  17.023  -6.684  1.00  0.00     0.031 C 
ATOM     57  C   UNL     1       5.524  14.484  -7.132  1.00  0.00     0.034 A 
BRANCH  44  58
ATOM     58  C   UNL     1       1.515  16.472  -3.869  1.00  0.00     0.023 A 
ATOM     59  C   UNL     1       1.625  17.716  -3.224  1.00  0.00     0.031 A 
ATOM     60  C   UNL     1       0.425  16.330  -4.755  1.00  0.00     0.131 A 
ATOM     61  C   UNL     1       0.693  18.740  -3.444  1.00  0.00     0.055 A 
ATOM     62  C   UNL     1      -0.469  17.375  -5.024  1.00  0.00     0.041 A 
ATOM     63  F   UNL     1       0.224  15.187  -5.429  1.00  0.00    -0.206 F 
ATOM     64  C   UNL     1      -0.338  18.590  -4.366  1.00  0.00     0.022 A 
BRANCH  61  65
ATOM     65  S   UNL     1       0.815  20.302  -2.532  1.00  0.00     0.124 S 
ATOM     66  O   UNL     1       1.033  21.261  -3.610  1.00  0.00    -0.237 OA
ATOM     67  O   UNL     1      -0.490  20.368  -1.880  1.00  0.00    -0.237 OA
ATOM     68  O   UNL     1       1.944  20.083  -1.633  1.00  0.00    -0.744 OA
ENDBRANCH  61  65
ENDBRANCH  44  58
BRANCH  45  69
ATOM     69  C   UNL     1       9.457  18.791  -6.094  1.00  0.00     0.023 A 
ATOM     70  C   UNL     1       9.650  19.541  -4.917  1.00  0.00     0.031 A 
ATOM     71  C   UNL     1       9.604  19.459  -7.320  1.00  0.00     0.131 A 
ATOM     72  C   UNL     1       9.925  20.911  -4.984  1.00  0.00     0.055 A 
ATOM     73  C   UNL     1       9.898  20.826  -7.385  1.00  0.00     0.041 A 
ATOM     74  F   UNL     1       9.396  18.810  -8.477  1.00  0.00    -0.206 F 
ATOM     75  C   UNL     1      10.045  21.563  -6.212  1.00  0.00     0.022 A 
BRANCH  72  76
ATOM     76  S   UNL     1      10.042  21.897  -3.466  1.00  0.00     0.124 S 
ATOM     77  O   UNL     1      11.292  22.626  -3.670  1.00  0.00    -0.237 OA
ATOM     78  O   UNL     1       8.827  22.700  -3.539  1.00  0.00    -0.237 OA
ATOM     79  O   UNL     1      10.080  20.893  -2.407  1.00  0.00    -0.744 OA
ENDBRANCH  72  76
ENDBRANCH  45  69
BRANCH  57  80
ATOM     80  C   UNL     1       6.433  13.347  -7.549  1.00  0.00     0.023 A 
ATOM     81  C   UNL     1       5.922  12.407  -8.461  1.00  0.00     0.031 A 
ATOM     82  C   UNL     1       7.644  13.033  -6.902  1.00  0.00     0.131 A 
ATOM     83  C   UNL     1       6.581  11.188  -8.663  1.00  0.00     0.055 A 
ATOM     84  C   UNL     1       8.336  11.845  -7.162  1.00  0.00     0.041 A 
ATOM     85  F   UNL     1       8.146  13.815  -5.939  1.00  0.00    -0.206 F 
ATOM     86  C   UNL     1       7.795  10.906  -8.032  1.00  0.00     0.022 A 
BRANCH  83  87
ATOM     87  S   UNL     1       5.794   9.869  -9.624  1.00  0.00     0.124 S 
ATOM     88  O   UNL     1       6.759   9.648 -10.697  1.00  0.00    -0.237 OA
ATOM     89  O   UNL     1       5.693   8.791  -8.642  1.00  0.00    -0.237 OA
ATOM     90  O   UNL     1       4.519  10.446 -10.041  1.00  0.00    -0.744 OA
ENDBRANCH  83  87
ENDBRANCH  57  80
ENDBRANCH  31  32
ENDBRANCH  23  26
ENDBRANCH  21  22
ENDBRANCH  20  21
ENDBRANCH   1  20
TORSDOF 17
