REMARK SMILES O=C(NCCCCCCNC(=O)c1cccnc1SCC(=O)c1ccccc1Cl)c1ccc(-c2c3nc(c(-c4cc(S(=O)(=O)[O-])ccc4F)c4ccc([nH]4)c(-c4cc(S(=O)(=O)[O-])ccc4F)c4nc(c(-c5cc(S(=O)(=O)[O-])ccc5F)c5ccc2[nH]5)C=C4)C=C3)cc1
REMARK SMILES IDX 7 1 6 2 5 3 4 4 3 5 1 6 2 7 30 9 31 10 92 11 32 12 91 13
REMARK SMILES IDX 33 14 34 15 35 16 85 17 36 18 90 19 84 20 86 21 37 22 89 23
REMARK SMILES IDX 83 24 82 25 38 27 70 28 50 29 69 30 51 31 54 32 68 33 87 34
REMARK SMILES IDX 52 35 53 36 67 38 88 39 55 40 39 41 40 42 48 43 41 44 47 45
REMARK SMILES IDX 49 46 46 47 42 48 43 49 44 50 45 51 71 52 72 53 80 54 73 55
REMARK SMILES IDX 79 56 81 57 78 58 74 59 75 60 76 61 77 62 56 63 57 64 65 65
REMARK SMILES IDX 58 66 64 67 66 68 63 69 59 70 60 71 61 72 62 73 8 74 9 75
REMARK SMILES IDX 10 76 11 77 12 79 13 80 14 81 18 82 15 83 17 84 16 85 19 86
REMARK SMILES IDX 20 87 21 88 22 89 23 90 24 91 28 92 25 93 27 94 29 95 26 96
REMARK H PARENT 3 8 86 26 54 37 10 78
REMARK Flexibility Score: inf
ROOT
ATOM      1  C   UNL     1       4.679   4.428   0.843  1.00  0.00     0.002 C 
ENDROOT
BRANCH   1   2
ATOM      2  C   UNL     1       4.150   4.006  -0.530  1.00  0.00     0.002 C 
BRANCH   2   3
ATOM      3  C   UNL     1       4.604   2.644  -1.056  1.00  0.00     0.021 C 
BRANCH   3   4
ATOM      4  C   UNL     1       4.361   1.456  -0.134  1.00  0.00     0.116 C 
BRANCH   4   5
ATOM      5  N   UNL     1       2.951   1.173   0.067  1.00  0.00    -0.352 N 
ATOM      6  O   UNL     1       1.056  -0.044   0.037  1.00  0.00    -0.269 OA
ATOM      7  C   UNL     1       2.281  -0.023  -0.048  1.00  0.00     0.251 C 
ATOM      8  H   UNL     1       2.396   1.945   0.322  1.00  0.00     0.163 HD
BRANCH   7   9
ATOM      9  C   UNL     1       3.028  -1.280  -0.297  1.00  0.00     0.039 A 
ATOM     10  C   UNL     1       4.194  -1.583   0.410  1.00  0.00     0.014 A 
ATOM     11  C   UNL     1       2.530  -2.187  -1.240  1.00  0.00     0.014 A 
ATOM     12  C   UNL     1       4.920  -2.730   0.096  1.00  0.00     0.010 A 
ATOM     13  C   UNL     1       3.225  -3.372  -1.506  1.00  0.00     0.010 A 
ATOM     14  C   UNL     1       4.438  -3.644  -0.855  1.00  0.00    -0.014 A 
BRANCH  14  15
ATOM     15  C   UNL     1       5.180  -4.908  -1.099  1.00  0.00     0.031 A 
ATOM     16  C   UNL     1       5.852  -5.174  -2.418  1.00  0.00     0.074 A 
ATOM     17  C   UNL     1       5.252  -5.817  -0.106  1.00  0.00     0.049 A 
ATOM     18  N   UNL     1       6.542  -6.220  -2.795  1.00  0.00    -0.248 NA
ATOM     19  C   UNL     1       5.728  -4.134  -3.450  1.00  0.00     0.031 C 
ATOM     20  C   UNL     1       4.625  -5.673   1.210  1.00  0.00     0.029 A 
ATOM     21  N   UNL     1       5.885  -7.031  -0.040  1.00  0.00    -0.354 N 
ATOM     22  C   UNL     1       6.924  -5.976  -4.110  1.00  0.00     0.074 A 
ATOM     23  C   UNL     1       6.366  -4.689  -4.472  1.00  0.00     0.031 C 
ATOM     24  C   UNL     1       4.931  -6.740   1.963  1.00  0.00     0.029 A 
ATOM     25  C   UNL     1       5.728  -7.668   1.169  1.00  0.00     0.049 A 
ATOM     26  H   UNL     1       6.404  -7.410  -0.786  1.00  0.00     0.167 HD
ATOM     27  C   UNL     1       7.672  -6.753  -4.933  1.00  0.00     0.034 A 
ATOM     28  C   UNL     1       6.158  -8.874   1.588  1.00  0.00     0.034 A 
ATOM     29  C   UNL     1       8.227  -8.031  -4.555  1.00  0.00     0.049 A 
ATOM     30  C   UNL     1       6.971  -9.720   0.647  1.00  0.00     0.074 A 
ATOM     31  C   UNL     1       9.035  -8.876  -5.299  1.00  0.00     0.029 A 
ATOM     32  N   UNL     1       8.026  -8.656  -3.331  1.00  0.00    -0.354 N 
ATOM     33  N   UNL     1       7.343  -9.459  -0.584  1.00  0.00    -0.248 NA
ATOM     34  C   UNL     1       7.423 -11.022   1.154  1.00  0.00     0.031 C 
ATOM     35  C   UNL     1       9.275 -10.032  -4.548  1.00  0.00     0.029 A 
ATOM     36  C   UNL     1       8.668  -9.886  -3.311  1.00  0.00     0.049 A 
ATOM     37  H   UNL     1       7.503  -8.281  -2.586  1.00  0.00     0.167 HD
ATOM     38  C   UNL     1       8.085 -10.561  -0.995  1.00  0.00     0.074 A 
ATOM     39  C   UNL     1       8.127 -11.477   0.128  1.00  0.00     0.031 C 
ATOM     40  C   UNL     1       8.680 -10.796  -2.192  1.00  0.00     0.034 A 
BRANCH  27  41
ATOM     41  C   UNL     1       7.900  -6.260  -6.341  1.00  0.00     0.023 A 
ATOM     42  C   UNL     1       8.690  -5.130  -6.612  1.00  0.00     0.031 A 
ATOM     43  C   UNL     1       7.319  -6.937  -7.428  1.00  0.00     0.131 A 
ATOM     44  C   UNL     1       8.839  -4.682  -7.934  1.00  0.00     0.055 A 
ATOM     45  C   UNL     1       7.521  -6.523  -8.746  1.00  0.00     0.041 A 
ATOM     46  F   UNL     1       6.541  -8.012  -7.226  1.00  0.00    -0.206 F 
ATOM     47  C   UNL     1       8.277  -5.383  -9.005  1.00  0.00     0.022 A 
BRANCH  44  48
ATOM     48  S   UNL     1       9.697  -3.112  -8.230  1.00  0.00     0.124 S 
ATOM     49  O   UNL     1       8.857  -2.171  -7.493  1.00  0.00    -0.237 OA
ATOM     50  O   UNL     1      11.019  -3.362  -7.667  1.00  0.00    -0.237 OA
ATOM     51  O   UNL     1       9.657  -2.966  -9.684  1.00  0.00    -0.744 OA
ENDBRANCH  44  48
ENDBRANCH  27  41
BRANCH  28  52
ATOM     52  C   UNL     1       5.800  -9.366   2.946  1.00  0.00     0.023 A 
ATOM     53  C   UNL     1       6.782  -9.572   3.926  1.00  0.00     0.031 A 
ATOM     54  C   UNL     1       4.465  -9.665   3.273  1.00  0.00     0.131 A 
ATOM     55  C   UNL     1       6.421 -10.097   5.176  1.00  0.00     0.055 A 
ATOM     56  C   UNL     1       4.104 -10.143   4.533  1.00  0.00     0.041 A 
ATOM     57  F   UNL     1       3.488  -9.480   2.372  1.00  0.00    -0.206 F 
ATOM     58  C   UNL     1       5.087 -10.373   5.490  1.00  0.00     0.022 A 
BRANCH  55  59
ATOM     59  S   UNL     1       7.733 -10.490   6.365  1.00  0.00     0.124 S 
ATOM     60  O   UNL     1       8.583 -11.386   5.589  1.00  0.00    -0.237 OA
ATOM     61  O   UNL     1       8.285  -9.169   6.651  1.00  0.00    -0.237 OA
ATOM     62  O   UNL     1       7.013 -11.115   7.472  1.00  0.00    -0.744 OA
ENDBRANCH  55  59
ENDBRANCH  28  52
BRANCH  40  63
ATOM     63  C   UNL     1       9.443 -12.088  -2.321  1.00  0.00     0.023 A 
ATOM     64  C   UNL     1       8.783 -13.329  -2.352  1.00  0.00     0.031 A 
ATOM     65  C   UNL     1      10.847 -12.079  -2.375  1.00  0.00     0.131 A 
ATOM     66  C   UNL     1       9.531 -14.515  -2.379  1.00  0.00     0.055 A 
ATOM     67  C   UNL     1      11.584 -13.261  -2.453  1.00  0.00     0.041 A 
ATOM     68  F   UNL     1      11.524 -10.920  -2.346  1.00  0.00    -0.206 F 
ATOM     69  C   UNL     1      10.927 -14.489  -2.442  1.00  0.00     0.022 A 
BRANCH  66  70
ATOM     70  S   UNL     1       8.657 -16.099  -2.243  1.00  0.00     0.124 S 
ATOM     71  O   UNL     1       7.981 -15.963  -0.957  1.00  0.00    -0.237 OA
ATOM     72  O   UNL     1       7.795 -16.082  -3.421  1.00  0.00    -0.237 OA
ATOM     73  O   UNL     1       9.732 -17.088  -2.277  1.00  0.00    -0.744 OA
ENDBRANCH  66  70
ENDBRANCH  40  63
ENDBRANCH  14  15
ENDBRANCH   7   9
ENDBRANCH   4   5
ENDBRANCH   3   4
ENDBRANCH   2   3
ENDBRANCH   1   2
BRANCH   1  74
ATOM     74  C   UNL     1       6.191   4.344   1.068  1.00  0.00     0.021 C 
BRANCH  74  75
ATOM     75  C   UNL     1       7.077   4.978   0.002  1.00  0.00     0.116 C 
BRANCH  75  76
ATOM     76  N   UNL     1       6.771   6.371  -0.270  1.00  0.00    -0.352 N 
ATOM     77  C   UNL     1       7.672   7.349  -0.588  1.00  0.00     0.254 C 
ATOM     78  H   UNL     1       5.824   6.636  -0.220  1.00  0.00     0.163 HD
ATOM     79  O   UNL     1       7.367   8.344  -1.243  1.00  0.00    -0.269 OA
BRANCH  77  80
ATOM     80  C   UNL     1       9.070   7.184  -0.231  1.00  0.00     0.072 A 
ATOM     81  C   UNL     1       9.909   6.746  -1.271  1.00  0.00     0.018 A 
ATOM     82  C   UNL     1       9.594   7.417   1.032  1.00  0.00     0.109 A 
ATOM     83  C   UNL     1      11.253   6.515  -1.024  1.00  0.00     0.021 A 
ATOM     84  N   UNL     1      10.927   7.212   1.252  1.00  0.00    -0.249 NA
ATOM     85  C   UNL     1      11.715   6.767   0.248  1.00  0.00     0.112 A 
BRANCH  82  86
ATOM     86  S   UNL     1       8.806   7.750   2.579  1.00  0.00    -0.097 SA
BRANCH  86  87
ATOM     87  C   UNL     1       7.364   8.820   2.490  1.00  0.00     0.157 C 
BRANCH  87  88
ATOM     88  C   UNL     1       6.962   9.711   1.353  1.00  0.00     0.174 C 
ATOM     89  O   UNL     1       5.899   9.425   0.777  1.00  0.00    -0.293 OA
BRANCH  88  90
ATOM     90  C   UNL     1       7.536  11.075   1.054  1.00  0.00     0.037 A 
ATOM     91  C   UNL     1       6.658  11.928   0.336  1.00  0.00     0.013 A 
ATOM     92  C   UNL     1       8.782  11.607   1.405  1.00  0.00     0.051 A 
ATOM     93  C   UNL     1       7.002  13.233  -0.028  1.00  0.00     0.001 A 
ATOM     94  C   UNL     1       9.134  12.916   1.011  1.00  0.00     0.021 A 
ATOM     95  Cl  UNL     1       9.988  10.803   2.324  1.00  0.00    -0.084 Cl
ATOM     96  C   UNL     1       8.252  13.726   0.302  1.00  0.00     0.002 A 
ENDBRANCH  88  90
ENDBRANCH  87  88
ENDBRANCH  86  87
ENDBRANCH  82  86
ENDBRANCH  77  80
ENDBRANCH  75  76
ENDBRANCH  74  75
ENDBRANCH   1  74
TORSDOF 20
