REMARK SMILES Cc1c(CC(=O)NCCCCCCNC(=O)c2ccc(-c3c4nc(c(-c5cc(S(=O)(=O)[O-])ccc5F)c5ccc([nH]5)c(-c5cc(S(=O)(=O)[O-])ccc5F)c5nc(c(-c6cc(S(=O)(=O)[O-])ccc6F)c6ccc3[nH]6)C=C5)C=C4)cc2)c(=O)oc2c(C)c3occ(-c4ccc5c(c4)OCCCO5)c3cc12
REMARK SMILES IDX 9 1 8 2 7 3 5 4 6 5 4 7 3 8 1 9 2 10 103 11 80 12 83 13
REMARK SMILES IDX 102 14 81 15 82 16 84 17 101 18 85 19 86 20 89 21 87 22
REMARK SMILES IDX 88 23 90 24 91 25 95 26 92 27 94 28 93 29 96 30 97 31 100 33
REMARK SMILES IDX 99 34 98 35 10 37 11 38 12 39 13 40 14 41 15 42 16 44 17 45
REMARK SMILES IDX 18 46 79 47 19 48 78 49 20 50 21 51 22 52 72 53 23 54 77 55
REMARK SMILES IDX 71 56 73 57 24 58 76 59 70 60 69 61 25 63 57 64 37 65 56 66
REMARK SMILES IDX 38 67 41 68 55 69 74 70 39 71 40 72 54 74 75 75 42 76 26 77
REMARK SMILES IDX 27 78 35 79 28 80 34 81 36 82 33 83 29 84 30 85 31 86 32 87
REMARK SMILES IDX 58 88 59 89 67 90 60 91 66 92 68 93 65 94 61 95 62 96 63 97
REMARK SMILES IDX 64 98 43 99 44 100 52 101 45 102 51 103 53 104 50 105 46 106
REMARK SMILES IDX 47 107 48 108 49 109
REMARK H PARENT 7 6 14 43 73 62 41 73
REMARK Flexibility Score: 80.00
ROOT
ATOM      1  C   UNL     1      -3.394   0.883  -1.666  1.00  0.00     0.021 C 
ENDROOT
BRANCH   1   2
ATOM      2  C   UNL     1      -2.696   2.207  -1.972  1.00  0.00     0.116 C 
BRANCH   2   3
ATOM      3  N   UNL     1      -1.896   2.669  -0.858  1.00  0.00    -0.356 N 
ATOM      4  C   UNL     1      -0.549   2.850  -0.791  1.00  0.00     0.224 C 
ATOM      5  O   UNL     1      -0.081   3.363   0.228  1.00  0.00    -0.275 OA
ATOM      6  H   UNL     1      -2.395   2.881  -0.037  1.00  0.00     0.163 HD
BRANCH   4   7
ATOM      7  C   UNL     1       0.349   2.446  -1.960  1.00  0.00     0.143 C 
BRANCH   7   8
ATOM      8  C   UNL     1       0.262   0.976  -2.294  1.00  0.00     0.051 A 
ATOM      9  C   UNL     1       1.025   0.223   0.003  1.00  0.00     0.046 C 
ATOM     10  C   UNL     1       0.523  -0.002  -1.409  1.00  0.00    -0.029 A 
ATOM     11  C   UNL     1       0.341  -1.389  -1.840  1.00  0.00     0.022 A 
ATOM     12  C   UNL     1      -0.134   0.657  -3.697  1.00  0.00     0.340 A 
ATOM     13  C   UNL     1      -0.111  -1.718  -3.126  1.00  0.00     0.145 A 
ATOM     14  C   UNL     1       0.662  -2.413  -0.970  1.00  0.00     0.025 A 
ATOM     15  O   UNL     1      -0.258   1.541  -4.540  1.00  0.00    -0.246 OA
ATOM     16  O   UNL     1      -0.406  -0.665  -4.016  1.00  0.00    -0.422 OA
ATOM     17  C   UNL     1      -0.243  -3.046  -3.612  1.00  0.00     0.036 A 
ATOM     18  C   UNL     1       0.676  -3.714  -1.451  1.00  0.00     0.029 A 
ATOM     19  C   UNL     1      -0.782  -3.416  -4.954  1.00  0.00     0.052 C 
ATOM     20  C   UNL     1       0.237  -4.010  -2.724  1.00  0.00     0.141 A 
ATOM     21  C   UNL     1       1.139  -4.901  -0.885  1.00  0.00     0.028 A 
ATOM     22  O   UNL     1       0.394  -5.352  -2.952  1.00  0.00    -0.463 OA
ATOM     23  C   UNL     1       0.971  -5.884  -1.830  1.00  0.00     0.205 A 
BRANCH  21  24
ATOM     24  C   UNL     1       1.798  -4.998   0.382  1.00  0.00    -0.011 A 
ATOM     25  C   UNL     1       1.057  -5.345   1.519  1.00  0.00     0.013 A 
ATOM     26  C   UNL     1       3.157  -4.665   0.471  1.00  0.00     0.059 A 
ATOM     27  C   UNL     1       1.729  -5.663   2.687  1.00  0.00     0.051 A 
ATOM     28  C   UNL     1       3.820  -4.971   1.639  1.00  0.00     0.161 A 
ATOM     29  C   UNL     1       3.119  -5.640   2.642  1.00  0.00     0.161 A 
BRANCH  28  30
ATOM     30  O   UNL     1       5.175  -4.890   1.759  1.00  0.00    -0.490 OA
BRANCH  30  31
ATOM     31  C   UNL     1       5.824  -5.959   1.076  1.00  0.00     0.233 CG0
ATOM     32  G   UNL     1       5.369  -7.396   1.387  1.00  0.00     0.000 G0
ENDBRANCH  30  31
ENDBRANCH  28  30
BRANCH  29  33
ATOM     33  O   UNL     1       3.767  -6.752   3.177  1.00  0.00    -0.490 OA
BRANCH  33  34
ATOM     34  C   UNL     1       4.003  -7.628   2.039  1.00  0.00     0.233 C 
BRANCH  34  35
ATOM     35  C   UNL     1       5.369  -7.396   1.387  1.00  0.00     0.083 CG0
ATOM     36  G   UNL     1       5.824  -5.959   1.076  1.00  0.00     0.000 G0
ENDBRANCH  34  35
ENDBRANCH  33  34
ENDBRANCH  29  33
ENDBRANCH  21  24
ENDBRANCH   7   8
ENDBRANCH   4   7
ENDBRANCH   2   3
ENDBRANCH   1   2
BRANCH   1  37
ATOM     37  C   UNL     1      -4.522   1.000  -0.635  1.00  0.00     0.002 C 
BRANCH  37  38
ATOM     38  C   UNL     1      -5.556   2.103  -0.907  1.00  0.00     0.002 C 
BRANCH  38  39
ATOM     39  C   UNL     1      -6.167   2.128  -2.317  1.00  0.00     0.021 C 
BRANCH  39  40
ATOM     40  C   UNL     1      -6.964   0.881  -2.660  1.00  0.00     0.116 C 
BRANCH  40  41
ATOM     41  N   UNL     1      -8.168   0.762  -1.849  1.00  0.00    -0.352 N 
ATOM     42  C   UNL     1      -9.149  -0.210  -1.904  1.00  0.00     0.251 C 
ATOM     43  H   UNL     1      -8.300   1.466  -1.174  1.00  0.00     0.163 HD
ATOM     44  O   UNL     1     -10.270   0.043  -1.492  1.00  0.00    -0.269 OA
BRANCH  42  45
ATOM     45  C   UNL     1      -8.824  -1.543  -2.463  1.00  0.00     0.039 A 
ATOM     46  C   UNL     1      -9.797  -2.291  -3.128  1.00  0.00     0.014 A 
ATOM     47  C   UNL     1      -7.542  -2.067  -2.286  1.00  0.00     0.014 A 
ATOM     48  C   UNL     1      -9.446  -3.534  -3.655  1.00  0.00     0.010 A 
ATOM     49  C   UNL     1      -7.156  -3.222  -2.926  1.00  0.00     0.010 A 
ATOM     50  C   UNL     1      -8.115  -3.987  -3.567  1.00  0.00    -0.014 A 
BRANCH  50  51
ATOM     51  C   UNL     1      -7.677  -5.168  -4.306  1.00  0.00     0.031 A 
ATOM     52  C   UNL     1      -7.997  -5.074  -5.748  1.00  0.00     0.074 A 
ATOM     53  C   UNL     1      -6.922  -6.177  -3.817  1.00  0.00     0.049 A 
ATOM     54  N   UNL     1      -9.021  -5.595  -6.336  1.00  0.00    -0.248 NA
ATOM     55  C   UNL     1      -7.259  -4.115  -6.585  1.00  0.00     0.031 C 
ATOM     56  C   UNL     1      -6.311  -6.305  -2.492  1.00  0.00     0.029 A 
ATOM     57  N   UNL     1      -6.494  -7.310  -4.449  1.00  0.00    -0.354 N 
ATOM     58  C   UNL     1      -8.880  -5.283  -7.678  1.00  0.00     0.074 A 
ATOM     59  C   UNL     1      -7.958  -4.181  -7.721  1.00  0.00     0.031 C 
ATOM     60  C   UNL     1      -5.449  -7.351  -2.480  1.00  0.00     0.029 A 
ATOM     61  C   UNL     1      -5.558  -8.068  -3.741  1.00  0.00     0.049 A 
ATOM     62  H   UNL     1      -6.823  -7.574  -5.339  1.00  0.00     0.167 HD
ATOM     63  C   UNL     1      -9.298  -6.169  -8.625  1.00  0.00     0.034 A 
ATOM     64  C   UNL     1      -4.961  -9.231  -4.135  1.00  0.00     0.034 A 
ATOM     65  C   UNL     1     -10.185  -7.159  -8.035  1.00  0.00     0.049 A 
ATOM     66  C   UNL     1      -5.899  -9.854  -5.099  1.00  0.00     0.074 A 
ATOM     67  C   UNL     1     -11.369  -7.098  -7.321  1.00  0.00     0.029 A 
ATOM     68  N   UNL     1      -9.663  -8.406  -7.766  1.00  0.00    -0.354 N 
ATOM     69  N   UNL     1      -7.090 -10.270  -4.764  1.00  0.00    -0.248 NA
ATOM     70  C   UNL     1      -5.708  -9.571  -6.511  1.00  0.00     0.031 C 
ATOM     71  C   UNL     1     -11.233  -8.081  -6.293  1.00  0.00     0.029 A 
ATOM     72  C   UNL     1     -10.028  -8.756  -6.489  1.00  0.00     0.049 A 
ATOM     73  H   UNL     1      -9.123  -8.951  -8.382  1.00  0.00     0.167 HD
ATOM     74  C   UNL     1      -7.906  -9.872  -5.811  1.00  0.00     0.074 A 
ATOM     75  C   UNL     1      -6.986  -9.533  -6.898  1.00  0.00     0.031 C 
ATOM     76  C   UNL     1      -9.225  -9.586  -5.610  1.00  0.00     0.034 A 
BRANCH  63  77
ATOM     77  C   UNL     1      -8.578  -6.419  -9.936  1.00  0.00     0.023 A 
ATOM     78  C   UNL     1      -9.084  -7.455 -10.744  1.00  0.00     0.031 A 
ATOM     79  C   UNL     1      -7.301  -5.933 -10.301  1.00  0.00     0.131 A 
ATOM     80  C   UNL     1      -8.294  -8.047 -11.743  1.00  0.00     0.055 A 
ATOM     81  C   UNL     1      -6.541  -6.489 -11.334  1.00  0.00     0.041 A 
ATOM     82  F   UNL     1      -6.676  -4.949  -9.648  1.00  0.00    -0.206 F 
ATOM     83  C   UNL     1      -7.019  -7.578 -12.038  1.00  0.00     0.022 A 
BRANCH  80  84
ATOM     84  S   UNL     1      -8.914  -9.547 -12.540  1.00  0.00     0.124 S 
ATOM     85  O   UNL     1      -9.066 -10.438 -11.395  1.00  0.00    -0.237 OA
ATOM     86  O   UNL     1     -10.149  -9.071 -13.155  1.00  0.00    -0.237 OA
ATOM     87  O   UNL     1      -7.848  -9.898 -13.474  1.00  0.00    -0.744 OA
ENDBRANCH  80  84
ENDBRANCH  63  77
BRANCH  64  88
ATOM     88  C   UNL     1      -3.540  -9.681  -3.990  1.00  0.00     0.023 A 
ATOM     89  C   UNL     1      -3.107 -10.977  -4.377  1.00  0.00     0.031 A 
ATOM     90  C   UNL     1      -2.523  -8.736  -3.738  1.00  0.00     0.131 A 
ATOM     91  C   UNL     1      -1.727 -11.268  -4.520  1.00  0.00     0.055 A 
ATOM     92  C   UNL     1      -1.163  -9.026  -3.892  1.00  0.00     0.041 A 
ATOM     93  F   UNL     1      -2.818  -7.467  -3.420  1.00  0.00    -0.206 F 
ATOM     94  C   UNL     1      -0.759 -10.288  -4.297  1.00  0.00     0.022 A 
BRANCH  91  95
ATOM     95  S   UNL     1      -1.157 -12.897  -5.124  1.00  0.00     0.124 S 
ATOM     96  O   UNL     1      -1.283 -13.727  -3.930  1.00  0.00    -0.237 OA
ATOM     97  O   UNL     1      -2.085 -13.181  -6.212  1.00  0.00    -0.237 OA
ATOM     98  O   UNL     1       0.220 -12.639  -5.548  1.00  0.00    -0.744 OA
ENDBRANCH  91  95
ENDBRANCH  64  88
BRANCH  76  99
ATOM     99  C   UNL     1      -9.870 -10.014  -4.305  1.00  0.00     0.023 A 
ATOM    100  C   UNL     1      -9.539  -9.518  -3.022  1.00  0.00     0.031 A 
ATOM    101  C   UNL     1     -10.985 -10.865  -4.410  1.00  0.00     0.131 A 
ATOM    102  C   UNL     1     -10.328  -9.877  -1.906  1.00  0.00     0.055 A 
ATOM    103  C   UNL     1     -11.773 -11.197  -3.310  1.00  0.00     0.041 A 
ATOM    104  F   UNL     1     -11.359 -11.348  -5.606  1.00  0.00    -0.206 F 
ATOM    105  C   UNL     1     -11.448 -10.703  -2.053  1.00  0.00     0.022 A 
BRANCH 102 106
ATOM    106  S   UNL     1      -9.937  -9.242  -0.239  1.00  0.00     0.124 S 
ATOM    107  O   UNL     1      -8.595  -9.759   0.009  1.00  0.00    -0.237 OA
ATOM    108  O   UNL     1     -10.044  -7.796  -0.407  1.00  0.00    -0.237 OA
ATOM    109  O   UNL     1     -10.979  -9.830   0.606  1.00  0.00    -0.744 OA
ENDBRANCH 102 106
ENDBRANCH  76  99
ENDBRANCH  50  51
ENDBRANCH  42  45
ENDBRANCH  40  41
ENDBRANCH  39  40
ENDBRANCH  38  39
ENDBRANCH  37  38
ENDBRANCH   1  37
TORSDOF 18
