REMARK SMILES C[C@@H]([NH2+]CC(C)(C)C(=O)NCCCCCCNC(=O)c1ccc(-c2c3nc(c(-c4cc(S(=O)(=O)[O-])ccc4F)c4ccc([nH]4)c(-c4cc(S(=O)(=O)[O-])ccc4F)c4nc(c(-c5cc(S(=O)(=O)[O-])ccc5F)c5ccc2[nH]5)C=C4)C=C3)cc1)C1CC1
REMARK SMILES IDX 13 1 12 2 11 3 10 4 8 5 9 6 5 8 6 9 7 10 4 11 3 12 2 15 1 16
REMARK SMILES IDX 83 17 84 18 85 19 14 20 15 21 16 22 17 23 18 24 19 26 20 27
REMARK SMILES IDX 21 28 82 29 22 30 81 31 23 32 24 33 25 34 75 35 26 36 80 37
REMARK SMILES IDX 74 38 76 39 27 40 79 41 73 42 72 43 28 45 60 46 40 47 59 48
REMARK SMILES IDX 41 49 44 50 58 51 77 52 42 53 43 54 57 56 78 57 45 58 29 59
REMARK SMILES IDX 30 60 38 61 31 62 37 63 39 64 36 65 32 66 33 67 34 68 35 69
REMARK SMILES IDX 61 70 62 71 70 72 63 73 69 74 71 75 68 76 64 77 65 78 66 79
REMARK SMILES IDX 67 80 46 81 47 82 55 83 48 84 54 85 56 86 53 87 49 88 50 89
REMARK SMILES IDX 51 90 52 91
REMARK H PARENT 10 7 3 13 3 14 17 25 76 44 44 55
REMARK Flexibility Score: inf
ROOT
ATOM      1  C   UNL     1       0.623   7.410  -1.385  1.00  0.00     0.002 C 
ENDROOT
BRANCH   1   2
ATOM      2  C   UNL     1       1.058   6.754  -2.704  1.00  0.00     0.021 C 
BRANCH   2   3
ATOM      3  C   UNL     1       2.042   5.592  -2.540  1.00  0.00     0.116 C 
BRANCH   3   4
ATOM      4  N   UNL     1       1.418   4.511  -1.806  1.00  0.00    -0.355 N 
ATOM      5  C   UNL     1       0.680   3.501  -2.345  1.00  0.00     0.231 C 
ATOM      6  O   UNL     1      -0.453   3.360  -1.883  1.00  0.00    -0.274 OA
ATOM      7  H   UNL     1       1.537   4.506  -0.829  1.00  0.00     0.163 HD
BRANCH   5   8
ATOM      8  C   UNL     1       1.237   2.629  -3.482  1.00  0.00     0.092 C 
ATOM      9  C   UNL     1       2.767   2.471  -3.424  1.00  0.00     0.027 C 
ATOM     10  C   UNL     1       0.814   3.276  -4.817  1.00  0.00     0.027 C 
BRANCH   8  11
ATOM     11  C   UNL     1       0.586   1.204  -3.453  1.00  0.00     0.277 C 
BRANCH  11  12
ATOM     12  N   UNL     1       0.869   0.258  -2.365  1.00  0.00    -0.343 N 
ATOM     13  H   UNL     1       0.523  -0.655  -2.659  1.00  0.00     0.346 HD
ATOM     14  H   UNL     1       1.877   0.324  -2.225  1.00  0.00     0.346 HD
BRANCH  12  15
ATOM     15  C   UNL     1       0.295   0.539  -1.044  1.00  0.00     0.182 C 
ATOM     16  C   UNL     1       1.007  -0.411  -0.056  1.00  0.00     0.075 C 
BRANCH  15  17
ATOM     17  C   UNL     1      -1.194   0.338  -0.859  1.00  0.00     0.047 C 
ATOM     18  C   UNL     1      -2.298   0.960  -1.687  1.00  0.00     0.010 C 
ATOM     19  C   UNL     1      -2.028  -0.516  -1.785  1.00  0.00     0.010 C 
ENDBRANCH  15  17
ENDBRANCH  12  15
ENDBRANCH  11  12
ENDBRANCH   8  11
ENDBRANCH   5   8
ENDBRANCH   3   4
ENDBRANCH   2   3
ENDBRANCH   1   2
BRANCH   1  20
ATOM     20  C   UNL     1       1.767   7.862  -0.472  1.00  0.00     0.002 C 
BRANCH  20  21
ATOM     21  C   UNL     1       2.829   8.729  -1.149  1.00  0.00     0.021 C 
BRANCH  21  22
ATOM     22  C   UNL     1       2.289   9.988  -1.811  1.00  0.00     0.116 C 
BRANCH  22  23
ATOM     23  N   UNL     1       1.780  10.941  -0.841  1.00  0.00    -0.352 N 
ATOM     24  C   UNL     1       2.091  12.273  -0.715  1.00  0.00     0.251 C 
ATOM     25  H   UNL     1       1.130  10.588  -0.191  1.00  0.00     0.163 HD
ATOM     26  O   UNL     1       1.726  12.904   0.273  1.00  0.00    -0.269 OA
BRANCH  24  27
ATOM     27  C   UNL     1       2.899  12.924  -1.769  1.00  0.00     0.039 A 
ATOM     28  C   UNL     1       4.019  13.673  -1.405  1.00  0.00     0.014 A 
ATOM     29  C   UNL     1       2.568  12.754  -3.117  1.00  0.00     0.014 A 
ATOM     30  C   UNL     1       4.847  14.202  -2.398  1.00  0.00     0.010 A 
ATOM     31  C   UNL     1       3.432  13.220  -4.103  1.00  0.00     0.010 A 
ATOM     32  C   UNL     1       4.580  13.951  -3.754  1.00  0.00    -0.014 A 
BRANCH  32  33
ATOM     33  C   UNL     1       5.469  14.457  -4.832  1.00  0.00     0.031 A 
ATOM     34  C   UNL     1       4.937  15.451  -5.828  1.00  0.00     0.074 A 
ATOM     35  C   UNL     1       6.720  13.970  -4.960  1.00  0.00     0.049 A 
ATOM     36  N   UNL     1       5.494  15.915  -6.916  1.00  0.00    -0.248 NA
ATOM     37  C   UNL     1       3.581  15.964  -5.579  1.00  0.00     0.031 C 
ATOM     38  C   UNL     1       7.341  12.988  -4.070  1.00  0.00     0.029 A 
ATOM     39  N   UNL     1       7.689  14.224  -5.899  1.00  0.00    -0.354 N 
ATOM     40  C   UNL     1       4.553  16.763  -7.491  1.00  0.00     0.074 A 
ATOM     41  C   UNL     1       3.368  16.697  -6.661  1.00  0.00     0.031 C 
ATOM     42  C   UNL     1       8.590  12.737  -4.496  1.00  0.00     0.029 A 
ATOM     43  C   UNL     1       8.843  13.497  -5.716  1.00  0.00     0.049 A 
ATOM     44  H   UNL     1       7.569  14.867  -6.635  1.00  0.00     0.167 HD
ATOM     45  C   UNL     1       4.673  17.541  -8.595  1.00  0.00     0.034 A 
ATOM     46  C   UNL     1       9.967  13.435  -6.458  1.00  0.00     0.034 A 
ATOM     47  C   UNL     1       5.867  17.605  -9.402  1.00  0.00     0.049 A 
ATOM     48  C   UNL     1      10.063  14.278  -7.706  1.00  0.00     0.074 A 
ATOM     49  C   UNL     1       6.113  18.388 -10.517  1.00  0.00     0.029 A 
ATOM     50  N   UNL     1       7.015  16.855  -9.183  1.00  0.00    -0.354 N 
ATOM     51  N   UNL     1       9.174  15.096  -8.221  1.00  0.00    -0.248 NA
ATOM     52  C   UNL     1      11.316  14.194  -8.469  1.00  0.00     0.031 C 
ATOM     53  C   UNL     1       7.383  18.066 -11.008  1.00  0.00     0.029 A 
ATOM     54  C   UNL     1       7.961  17.137 -10.157  1.00  0.00     0.049 A 
ATOM     55  H   UNL     1       7.139  16.216  -8.445  1.00  0.00     0.167 HD
ATOM     56  C   UNL     1       9.777  15.652  -9.346  1.00  0.00     0.074 A 
ATOM     57  C   UNL     1      11.105  15.081  -9.431  1.00  0.00     0.031 C 
ATOM     58  C   UNL     1       9.282  16.559 -10.226  1.00  0.00     0.034 A 
BRANCH  45  59
ATOM     59  C   UNL     1       3.473  18.363  -8.998  1.00  0.00     0.023 A 
ATOM     60  C   UNL     1       2.954  19.369  -8.164  1.00  0.00     0.031 A 
ATOM     61  C   UNL     1       2.817  18.118 -10.218  1.00  0.00     0.131 A 
ATOM     62  C   UNL     1       1.772  20.035  -8.519  1.00  0.00     0.055 A 
ATOM     63  C   UNL     1       1.689  18.845 -10.606  1.00  0.00     0.041 A 
ATOM     64  F   UNL     1       3.252  17.157 -11.047  1.00  0.00    -0.206 F 
ATOM     65  C   UNL     1       1.150  19.799  -9.747  1.00  0.00     0.022 A 
BRANCH  62  66
ATOM     66  S   UNL     1       0.979  21.104  -7.288  1.00  0.00     0.124 S 
ATOM     67  O   UNL     1       0.734  20.163  -6.197  1.00  0.00    -0.237 OA
ATOM     68  O   UNL     1       2.000  22.115  -7.043  1.00  0.00    -0.237 OA
ATOM     69  O   UNL     1      -0.222  21.581  -7.971  1.00  0.00    -0.744 OA
ENDBRANCH  62  66
ENDBRANCH  45  59
BRANCH  46  70
ATOM     70  C   UNL     1      11.090  12.538  -6.061  1.00  0.00     0.023 A 
ATOM     71  C   UNL     1      12.343  13.065  -5.709  1.00  0.00     0.031 A 
ATOM     72  C   UNL     1      10.945  11.140  -6.077  1.00  0.00     0.131 A 
ATOM     73  C   UNL     1      13.415  12.201  -5.438  1.00  0.00     0.055 A 
ATOM     74  C   UNL     1      12.000  10.284  -5.752  1.00  0.00     0.041 A 
ATOM     75  F   UNL     1       9.768  10.582  -6.402  1.00  0.00    -0.206 F 
ATOM     76  C   UNL     1      13.249  10.815  -5.444  1.00  0.00     0.022 A 
BRANCH  73  77
ATOM     77  S   UNL     1      15.060  12.918  -5.169  1.00  0.00     0.124 S 
ATOM     78  O   UNL     1      15.264  13.663  -6.405  1.00  0.00    -0.237 OA
ATOM     79  O   UNL     1      14.848  13.714  -3.965  1.00  0.00    -0.237 OA
ATOM     80  O   UNL     1      15.916  11.746  -4.996  1.00  0.00    -0.744 OA
ENDBRANCH  73  77
ENDBRANCH  46  70
BRANCH  58  81
ATOM     81  C   UNL     1      10.206  17.036 -11.319  1.00  0.00     0.023 A 
ATOM     82  C   UNL     1      10.617  16.192 -12.364  1.00  0.00     0.031 A 
ATOM     83  C   UNL     1      10.672  18.363 -11.313  1.00  0.00     0.131 A 
ATOM     84  C   UNL     1      11.505  16.673 -13.339  1.00  0.00     0.055 A 
ATOM     85  C   UNL     1      11.510  18.851 -12.316  1.00  0.00     0.041 A 
ATOM     86  F   UNL     1      10.310  19.210 -10.336  1.00  0.00    -0.206 F 
ATOM     87  C   UNL     1      11.940  18.002 -13.331  1.00  0.00     0.022 A 
BRANCH  84  88
ATOM     88  S   UNL     1      12.140  15.519 -14.586  1.00  0.00     0.124 S 
ATOM     89  O   UNL     1      12.824  14.528 -13.762  1.00  0.00    -0.237 OA
ATOM     90  O   UNL     1      10.919  15.067 -15.245  1.00  0.00    -0.237 OA
ATOM     91  O   UNL     1      13.015  16.351 -15.410  1.00  0.00    -0.744 OA
ENDBRANCH  84  88
ENDBRANCH  58  81
ENDBRANCH  32  33
ENDBRANCH  24  27
ENDBRANCH  22  23
ENDBRANCH  21  22
ENDBRANCH  20  21
ENDBRANCH   1  20
TORSDOF 20
