REMARK SMILES NS(=O)(=O)c1ccc(-n2nc(C(F)(F)F)cc2-c2ccc(CC(=O)NCCCCCCNC(=O)c3ccc(-c4c5nc(c(-c6cc(S(=O)(=O)[O-])ccc6F)c6ccc([nH]6)c(-c6cc(S(=O)(=O)[O-])ccc6F)c6nc(c(-c7cc(S(=O)(=O)[O-])ccc7F)c7ccc4[nH]7)C=C6)C=C5)cc3)cc2)cc1
REMARK SMILES IDX 27 1 26 2 25 3 23 4 24 5 22 7 21 8 18 9 19 10 99 11 20 12
REMARK SMILES IDX 98 13 17 14 9 15 10 16 11 17 16 18 8 19 5 20 6 21 101 22
REMARK SMILES IDX 7 23 100 24 2 25 3 26 4 27 1 28 12 31 13 32 14 33 15 34
REMARK SMILES IDX 28 35 29 36 30 37 31 38 32 39 33 40 34 42 35 43 36 44 97 45
REMARK SMILES IDX 37 46 96 47 38 48 39 49 40 50 90 51 41 52 95 53 89 54 91 55
REMARK SMILES IDX 42 56 94 57 88 58 87 59 43 61 75 62 55 63 74 64 56 65 59 66
REMARK SMILES IDX 73 67 92 68 57 69 58 70 72 72 93 73 60 74 44 75 45 76 53 77
REMARK SMILES IDX 46 78 52 79 54 80 51 81 47 82 48 83 49 84 50 85 76 86 77 87
REMARK SMILES IDX 85 88 78 89 84 90 86 91 83 92 79 93 80 94 81 95 82 96 61 97
REMARK SMILES IDX 62 98 70 99 63 100 69 101 71 102 68 103 64 104 65 105 66 106
REMARK SMILES IDX 67 107
REMARK H PARENT 25 6 1 29 1 30 32 41 91 60 59 71
REMARK Flexibility Score: inf
ROOT
ATOM      1  C   UNL     1       5.588   2.011   0.893  1.00  0.00     0.021 C 
ENDROOT
BRANCH   1   2
ATOM      2  C   UNL     1       7.081   2.157   0.599  1.00  0.00     0.116 C 
BRANCH   2   3
ATOM      3  N   UNL     1       7.397   1.761  -0.760  1.00  0.00    -0.356 N 
ATOM      4  C   UNL     1       7.841   2.519  -1.805  1.00  0.00     0.224 C 
ATOM      5  O   UNL     1       7.983   1.976  -2.903  1.00  0.00    -0.275 OA
ATOM      6  H   UNL     1       7.274   0.804  -0.958  1.00  0.00     0.163 HD
BRANCH   4   7
ATOM      7  C   UNL     1       8.220   3.974  -1.593  1.00  0.00     0.135 C 
BRANCH   7   8
ATOM      8  C   UNL     1       7.060   4.874  -1.257  1.00  0.00    -0.039 A 
ATOM      9  C   UNL     1       4.835   6.396  -0.526  1.00  0.00     0.000 A 
ATOM     10  C   UNL     1       4.860   5.735  -1.758  1.00  0.00     0.010 A 
ATOM     11  C   UNL     1       5.950   6.353   0.310  1.00  0.00     0.010 A 
ATOM     12  C   UNL     1       5.961   4.965  -2.117  1.00  0.00     0.005 A 
ATOM     13  C   UNL     1       7.065   5.613  -0.064  1.00  0.00     0.005 A 
BRANCH   9  14
ATOM     14  C   UNL     1       3.643   7.086  -0.075  1.00  0.00     0.075 A 
ATOM     15  N   UNL     1       2.410   6.483   0.075  1.00  0.00    -0.233 N 
ATOM     16  N   UNL     1       1.501   7.326   0.611  1.00  0.00    -0.163 NA
ATOM     17  C   UNL     1       2.116   8.518   0.704  1.00  0.00     0.167 A 
ATOM     18  C   UNL     1       3.475   8.396   0.325  1.00  0.00     0.064 A 
BRANCH  15  19
ATOM     19  C   UNL     1       2.070   5.142  -0.233  1.00  0.00     0.065 A 
ATOM     20  C   UNL     1       1.211   2.553  -0.777  1.00  0.00     0.082 A 
ATOM     21  C   UNL     1       1.838   2.840   0.441  1.00  0.00     0.024 A 
ATOM     22  C   UNL     1       1.034   3.551  -1.737  1.00  0.00     0.024 A 
ATOM     23  C   UNL     1       2.257   4.144   0.726  1.00  0.00     0.030 A 
ATOM     24  C   UNL     1       1.499   4.839  -1.478  1.00  0.00     0.030 A 
BRANCH  20  25
ATOM     25  S   UNL     1       0.665   0.926  -1.190  1.00  0.00     0.238 S 
ATOM     26  O   UNL     1       1.418   0.482  -2.337  1.00  0.00    -0.207 OA
ATOM     27  O   UNL     1      -0.778   0.877  -1.135  1.00  0.00    -0.207 OA
BRANCH  25  28
ATOM     28  N   UNL     1       1.200  -0.053   0.075  1.00  0.00    -0.225 NA
ATOM     29  H   UNL     1       0.918  -1.018  -0.099  1.00  0.00     0.137 HD
ATOM     30  H   UNL     1       0.790   0.269   0.951  1.00  0.00     0.137 HD
ENDBRANCH  25  28
ENDBRANCH  20  25
ENDBRANCH  15  19
BRANCH  17  31
ATOM     31  C   UNL     1       1.425   9.780   1.159  1.00  0.00     0.435 C 
ATOM     32  F   UNL     1       0.513  10.227   0.262  1.00  0.00    -0.164 F 
ATOM     33  F   UNL     1       0.802   9.644   2.357  1.00  0.00    -0.164 F 
ATOM     34  F   UNL     1       2.328  10.794   1.316  1.00  0.00    -0.164 F 
ENDBRANCH  17  31
ENDBRANCH   9  14
ENDBRANCH   7   8
ENDBRANCH   4   7
ENDBRANCH   2   3
ENDBRANCH   1   2
BRANCH   1  35
ATOM     35  C   UNL     1       5.105   0.556   0.956  1.00  0.00     0.002 C 
BRANCH  35  36
ATOM     36  C   UNL     1       5.887  -0.366   1.907  1.00  0.00     0.002 C 
BRANCH  36  37
ATOM     37  C   UNL     1       6.020   0.110   3.362  1.00  0.00     0.021 C 
BRANCH  37  38
ATOM     38  C   UNL     1       4.702   0.145   4.118  1.00  0.00     0.116 C 
BRANCH  38  39
ATOM     39  N   UNL     1       4.145  -1.193   4.341  1.00  0.00    -0.352 N 
ATOM     40  C   UNL     1       2.964  -1.536   4.981  1.00  0.00     0.251 C 
ATOM     41  H   UNL     1       4.678  -1.944   3.992  1.00  0.00     0.163 HD
ATOM     42  O   UNL     1       2.815  -2.657   5.452  1.00  0.00    -0.269 OA
BRANCH  40  43
ATOM     43  C   UNL     1       1.889  -0.529   5.055  1.00  0.00     0.039 A 
ATOM     44  C   UNL     1       1.033  -0.395   6.154  1.00  0.00     0.014 A 
ATOM     45  C   UNL     1       1.770   0.324   3.965  1.00  0.00     0.014 A 
ATOM     46  C   UNL     1       0.093   0.640   6.146  1.00  0.00     0.010 A 
ATOM     47  C   UNL     1       1.036   1.468   4.075  1.00  0.00     0.010 A 
ATOM     48  C   UNL     1       0.104   1.568   5.091  1.00  0.00    -0.014 A 
BRANCH  48  49
ATOM     49  C   UNL     1      -0.747   2.752   5.034  1.00  0.00     0.031 A 
ATOM     50  C   UNL     1      -0.499   3.692   6.157  1.00  0.00     0.074 A 
ATOM     51  C   UNL     1      -1.450   3.082   3.921  1.00  0.00     0.049 A 
ATOM     52  N   UNL     1      -1.265   3.920   7.170  1.00  0.00    -0.248 NA
ATOM     53  C   UNL     1       0.846   4.282   6.298  1.00  0.00     0.031 C 
ATOM     54  C   UNL     1      -1.510   2.379   2.631  1.00  0.00     0.029 A 
ATOM     55  N   UNL     1      -2.195   4.192   3.664  1.00  0.00    -0.354 N 
ATOM     56  C   UNL     1      -0.621   4.900   7.918  1.00  0.00     0.074 A 
ATOM     57  C   UNL     1       0.750   4.870   7.492  1.00  0.00     0.031 C 
ATOM     58  C   UNL     1      -2.057   3.184   1.688  1.00  0.00     0.029 A 
ATOM     59  C   UNL     1      -2.528   4.409   2.319  1.00  0.00     0.049 A 
ATOM     60  H   UNL     1      -2.483   4.805   4.379  1.00  0.00     0.167 HD
ATOM     61  C   UNL     1      -1.335   5.832   8.611  1.00  0.00     0.034 A 
ATOM     62  C   UNL     1      -3.114   5.526   1.775  1.00  0.00     0.034 A 
ATOM     63  C   UNL     1      -2.731   5.448   8.676  1.00  0.00     0.049 A 
ATOM     64  C   UNL     1      -3.733   6.255   2.910  1.00  0.00     0.074 A 
ATOM     65  C   UNL     1      -3.402   4.343   9.166  1.00  0.00     0.029 A 
ATOM     66  N   UNL     1      -3.601   6.048   7.789  1.00  0.00    -0.354 N 
ATOM     67  N   UNL     1      -4.759   5.785   3.564  1.00  0.00    -0.248 NA
ATOM     68  C   UNL     1      -2.898   7.191   3.656  1.00  0.00     0.031 C 
ATOM     69  C   UNL     1      -4.386   4.050   8.176  1.00  0.00     0.029 A 
ATOM     70  C   UNL     1      -4.350   5.053   7.205  1.00  0.00     0.049 A 
ATOM     71  H   UNL     1      -3.672   7.012   7.606  1.00  0.00     0.167 HD
ATOM     72  C   UNL     1      -4.454   5.991   4.900  1.00  0.00     0.074 A 
ATOM     73  C   UNL     1      -3.343   6.948   4.895  1.00  0.00     0.031 C 
ATOM     74  C   UNL     1      -4.899   5.132   5.865  1.00  0.00     0.034 A 
BRANCH  61  75
ATOM     75  C   UNL     1      -0.893   7.253   8.894  1.00  0.00     0.023 A 
ATOM     76  C   UNL     1      -1.803   8.070   9.594  1.00  0.00     0.031 A 
ATOM     77  C   UNL     1       0.201   7.927   8.306  1.00  0.00     0.131 A 
ATOM     78  C   UNL     1      -1.682   9.470   9.582  1.00  0.00     0.055 A 
ATOM     79  C   UNL     1       0.353   9.317   8.352  1.00  0.00     0.041 A 
ATOM     80  F   UNL     1       1.139   7.307   7.584  1.00  0.00    -0.206 F 
ATOM     81  C   UNL     1      -0.610  10.101   8.961  1.00  0.00     0.022 A 
BRANCH  78  82
ATOM     82  S   UNL     1      -3.053  10.453  10.239  1.00  0.00     0.124 S 
ATOM     83  O   UNL     1      -4.182   9.923   9.484  1.00  0.00    -0.237 OA
ATOM     84  O   UNL     1      -3.009  10.114  11.658  1.00  0.00    -0.237 OA
ATOM     85  O   UNL     1      -2.670  11.825   9.914  1.00  0.00    -0.744 OA
ENDBRANCH  78  82
ENDBRANCH  61  75
BRANCH  62  86
ATOM     86  C   UNL     1      -2.845   6.189   0.451  1.00  0.00     0.023 A 
ATOM     87  C   UNL     1      -3.682   7.126  -0.219  1.00  0.00     0.031 A 
ATOM     88  C   UNL     1      -1.535   6.098  -0.037  1.00  0.00     0.131 A 
ATOM     89  C   UNL     1      -3.186   7.898  -1.316  1.00  0.00     0.055 A 
ATOM     90  C   UNL     1      -1.061   6.881  -1.091  1.00  0.00     0.041 A 
ATOM     91  F   UNL     1      -0.643   5.309   0.576  1.00  0.00    -0.206 F 
ATOM     92  C   UNL     1      -1.871   7.780  -1.738  1.00  0.00     0.022 A 
BRANCH  89  93
ATOM     93  S   UNL     1      -4.183   9.152  -2.195  1.00  0.00     0.124 S 
ATOM     94  O   UNL     1      -5.269   8.358  -2.756  1.00  0.00    -0.237 OA
ATOM     95  O   UNL     1      -4.533  10.081  -1.128  1.00  0.00    -0.237 OA
ATOM     96  O   UNL     1      -3.257   9.697  -3.193  1.00  0.00    -0.744 OA
ENDBRANCH  89  93
ENDBRANCH  62  86
BRANCH  74  97
ATOM     97  C   UNL     1      -5.895   4.056   5.465  1.00  0.00     0.023 A 
ATOM     98  C   UNL     1      -5.672   3.062   4.480  1.00  0.00     0.031 A 
ATOM     99  C   UNL     1      -7.074   3.961   6.223  1.00  0.00     0.131 A 
ATOM    100  C   UNL     1      -6.619   2.034   4.282  1.00  0.00     0.055 A 
ATOM    101  C   UNL     1      -7.994   2.931   6.042  1.00  0.00     0.041 A 
ATOM    102  F   UNL     1      -7.332   4.856   7.191  1.00  0.00    -0.206 F 
ATOM    103  C   UNL     1      -7.773   1.966   5.067  1.00  0.00     0.022 A 
BRANCH 100 104
ATOM    104  S   UNL     1      -6.378   0.773   2.985  1.00  0.00     0.124 S 
ATOM    105  O   UNL     1      -6.063   1.561   1.800  1.00  0.00    -0.237 OA
ATOM    106  O   UNL     1      -5.289  -0.036   3.526  1.00  0.00    -0.237 OA
ATOM    107  O   UNL     1      -7.672   0.088   2.933  1.00  0.00    -0.744 OA
ENDBRANCH 100 104
ENDBRANCH  74  97
ENDBRANCH  48  49
ENDBRANCH  40  43
ENDBRANCH  38  39
ENDBRANCH  37  38
ENDBRANCH  36  37
ENDBRANCH  35  36
ENDBRANCH   1  35
TORSDOF 22
