REMARK SMILES CC(C)(C)OC(=O)Nc1ccc(-c2cccc(Cl)c2C(=O)NCCCCCCNC(=O)c2ccc(-c3c4nc(c(-c5cc(S(=O)(=O)[O-])ccc5F)c5ccc([nH]5)c(-c5cc(S(=O)(=O)[O-])ccc5F)c5nc(c(-c6cc(S(=O)(=O)[O-])ccc6F)c6ccc3[nH]6)C=C5)C=C4)cc2)cc1
REMARK SMILES IDX 25 1 24 2 23 3 22 4 20 5 21 6 19 8 13 9 14 10 15 11 17 12
REMARK SMILES IDX 16 13 18 14 12 15 9 16 10 17 96 18 11 19 95 20 8 21 6 22
REMARK SMILES IDX 7 23 5 25 2 26 1 27 3 28 4 29 26 30 27 31 28 32 29 33 30 34
REMARK SMILES IDX 31 36 32 37 33 38 94 39 34 40 93 41 35 42 36 43 37 44 87 45
REMARK SMILES IDX 38 46 92 47 86 48 88 49 39 50 91 51 85 52 84 53 40 55 72 56
REMARK SMILES IDX 52 57 71 58 53 59 56 60 70 61 89 62 54 63 55 64 69 66 90 67
REMARK SMILES IDX 57 68 41 69 42 70 50 71 43 72 49 73 51 74 48 75 44 76 45 77
REMARK SMILES IDX 46 78 47 79 73 80 74 81 82 82 75 83 81 84 83 85 80 86 76 87
REMARK SMILES IDX 77 88 78 89 79 90 58 91 59 92 67 93 60 94 66 95 68 96 65 97
REMARK SMILES IDX 61 98 62 99 63 100 64 101
REMARK H PARENT 22 7 8 24 29 35 88 54 56 65
REMARK Flexibility Score: inf
ROOT
ATOM      1  C   UNL     1       4.939   5.123   3.102  1.00  0.00     0.002 C 
ENDROOT
BRANCH   1   2
ATOM      2  C   UNL     1       4.560   4.535   4.462  1.00  0.00     0.021 C 
BRANCH   2   3
ATOM      3  C   UNL     1       4.776   3.048   4.707  1.00  0.00     0.116 C 
BRANCH   3   4
ATOM      4  N   UNL     1       6.114   2.569   4.929  1.00  0.00    -0.352 N 
ATOM      5  C   UNL     1       6.542   1.417   5.564  1.00  0.00     0.253 C 
ATOM      6  O   UNL     1       7.617   0.972   5.146  1.00  0.00    -0.269 OA
ATOM      7  H   UNL     1       6.830   3.146   4.578  1.00  0.00     0.163 HD
BRANCH   5   8
ATOM      8  C   UNL     1       5.888   0.688   6.723  1.00  0.00     0.066 A 
ATOM      9  C   UNL     1       4.535   0.254   6.835  1.00  0.00    -0.004 A 
ATOM     10  C   UNL     1       4.167  -0.618   7.898  1.00  0.00     0.009 A 
ATOM     11  C   UNL     1       5.069  -1.060   8.851  1.00  0.00     0.002 A 
ATOM     12  C   UNL     1       6.777   0.261   7.754  1.00  0.00     0.054 A 
ATOM     13  C   UNL     1       6.372  -0.607   8.786  1.00  0.00     0.021 A 
ATOM     14  Cl  UNL     1       8.419   0.820   7.916  1.00  0.00    -0.083 Cl
BRANCH   9  15
ATOM     15  C   UNL     1       3.400   0.648   5.996  1.00  0.00    -0.017 A 
ATOM     16  C   UNL     1       1.256   1.593   4.416  1.00  0.00     0.044 A 
ATOM     17  C   UNL     1       1.383   2.004   5.745  1.00  0.00     0.027 A 
ATOM     18  C   UNL     1       2.149   0.639   3.918  1.00  0.00     0.027 A 
ATOM     19  C   UNL     1       2.431   1.524   6.530  1.00  0.00     0.011 A 
ATOM     20  C   UNL     1       3.214   0.167   4.701  1.00  0.00     0.011 A 
BRANCH  16  21
ATOM     21  N   UNL     1       0.252   2.226   3.670  1.00  0.00    -0.291 N 
ATOM     22  C   UNL     1      -0.079   2.174   2.344  1.00  0.00     0.412 C 
ATOM     23  O   UNL     1      -0.961   2.912   1.923  1.00  0.00    -0.224 OA
ATOM     24  H   UNL     1      -0.325   2.821   4.201  1.00  0.00     0.173 HD
BRANCH  22  25
ATOM     25  O   UNL     1       0.637   1.311   1.594  1.00  0.00    -0.444 OA
BRANCH  25  26
ATOM     26  C   UNL     1       0.324   1.083   0.195  1.00  0.00     0.106 C 
ATOM     27  C   UNL     1       1.034  -0.232  -0.144  1.00  0.00     0.056 C 
ATOM     28  C   UNL     1       0.886   2.205  -0.682  1.00  0.00     0.056 C 
ATOM     29  C   UNL     1      -1.173   0.902  -0.052  1.00  0.00     0.056 C 
ENDBRANCH  25  26
ENDBRANCH  22  25
ENDBRANCH  16  21
ENDBRANCH   9  15
ENDBRANCH   5   8
ENDBRANCH   3   4
ENDBRANCH   2   3
ENDBRANCH   1   2
BRANCH   1  30
ATOM     30  C   UNL     1       4.338   4.488   1.843  1.00  0.00     0.002 C 
BRANCH  30  31
ATOM     31  C   UNL     1       2.841   4.171   1.850  1.00  0.00     0.021 C 
BRANCH  31  32
ATOM     32  C   UNL     1       1.868   5.329   2.079  1.00  0.00     0.116 C 
BRANCH  32  33
ATOM     33  N   UNL     1       1.765   6.206   0.927  1.00  0.00    -0.352 N 
ATOM     34  C   UNL     1       0.715   6.488   0.083  1.00  0.00     0.251 C 
ATOM     35  H   UNL     1       2.597   6.686   0.710  1.00  0.00     0.163 HD
ATOM     36  O   UNL     1       0.966   7.115  -0.948  1.00  0.00    -0.269 OA
BRANCH  34  37
ATOM     37  C   UNL     1      -0.690   6.063   0.347  1.00  0.00     0.039 A 
ATOM     38  C   UNL     1      -1.502   5.747  -0.753  1.00  0.00     0.014 A 
ATOM     39  C   UNL     1      -1.262   6.056   1.620  1.00  0.00     0.014 A 
ATOM     40  C   UNL     1      -2.847   5.387  -0.577  1.00  0.00     0.010 A 
ATOM     41  C   UNL     1      -2.587   5.622   1.801  1.00  0.00     0.010 A 
ATOM     42  C   UNL     1      -3.404   5.285   0.707  1.00  0.00    -0.014 A 
BRANCH  42  43
ATOM     43  C   UNL     1      -4.828   4.856   0.910  1.00  0.00     0.031 A 
ATOM     44  C   UNL     1      -5.819   5.777   1.576  1.00  0.00     0.074 A 
ATOM     45  C   UNL     1      -5.247   3.629   0.532  1.00  0.00     0.049 A 
ATOM     46  N   UNL     1      -7.080   5.569   1.869  1.00  0.00    -0.248 NA
ATOM     47  C   UNL     1      -5.324   7.101   1.970  1.00  0.00     0.031 C 
ATOM     48  C   UNL     1      -4.419   2.640  -0.148  1.00  0.00     0.029 A 
ATOM     49  N   UNL     1      -6.462   2.995   0.662  1.00  0.00    -0.354 N 
ATOM     50  C   UNL     1      -7.528   6.735   2.479  1.00  0.00     0.074 A 
ATOM     51  C   UNL     1      -6.379   7.611   2.586  1.00  0.00     0.031 C 
ATOM     52  C   UNL     1      -5.131   1.524  -0.367  1.00  0.00     0.029 A 
ATOM     53  C   UNL     1      -6.474   1.708   0.168  1.00  0.00     0.049 A 
ATOM     54  H   UNL     1      -7.249   3.421   1.071  1.00  0.00     0.167 HD
ATOM     55  C   UNL     1      -8.783   7.063   2.881  1.00  0.00     0.034 A 
ATOM     56  C   UNL     1      -7.449   0.776   0.137  1.00  0.00     0.034 A 
ATOM     57  C   UNL     1      -9.924   6.184   2.772  1.00  0.00     0.049 A 
ATOM     58  C   UNL     1      -8.810   1.123   0.681  1.00  0.00     0.074 A 
ATOM     59  C   UNL     1     -11.244   6.441   3.102  1.00  0.00     0.029 A 
ATOM     60  N   UNL     1      -9.883   4.871   2.317  1.00  0.00    -0.354 N 
ATOM     61  N   UNL     1      -9.227   2.252   1.204  1.00  0.00    -0.248 NA
ATOM     62  C   UNL     1      -9.838   0.077   0.608  1.00  0.00     0.031 C 
ATOM     63  C   UNL     1     -11.980   5.263   2.933  1.00  0.00     0.029 A 
ATOM     64  C   UNL     1     -11.143   4.293   2.407  1.00  0.00     0.049 A 
ATOM     65  H   UNL     1      -9.078   4.417   1.980  1.00  0.00     0.167 HD
ATOM     66  C   UNL     1     -10.579   2.067   1.475  1.00  0.00     0.074 A 
ATOM     67  C   UNL     1     -10.907   0.720   1.056  1.00  0.00     0.031 C 
ATOM     68  C   UNL     1     -11.470   2.942   2.008  1.00  0.00     0.034 A 
BRANCH  55  69
ATOM     69  C   UNL     1      -8.969   8.427   3.510  1.00  0.00     0.023 A 
ATOM     70  C   UNL     1      -8.675   9.611   2.808  1.00  0.00     0.031 A 
ATOM     71  C   UNL     1      -9.393   8.547   4.845  1.00  0.00     0.131 A 
ATOM     72  C   UNL     1      -8.703  10.845   3.473  1.00  0.00     0.055 A 
ATOM     73  C   UNL     1      -9.517   9.789   5.471  1.00  0.00     0.041 A 
ATOM     74  F   UNL     1      -9.672   7.455   5.576  1.00  0.00    -0.206 F 
ATOM     75  C   UNL     1      -9.149  10.947   4.792  1.00  0.00     0.022 A 
BRANCH  72  76
ATOM     76  S   UNL     1      -7.959  12.283   2.653  1.00  0.00     0.124 S 
ATOM     77  O   UNL     1      -6.608  11.799   2.377  1.00  0.00    -0.237 OA
ATOM     78  O   UNL     1      -8.823  12.466   1.493  1.00  0.00    -0.237 OA
ATOM     79  O   UNL     1      -8.039  13.334   3.666  1.00  0.00    -0.744 OA
ENDBRANCH  72  76
ENDBRANCH  55  69
BRANCH  56  80
ATOM     80  C   UNL     1      -7.191  -0.572  -0.450  1.00  0.00     0.023 A 
ATOM     81  C   UNL     1      -7.863  -0.994  -1.609  1.00  0.00     0.031 A 
ATOM     82  C   UNL     1      -6.303  -1.475   0.162  1.00  0.00     0.131 A 
ATOM     83  C   UNL     1      -7.673  -2.297  -2.095  1.00  0.00     0.055 A 
ATOM     84  C   UNL     1      -6.077  -2.753  -0.356  1.00  0.00     0.041 A 
ATOM     85  F   UNL     1      -5.633  -1.124   1.271  1.00  0.00    -0.206 F 
ATOM     86  C   UNL     1      -6.774  -3.174  -1.484  1.00  0.00     0.022 A 
BRANCH  83  87
ATOM     87  S   UNL     1      -8.682  -2.858  -3.494  1.00  0.00     0.124 S 
ATOM     88  O   UNL     1     -10.033  -2.705  -2.965  1.00  0.00    -0.237 OA
ATOM     89  O   UNL     1      -8.292  -1.923  -4.543  1.00  0.00    -0.237 OA
ATOM     90  O   UNL     1      -8.244  -4.238  -3.697  1.00  0.00    -0.744 OA
ENDBRANCH  83  87
ENDBRANCH  56  80
BRANCH  68  91
ATOM     91  C   UNL     1     -12.905   2.482   2.123  1.00  0.00     0.023 A 
ATOM     92  C   UNL     1     -13.281   1.420   2.965  1.00  0.00     0.031 A 
ATOM     93  C   UNL     1     -13.911   3.106   1.363  1.00  0.00     0.131 A 
ATOM     94  C   UNL     1     -14.613   0.976   2.982  1.00  0.00     0.055 A 
ATOM     95  C   UNL     1     -15.246   2.706   1.436  1.00  0.00     0.041 A 
ATOM     96  F   UNL     1     -13.612   4.119   0.534  1.00  0.00    -0.206 F 
ATOM     97  C   UNL     1     -15.601   1.626   2.238  1.00  0.00     0.022 A 
BRANCH  94  98
ATOM     98  S   UNL     1     -15.020  -0.528   3.910  1.00  0.00     0.124 S 
ATOM     99  O   UNL     1     -14.148  -1.516   3.283  1.00  0.00    -0.237 OA
ATOM    100  O   UNL     1     -14.677  -0.154   5.278  1.00  0.00    -0.237 OA
ATOM    101  O   UNL     1     -16.448  -0.712   3.658  1.00  0.00    -0.744 OA
ENDBRANCH  94  98
ENDBRANCH  68  91
ENDBRANCH  42  43
ENDBRANCH  34  37
ENDBRANCH  32  33
ENDBRANCH  31  32
ENDBRANCH  30  31
ENDBRANCH   1  30
TORSDOF 20
