REMARK SMILES C[C@H]1CCc2sc3ncn4nc(/C=C\C(=O)NCCCCCCNC(=O)c5ccc(-c6c7nc(c(-c8cc(S(=O)(=O)[O-])ccc8F)c8ccc([nH]8)c(-c8cc(S(=O)(=O)[O-])ccc8F)c8nc(c(-c9cc(S(=O)(=O)[O-])ccc9F)c9ccc6[nH]9)C=C8)C=C7)cc5)nc4c3c2C1
REMARK SMILES IDX 21 1 20 2 19 3 18 4 17 5 15 6 16 7 14 9 13 10 12 11 1 12
REMARK SMILES IDX 2 13 3 14 94 15 4 16 93 17 5 18 92 19 6 20 7 21 91 22 8 23
REMARK SMILES IDX 10 24 90 25 9 26 11 27 22 28 23 29 24 30 25 31 26 33 27 34
REMARK SMILES IDX 28 35 89 36 29 37 88 38 30 39 31 40 32 41 82 42 33 43 87 44
REMARK SMILES IDX 81 45 83 46 34 47 86 48 80 49 79 50 35 52 67 53 47 54 66 55
REMARK SMILES IDX 48 56 51 57 65 58 84 59 49 60 50 61 64 63 85 64 52 65 36 66
REMARK SMILES IDX 37 67 45 68 38 69 44 70 46 71 43 72 39 73 40 74 41 75 42 76
REMARK SMILES IDX 68 77 69 78 77 79 70 80 76 81 78 82 75 83 71 84 72 85 73 86
REMARK SMILES IDX 74 87 53 88 54 89 62 90 55 91 61 92 63 93 60 94 56 95 57 96
REMARK SMILES IDX 58 97 59 98
REMARK H PARENT 17 8 24 32 83 51 51 62
REMARK Flexibility Score: inf
ROOT
ATOM      1  C   UNL     1       2.522  -2.438   3.376  1.00  0.00     0.002 C 
ENDROOT
BRANCH   1   2
ATOM      2  C   UNL     1       3.815  -2.688   2.587  1.00  0.00     0.002 C 
BRANCH   2   3
ATOM      3  C   UNL     1       4.014  -4.067   1.941  1.00  0.00     0.021 C 
BRANCH   3   4
ATOM      4  C   UNL     1       2.804  -4.693   1.257  1.00  0.00     0.116 C 
BRANCH   4   5
ATOM      5  N   UNL     1       2.571  -4.261  -0.106  1.00  0.00    -0.353 N 
ATOM      6  C   UNL     1       2.013  -4.963  -1.135  1.00  0.00     0.244 C 
ATOM      7  O   UNL     1       1.835  -4.426  -2.228  1.00  0.00    -0.270 OA
ATOM      8  H   UNL     1       2.853  -3.342  -0.318  1.00  0.00     0.163 HD
BRANCH   6   9
ATOM      9  C   UNL     1       1.766  -6.421  -1.011  1.00  0.00     0.075 C 
ATOM     10  C   UNL     1       0.975  -7.077  -0.146  1.00  0.00     0.057 C 
BRANCH  10  11
ATOM     11  C   UNL     1       0.175  -6.549   0.905  1.00  0.00     0.175 A 
ATOM     12  C   UNL     1      -1.942   0.208   0.769  1.00  0.00     0.008 C 
ATOM     13  C   UNL     1      -0.564  -0.367   1.110  1.00  0.00    -0.009 C 
ATOM     14  C   UNL     1      -0.057   0.191   2.457  1.00  0.00     0.009 C 
ATOM     15  C   UNL     1      -0.591  -1.917   1.104  1.00  0.00     0.041 C 
ATOM     16  C   UNL     1      -0.927  -0.246   3.647  1.00  0.00     0.047 C 
ATOM     17  C   UNL     1      -1.057  -2.489   2.416  1.00  0.00    -0.020 A 
ATOM     18  C   UNL     1      -1.231  -1.710   3.549  1.00  0.00     0.011 A 
ATOM     19  C   UNL     1      -1.165  -3.856   2.776  1.00  0.00     0.060 A 
ATOM     20  S   UNL     1      -1.791  -2.601   4.897  1.00  0.00    -0.120 S 
ATOM     21  C   UNL     1      -1.504  -4.089   4.103  1.00  0.00     0.129 A 
ATOM     22  C   UNL     1      -0.764  -5.072   2.049  1.00  0.00     0.168 A 
ATOM     23  N   UNL     1      -1.488  -5.286   4.782  1.00  0.00    -0.225 NA
ATOM     24  N   UNL     1      -0.687  -6.228   2.766  1.00  0.00    -0.201 N 
ATOM     25  N   UNL     1      -0.269  -5.246   0.851  1.00  0.00    -0.207 NA
ATOM     26  C   UNL     1      -1.037  -6.320   4.113  1.00  0.00     0.227 A 
ATOM     27  N   UNL     1      -0.118  -7.209   2.041  1.00  0.00    -0.145 NA
ENDBRANCH  10  11
ENDBRANCH   6   9
ENDBRANCH   4   5
ENDBRANCH   3   4
ENDBRANCH   2   3
ENDBRANCH   1   2
BRANCH   1  28
ATOM     28  C   UNL     1       2.114  -3.497   4.407  1.00  0.00     0.021 C 
BRANCH  28  29
ATOM     29  C   UNL     1       2.285  -3.044   5.847  1.00  0.00     0.116 C 
BRANCH  29  30
ATOM     30  N   UNL     1       1.353  -2.001   6.305  1.00  0.00    -0.352 N 
ATOM     31  C   UNL     1       1.303  -1.414   7.571  1.00  0.00     0.251 C 
ATOM     32  H   UNL     1       0.693  -1.682   5.648  1.00  0.00     0.163 HD
ATOM     33  O   UNL     1       0.357  -0.723   7.930  1.00  0.00    -0.269 OA
BRANCH  31  34
ATOM     34  C   UNL     1       2.443  -1.680   8.473  1.00  0.00     0.039 A 
ATOM     35  C   UNL     1       2.290  -2.402   9.660  1.00  0.00     0.014 A 
ATOM     36  C   UNL     1       3.683  -1.529   7.888  1.00  0.00     0.014 A 
ATOM     37  C   UNL     1       3.371  -3.159  10.131  1.00  0.00     0.010 A 
ATOM     38  C   UNL     1       4.629  -2.472   8.207  1.00  0.00     0.010 A 
ATOM     39  C   UNL     1       4.525  -3.278   9.342  1.00  0.00    -0.014 A 
BRANCH  39  40
ATOM     40  C   UNL     1       5.553  -4.307   9.588  1.00  0.00     0.031 A 
ATOM     41  C   UNL     1       5.123  -5.632  10.140  1.00  0.00     0.074 A 
ATOM     42  C   UNL     1       6.834  -4.210   9.156  1.00  0.00     0.049 A 
ATOM     43  N   UNL     1       5.408  -6.121  11.304  1.00  0.00    -0.248 NA
ATOM     44  C   UNL     1       4.257  -6.509   9.339  1.00  0.00     0.031 C 
ATOM     45  C   UNL     1       7.489  -3.127   8.408  1.00  0.00     0.029 A 
ATOM     46  N   UNL     1       7.817  -5.153   9.212  1.00  0.00    -0.354 N 
ATOM     47  C   UNL     1       4.923  -7.426  11.334  1.00  0.00     0.074 A 
ATOM     48  C   UNL     1       4.114  -7.566  10.147  1.00  0.00     0.031 C 
ATOM     49  C   UNL     1       8.631  -3.571   7.848  1.00  0.00     0.029 A 
ATOM     50  C   UNL     1       8.915  -4.872   8.412  1.00  0.00     0.049 A 
ATOM     51  H   UNL     1       7.753  -5.961   9.771  1.00  0.00     0.167 HD
ATOM     52  C   UNL     1       5.352  -8.340  12.255  1.00  0.00     0.034 A 
ATOM     53  C   UNL     1      10.060  -5.579   8.289  1.00  0.00     0.034 A 
ATOM     54  C   UNL     1       6.104  -7.709  13.313  1.00  0.00     0.049 A 
ATOM     55  C   UNL     1      10.228  -6.307   9.564  1.00  0.00     0.074 A 
ATOM     56  C   UNL     1       5.823  -6.743  14.260  1.00  0.00     0.029 A 
ATOM     57  N   UNL     1       7.477  -7.753  13.244  1.00  0.00    -0.354 N 
ATOM     58  N   UNL     1      10.380  -5.705  10.712  1.00  0.00    -0.248 NA
ATOM     59  C   UNL     1       9.789  -7.688   9.644  1.00  0.00     0.031 C 
ATOM     60  C   UNL     1       6.986  -5.913  14.290  1.00  0.00     0.029 A 
ATOM     61  C   UNL     1       7.931  -6.466  13.421  1.00  0.00     0.049 A 
ATOM     62  H   UNL     1       8.031  -8.554  13.096  1.00  0.00     0.167 HD
ATOM     63  C   UNL     1       9.640  -6.456  11.610  1.00  0.00     0.074 A 
ATOM     64  C   UNL     1       9.414  -7.728  10.926  1.00  0.00     0.031 C 
ATOM     65  C   UNL     1       9.056  -5.886  12.707  1.00  0.00     0.034 A 
BRANCH  52  66
ATOM     66  C   UNL     1       5.310  -9.844  12.101  1.00  0.00     0.023 A 
ATOM     67  C   UNL     1       5.533 -10.662  13.230  1.00  0.00     0.031 A 
ATOM     68  C   UNL     1       5.290 -10.508  10.855  1.00  0.00     0.131 A 
ATOM     69  C   UNL     1       5.735 -12.050  13.093  1.00  0.00     0.055 A 
ATOM     70  C   UNL     1       5.430 -11.894  10.728  1.00  0.00     0.041 A 
ATOM     71  F   UNL     1       5.229  -9.837   9.697  1.00  0.00    -0.206 F 
ATOM     72  C   UNL     1       5.668 -12.673  11.849  1.00  0.00     0.022 A 
BRANCH  69  73
ATOM     73  S   UNL     1       6.217 -13.023  14.549  1.00  0.00     0.124 S 
ATOM     74  O   UNL     1       7.422 -12.330  14.990  1.00  0.00    -0.237 OA
ATOM     75  O   UNL     1       5.045 -12.889  15.407  1.00  0.00    -0.237 OA
ATOM     76  O   UNL     1       6.436 -14.363  14.006  1.00  0.00    -0.744 OA
ENDBRANCH  69  73
ENDBRANCH  52  66
BRANCH  53  77
ATOM     77  C   UNL     1      10.828  -5.821   7.049  1.00  0.00     0.023 A 
ATOM     78  C   UNL     1      12.127  -6.356   7.088  1.00  0.00     0.031 A 
ATOM     79  C   UNL     1      10.194  -5.766   5.786  1.00  0.00     0.131 A 
ATOM     80  C   UNL     1      12.730  -6.838   5.909  1.00  0.00     0.055 A 
ATOM     81  C   UNL     1      10.800  -6.233   4.618  1.00  0.00     0.041 A 
ATOM     82  F   UNL     1       8.927  -5.339   5.659  1.00  0.00    -0.206 F 
ATOM     83  C   UNL     1      12.068  -6.789   4.679  1.00  0.00     0.022 A 
BRANCH  80  84
ATOM     84  S   UNL     1      14.336  -7.684   5.993  1.00  0.00     0.124 S 
ATOM     85  O   UNL     1      15.270  -6.565   5.963  1.00  0.00    -0.237 OA
ATOM     86  O   UNL     1      14.246  -8.418   7.251  1.00  0.00    -0.237 OA
ATOM     87  O   UNL     1      14.332  -8.523   4.795  1.00  0.00    -0.744 OA
ENDBRANCH  80  84
ENDBRANCH  53  77
BRANCH  65  88
ATOM     88  C   UNL     1       9.445  -4.458  13.066  1.00  0.00     0.023 A 
ATOM     89  C   UNL     1       9.284  -3.340  12.213  1.00  0.00     0.031 A 
ATOM     90  C   UNL     1       9.892  -4.208  14.375  1.00  0.00     0.131 A 
ATOM     91  C   UNL     1       9.578  -2.040  12.674  1.00  0.00     0.055 A 
ATOM     92  C   UNL     1      10.165  -2.918  14.836  1.00  0.00     0.041 A 
ATOM     93  F   UNL     1      10.039  -5.218  15.248  1.00  0.00    -0.206 F 
ATOM     94  C   UNL     1      10.014  -1.828  13.985  1.00  0.00     0.022 A 
BRANCH  91  95
ATOM     95  S   UNL     1       9.398  -0.600  11.567  1.00  0.00     0.124 S 
ATOM     96  O   UNL     1      10.178  -0.973  10.392  1.00  0.00    -0.237 OA
ATOM     97  O   UNL     1       7.953  -0.521  11.372  1.00  0.00    -0.237 OA
ATOM     98  O   UNL     1       9.965   0.502  12.347  1.00  0.00    -0.744 OA
ENDBRANCH  91  95
ENDBRANCH  65  88
ENDBRANCH  39  40
ENDBRANCH  31  34
ENDBRANCH  29  30
ENDBRANCH  28  29
ENDBRANCH   1  28
TORSDOF 17
