REMARK SMILES CN(C(=O)C[C@H]1SC(=O)N(c2cccc(O)c2)C1=O)c1ccccc1C(=O)NCCCCCCNC(=O)c1ccc(-c2c3nc(c(-c4cc(S(=O)(=O)[O-])ccc4F)c4ccc([nH]4)c(-c4cc(S(=O)(=O)[O-])ccc4F)c4nc(c(-c5cc(S(=O)(=O)[O-])ccc5F)c5ccc2[nH]5)C=C4)C=C3)cc1
REMARK SMILES IDX 30 1 29 2 28 3 26 4 27 5 25 7 20 8 21 9 22 10 24 11 23 12
REMARK SMILES IDX 2 13 1 14 3 15 4 16 5 17 6 18 7 19 18 20 8 21 10 22 19 23
REMARK SMILES IDX 9 24 11 25 12 26 17 27 13 28 15 29 14 30 16 31 31 33 32 34
REMARK SMILES IDX 33 35 34 36 35 37 36 38 37 40 38 41 39 42 100 43 40 44 99 45
REMARK SMILES IDX 41 46 42 47 43 48 93 49 44 50 98 51 92 52 94 53 45 54 97 55
REMARK SMILES IDX 91 56 90 57 46 59 78 60 58 61 77 62 59 63 62 64 76 65 95 66
REMARK SMILES IDX 60 67 61 68 75 70 96 71 63 72 47 73 48 74 56 75 49 76 55 77
REMARK SMILES IDX 57 78 54 79 50 80 51 81 52 82 53 83 79 84 80 85 88 86 81 87
REMARK SMILES IDX 87 88 89 89 86 90 82 91 83 92 84 93 85 94 64 95 65 96 73 97
REMARK SMILES IDX 66 98 72 99 74 100 71 101 67 102 68 103 69 104 70 105
REMARK H PARENT 28 6 16 32 35 39 94 58 62 69
REMARK Flexibility Score: inf
ROOT
ATOM      1  C   UNL     1      -1.245  -4.882   0.131  1.00  0.00     0.021 C 
ENDROOT
BRANCH   1   2
ATOM      2  C   UNL     1      -0.736  -5.455  -1.231  1.00  0.00     0.116 C 
BRANCH   2   3
ATOM      3  N   UNL     1      -0.145  -6.766  -1.129  1.00  0.00    -0.352 N 
ATOM      4  C   UNL     1       0.919  -7.332  -1.789  1.00  0.00     0.253 C 
ATOM      5  O   UNL     1       1.242  -8.484  -1.495  1.00  0.00    -0.269 OA
ATOM      6  H   UNL     1      -0.579  -7.358  -0.473  1.00  0.00     0.163 HD
BRANCH   4   7
ATOM      7  C   UNL     1       1.615  -6.683  -2.928  1.00  0.00     0.063 A 
ATOM      8  C   UNL     1       2.388  -5.504  -2.899  1.00  0.00     0.056 A 
ATOM      9  C   UNL     1       3.042  -5.089  -4.073  1.00  0.00     0.027 A 
ATOM     10  C   UNL     1       2.966  -5.844  -5.245  1.00  0.00     0.002 A 
ATOM     11  C   UNL     1       1.560  -7.438  -4.117  1.00  0.00     0.016 A 
ATOM     12  C   UNL     1       2.233  -7.025  -5.265  1.00  0.00     0.001 A 
BRANCH   8  13
ATOM     13  N   UNL     1       2.682  -4.779  -1.702  1.00  0.00    -0.315 N 
ATOM     14  C   UNL     1       3.828  -5.318  -0.957  1.00  0.00     0.153 C 
BRANCH  13  15
ATOM     15  C   UNL     1       2.166  -3.490  -1.541  1.00  0.00     0.228 C 
ATOM     16  O   UNL     1       1.610  -2.872  -2.454  1.00  0.00    -0.274 OA
BRANCH  15  17
ATOM     17  C   UNL     1       2.088  -2.911  -0.124  1.00  0.00     0.125 C 
BRANCH  17  18
ATOM     18  C   UNL     1       0.900  -3.617   0.613  1.00  0.00     0.156 C 
ATOM     19  S   UNL     1       1.568  -5.892   1.152  1.00  0.00    -0.050 SA
ATOM     20  C   UNL     1      -0.148  -2.979   2.238  1.00  0.00     0.248 C 
ATOM     21  C   UNL     1       0.689  -5.776   3.245  1.00  0.00     0.293 C 
ATOM     22  N   UNL     1      -0.014  -4.231   3.549  1.00  0.00    -0.240 N 
ATOM     23  O   UNL     1      -0.940  -2.042   2.251  1.00  0.00    -0.273 OA
ATOM     24  O   UNL     1       0.847  -6.740   3.977  1.00  0.00    -0.261 OA
BRANCH  22  25
ATOM     25  C   UNL     1      -0.104  -3.925   4.955  1.00  0.00     0.056 A 
ATOM     26  C   UNL     1       1.026  -4.245   5.750  1.00  0.00     0.027 A 
ATOM     27  C   UNL     1      -1.149  -3.234   5.551  1.00  0.00     0.073 A 
ATOM     28  C   UNL     1       1.161  -3.810   7.066  1.00  0.00     0.006 A 
ATOM     29  C   UNL     1      -1.005  -2.820   6.885  1.00  0.00     0.117 A 
ATOM     30  C   UNL     1       0.133  -3.087   7.641  1.00  0.00     0.046 A 
BRANCH  29  31
ATOM     31  O   UNL     1      -1.951  -2.005   7.438  1.00  0.00    -0.508 OA
ATOM     32  H   UNL     1      -1.865  -1.723   8.328  1.00  0.00     0.293 HD
ENDBRANCH  29  31
ENDBRANCH  22  25
ENDBRANCH  17  18
ENDBRANCH  15  17
ENDBRANCH  13  15
ENDBRANCH   8  13
ENDBRANCH   4   7
ENDBRANCH   2   3
ENDBRANCH   1   2
BRANCH   1  33
ATOM     33  C   UNL     1      -0.334  -4.841   1.628  1.00  0.00     0.002 C 
BRANCH  33  34
ATOM     34  C   UNL     1       1.549  -4.003   2.388  1.00  0.00     0.002 C 
BRANCH  34  35
ATOM     35  C   UNL     1       2.095  -2.447   3.038  1.00  0.00     0.021 C 
BRANCH  35  36
ATOM     36  C   UNL     1       1.448  -1.057   3.284  1.00  0.00     0.116 C 
BRANCH  36  37
ATOM     37  N   UNL     1       0.333  -1.000   4.224  1.00  0.00    -0.352 N 
ATOM     38  C   UNL     1      -0.093   0.013   5.045  1.00  0.00     0.251 C 
ATOM     39  H   UNL     1      -0.203  -1.824   4.276  1.00  0.00     0.163 HD
ATOM     40  O   UNL     1      -1.063  -0.084   5.788  1.00  0.00    -0.269 OA
BRANCH  38  41
ATOM     41  C   UNL     1       0.606   1.276   4.918  1.00  0.00     0.039 A 
ATOM     42  C   UNL     1       1.360   1.771   5.976  1.00  0.00     0.014 A 
ATOM     43  C   UNL     1       0.569   1.874   3.657  1.00  0.00     0.014 A 
ATOM     44  C   UNL     1       2.154   2.880   5.740  1.00  0.00     0.010 A 
ATOM     45  C   UNL     1       1.423   2.919   3.404  1.00  0.00     0.010 A 
ATOM     46  C   UNL     1       2.208   3.429   4.447  1.00  0.00    -0.014 A 
BRANCH  46  47
ATOM     47  C   UNL     1       3.053   4.593   4.156  1.00  0.00     0.031 A 
ATOM     48  C   UNL     1       2.379   5.881   3.801  1.00  0.00     0.074 A 
ATOM     49  C   UNL     1       4.387   4.432   4.129  1.00  0.00     0.049 A 
ATOM     50  N   UNL     1       2.905   7.001   3.393  1.00  0.00    -0.248 NA
ATOM     51  C   UNL     1       0.907   5.890   3.864  1.00  0.00     0.031 C 
ATOM     52  C   UNL     1       5.095   3.178   4.409  1.00  0.00     0.029 A 
ATOM     53  N   UNL     1       5.384   5.321   3.847  1.00  0.00    -0.354 N 
ATOM     54  C   UNL     1       1.829   7.844   3.140  1.00  0.00     0.074 A 
ATOM     55  C   UNL     1       0.624   7.075   3.352  1.00  0.00     0.031 C 
ATOM     56  C   UNL     1       6.417   3.392   4.315  1.00  0.00     0.029 A 
ATOM     57  C   UNL     1       6.644   4.779   3.930  1.00  0.00     0.049 A 
ATOM     58  H   UNL     1       5.216   6.261   3.607  1.00  0.00     0.167 HD
ATOM     59  C   UNL     1       1.858   9.154   2.801  1.00  0.00     0.034 A 
ATOM     60  C   UNL     1       7.840   5.357   3.716  1.00  0.00     0.034 A 
ATOM     61  C   UNL     1       3.089   9.876   2.616  1.00  0.00     0.049 A 
ATOM     62  C   UNL     1       7.846   6.820   3.350  1.00  0.00     0.074 A 
ATOM     63  C   UNL     1       3.277  11.205   2.292  1.00  0.00     0.029 A 
ATOM     64  N   UNL     1       4.356   9.312   2.749  1.00  0.00    -0.354 N 
ATOM     65  N   UNL     1       6.824   7.626   3.156  1.00  0.00    -0.248 NA
ATOM     66  C   UNL     1       9.156   7.457   3.195  1.00  0.00     0.031 C 
ATOM     67  C   UNL     1       4.654  11.434   2.184  1.00  0.00     0.029 A 
ATOM     68  C   UNL     1       5.329  10.264   2.505  1.00  0.00     0.049 A 
ATOM     69  H   UNL     1       4.532   8.373   2.984  1.00  0.00     0.167 HD
ATOM     70  C   UNL     1       7.372   8.875   2.885  1.00  0.00     0.074 A 
ATOM     71  C   UNL     1       8.812   8.714   2.963  1.00  0.00     0.031 C 
ATOM     72  C   UNL     1       6.754  10.050   2.595  1.00  0.00     0.034 A 
BRANCH  59  73
ATOM     73  C   UNL     1       0.529   9.841   2.604  1.00  0.00     0.023 A 
ATOM     74  C   UNL     1      -0.411   9.931   3.648  1.00  0.00     0.031 A 
ATOM     75  C   UNL     1       0.159  10.342   1.345  1.00  0.00     0.131 A 
ATOM     76  C   UNL     1      -1.702  10.415   3.392  1.00  0.00     0.055 A 
ATOM     77  C   UNL     1      -1.099  10.907   1.119  1.00  0.00     0.041 A 
ATOM     78  F   UNL     1       1.000  10.261   0.302  1.00  0.00    -0.206 F 
ATOM     79  C   UNL     1      -2.045  10.929   2.140  1.00  0.00     0.022 A 
BRANCH  76  80
ATOM     80  S   UNL     1      -2.972  10.210   4.671  1.00  0.00     0.124 S 
ATOM     81  O   UNL     1      -3.025   8.755   4.800  1.00  0.00    -0.237 OA
ATOM     82  O   UNL     1      -2.400  10.931   5.803  1.00  0.00    -0.237 OA
ATOM     83  O   UNL     1      -4.159  10.820   4.077  1.00  0.00    -0.744 OA
ENDBRANCH  76  80
ENDBRANCH  59  73
BRANCH  60  84
ATOM     84  C   UNL     1       9.101   4.579   3.860  1.00  0.00     0.023 A 
ATOM     85  C   UNL     1      10.044   4.912   4.845  1.00  0.00     0.031 A 
ATOM     86  C   UNL     1       9.402   3.508   2.999  1.00  0.00     0.131 A 
ATOM     87  C   UNL     1      11.264   4.221   4.911  1.00  0.00     0.055 A 
ATOM     88  C   UNL     1      10.595   2.789   3.101  1.00  0.00     0.041 A 
ATOM     89  F   UNL     1       8.529   3.134   2.049  1.00  0.00    -0.206 F 
ATOM     90  C   UNL     1      11.542   3.156   4.052  1.00  0.00     0.022 A 
BRANCH  87  91
ATOM     91  S   UNL     1      12.526   4.801   6.077  1.00  0.00     0.124 S 
ATOM     92  O   UNL     1      12.656   6.205   5.702  1.00  0.00    -0.237 OA
ATOM     93  O   UNL     1      11.890   4.536   7.363  1.00  0.00    -0.237 OA
ATOM     94  O   UNL     1      13.683   3.963   5.770  1.00  0.00    -0.744 OA
ENDBRANCH  87  91
ENDBRANCH  60  84
BRANCH  72  95
ATOM     95  C   UNL     1       7.649  11.241   2.387  1.00  0.00     0.023 A 
ATOM     96  C   UNL     1       8.501  11.331   1.274  1.00  0.00     0.031 A 
ATOM     97  C   UNL     1       7.652  12.293   3.319  1.00  0.00     0.131 A 
ATOM     98  C   UNL     1       9.368  12.424   1.152  1.00  0.00     0.055 A 
ATOM     99  C   UNL     1       8.471  13.409   3.158  1.00  0.00     0.041 A 
ATOM    100  F   UNL     1       6.853  12.252   4.398  1.00  0.00    -0.206 F 
ATOM    101  C   UNL     1       9.346  13.472   2.077  1.00  0.00     0.022 A 
BRANCH  98 102
ATOM    102  S   UNL     1      10.592  12.410  -0.184  1.00  0.00     0.124 S 
ATOM    103  O   UNL     1      11.343  11.193   0.106  1.00  0.00    -0.237 OA
ATOM    104  O   UNL     1       9.752  12.371  -1.377  1.00  0.00    -0.237 OA
ATOM    105  O   UNL     1      11.329  13.657   0.014  1.00  0.00    -0.744 OA
ENDBRANCH  98 102
ENDBRANCH  72  95
ENDBRANCH  46  47
ENDBRANCH  38  41
ENDBRANCH  36  37
ENDBRANCH  35  36
ENDBRANCH  34  35
ENDBRANCH  33  34
ENDBRANCH   1  33
TORSDOF 22
