REMARK SMILES NC(=O)C[C@H](NC(=O)C1(c2ccccc2)CCN(C(=O)[C@@H]2CCC[NH2+]2)CC1)C(=O)NCCCCCCNC(=O)c1ccc(-c2c3nc(c(-c4cc(S(=O)(=O)[O-])ccc4F)c4ccc([nH]4)c(-c4cc(S(=O)(=O)[O-])ccc4F)c4nc(c(-c5cc(S(=O)(=O)[O-])ccc5F)c5ccc2[nH]5)C=C4)C=C3)cc1
REMARK SMILES IDX 33 1 32 2 31 3 30 4 28 5 29 6 5 8 4 9 2 10 1 11 3 14 6 15
REMARK SMILES IDX 7 16 8 18 9 19 16 20 27 21 17 22 26 23 18 24 19 25 20 26
REMARK SMILES IDX 10 27 11 28 15 29 12 30 14 31 13 32 21 33 22 34 25 35 23 36
REMARK SMILES IDX 24 37 34 40 35 41 36 42 37 43 38 44 39 46 40 47 41 48 102 49
REMARK SMILES IDX 42 50 101 51 43 52 44 53 45 54 95 55 46 56 100 57 94 58
REMARK SMILES IDX 96 59 47 60 99 61 93 62 92 63 48 65 80 66 60 67 79 68 61 69
REMARK SMILES IDX 64 70 78 71 97 72 62 73 63 74 77 76 98 77 65 78 49 79 50 80
REMARK SMILES IDX 58 81 51 82 57 83 59 84 56 85 52 86 53 87 54 88 55 89 81 90
REMARK SMILES IDX 82 91 90 92 83 93 89 94 91 95 88 96 84 97 85 98 86 99 87 100
REMARK SMILES IDX 66 101 67 102 75 103 68 104 74 105 76 106 73 107 69 108
REMARK SMILES IDX 70 109 71 110 72 111
REMARK H PARENT 30 7 1 12 1 13 6 17 25 38 25 39 37 45 96 64 64 75
REMARK Flexibility Score: inf
ROOT
ATOM      1  C   UNL     1       5.715   1.634   6.552  1.00  0.00     0.002 C 
ENDROOT
BRANCH   1   2
ATOM      2  C   UNL     1       4.558   1.561   5.561  1.00  0.00     0.021 C 
BRANCH   2   3
ATOM      3  C   UNL     1       4.853   0.831   4.248  1.00  0.00     0.116 C 
BRANCH   3   4
ATOM      4  N   UNL     1       4.158  -0.631   4.229  1.00  0.00    -0.354 N 
ATOM      5  C   UNL     1       2.935  -1.822   3.282  1.00  0.00     0.243 C 
ATOM      6  O   UNL     1       2.758  -3.090   3.421  1.00  0.00    -0.273 OA
ATOM      7  H   UNL     1       4.487  -1.119   5.018  1.00  0.00     0.163 HD
BRANCH   5   8
ATOM      8  C   UNL     1       1.752  -1.467   1.984  1.00  0.00     0.180 C 
BRANCH   8   9
ATOM      9  C   UNL     1       2.239  -1.899   0.574  1.00  0.00     0.134 C 
BRANCH   9  10
ATOM     10  C   UNL     1       1.569  -1.162  -0.552  1.00  0.00     0.220 C 
ATOM     11  N   UNL     1       0.475  -1.782  -1.080  1.00  0.00    -0.370 N 
ATOM     12  H   UNL     1      -0.018  -1.363  -1.821  1.00  0.00     0.159 HD
ATOM     13  H   UNL     1       0.179  -2.650  -0.721  1.00  0.00     0.159 HD
ATOM     14  O   UNL     1       1.953  -0.078  -0.973  1.00  0.00    -0.275 OA
ENDBRANCH   9  10
ENDBRANCH   8   9
BRANCH   8  15
ATOM     15  N   UNL     1       0.563  -0.584   2.011  1.00  0.00    -0.343 N 
ATOM     16  C   UNL     1       0.489   0.749   2.280  1.00  0.00     0.231 C 
ATOM     17  H   UNL     1      -0.294  -1.022   1.805  1.00  0.00     0.164 HD
ATOM     18  O   UNL     1      -0.577   1.335   2.105  1.00  0.00    -0.274 OA
BRANCH  16  19
ATOM     19  C   UNL     1       1.748   1.419   2.817  1.00  0.00     0.077 C 
ATOM     20  C   UNL     1       1.367   2.341   4.005  1.00  0.00     0.043 C 
ATOM     21  C   UNL     1       2.411   2.218   1.669  1.00  0.00     0.043 C 
ATOM     22  C   UNL     1       0.809   3.707   3.604  1.00  0.00     0.121 C 
ATOM     23  C   UNL     1       1.713   3.542   1.361  1.00  0.00     0.121 C 
ATOM     24  N   UNL     1       1.643   4.329   2.584  1.00  0.00    -0.337 N 
ATOM     25  C   UNL     1       2.380   5.464   2.913  1.00  0.00     0.280 C 
ATOM     26  O   UNL     1       2.432   5.853   4.088  1.00  0.00    -0.268 OA
BRANCH  19  27
ATOM     27  C   UNL     1       2.636   0.267   3.299  1.00  0.00    -0.032 A 
ATOM     28  C   UNL     1       4.016  -0.361   2.240  1.00  0.00     0.005 A 
ATOM     29  C   UNL     1       2.236  -0.614   4.857  1.00  0.00     0.005 A 
ATOM     30  C   UNL     1       5.005  -1.791   2.789  1.00  0.00     0.000 A 
ATOM     31  C   UNL     1       3.240  -2.036   5.400  1.00  0.00     0.000 A 
ATOM     32  C   UNL     1       4.648  -2.620   4.370  1.00  0.00     0.000 A 
ENDBRANCH  19  27
BRANCH  25  33
ATOM     33  C   UNL     1       3.147   6.269   1.839  1.00  0.00     0.272 C 
ATOM     34  C   UNL     1       2.333   6.737   0.647  1.00  0.00     0.081 C 
ATOM     35  N   UNL     1       4.314   5.537   1.299  1.00  0.00    -0.336 N 
ATOM     36  C   UNL     1       3.363   6.913  -0.454  1.00  0.00     0.068 C 
ATOM     37  C   UNL     1       4.606   6.158   0.000  1.00  0.00     0.261 C 
ATOM     38  H   UNL     1       4.090   4.549   1.179  1.00  0.00     0.346 HD
ATOM     39  H   UNL     1       5.115   5.588   1.929  1.00  0.00     0.346 HD
ENDBRANCH  25  33
ENDBRANCH  16  19
ENDBRANCH   8  15
ENDBRANCH   5   8
ENDBRANCH   3   4
ENDBRANCH   2   3
ENDBRANCH   1   2
BRANCH   1  40
ATOM     40  C   UNL     1       7.058   2.118   6.002  1.00  0.00     0.002 C 
BRANCH  40  41
ATOM     41  C   UNL     1       7.014   3.297   5.028  1.00  0.00     0.021 C 
BRANCH  41  42
ATOM     42  C   UNL     1       6.236   4.518   5.502  1.00  0.00     0.116 C 
BRANCH  42  43
ATOM     43  N   UNL     1       6.680   4.966   6.809  1.00  0.00    -0.352 N 
ATOM     44  C   UNL     1       7.269   6.157   7.139  1.00  0.00     0.251 C 
ATOM     45  H   UNL     1       6.541   4.334   7.551  1.00  0.00     0.163 HD
ATOM     46  O   UNL     1       7.809   6.303   8.230  1.00  0.00    -0.269 OA
BRANCH  44  47
ATOM     47  C   UNL     1       7.256   7.243   6.143  1.00  0.00     0.039 A 
ATOM     48  C   UNL     1       8.453   7.884   5.825  1.00  0.00     0.014 A 
ATOM     49  C   UNL     1       6.062   7.589   5.500  1.00  0.00     0.014 A 
ATOM     50  C   UNL     1       8.457   8.864   4.835  1.00  0.00     0.010 A 
ATOM     51  C   UNL     1       6.084   8.507   4.460  1.00  0.00     0.010 A 
ATOM     52  C   UNL     1       7.276   9.172   4.139  1.00  0.00    -0.014 A 
BRANCH  52  53
ATOM     53  C   UNL     1       7.256  10.245   3.119  1.00  0.00     0.031 A 
ATOM     54  C   UNL     1       6.477  11.501   3.392  1.00  0.00     0.074 A 
ATOM     55  C   UNL     1       7.911  10.077   1.956  1.00  0.00     0.049 A 
ATOM     56  N   UNL     1       6.311  12.555   2.636  1.00  0.00    -0.248 NA
ATOM     57  C   UNL     1       5.764  11.563   4.677  1.00  0.00     0.031 C 
ATOM     58  C   UNL     1       8.669   8.882   1.579  1.00  0.00     0.029 A 
ATOM     59  N   UNL     1       8.050  10.913   0.880  1.00  0.00    -0.354 N 
ATOM     60  C   UNL     1       5.471  13.402   3.353  1.00  0.00     0.074 A 
ATOM     61  C   UNL     1       5.099  12.700   4.561  1.00  0.00     0.031 C 
ATOM     62  C   UNL     1       9.227   9.080   0.374  1.00  0.00     0.029 A 
ATOM     63  C   UNL     1       8.835  10.395  -0.123  1.00  0.00     0.049 A 
ATOM     64  H   UNL     1       7.628  11.801   0.829  1.00  0.00     0.167 HD
ATOM     65  C   UNL     1       5.075  14.661   3.046  1.00  0.00     0.034 A 
ATOM     66  C   UNL     1       9.196  10.928  -1.306  1.00  0.00     0.034 A 
ATOM     67  C   UNL     1       5.459  15.336   1.830  1.00  0.00     0.049 A 
ATOM     68  C   UNL     1       8.711  12.313  -1.650  1.00  0.00     0.074 A 
ATOM     69  C   UNL     1       5.148  16.619   1.417  1.00  0.00     0.029 A 
ATOM     70  N   UNL     1       6.235  14.772   0.824  1.00  0.00    -0.354 N 
ATOM     71  N   UNL     1       7.951  13.122  -0.947  1.00  0.00    -0.248 NA
ATOM     72  C   UNL     1       9.141  12.860  -2.942  1.00  0.00     0.031 C 
ATOM     73  C   UNL     1       5.679  16.806   0.135  1.00  0.00     0.029 A 
ATOM     74  C   UNL     1       6.388  15.669  -0.222  1.00  0.00     0.049 A 
ATOM     75  H   UNL     1       6.621  13.867   0.850  1.00  0.00     0.167 HD
ATOM     76  C   UNL     1       7.836  14.286  -1.701  1.00  0.00     0.074 A 
ATOM     77  C   UNL     1       8.616  14.075  -2.905  1.00  0.00     0.031 C 
ATOM     78  C   UNL     1       7.155  15.428  -1.423  1.00  0.00     0.034 A 
BRANCH  65  79
ATOM     79  C   UNL     1       4.160  15.352   4.032  1.00  0.00     0.023 A 
ATOM     80  C   UNL     1       4.558  15.594   5.361  1.00  0.00     0.031 A 
ATOM     81  C   UNL     1       2.850  15.707   3.667  1.00  0.00     0.131 A 
ATOM     82  C   UNL     1       3.629  16.073   6.296  1.00  0.00     0.055 A 
ATOM     83  C   UNL     1       1.958  16.271   4.582  1.00  0.00     0.041 A 
ATOM     84  F   UNL     1       2.402  15.484   2.421  1.00  0.00    -0.206 F 
ATOM     85  C   UNL     1       2.338  16.437   5.911  1.00  0.00     0.022 A 
BRANCH  82  86
ATOM     86  S   UNL     1       4.077  16.040   8.055  1.00  0.00     0.124 S 
ATOM     87  O   UNL     1       4.383  14.626   8.256  1.00  0.00    -0.237 OA
ATOM     88  O   UNL     1       5.212  16.954   8.108  1.00  0.00    -0.237 OA
ATOM     89  O   UNL     1       2.866  16.509   8.726  1.00  0.00    -0.744 OA
ENDBRANCH  82  86
ENDBRANCH  65  79
BRANCH  66  90
ATOM     90  C   UNL     1      10.068  10.163  -2.241  1.00  0.00     0.023 A 
ATOM     91  C   UNL     1      11.366  10.606  -2.541  1.00  0.00     0.031 A 
ATOM     92  C   UNL     1       9.611   8.988  -2.863  1.00  0.00     0.131 A 
ATOM     93  C   UNL     1      12.151   9.899  -3.465  1.00  0.00     0.055 A 
ATOM     94  C   UNL     1      10.413   8.262  -3.746  1.00  0.00     0.041 A 
ATOM     95  F   UNL     1       8.380   8.517  -2.605  1.00  0.00    -0.206 F 
ATOM     96  C   UNL     1      11.688   8.723  -4.060  1.00  0.00     0.022 A 
BRANCH  93  97
ATOM     97  S   UNL     1      13.769  10.575  -3.929  1.00  0.00     0.124 S 
ATOM     98  O   UNL     1      13.402  11.876  -4.476  1.00  0.00    -0.237 OA
ATOM     99  O   UNL     1      14.470  10.590  -2.650  1.00  0.00    -0.237 OA
ATOM    100  O   UNL     1      14.274   9.608  -4.902  1.00  0.00    -0.744 OA
ENDBRANCH  93  97
ENDBRANCH  66  90
BRANCH  78 101
ATOM    101  C   UNL     1       7.261  16.544  -2.433  1.00  0.00     0.023 A 
ATOM    102  C   UNL     1       6.704  16.433  -3.719  1.00  0.00     0.031 A 
ATOM    103  C   UNL     1       7.941  17.730  -2.105  1.00  0.00     0.131 A 
ATOM    104  C   UNL     1       6.886  17.466  -4.650  1.00  0.00     0.055 A 
ATOM    105  C   UNL     1       8.066  18.780  -3.015  1.00  0.00     0.041 A 
ATOM    106  F   UNL     1       8.494  17.889  -0.892  1.00  0.00    -0.206 F 
ATOM    107  C   UNL     1       7.549  18.646  -4.301  1.00  0.00     0.022 A 
BRANCH 104 108
ATOM    108  S   UNL     1       6.327  17.209  -6.356  1.00  0.00     0.124 S 
ATOM    109  O   UNL     1       7.083  16.023  -6.747  1.00  0.00    -0.237 OA
ATOM    110  O   UNL     1       4.890  17.021  -6.189  1.00  0.00    -0.237 OA
ATOM    111  O   UNL     1       6.716  18.444  -7.035  1.00  0.00    -0.744 OA
ENDBRANCH 104 108
ENDBRANCH  78 101
ENDBRANCH  52  53
ENDBRANCH  44  47
ENDBRANCH  42  43
ENDBRANCH  41  42
ENDBRANCH  40  41
ENDBRANCH   1  40
TORSDOF 22
