REMARK SMILES O=C(C[C@H](C(=O)NCCCCCCNC(=O)c1ccc(-c2c3nc(c(-c4cc(S(=O)(=O)[O-])ccc4F)c4ccc([nH]4)c(-c4cc(S(=O)(=O)[O-])ccc4F)c4nc(c(-c5cc(S(=O)(=O)[O-])ccc5F)c5ccc2[nH]5)C=C4)C=C3)cc1)c1ccccc1)Nc1ccc(Cl)cc1Cl
REMARK SMILES IDX 10 1 9 2 8 3 7 4 5 5 6 6 4 8 3 9 2 10 1 11 86 12 87 14 88 15
REMARK SMILES IDX 93 16 89 17 92 18 94 19 90 20 91 21 80 22 81 23 85 24 82 25
REMARK SMILES IDX 84 26 83 27 11 28 12 29 13 30 14 31 15 32 16 34 17 35 18 36
REMARK SMILES IDX 79 37 19 38 78 39 20 40 21 41 22 42 72 43 23 44 77 45 71 46
REMARK SMILES IDX 73 47 24 48 76 49 70 50 69 51 25 53 57 54 37 55 56 56 38 57
REMARK SMILES IDX 41 58 55 59 74 60 39 61 40 62 54 64 75 65 42 66 26 67 27 68
REMARK SMILES IDX 35 69 28 70 34 71 36 72 33 73 29 74 30 75 31 76 32 77 58 78
REMARK SMILES IDX 59 79 67 80 60 81 66 82 68 83 65 84 61 85 62 86 63 87 64 88
REMARK SMILES IDX 43 89 44 90 52 91 45 92 51 93 53 94 50 95 46 96 47 97 48 98
REMARK SMILES IDX 49 99
REMARK H PARENT 7 7 86 13 14 33 73 52 41 63
REMARK Flexibility Score: inf
ROOT
ATOM      1  C   UNL     1       1.319   3.227  -3.825  1.00  0.00     0.002 C 
ENDROOT
BRANCH   1   2
ATOM      2  C   UNL     1       2.165   3.696  -2.634  1.00  0.00     0.021 C 
BRANCH   2   3
ATOM      3  C   UNL     1       1.747   3.059  -1.307  1.00  0.00     0.116 C 
BRANCH   3   4
ATOM      4  N   UNL     1       2.156   1.669  -1.260  1.00  0.00    -0.356 N 
ATOM      5  C   UNL     1       3.272   1.118  -0.698  1.00  0.00     0.228 C 
ATOM      6  O   UNL     1       3.568  -0.028  -1.034  1.00  0.00    -0.274 OA
ATOM      7  H   UNL     1       1.543   1.033  -1.695  1.00  0.00     0.163 HD
BRANCH   5   8
ATOM      8  C   UNL     1       4.075   1.913   0.344  1.00  0.00     0.118 C 
BRANCH   8   9
ATOM      9  C   UNL     1       5.029   0.990   1.118  1.00  0.00     0.118 C 
BRANCH   9  10
ATOM     10  C   UNL     1       4.319   0.050   2.074  1.00  0.00     0.225 C 
ATOM     11  O   UNL     1       4.185  -1.145   1.830  1.00  0.00    -0.275 OA
ATOM     12  N   UNL     1       3.849   0.667   3.221  1.00  0.00    -0.325 N 
ATOM     13  H   UNL     1       3.787   1.649   3.227  1.00  0.00     0.169 HD
BRANCH  12  14
ATOM     14  C   UNL     1       3.454  -0.031   4.387  1.00  0.00     0.060 A 
ATOM     15  C   UNL     1       2.338   0.475   5.069  1.00  0.00     0.029 A 
ATOM     16  C   UNL     1       4.128  -1.148   4.921  1.00  0.00     0.066 A 
ATOM     17  C   UNL     1       1.856  -0.164   6.216  1.00  0.00     0.023 A 
ATOM     18  C   UNL     1       3.642  -1.783   6.070  1.00  0.00     0.043 A 
ATOM     19  Cl  UNL     1       5.682  -1.677   4.366  1.00  0.00    -0.082 Cl
ATOM     20  C   UNL     1       2.504  -1.296   6.704  1.00  0.00     0.042 A 
ATOM     21  Cl  UNL     1       1.918  -2.072   8.123  1.00  0.00    -0.084 Cl
ENDBRANCH  12  14
ENDBRANCH   9  10
ENDBRANCH   8   9
BRANCH   8  22
ATOM     22  C   UNL     1       4.872   3.051  -0.288  1.00  0.00    -0.035 A 
ATOM     23  C   UNL     1       5.856   2.798  -1.256  1.00  0.00     0.004 A 
ATOM     24  C   UNL     1       4.615   4.385   0.075  1.00  0.00     0.004 A 
ATOM     25  C   UNL     1       6.538   3.853  -1.868  1.00  0.00     0.000 A 
ATOM     26  C   UNL     1       5.278   5.437  -0.558  1.00  0.00     0.000 A 
ATOM     27  C   UNL     1       6.238   5.171  -1.531  1.00  0.00     0.000 A 
ENDBRANCH   8  22
ENDBRANCH   5   8
ENDBRANCH   3   4
ENDBRANCH   2   3
ENDBRANCH   1   2
BRANCH   1  28
ATOM     28  C   UNL     1      -0.178   3.533  -3.706  1.00  0.00     0.002 C 
BRANCH  28  29
ATOM     29  C   UNL     1      -0.514   5.009  -3.484  1.00  0.00     0.021 C 
BRANCH  29  30
ATOM     30  C   UNL     1      -0.063   5.929  -4.614  1.00  0.00     0.116 C 
BRANCH  30  31
ATOM     31  N   UNL     1      -0.744   5.617  -5.862  1.00  0.00    -0.352 N 
ATOM     32  C   UNL     1      -1.515   6.427  -6.655  1.00  0.00     0.251 C 
ATOM     33  H   UNL     1      -0.636   4.692  -6.182  1.00  0.00     0.163 HD
ATOM     34  O   UNL     1      -2.216   5.930  -7.536  1.00  0.00    -0.269 OA
BRANCH  32  35
ATOM     35  C   UNL     1      -1.513   7.889  -6.437  1.00  0.00     0.039 A 
ATOM     36  C   UNL     1      -2.724   8.583  -6.470  1.00  0.00     0.014 A 
ATOM     37  C   UNL     1      -0.317   8.574  -6.205  1.00  0.00     0.014 A 
ATOM     38  C   UNL     1      -2.741   9.956  -6.214  1.00  0.00     0.010 A 
ATOM     39  C   UNL     1      -0.345   9.926  -5.873  1.00  0.00     0.010 A 
ATOM     40  C   UNL     1      -1.557  10.633  -5.878  1.00  0.00    -0.014 A 
BRANCH  40  41
ATOM     41  C   UNL     1      -1.568  12.079  -5.534  1.00  0.00     0.031 A 
ATOM     42  C   UNL     1      -0.823  13.065  -6.393  1.00  0.00     0.074 A 
ATOM     43  C   UNL     1      -2.201  12.493  -4.418  1.00  0.00     0.049 A 
ATOM     44  N   UNL     1      -0.658  14.352  -6.222  1.00  0.00    -0.248 NA
ATOM     45  C   UNL     1      -0.151  12.527  -7.586  1.00  0.00     0.031 C 
ATOM     46  C   UNL     1      -2.930  11.625  -3.490  1.00  0.00     0.029 A 
ATOM     47  N   UNL     1      -2.332  13.745  -3.871  1.00  0.00    -0.354 N 
ATOM     48  C   UNL     1       0.145  14.775  -7.277  1.00  0.00     0.074 A 
ATOM     49  C   UNL     1       0.483  13.595  -8.044  1.00  0.00     0.031 C 
ATOM     50  C   UNL     1      -3.457  12.375  -2.509  1.00  0.00     0.029 A 
ATOM     51  C   UNL     1      -3.061  13.766  -2.704  1.00  0.00     0.049 A 
ATOM     52  H   UNL     1      -1.941  14.553  -4.275  1.00  0.00     0.167 HD
ATOM     53  C   UNL     1       0.543  16.034  -7.587  1.00  0.00     0.034 A 
ATOM     54  C   UNL     1      -3.365  14.787  -1.877  1.00  0.00     0.034 A 
ATOM     55  C   UNL     1       0.186  17.200  -6.815  1.00  0.00     0.049 A 
ATOM     56  C   UNL     1      -2.876  16.171  -2.223  1.00  0.00     0.074 A 
ATOM     57  C   UNL     1       0.487  18.526  -7.071  1.00  0.00     0.029 A 
ATOM     58  N   UNL     1      -0.540  17.180  -5.630  1.00  0.00    -0.354 N 
ATOM     59  N   UNL     1      -2.161  16.562  -3.253  1.00  0.00    -0.248 NA
ATOM     60  C   UNL     1      -3.242  17.253  -1.300  1.00  0.00     0.031 C 
ATOM     61  C   UNL     1       0.016  19.297  -6.003  1.00  0.00     0.029 A 
ATOM     62  C   UNL     1      -0.661  18.466  -5.124  1.00  0.00     0.049 A 
ATOM     63  H   UNL     1      -0.914  16.372  -5.211  1.00  0.00     0.167 HD
ATOM     64  C   UNL     1      -2.026  17.942  -3.119  1.00  0.00     0.074 A 
ATOM     65  C   UNL     1      -2.744  18.313  -1.917  1.00  0.00     0.031 C 
ATOM     66  C   UNL     1      -1.372  18.823  -3.919  1.00  0.00     0.034 A 
BRANCH  53  67
ATOM     67  C   UNL     1       1.437  16.207  -8.793  1.00  0.00     0.023 A 
ATOM     68  C   UNL     1       1.008  15.867 -10.089  1.00  0.00     0.031 A 
ATOM     69  C   UNL     1       2.743  16.707  -8.645  1.00  0.00     0.131 A 
ATOM     70  C   UNL     1       1.899  15.958 -11.169  1.00  0.00     0.055 A 
ATOM     71  C   UNL     1       3.596  16.878  -9.737  1.00  0.00     0.041 A 
ATOM     72  F   UNL     1       3.218  17.028  -7.431  1.00  0.00    -0.206 F 
ATOM     73  C   UNL     1       3.181  16.489 -11.007  1.00  0.00     0.022 A 
BRANCH  70  74
ATOM     74  S   UNL     1       1.410  15.236 -12.759  1.00  0.00     0.124 S 
ATOM     75  O   UNL     1       1.158  13.846 -12.385  1.00  0.00    -0.237 OA
ATOM     76  O   UNL     1       0.237  16.025 -13.116  1.00  0.00    -0.237 OA
ATOM     77  O   UNL     1       2.584  15.443 -13.605  1.00  0.00    -0.744 OA
ENDBRANCH  70  74
ENDBRANCH  53  67
BRANCH  54  78
ATOM     78  C   UNL     1      -4.161  14.549  -0.638  1.00  0.00     0.023 A 
ATOM     79  C   UNL     1      -5.416  15.153  -0.459  1.00  0.00     0.031 A 
ATOM     80  C   UNL     1      -3.657  13.759   0.411  1.00  0.00     0.131 A 
ATOM     81  C   UNL     1      -6.099  15.004   0.758  1.00  0.00     0.055 A 
ATOM     82  C   UNL     1      -4.369  13.562   1.596  1.00  0.00     0.041 A 
ATOM     83  F   UNL     1      -2.463  13.156   0.294  1.00  0.00    -0.206 F 
ATOM     84  C   UNL     1      -5.591  14.200   1.780  1.00  0.00     0.022 A 
BRANCH  81  85
ATOM     85  S   UNL     1      -7.616  15.962   1.025  1.00  0.00     0.124 S 
ATOM     86  O   UNL     1      -7.139  17.327   0.835  1.00  0.00    -0.237 OA
ATOM     87  O   UNL     1      -8.492  15.436  -0.016  1.00  0.00    -0.237 OA
ATOM     88  O   UNL     1      -7.998  15.617   2.393  1.00  0.00    -0.744 OA
ENDBRANCH  81  85
ENDBRANCH  54  78
BRANCH  66  89
ATOM     89  C   UNL     1      -1.451  20.284  -3.543  1.00  0.00     0.023 A 
ATOM     90  C   UNL     1      -0.873  20.780  -2.361  1.00  0.00     0.031 A 
ATOM     91  C   UNL     1      -2.124  21.193  -4.379  1.00  0.00     0.131 A 
ATOM     92  C   UNL     1      -1.032  22.131  -2.018  1.00  0.00     0.055 A 
ATOM     93  C   UNL     1      -2.219  22.549  -4.068  1.00  0.00     0.041 A 
ATOM     94  F   UNL     1      -2.699  20.776  -5.519  1.00  0.00    -0.206 F 
ATOM     95  C   UNL     1      -1.683  23.023  -2.874  1.00  0.00     0.022 A 
BRANCH  92  96
ATOM     96  S   UNL     1      -0.464  22.689  -0.388  1.00  0.00     0.124 S 
ATOM     97  O   UNL     1      -1.223  21.824   0.509  1.00  0.00    -0.237 OA
ATOM     98  O   UNL     1       0.972  22.436  -0.454  1.00  0.00    -0.237 OA
ATOM     99  O   UNL     1      -0.843  24.100  -0.357  1.00  0.00    -0.744 OA
ENDBRANCH  92  96
ENDBRANCH  66  89
ENDBRANCH  40  41
ENDBRANCH  32  35
ENDBRANCH  30  31
ENDBRANCH  29  30
ENDBRANCH  28  29
ENDBRANCH   1  28
TORSDOF 20
