REMARK SMILES CC1=Nc2c(c(C)nn2-c2ccc(F)cc2)[C@H](c2ccc(C(=O)NCCCCCCNC(=O)c3ccc(-c4c5nc(c(-c6cc(S(=O)(=O)[O-])ccc6F)c6ccc([nH]6)c(-c6cc(S(=O)(=O)[O-])ccc6F)c6nc(c(-c7cc(S(=O)(=O)[O-])ccc7F)c7ccc4[nH]7)C=C6)C=C5)cc3)cc2)S1
REMARK SMILES IDX 28 1 27 2 26 3 25 4 24 5 22 6 23 7 21 9 18 10 19 11 98 12
REMARK SMILES IDX 20 13 97 14 17 15 1 16 2 17 3 18 99 19 4 20 5 21 9 22 6 23
REMARK SMILES IDX 8 24 7 25 10 26 11 27 16 28 12 29 15 30 13 31 14 32 29 33
REMARK SMILES IDX 30 34 31 35 32 36 33 38 34 39 35 40 96 41 36 42 95 43 37 44
REMARK SMILES IDX 38 45 39 46 89 47 40 48 94 49 88 50 90 51 41 52 93 53 87 54
REMARK SMILES IDX 86 55 42 57 74 58 54 59 73 60 55 61 58 62 72 63 91 64 56 65
REMARK SMILES IDX 57 66 71 68 92 69 59 70 43 71 44 72 52 73 45 74 51 75 53 76
REMARK SMILES IDX 50 77 46 78 47 79 48 80 49 81 75 82 76 83 84 84 77 85 83 86
REMARK SMILES IDX 85 87 82 88 78 89 79 90 80 91 81 92 60 93 61 94 69 95 62 96
REMARK SMILES IDX 68 97 70 98 67 99 63 100 64 101 65 102 66 103
REMARK H PARENT 24 8 31 37 90 56 58 67
REMARK Flexibility Score: inf
ROOT
ATOM      1  C   UNL     1       2.272  -1.219  10.024  1.00  0.00     0.002 C 
ENDROOT
BRANCH   1   2
ATOM      2  C   UNL     1       2.981  -0.071   9.287  1.00  0.00     0.002 C 
BRANCH   2   3
ATOM      3  C   UNL     1       2.525   0.170   7.841  1.00  0.00     0.021 C 
BRANCH   3   4
ATOM      4  C   UNL     1       1.027   0.443   7.714  1.00  0.00     0.116 C 
BRANCH   4   5
ATOM      5  N   UNL     1       0.724   1.784   8.175  1.00  0.00    -0.352 N 
ATOM      6  C   UNL     1       0.317   2.910   7.513  1.00  0.00     0.251 C 
ATOM      7  O   UNL     1       0.104   3.928   8.171  1.00  0.00    -0.269 OA
ATOM      8  H   UNL     1       0.833   1.907   9.146  1.00  0.00     0.163 HD
BRANCH   6   9
ATOM      9  C   UNL     1       0.032   2.920   6.057  1.00  0.00     0.039 A 
ATOM     10  C   UNL     1      -0.721   3.000   3.329  1.00  0.00    -0.030 A 
ATOM     11  C   UNL     1      -1.418   3.746   4.294  1.00  0.00     0.006 A 
ATOM     12  C   UNL     1       0.389   2.247   3.755  1.00  0.00     0.006 A 
ATOM     13  C   UNL     1      -1.039   3.716   5.636  1.00  0.00     0.014 A 
ATOM     14  C   UNL     1       0.772   2.223   5.101  1.00  0.00     0.014 A 
BRANCH  10  15
ATOM     15  C   UNL     1      -1.149   3.101   1.874  1.00  0.00     0.119 C 
ATOM     16  C   UNL     1       0.830   0.031  -0.078  1.00  0.00     0.075 C 
ATOM     17  C   UNL     1       0.357   1.418   0.267  1.00  0.00     0.074 C 
ATOM     18  N   UNL     1       1.120   2.415  -0.049  1.00  0.00    -0.227 NA
ATOM     19  S   UNL     1      -1.235   1.499   1.013  1.00  0.00    -0.098 SA
ATOM     20  C   UNL     1       0.758   3.660   0.342  1.00  0.00     0.161 A 
ATOM     21  C   UNL     1      -0.211   4.050   1.236  1.00  0.00     0.038 A 
ATOM     22  N   UNL     1       1.439   4.811  -0.022  1.00  0.00    -0.215 N 
ATOM     23  C   UNL     1      -0.035   5.451   1.379  1.00  0.00     0.067 A 
ATOM     24  N   UNL     1       1.017   5.894   0.679  1.00  0.00    -0.171 NA
ATOM     25  C   UNL     1      -0.817   6.407   2.205  1.00  0.00     0.069 C 
BRANCH  22  26
ATOM     26  C   UNL     1       2.428   4.926  -1.024  1.00  0.00     0.067 A 
ATOM     27  C   UNL     1       2.262   4.239  -2.236  1.00  0.00     0.031 A 
ATOM     28  C   UNL     1       3.569   5.702  -0.790  1.00  0.00     0.031 A 
ATOM     29  C   UNL     1       3.246   4.325  -3.216  1.00  0.00     0.041 A 
ATOM     30  C   UNL     1       4.575   5.736  -1.757  1.00  0.00     0.041 A 
ATOM     31  C   UNL     1       4.400   5.058  -2.962  1.00  0.00     0.123 A 
ATOM     32  F   UNL     1       5.356   5.112  -3.898  1.00  0.00    -0.207 F 
ENDBRANCH  22  26
ENDBRANCH  10  15
ENDBRANCH   6   9
ENDBRANCH   4   5
ENDBRANCH   3   4
ENDBRANCH   2   3
ENDBRANCH   1   2
BRANCH   1  33
ATOM     33  C   UNL     1       2.218  -2.567   9.289  1.00  0.00     0.021 C 
BRANCH  33  34
ATOM     34  C   UNL     1       3.581  -3.211   9.086  1.00  0.00     0.116 C 
BRANCH  34  35
ATOM     35  N   UNL     1       4.196  -3.602  10.354  1.00  0.00    -0.352 N 
ATOM     36  C   UNL     1       5.464  -4.103  10.594  1.00  0.00     0.251 C 
ATOM     37  H   UNL     1       3.627  -3.494  11.150  1.00  0.00     0.163 HD
ATOM     38  O   UNL     1       5.684  -4.748  11.605  1.00  0.00    -0.269 OA
BRANCH  36  39
ATOM     39  C   UNL     1       6.533  -3.846   9.608  1.00  0.00     0.039 A 
ATOM     40  C   UNL     1       7.533  -4.787   9.350  1.00  0.00     0.014 A 
ATOM     41  C   UNL     1       6.520  -2.631   8.931  1.00  0.00     0.014 A 
ATOM     42  C   UNL     1       8.466  -4.518   8.348  1.00  0.00     0.010 A 
ATOM     43  C   UNL     1       7.314  -2.449   7.830  1.00  0.00     0.010 A 
ATOM     44  C   UNL     1       8.336  -3.352   7.576  1.00  0.00    -0.014 A 
BRANCH  44  45
ATOM     45  C   UNL     1       9.177  -3.109   6.409  1.00  0.00     0.031 A 
ATOM     46  C   UNL     1       9.163  -4.215   5.420  1.00  0.00     0.074 A 
ATOM     47  C   UNL     1       9.728  -1.908   6.123  1.00  0.00     0.049 A 
ATOM     48  N   UNL     1      10.117  -5.045   5.163  1.00  0.00    -0.248 NA
ATOM     49  C   UNL     1       7.891  -4.551   4.757  1.00  0.00     0.031 C 
ATOM     50  C   UNL     1       9.589  -0.645   6.857  1.00  0.00     0.029 A 
ATOM     51  N   UNL     1      10.454  -1.533   5.034  1.00  0.00    -0.354 N 
ATOM     52  C   UNL     1       9.658  -5.833   4.115  1.00  0.00     0.074 A 
ATOM     53  C   UNL     1       8.232  -5.645   4.072  1.00  0.00     0.031 C 
ATOM     54  C   UNL     1      10.006   0.383   6.084  1.00  0.00     0.029 A 
ATOM     55  C   UNL     1      10.602  -0.155   4.875  1.00  0.00     0.049 A 
ATOM     56  H   UNL     1      10.845  -2.184   4.407  1.00  0.00     0.167 HD
ATOM     57  C   UNL     1      10.523  -6.352   3.201  1.00  0.00     0.034 A 
ATOM     58  C   UNL     1      11.171   0.495   3.824  1.00  0.00     0.034 A 
ATOM     59  C   UNL     1      11.887  -6.287   3.676  1.00  0.00     0.049 A 
ATOM     60  C   UNL     1      12.091  -0.482   3.191  1.00  0.00     0.074 A 
ATOM     61  C   UNL     1      12.543  -6.757   4.799  1.00  0.00     0.029 A 
ATOM     62  N   UNL     1      12.695  -5.293   3.169  1.00  0.00    -0.354 N 
ATOM     63  N   UNL     1      13.134  -0.981   3.797  1.00  0.00    -0.248 NA
ATOM     64  C   UNL     1      11.582  -1.269   2.079  1.00  0.00     0.031 C 
ATOM     65  C   UNL     1      13.413  -5.694   5.186  1.00  0.00     0.029 A 
ATOM     66  C   UNL     1      13.311  -4.679   4.233  1.00  0.00     0.049 A 
ATOM     67  H   UNL     1      12.810  -5.064   2.218  1.00  0.00     0.167 HD
ATOM     68  C   UNL     1      13.138  -2.322   3.448  1.00  0.00     0.074 A 
ATOM     69  C   UNL     1      12.220  -2.420   2.314  1.00  0.00     0.031 C 
ATOM     70  C   UNL     1      13.660  -3.271   4.280  1.00  0.00     0.034 A 
BRANCH  57  71
ATOM     71  C   UNL     1      10.189  -6.572   1.745  1.00  0.00     0.023 A 
ATOM     72  C   UNL     1      11.133  -7.247   0.950  1.00  0.00     0.031 A 
ATOM     73  C   UNL     1       9.141  -5.927   1.047  1.00  0.00     0.131 A 
ATOM     74  C   UNL     1      11.049  -7.212  -0.454  1.00  0.00     0.055 A 
ATOM     75  C   UNL     1       9.025  -5.950  -0.344  1.00  0.00     0.041 A 
ATOM     76  F   UNL     1       8.232  -5.158   1.657  1.00  0.00    -0.206 F 
ATOM     77  C   UNL     1       9.997  -6.573  -1.106  1.00  0.00     0.022 A 
BRANCH  74  78
ATOM     78  S   UNL     1      12.419  -7.895  -1.419  1.00  0.00     0.124 S 
ATOM     79  O   UNL     1      13.544  -7.101  -0.937  1.00  0.00    -0.237 OA
ATOM     80  O   UNL     1      12.400  -9.298  -1.017  1.00  0.00    -0.237 OA
ATOM     81  O   UNL     1      12.020  -7.640  -2.801  1.00  0.00    -0.744 OA
ENDBRANCH  74  78
ENDBRANCH  57  71
BRANCH  58  82
ATOM     82  C   UNL     1      10.751   1.768   3.165  1.00  0.00     0.023 A 
ATOM     83  C   UNL     1      11.551   2.408   2.190  1.00  0.00     0.031 A 
ATOM     84  C   UNL     1       9.422   2.231   3.285  1.00  0.00     0.131 A 
ATOM     85  C   UNL     1      11.014   3.437   1.379  1.00  0.00     0.055 A 
ATOM     86  C   UNL     1       8.896   3.248   2.482  1.00  0.00     0.041 A 
ATOM     87  F   UNL     1       8.553   1.648   4.125  1.00  0.00    -0.206 F 
ATOM     88  C   UNL     1       9.687   3.846   1.513  1.00  0.00     0.022 A 
BRANCH  85  89
ATOM     89  S   UNL     1      12.001   4.175   0.034  1.00  0.00     0.124 S 
ATOM     90  O   UNL     1      12.861   5.103   0.760  1.00  0.00    -0.237 OA
ATOM     91  O   UNL     1      12.655   3.013  -0.557  1.00  0.00    -0.237 OA
ATOM     92  O   UNL     1      10.993   4.807  -0.818  1.00  0.00    -0.744 OA
ENDBRANCH  85  89
ENDBRANCH  58  82
BRANCH  70  93
ATOM     93  C   UNL     1      14.516  -2.824   5.449  1.00  0.00     0.023 A 
ATOM     94  C   UNL     1      14.069  -2.055   6.549  1.00  0.00     0.031 A 
ATOM     95  C   UNL     1      15.819  -3.349   5.506  1.00  0.00     0.131 A 
ATOM     96  C   UNL     1      14.924  -1.843   7.652  1.00  0.00     0.055 A 
ATOM     97  C   UNL     1      16.652  -3.155   6.606  1.00  0.00     0.041 A 
ATOM     98  F   UNL     1      16.288  -4.110   4.503  1.00  0.00    -0.206 F 
ATOM     99  C   UNL     1      16.208  -2.400   7.684  1.00  0.00     0.022 A 
BRANCH  96 100
ATOM    100  S   UNL     1      14.374  -0.862   9.090  1.00  0.00     0.124 S 
ATOM    101  O   UNL     1      14.056   0.437   8.506  1.00  0.00    -0.237 OA
ATOM    102  O   UNL     1      13.241  -1.633   9.594  1.00  0.00    -0.237 OA
ATOM    103  O   UNL     1      15.543  -0.860   9.973  1.00  0.00    -0.744 OA
ENDBRANCH  96 100
ENDBRANCH  70  93
ENDBRANCH  44  45
ENDBRANCH  36  39
ENDBRANCH  34  35
ENDBRANCH  33  34
ENDBRANCH   1  33
TORSDOF 18
