REMARK SMILES O=C(NCCCCCCNC(=O)[C@H]1CC[C@@H](C(F)F)[NH2+]1)c1ccc(-c2c3nc(c(-c4cc(S(=O)(=O)[O-])ccc4F)c4ccc([nH]4)c(-c4cc(S(=O)(=O)[O-])ccc4F)c4nc(c(-c5cc(S(=O)(=O)[O-])ccc5F)c5ccc2[nH]5)C=C4)C=C3)cc1
REMARK SMILES IDX 5 1 4 2 3 3 1 4 2 5 21 7 22 8 83 9 23 10 82 11 24 12 25 13
REMARK SMILES IDX 26 14 76 15 27 16 81 17 75 18 77 19 28 20 80 21 74 22 73 23
REMARK SMILES IDX 29 25 61 26 41 27 60 28 42 29 45 30 59 31 78 32 43 33 44 34
REMARK SMILES IDX 58 36 79 37 46 38 30 39 31 40 39 41 32 42 38 43 40 44 37 45
REMARK SMILES IDX 33 46 34 47 35 48 36 49 62 50 63 51 71 52 64 53 70 54 72 55
REMARK SMILES IDX 69 56 65 57 66 58 67 59 68 60 47 61 48 62 56 63 49 64 55 65
REMARK SMILES IDX 57 66 54 67 50 68 51 69 52 70 53 71 6 72 7 73 8 74 9 75
REMARK SMILES IDX 10 76 11 77 12 79 13 80 14 81 20 82 15 83 16 84 17 87 18 88
REMARK SMILES IDX 19 89
REMARK H PARENT 3 6 77 24 45 35 10 78 20 85 20 86
REMARK Flexibility Score: inf
ROOT
ATOM      1  C   UNL     1       4.413  -5.137   3.279  1.00  0.00     0.021 C 
ENDROOT
BRANCH   1   2
ATOM      2  C   UNL     1       3.033  -4.536   3.050  1.00  0.00     0.116 C 
BRANCH   2   3
ATOM      3  N   UNL     1       2.685  -4.500   1.639  1.00  0.00    -0.352 N 
ATOM      4  O   UNL     1       1.573  -5.128  -0.221  1.00  0.00    -0.269 OA
ATOM      5  C   UNL     1       1.610  -5.071   1.007  1.00  0.00     0.251 C 
ATOM      6  H   UNL     1       3.303  -3.999   1.060  1.00  0.00     0.163 HD
BRANCH   5   7
ATOM      7  C   UNL     1       0.503  -5.625   1.813  1.00  0.00     0.039 A 
ATOM      8  C   UNL     1      -0.025  -4.898   2.884  1.00  0.00     0.014 A 
ATOM      9  C   UNL     1      -0.016  -6.880   1.488  1.00  0.00     0.014 A 
ATOM     10  C   UNL     1      -0.994  -5.471   3.699  1.00  0.00     0.010 A 
ATOM     11  C   UNL     1      -1.046  -7.420   2.260  1.00  0.00     0.010 A 
ATOM     12  C   UNL     1      -1.532  -6.727   3.382  1.00  0.00    -0.014 A 
BRANCH  12  13
ATOM     13  C   UNL     1      -2.651  -7.278   4.186  1.00  0.00     0.031 A 
ATOM     14  C   UNL     1      -2.485  -8.550   4.965  1.00  0.00     0.074 A 
ATOM     15  C   UNL     1      -3.833  -6.633   4.180  1.00  0.00     0.049 A 
ATOM     16  N   UNL     1      -3.376  -9.223   5.647  1.00  0.00    -0.248 NA
ATOM     17  C   UNL     1      -1.145  -9.150   4.965  1.00  0.00     0.031 C 
ATOM     18  C   UNL     1      -4.105  -5.389   3.454  1.00  0.00     0.029 A 
ATOM     19  N   UNL     1      -5.026  -6.934   4.784  1.00  0.00    -0.354 N 
ATOM     20  C   UNL     1      -2.713 -10.341   6.142  1.00  0.00     0.074 A 
ATOM     21  C   UNL     1      -1.353 -10.267   5.647  1.00  0.00     0.031 C 
ATOM     22  C   UNL     1      -5.380  -5.032   3.660  1.00  0.00     0.029 A 
ATOM     23  C   UNL     1      -6.035  -6.056   4.464  1.00  0.00     0.049 A 
ATOM     24  H   UNL     1      -5.148  -7.702   5.387  1.00  0.00     0.167 HD
ATOM     25  C   UNL     1      -3.198 -11.328   6.938  1.00  0.00     0.034 A 
ATOM     26  C   UNL     1      -7.353  -6.094   4.740  1.00  0.00     0.034 A 
ATOM     27  C   UNL     1      -4.566 -11.381   7.401  1.00  0.00     0.049 A 
ATOM     28  C   UNL     1      -7.889  -7.231   5.564  1.00  0.00     0.074 A 
ATOM     29  C   UNL     1      -5.156 -12.306   8.245  1.00  0.00     0.029 A 
ATOM     30  N   UNL     1      -5.567 -10.484   7.039  1.00  0.00    -0.354 N 
ATOM     31  N   UNL     1      -7.245  -8.265   6.056  1.00  0.00    -0.248 NA
ATOM     32  C   UNL     1      -9.322  -7.208   5.877  1.00  0.00     0.031 C 
ATOM     33  C   UNL     1      -6.524 -12.023   8.321  1.00  0.00     0.029 A 
ATOM     34  C   UNL     1      -6.776 -10.863   7.605  1.00  0.00     0.049 A 
ATOM     35  H   UNL     1      -5.436  -9.695   6.465  1.00  0.00     0.167 HD
ATOM     36  C   UNL     1      -8.192  -9.003   6.759  1.00  0.00     0.074 A 
ATOM     37  C   UNL     1      -9.449  -8.292   6.630  1.00  0.00     0.031 C 
ATOM     38  C   UNL     1      -8.029 -10.155   7.457  1.00  0.00     0.034 A 
BRANCH  25  39
ATOM     39  C   UNL     1      -2.256 -12.455   7.298  1.00  0.00     0.023 A 
ATOM     40  C   UNL     1      -1.062 -12.228   8.006  1.00  0.00     0.031 A 
ATOM     41  C   UNL     1      -2.527 -13.771   6.882  1.00  0.00     0.131 A 
ATOM     42  C   UNL     1      -0.141 -13.272   8.185  1.00  0.00     0.055 A 
ATOM     43  C   UNL     1      -1.652 -14.826   7.148  1.00  0.00     0.041 A 
ATOM     44  F   UNL     1      -3.640 -14.053   6.186  1.00  0.00    -0.206 F 
ATOM     45  C   UNL     1      -0.440 -14.576   7.784  1.00  0.00     0.022 A 
BRANCH  42  46
ATOM     46  S   UNL     1       1.525 -12.861   8.773  1.00  0.00     0.124 S 
ATOM     47  O   UNL     1       1.939 -11.843   7.810  1.00  0.00    -0.237 OA
ATOM     48  O   UNL     1       1.274 -12.391  10.130  1.00  0.00    -0.237 OA
ATOM     49  O   UNL     1       2.247 -14.128   8.674  1.00  0.00    -0.744 OA
ENDBRANCH  42  46
ENDBRANCH  25  39
BRANCH  26  50
ATOM     50  C   UNL     1      -8.248  -5.048   4.173  1.00  0.00     0.023 A 
ATOM     51  C   UNL     1      -8.898  -4.117   4.996  1.00  0.00     0.031 A 
ATOM     52  C   UNL     1      -8.442  -4.952   2.782  1.00  0.00     0.131 A 
ATOM     53  C   UNL     1      -9.728  -3.141   4.420  1.00  0.00     0.055 A 
ATOM     54  C   UNL     1      -9.226  -3.950   2.212  1.00  0.00     0.041 A 
ATOM     55  F   UNL     1      -7.835  -5.815   1.952  1.00  0.00    -0.206 F 
ATOM     56  C   UNL     1      -9.882  -3.040   3.035  1.00  0.00     0.022 A 
BRANCH  53  57
ATOM     57  S   UNL     1     -10.651  -2.030   5.516  1.00  0.00     0.124 S 
ATOM     58  O   UNL     1     -11.454  -2.972   6.287  1.00  0.00    -0.237 OA
ATOM     59  O   UNL     1      -9.577  -1.358   6.242  1.00  0.00    -0.237 OA
ATOM     60  O   UNL     1     -11.399  -1.182   4.590  1.00  0.00    -0.744 OA
ENDBRANCH  53  57
ENDBRANCH  26  50
BRANCH  38  61
ATOM     61  C   UNL     1      -9.234 -10.697   8.187  1.00  0.00     0.023 A 
ATOM     62  C   UNL     1     -10.344 -11.227   7.508  1.00  0.00     0.031 A 
ATOM     63  C   UNL     1      -9.253 -10.705   9.594  1.00  0.00     0.131 A 
ATOM     64  C   UNL     1     -11.441 -11.715   8.237  1.00  0.00     0.055 A 
ATOM     65  C   UNL     1     -10.320 -11.243  10.313  1.00  0.00     0.041 A 
ATOM     66  F   UNL     1      -8.222 -10.204  10.293  1.00  0.00    -0.206 F 
ATOM     67  C   UNL     1     -11.426 -11.745   9.634  1.00  0.00     0.022 A 
BRANCH  64  68
ATOM     68  S   UNL     1     -12.921 -12.255   7.338  1.00  0.00     0.124 S 
ATOM     69  O   UNL     1     -13.321 -11.031   6.651  1.00  0.00    -0.237 OA
ATOM     70  O   UNL     1     -12.401 -13.322   6.490  1.00  0.00    -0.237 OA
ATOM     71  O   UNL     1     -13.826 -12.694   8.399  1.00  0.00    -0.744 OA
ENDBRANCH  64  68
ENDBRANCH  38  61
ENDBRANCH  12  13
ENDBRANCH   5   7
ENDBRANCH   2   3
ENDBRANCH   1   2
BRANCH   1  72
ATOM     72  C   UNL     1       5.560  -4.323   2.679  1.00  0.00     0.002 C 
BRANCH  72  73
ATOM     73  C   UNL     1       5.644  -2.873   3.167  1.00  0.00     0.002 C 
BRANCH  73  74
ATOM     74  C   UNL     1       5.703  -2.700   4.692  1.00  0.00     0.021 C 
BRANCH  74  75
ATOM     75  C   UNL     1       6.830  -3.482   5.364  1.00  0.00     0.116 C 
BRANCH  75  76
ATOM     76  N   UNL     1       8.118  -3.048   4.865  1.00  0.00    -0.351 N 
ATOM     77  C   UNL     1       9.117  -2.359   5.481  1.00  0.00     0.278 C 
ATOM     78  H   UNL     1       8.300  -3.290   3.929  1.00  0.00     0.163 HD
ATOM     79  O   UNL     1      10.089  -2.052   4.787  1.00  0.00    -0.268 OA
BRANCH  77  80
ATOM     80  C   UNL     1       9.043  -2.107   7.004  1.00  0.00     0.273 C 
ATOM     81  C   UNL     1       9.847  -3.177   7.721  1.00  0.00     0.082 C 
ATOM     82  N   UNL     1       9.689  -0.827   7.374  1.00  0.00    -0.329 N 
ATOM     83  C   UNL     1      11.263  -2.636   7.642  1.00  0.00     0.078 C 
ATOM     84  C   UNL     1      11.084  -1.127   7.800  1.00  0.00     0.251 C 
ATOM     85  H   UNL     1       9.178  -0.390   8.142  1.00  0.00     0.347 HD
ATOM     86  H   UNL     1       9.689  -0.185   6.581  1.00  0.00     0.347 HD
BRANCH  84  87
ATOM     87  C   UNL     1      12.186  -0.313   7.095  1.00  0.00     0.399 C 
ATOM     88  F   UNL     1      12.049  -0.306   5.750  1.00  0.00    -0.204 F 
ATOM     89  F   UNL     1      12.131   0.984   7.502  1.00  0.00    -0.204 F 
ENDBRANCH  84  87
ENDBRANCH  77  80
ENDBRANCH  75  76
ENDBRANCH  74  75
ENDBRANCH  73  74
ENDBRANCH  72  73
ENDBRANCH   1  72
TORSDOF 17
