REMARK SMILES O=C(NCCCCCCNC(=O)[C@H](CO)NC(=O)[C@H](CS)NC(=O)[C@H](Cc1c[nH]c2ccccc12)NC(=O)c1ccc(F)cc1)c1ccc(-c2c3nc(c(-c4cc(S(=O)(=O)[O-])ccc4F)c4ccc([nH]4)c(-c4cc(S(=O)(=O)[O-])ccc4F)c4nc(c(-c5cc(S(=O)(=O)[O-])ccc5F)c5ccc2[nH]5)C=C4)C=C3)cc1
REMARK SMILES IDX 8 1 7 2 6 3 5 4 4 5 3 6 1 7 2 8 46 10 47 11 108 12 48 13
REMARK SMILES IDX 107 14 49 15 50 16 51 17 101 18 52 19 106 20 100 21 102 22
REMARK SMILES IDX 53 23 105 24 99 25 98 26 54 28 86 29 66 30 85 31 67 32 70 33
REMARK SMILES IDX 84 34 103 35 68 36 69 37 83 39 104 40 71 41 55 42 56 43
REMARK SMILES IDX 64 44 57 45 63 46 65 47 62 48 58 49 59 50 60 51 61 52 87 53
REMARK SMILES IDX 88 54 96 55 89 56 95 57 97 58 94 59 90 60 91 61 92 62 93 63
REMARK SMILES IDX 72 64 73 65 81 66 74 67 80 68 82 69 79 70 75 71 76 72 77 73
REMARK SMILES IDX 78 74 9 75 10 76 11 77 12 79 13 80 16 81 17 82 18 84 19 85
REMARK SMILES IDX 22 86 23 87 24 89 25 90 36 91 37 92 38 94 39 95 40 96 45 97
REMARK SMILES IDX 41 98 44 99 42 100 43 101 26 102 27 103 28 104 35 105 29 106
REMARK SMILES IDX 30 107 34 108 31 110 33 111 32 112 20 113 21 114 14 116
REMARK SMILES IDX 15 117
REMARK H PARENT 3 9 102 27 70 38 10 78 16 83 22 88 36 93 29 109 21 115 15 118
REMARK Flexibility Score: inf
ROOT
ATOM      1  C   UNL     1      17.891   9.858  -7.566  1.00  0.00     0.021 C 
ENDROOT
BRANCH   1   2
ATOM      2  C   UNL     1      17.962   9.560  -9.067  1.00  0.00     0.002 C 
BRANCH   2   3
ATOM      3  C   UNL     1      17.102  10.474  -9.941  1.00  0.00     0.002 C 
BRANCH   3   4
ATOM      4  C   UNL     1      17.354  11.968  -9.740  1.00  0.00     0.021 C 
BRANCH   4   5
ATOM      5  C   UNL     1      18.808  12.383  -9.919  1.00  0.00     0.116 C 
BRANCH   5   6
ATOM      6  N   UNL     1      19.256  12.197 -11.292  1.00  0.00    -0.352 N 
ATOM      7  O   UNL     1      19.785  12.885 -13.379  1.00  0.00    -0.269 OA
ATOM      8  C   UNL     1      19.669  13.154 -12.186  1.00  0.00     0.251 C 
ATOM      9  H   UNL     1      19.263  11.269 -11.620  1.00  0.00     0.163 HD
BRANCH   8  10
ATOM     10  C   UNL     1      19.965  14.511 -11.687  1.00  0.00     0.039 A 
ATOM     11  C   UNL     1      20.744  14.669 -10.538  1.00  0.00     0.014 A 
ATOM     12  C   UNL     1      19.449  15.624 -12.354  1.00  0.00     0.014 A 
ATOM     13  C   UNL     1      20.898  15.930  -9.981  1.00  0.00     0.010 A 
ATOM     14  C   UNL     1      19.690  16.903 -11.845  1.00  0.00     0.010 A 
ATOM     15  C   UNL     1      20.404  17.064 -10.647  1.00  0.00    -0.014 A 
BRANCH  15  16
ATOM     16  C   UNL     1      20.741  18.410 -10.120  1.00  0.00     0.031 A 
ATOM     17  C   UNL     1      19.678  19.347  -9.625  1.00  0.00     0.074 A 
ATOM     18  C   UNL     1      22.041  18.762 -10.067  1.00  0.00     0.049 A 
ATOM     19  N   UNL     1      19.813  20.557  -9.146  1.00  0.00    -0.248 NA
ATOM     20  C   UNL     1      18.287  18.873  -9.678  1.00  0.00     0.031 C 
ATOM     21  C   UNL     1      23.156  17.919 -10.512  1.00  0.00     0.029 A 
ATOM     22  N   UNL     1      22.651  19.895  -9.598  1.00  0.00    -0.354 N 
ATOM     23  C   UNL     1      18.528  20.996  -8.848  1.00  0.00     0.074 A 
ATOM     24  C   UNL     1      17.623  19.931  -9.232  1.00  0.00     0.031 C 
ATOM     25  C   UNL     1      24.312  18.536 -10.235  1.00  0.00     0.029 A 
ATOM     26  C   UNL     1      24.023  19.851  -9.678  1.00  0.00     0.049 A 
ATOM     27  H   UNL     1      22.155  20.666  -9.239  1.00  0.00     0.167 HD
ATOM     28  C   UNL     1      18.148  22.176  -8.300  1.00  0.00     0.034 A 
ATOM     29  C   UNL     1      24.952  20.774  -9.366  1.00  0.00     0.034 A 
ATOM     30  C   UNL     1      19.069  23.223  -7.926  1.00  0.00     0.049 A 
ATOM     31  C   UNL     1      24.499  22.099  -8.830  1.00  0.00     0.074 A 
ATOM     32  C   UNL     1      18.787  24.448  -7.347  1.00  0.00     0.029 A 
ATOM     33  N   UNL     1      20.447  23.174  -8.100  1.00  0.00    -0.354 N 
ATOM     34  N   UNL     1      23.278  22.508  -8.578  1.00  0.00    -0.248 NA
ATOM     35  C   UNL     1      25.542  23.091  -8.547  1.00  0.00     0.031 C 
ATOM     36  C   UNL     1      19.981  25.167  -7.238  1.00  0.00     0.029 A 
ATOM     37  C   UNL     1      21.022  24.361  -7.672  1.00  0.00     0.049 A 
ATOM     38  H   UNL     1      20.942  22.409  -8.472  1.00  0.00     0.167 HD
ATOM     39  C   UNL     1      23.406  23.803  -8.091  1.00  0.00     0.074 A 
ATOM     40  C   UNL     1      24.824  24.105  -8.079  1.00  0.00     0.031 C 
ATOM     41  C   UNL     1      22.435  24.659  -7.685  1.00  0.00     0.034 A 
BRANCH  28  42
ATOM     42  C   UNL     1      16.672  22.419  -8.106  1.00  0.00     0.023 A 
ATOM     43  C   UNL     1      15.916  21.679  -7.180  1.00  0.00     0.031 A 
ATOM     44  C   UNL     1      16.017  23.425  -8.838  1.00  0.00     0.131 A 
ATOM     45  C   UNL     1      14.542  21.929  -7.040  1.00  0.00     0.055 A 
ATOM     46  C   UNL     1      14.664  23.713  -8.648  1.00  0.00     0.041 A 
ATOM     47  F   UNL     1      16.685  24.152  -9.748  1.00  0.00    -0.206 F 
ATOM     48  C   UNL     1      13.916  22.957  -7.750  1.00  0.00     0.022 A 
BRANCH  45  49
ATOM     49  S   UNL     1      13.562  20.831  -5.981  1.00  0.00     0.124 S 
ATOM     50  O   UNL     1      13.728  19.546  -6.657  1.00  0.00    -0.237 OA
ATOM     51  O   UNL     1      14.225  20.963  -4.689  1.00  0.00    -0.237 OA
ATOM     52  O   UNL     1      12.217  21.397  -6.052  1.00  0.00    -0.744 OA
ENDBRANCH  45  49
ENDBRANCH  28  42
BRANCH  29  53
ATOM     53  C   UNL     1      26.389  20.465  -9.586  1.00  0.00     0.023 A 
ATOM     54  C   UNL     1      27.260  20.274  -8.504  1.00  0.00     0.031 A 
ATOM     55  C   UNL     1      26.898  20.298 -10.888  1.00  0.00     0.131 A 
ATOM     56  C   UNL     1      28.599  19.930  -8.743  1.00  0.00     0.055 A 
ATOM     57  C   UNL     1      28.219  19.918 -11.119  1.00  0.00     0.041 A 
ATOM     58  F   UNL     1      26.097  20.456 -11.954  1.00  0.00    -0.206 F 
ATOM     59  C   UNL     1      29.080  19.734 -10.041  1.00  0.00     0.022 A 
BRANCH  56  60
ATOM     60  S   UNL     1      29.715  19.745  -7.326  1.00  0.00     0.124 S 
ATOM     61  O   UNL     1      29.744  21.102  -6.793  1.00  0.00    -0.237 OA
ATOM     62  O   UNL     1      29.020  18.750  -6.516  1.00  0.00    -0.237 OA
ATOM     63  O   UNL     1      30.962  19.286  -7.934  1.00  0.00    -0.744 OA
ENDBRANCH  56  60
ENDBRANCH  29  53
BRANCH  41  64
ATOM     64  C   UNL     1      22.873  26.002  -7.164  1.00  0.00     0.023 A 
ATOM     65  C   UNL     1      23.390  26.990  -8.017  1.00  0.00     0.031 A 
ATOM     66  C   UNL     1      22.726  26.309  -5.799  1.00  0.00     0.131 A 
ATOM     67  C   UNL     1      23.766  28.235  -7.492  1.00  0.00     0.055 A 
ATOM     68  C   UNL     1      23.054  27.566  -5.292  1.00  0.00     0.041 A 
ATOM     69  F   UNL     1      22.237  25.398  -4.943  1.00  0.00    -0.206 F 
ATOM     70  C   UNL     1      23.582  28.536  -6.139  1.00  0.00     0.022 A 
BRANCH  67  71
ATOM     71  S   UNL     1      24.535  29.452  -8.594  1.00  0.00     0.124 S 
ATOM     72  O   UNL     1      25.776  28.779  -8.966  1.00  0.00    -0.237 OA
ATOM     73  O   UNL     1      23.542  29.590  -9.654  1.00  0.00    -0.237 OA
ATOM     74  O   UNL     1      24.699  30.630  -7.744  1.00  0.00    -0.744 OA
ENDBRANCH  67  71
ENDBRANCH  41  64
ENDBRANCH  15  16
ENDBRANCH   8  10
ENDBRANCH   5   6
ENDBRANCH   4   5
ENDBRANCH   3   4
ENDBRANCH   2   3
ENDBRANCH   1   2
BRANCH   1  75
ATOM     75  C   UNL     1      16.526   9.575  -6.934  1.00  0.00     0.116 C 
BRANCH  75  76
ATOM     76  N   UNL     1      16.224   8.154  -6.950  1.00  0.00    -0.354 N 
ATOM     77  C   UNL     1      16.375   7.185  -6.004  1.00  0.00     0.244 C 
ATOM     78  H   UNL     1      15.840   7.833  -7.798  1.00  0.00     0.163 HD
ATOM     79  O   UNL     1      15.990   6.051  -6.306  1.00  0.00    -0.273 OA
BRANCH  77  80
ATOM     80  C   UNL     1      16.912   7.500  -4.590  1.00  0.00     0.197 C 
BRANCH  80  81
ATOM     81  N   UNL     1      17.117   6.248  -3.842  1.00  0.00    -0.340 N 
ATOM     82  C   UNL     1      16.544   5.729  -2.728  1.00  0.00     0.244 C 
ATOM     83  H   UNL     1      17.813   5.669  -4.230  1.00  0.00     0.164 HD
ATOM     84  O   UNL     1      17.196   4.871  -2.124  1.00  0.00    -0.273 OA
BRANCH  82  85
ATOM     85  C   UNL     1      15.257   6.324  -2.120  1.00  0.00     0.181 C 
BRANCH  85  86
ATOM     86  N   UNL     1      14.304   6.816  -3.118  1.00  0.00    -0.342 N 
ATOM     87  C   UNL     1      13.548   7.946  -3.137  1.00  0.00     0.243 C 
ATOM     88  H   UNL     1      14.193   6.233  -3.903  1.00  0.00     0.164 HD
ATOM     89  O   UNL     1      12.685   8.038  -4.016  1.00  0.00    -0.273 OA
BRANCH  87  90
ATOM     90  C   UNL     1      13.781   9.081  -2.122  1.00  0.00     0.176 C 
BRANCH  90  91
ATOM     91  N   UNL     1      13.676  10.304  -2.934  1.00  0.00    -0.340 N 
ATOM     92  C   UNL     1      14.402  11.464  -2.977  1.00  0.00     0.251 C 
ATOM     93  H   UNL     1      12.931  10.284  -3.578  1.00  0.00     0.164 HD
ATOM     94  O   UNL     1      14.001  12.388  -3.679  1.00  0.00    -0.269 OA
BRANCH  92  95
ATOM     95  C   UNL     1      15.681  11.622  -2.250  1.00  0.00     0.040 A 
ATOM     96  C   UNL     1      16.672  10.641  -2.333  1.00  0.00     0.017 A 
ATOM     97  C   UNL     1      15.971  12.836  -1.615  1.00  0.00     0.017 A 
ATOM     98  C   UNL     1      17.924  10.839  -1.752  1.00  0.00     0.040 A 
ATOM     99  C   UNL     1      17.229  13.041  -1.037  1.00  0.00     0.040 A 
ATOM    100  C   UNL     1      18.191  12.039  -1.108  1.00  0.00     0.123 A 
ATOM    101  F   UNL     1      19.399  12.233  -0.567  1.00  0.00    -0.207 F 
ENDBRANCH  92  95
ENDBRANCH  90  91
BRANCH  90 102
ATOM    102  C   UNL     1      12.713   8.986  -1.016  1.00  0.00     0.072 C 
BRANCH 102 103
ATOM    103  C   UNL     1      12.919   9.980   0.087  1.00  0.00    -0.020 A 
ATOM    104  C   UNL     1      13.489   9.745   1.324  1.00  0.00     0.087 A 
ATOM    105  C   UNL     1      12.587  11.373   0.044  1.00  0.00     0.003 A 
ATOM    106  N   UNL     1      13.561  10.938   1.997  1.00  0.00    -0.361 N 
ATOM    107  C   UNL     1      13.065  11.955   1.217  1.00  0.00     0.046 A 
ATOM    108  C   UNL     1      11.971  12.205  -0.913  1.00  0.00     0.010 A 
ATOM    109  H   UNL     1      13.917  11.050   2.908  1.00  0.00     0.166 HD
ATOM    110  C   UNL     1      13.011  13.335   1.452  1.00  0.00     0.026 A 
ATOM    111  C   UNL     1      11.934  13.587  -0.709  1.00  0.00     0.001 A 
ATOM    112  C   UNL     1      12.457  14.142   0.454  1.00  0.00     0.002 A 
ENDBRANCH 102 103
ENDBRANCH  90 102
ENDBRANCH  87  90
ENDBRANCH  85  86
BRANCH  85 113
ATOM    113  C   UNL     1      14.589   5.285  -1.193  1.00  0.00     0.101 C 
BRANCH 113 114
ATOM    114  S   UNL     1      13.807   3.887  -2.083  1.00  0.00    -0.177 SA
ATOM    115  H   UNL     1      12.809   4.358  -2.878  1.00  0.00     0.102 HD
ENDBRANCH 113 114
ENDBRANCH  85 113
ENDBRANCH  82  85
ENDBRANCH  80  81
BRANCH  80 116
ATOM    116  C   UNL     1      18.259   8.233  -4.538  1.00  0.00     0.191 C 
BRANCH 116 117
ATOM    117  O   UNL     1      19.301   7.476  -5.151  1.00  0.00    -0.394 OA
ATOM    118  H   UNL     1      19.411   6.636  -4.678  1.00  0.00     0.210 HD
ENDBRANCH 116 117
ENDBRANCH  80 116
ENDBRANCH  77  80
ENDBRANCH  75  76
ENDBRANCH   1  75
TORSDOF 28
