REMARK SMILES CC(C)CS(=O)(=O)Cc1c(C(=O)NCCCCCCNC(=O)c2ccc(-c3c4nc(c(-c5cc(S(=O)(=O)[O-])ccc5F)c5ccc([nH]5)c(-c5cc(S(=O)(=O)[O-])ccc5F)c5nc(c(-c6cc(S(=O)(=O)[O-])ccc6F)c6ccc3[nH]6)C=C5)C=C4)cc2)oc2ccccc12
REMARK SMILES IDX 16 1 15 2 14 3 13 4 11 5 12 6 10 8 9 9 92 10 86 11 87 12
REMARK SMILES IDX 91 13 88 14 90 15 89 16 8 17 5 18 6 19 7 20 4 21 2 22 1 23
REMARK SMILES IDX 3 24 17 25 18 26 19 27 20 28 21 29 22 31 23 32 24 33 85 34
REMARK SMILES IDX 25 35 84 36 26 37 27 38 28 39 78 40 29 41 83 42 77 43 79 44
REMARK SMILES IDX 30 45 82 46 76 47 75 48 31 50 63 51 43 52 62 53 44 54 47 55
REMARK SMILES IDX 61 56 80 57 45 58 46 59 60 61 81 62 48 63 32 64 33 65 41 66
REMARK SMILES IDX 34 67 40 68 42 69 39 70 35 71 36 72 37 73 38 74 64 75 65 76
REMARK SMILES IDX 73 77 66 78 72 79 74 80 71 81 67 82 68 83 69 84 70 85 49 86
REMARK SMILES IDX 50 87 58 88 51 89 57 90 59 91 56 92 52 93 53 94 54 95 55 96
REMARK H PARENT 13 7 20 30 79 49 47 60
REMARK Flexibility Score: inf
ROOT
ATOM      1  C   UNL     1      -6.487   1.311  -5.885  1.00  0.00     0.002 C 
ENDROOT
BRANCH   1   2
ATOM      2  C   UNL     1      -5.311   2.078  -5.271  1.00  0.00     0.021 C 
BRANCH   2   3
ATOM      3  C   UNL     1      -5.207   1.960  -3.751  1.00  0.00     0.116 C 
BRANCH   3   4
ATOM      4  N   UNL     1      -4.885   0.602  -3.353  1.00  0.00    -0.349 N 
ATOM      5  C   UNL     1      -3.746   0.058  -2.814  1.00  0.00     0.287 C 
ATOM      6  O   UNL     1      -3.676  -1.173  -2.826  1.00  0.00    -0.266 OA
ATOM      7  H   UNL     1      -5.614  -0.044  -3.494  1.00  0.00     0.163 HD
BRANCH   5   8
ATOM      8  C   UNL     1      -2.660   0.891  -2.326  1.00  0.00     0.196 A 
ATOM      9  C   UNL     1      -1.378   0.550  -1.898  1.00  0.00     0.027 A 
ATOM     10  C   UNL     1      -0.668   1.791  -1.776  1.00  0.00     0.025 A 
ATOM     11  O   UNL     1      -2.822   2.239  -2.199  1.00  0.00    -0.451 OA
ATOM     12  C   UNL     1      -1.627   2.784  -1.885  1.00  0.00     0.135 A 
ATOM     13  C   UNL     1       0.663   2.192  -1.565  1.00  0.00     0.012 A 
ATOM     14  C   UNL     1      -1.387   4.145  -1.718  1.00  0.00     0.048 A 
ATOM     15  C   UNL     1       0.946   3.556  -1.392  1.00  0.00     0.001 A 
ATOM     16  C   UNL     1      -0.067   4.514  -1.450  1.00  0.00     0.004 A 
BRANCH   9  17
ATOM     17  C   UNL     1      -0.857  -0.827  -1.658  1.00  0.00     0.177 C 
BRANCH  17  18
ATOM     18  S   UNL     1      -1.356  -1.532  -0.061  1.00  0.00     0.154 S 
ATOM     19  O   UNL     1      -0.636  -2.784   0.115  1.00  0.00    -0.228 OA
ATOM     20  O   UNL     1      -2.805  -1.531   0.023  1.00  0.00    -0.228 OA
BRANCH  18  21
ATOM     21  C   UNL     1      -0.796  -0.401   1.208  1.00  0.00     0.140 C 
BRANCH  21  22
ATOM     22  C   UNL     1       0.612  -0.644   1.763  1.00  0.00    -0.002 C 
ATOM     23  C   UNL     1       1.719  -0.455   0.735  1.00  0.00     0.008 C 
ATOM     24  C   UNL     1       0.859   0.315   2.933  1.00  0.00     0.008 C 
ENDBRANCH  21  22
ENDBRANCH  18  21
ENDBRANCH  17  18
ENDBRANCH   9  17
ENDBRANCH   5   8
ENDBRANCH   3   4
ENDBRANCH   2   3
ENDBRANCH   1   2
BRANCH   1  25
ATOM     25  C   UNL     1      -7.855   1.625  -5.271  1.00  0.00     0.002 C 
BRANCH  25  26
ATOM     26  C   UNL     1      -8.216   3.111  -5.210  1.00  0.00     0.021 C 
BRANCH  26  27
ATOM     27  C   UNL     1      -8.218   3.818  -6.559  1.00  0.00     0.116 C 
BRANCH  27  28
ATOM     28  N   UNL     1      -9.238   3.289  -7.449  1.00  0.00    -0.352 N 
ATOM     29  C   UNL     1     -10.228   3.961  -8.121  1.00  0.00     0.251 C 
ATOM     30  H   UNL     1      -9.215   2.314  -7.588  1.00  0.00     0.163 HD
ATOM     31  O   UNL     1     -11.133   3.336  -8.665  1.00  0.00    -0.269 OA
BRANCH  29  32
ATOM     32  C   UNL     1     -10.207   5.440  -8.160  1.00  0.00     0.039 A 
ATOM     33  C   UNL     1     -11.387   6.142  -7.905  1.00  0.00     0.014 A 
ATOM     34  C   UNL     1      -9.022   6.129  -8.434  1.00  0.00     0.014 A 
ATOM     35  C   UNL     1     -11.364   7.538  -7.865  1.00  0.00     0.010 A 
ATOM     36  C   UNL     1      -8.985   7.515  -8.318  1.00  0.00     0.010 A 
ATOM     37  C   UNL     1     -10.156   8.236  -8.036  1.00  0.00    -0.014 A 
BRANCH  37  38
ATOM     38  C   UNL     1     -10.100   9.718  -7.935  1.00  0.00     0.031 A 
ATOM     39  C   UNL     1      -9.700  10.539  -9.132  1.00  0.00     0.074 A 
ATOM     40  C   UNL     1     -10.348  10.319  -6.754  1.00  0.00     0.049 A 
ATOM     41  N   UNL     1      -9.513  11.830  -9.226  1.00  0.00    -0.248 NA
ATOM     42  C   UNL     1      -9.446   9.803 -10.380  1.00  0.00     0.031 C 
ATOM     43  C   UNL     1     -10.710   9.627  -5.514  1.00  0.00     0.029 A 
ATOM     44  N   UNL     1     -10.327  11.645  -6.397  1.00  0.00    -0.354 N 
ATOM     45  C   UNL     1      -9.109  12.060 -10.537  1.00  0.00     0.074 A 
ATOM     46  C   UNL     1      -9.014  10.767 -11.178  1.00  0.00     0.031 C 
ATOM     47  C   UNL     1     -10.902  10.535  -4.544  1.00  0.00     0.029 A 
ATOM     48  C   UNL     1     -10.628  11.868  -5.073  1.00  0.00     0.049 A 
ATOM     49  H   UNL     1     -10.117  12.368  -7.031  1.00  0.00     0.167 HD
ATOM     50  C   UNL     1      -8.864  13.243 -11.154  1.00  0.00     0.034 A 
ATOM     51  C   UNL     1     -10.665  13.013  -4.362  1.00  0.00     0.034 A 
ATOM     52  C   UNL     1      -8.976  14.524 -10.501  1.00  0.00     0.049 A 
ATOM     53  C   UNL     1     -10.354  14.313  -5.061  1.00  0.00     0.074 A 
ATOM     54  C   UNL     1      -8.807  15.786 -11.046  1.00  0.00     0.029 A 
ATOM     55  N   UNL     1      -9.278  14.710  -9.158  1.00  0.00    -0.354 N 
ATOM     56  N   UNL     1     -10.023  14.518  -6.316  1.00  0.00    -0.248 NA
ATOM     57  C   UNL     1     -10.430  15.537  -4.253  1.00  0.00     0.031 C 
ATOM     58  C   UNL     1      -8.932  16.727 -10.019  1.00  0.00     0.029 A 
ATOM     59  C   UNL     1      -9.264  16.062  -8.849  1.00  0.00     0.049 A 
ATOM     60  H   UNL     1      -9.474  13.988  -8.518  1.00  0.00     0.167 HD
ATOM     61  C   UNL     1      -9.886  15.897  -6.452  1.00  0.00     0.074 A 
ATOM     62  C   UNL     1     -10.181  16.474  -5.156  1.00  0.00     0.031 C 
ATOM     63  C   UNL     1      -9.554  16.622  -7.550  1.00  0.00     0.034 A 
BRANCH  50  64
ATOM     64  C   UNL     1      -8.426  13.197 -12.599  1.00  0.00     0.023 A 
ATOM     65  C   UNL     1      -9.254  12.669 -13.606  1.00  0.00     0.031 A 
ATOM     66  C   UNL     1      -7.155  13.667 -12.975  1.00  0.00     0.131 A 
ATOM     67  C   UNL     1      -8.774  12.550 -14.918  1.00  0.00     0.055 A 
ATOM     68  C   UNL     1      -6.716  13.626 -14.300  1.00  0.00     0.041 A 
ATOM     69  F   UNL     1      -6.310  14.162 -12.057  1.00  0.00    -0.206 F 
ATOM     70  C   UNL     1      -7.521  13.050 -15.278  1.00  0.00     0.022 A 
BRANCH  67  71
ATOM     71  S   UNL     1      -9.750  11.597 -16.113  1.00  0.00     0.124 S 
ATOM     72  O   UNL     1      -9.829  10.294 -15.456  1.00  0.00    -0.237 OA
ATOM     73  O   UNL     1     -10.993  12.355 -16.181  1.00  0.00    -0.237 OA
ATOM     74  O   UNL     1      -8.933  11.627 -17.325  1.00  0.00    -0.744 OA
ENDBRANCH  67  71
ENDBRANCH  50  64
BRANCH  51  75
ATOM     75  C   UNL     1     -10.993  12.991  -2.907  1.00  0.00     0.023 A 
ATOM     76  C   UNL     1     -12.142  13.631  -2.414  1.00  0.00     0.031 A 
ATOM     77  C   UNL     1     -10.139  12.367  -1.980  1.00  0.00     0.131 A 
ATOM     78  C   UNL     1     -12.379  13.678  -1.032  1.00  0.00     0.055 A 
ATOM     79  C   UNL     1     -10.409  12.367  -0.610  1.00  0.00     0.041 A 
ATOM     80  F   UNL     1      -9.028  11.738  -2.395  1.00  0.00    -0.206 F 
ATOM     81  C   UNL     1     -11.528  13.037  -0.128  1.00  0.00     0.022 A 
BRANCH  78  82
ATOM     82  S   UNL     1     -13.767  14.674  -0.423  1.00  0.00     0.124 S 
ATOM     83  O   UNL     1     -13.445  15.990  -0.960  1.00  0.00    -0.237 OA
ATOM     84  O   UNL     1     -14.911  13.996  -1.023  1.00  0.00    -0.237 OA
ATOM     85  O   UNL     1     -13.663  14.549   1.030  1.00  0.00    -0.744 OA
ENDBRANCH  78  82
ENDBRANCH  51  75
BRANCH  63  86
ATOM     86  C   UNL     1      -9.542  18.125  -7.408  1.00  0.00     0.023 A 
ATOM     87  C   UNL     1      -8.597  18.789  -6.608  1.00  0.00     0.031 A 
ATOM     88  C   UNL     1     -10.491  18.904  -8.096  1.00  0.00     0.131 A 
ATOM     89  C   UNL     1      -8.649  20.185  -6.478  1.00  0.00     0.055 A 
ATOM     90  C   UNL     1     -10.499  20.297  -8.011  1.00  0.00     0.041 A 
ATOM     91  F   UNL     1     -11.419  18.322  -8.872  1.00  0.00    -0.206 F 
ATOM     92  C   UNL     1      -9.582  20.944  -7.189  1.00  0.00     0.022 A 
BRANCH  89  93
ATOM     93  S   UNL     1      -7.528  20.994  -5.304  1.00  0.00     0.124 S 
ATOM     94  O   UNL     1      -7.904  20.365  -4.042  1.00  0.00    -0.237 OA
ATOM     95  O   UNL     1      -6.214  20.636  -5.828  1.00  0.00    -0.237 OA
ATOM     96  O   UNL     1      -7.874  22.410  -5.418  1.00  0.00    -0.744 OA
ENDBRANCH  89  93
ENDBRANCH  63  86
ENDBRANCH  37  38
ENDBRANCH  29  32
ENDBRANCH  27  28
ENDBRANCH  26  27
ENDBRANCH  25  26
ENDBRANCH   1  25
TORSDOF 20
