REMARK SMILES C[C@@]1(O)CC(NCCCCCCNC(=O)c2ccc(-c3c4nc(c(-c5cc(S(=O)(=O)[O-])ccc5F)c5ccc([nH]5)c(-c5cc(S(=O)(=O)[O-])ccc5F)c5nc(c(-c6cc(S(=O)(=O)[O-])ccc6F)c6ccc3[nH]6)C=C5)C=C4)cc2)=C(C(=O)Nc2ccccc2)[C@H](c2ccccc2C(=O)[O-])[C@@H]1C(=O)Nc1ccccc1
REMARK SMILES IDX 10 1 9 2 8 3 7 4 6 5 5 7 1 8 2 9 4 10 99 11 89 12 79 13 3 14
REMARK SMILES IDX 100 16 101 17 102 18 103 20 104 21 108 22 105 23 107 24
REMARK SMILES IDX 106 25 90 26 91 27 95 28 92 29 94 30 93 31 96 32 97 33 98 34
REMARK SMILES IDX 80 35 81 36 82 37 83 39 84 40 88 41 85 42 87 43 86 44 11 45
REMARK SMILES IDX 12 46 13 47 14 48 15 50 16 51 17 52 78 53 18 54 77 55 19 56
REMARK SMILES IDX 20 57 21 58 71 59 22 60 76 61 70 62 72 63 23 64 75 65 69 66
REMARK SMILES IDX 68 67 24 69 56 70 36 71 55 72 37 73 40 74 54 75 73 76 38 77
REMARK SMILES IDX 39 78 53 80 74 81 41 82 25 83 26 84 34 85 27 86 33 87 35 88
REMARK SMILES IDX 32 89 28 90 29 91 30 92 31 93 57 94 58 95 66 96 59 97 65 98
REMARK SMILES IDX 67 99 64 100 60 101 61 102 62 103 63 104 42 105 43 106
REMARK SMILES IDX 51 107 44 108 50 109 52 110 49 111 45 112 46 113 47 114
REMARK SMILES IDX 48 115
REMARK H PARENT 6 6 3 15 102 19 82 38 13 49 72 68 40 79
REMARK Flexibility Score: inf
ROOT
ATOM      1  C   UNL     1      -1.596  -3.242  -6.779  1.00  0.00     0.002 C 
ENDROOT
BRANCH   1   2
ATOM      2  C   UNL     1      -0.115  -3.330  -6.387  1.00  0.00     0.002 C 
BRANCH   2   3
ATOM      3  C   UNL     1       0.366  -2.254  -5.418  1.00  0.00     0.021 C 
BRANCH   3   4
ATOM      4  C   UNL     1      -0.365  -2.255  -4.083  1.00  0.00     0.112 C 
BRANCH   4   5
ATOM      5  N   UNL     1       0.276  -3.132  -3.092  1.00  0.00    -0.388 N 
ATOM      6  H   UNL     1       0.669  -3.974  -3.417  1.00  0.00     0.160 HD
BRANCH   5   7
ATOM      7  C   UNL     1       0.370  -2.862  -1.717  1.00  0.00     0.023 C 
ATOM      8  C   UNL     1       2.203  -0.574  -0.040  1.00  0.00     0.043 C 
ATOM      9  C   UNL     1       0.692  -0.860  -0.097  1.00  0.00     0.080 C 
ATOM     10  C   UNL     1       0.307  -1.375  -1.458  1.00  0.00     0.089 C 
ATOM     11  C   UNL     1       0.219  -1.801   1.034  1.00  0.00     0.123 C 
ATOM     12  C   UNL     1       0.200  -3.368   0.795  1.00  0.00     0.073 C 
ATOM     13  C   UNL     1       0.450  -3.780  -0.698  1.00  0.00     0.045 C 
BRANCH   9  14
ATOM     14  O   UNL     1       0.121   0.464   0.022  1.00  0.00    -0.389 OA
ATOM     15  H   UNL     1       0.441   1.021  -0.704  1.00  0.00     0.211 HD
ENDBRANCH   9  14
BRANCH  11  16
ATOM     16  C   UNL     1      -0.901  -1.125   1.804  1.00  0.00     0.231 C 
ATOM     17  O   UNL     1      -0.598  -0.534   2.856  1.00  0.00    -0.274 OA
ATOM     18  N   UNL     1      -2.181  -0.958   1.404  1.00  0.00    -0.326 N 
ATOM     19  H   UNL     1      -2.713  -0.478   2.079  1.00  0.00     0.169 HD
BRANCH  18  20
ATOM     20  C   UNL     1      -2.949  -1.289   0.281  1.00  0.00     0.041 A 
ATOM     21  C   UNL     1      -4.037  -0.455   0.017  1.00  0.00     0.026 A 
ATOM     22  C   UNL     1      -2.724  -2.344  -0.588  1.00  0.00     0.026 A 
ATOM     23  C   UNL     1      -4.811  -0.629  -1.134  1.00  0.00     0.002 A 
ATOM     24  C   UNL     1      -3.502  -2.545  -1.729  1.00  0.00     0.002 A 
ATOM     25  C   UNL     1      -4.537  -1.670  -2.015  1.00  0.00     0.000 A 
ENDBRANCH  18  20
ENDBRANCH  11  16
BRANCH  12  26
ATOM     26  C   UNL     1      -0.939  -4.180   1.574  1.00  0.00    -0.030 A 
ATOM     27  C   UNL     1      -1.622  -5.242   0.916  1.00  0.00     0.005 A 
ATOM     28  C   UNL     1      -1.271  -4.047   2.958  1.00  0.00     0.001 A 
ATOM     29  C   UNL     1      -2.505  -6.121   1.565  1.00  0.00     0.000 A 
ATOM     30  C   UNL     1      -2.206  -4.908   3.584  1.00  0.00     0.010 A 
ATOM     31  C   UNL     1      -2.801  -5.955   2.902  1.00  0.00     0.001 A 
BRANCH  28  32
ATOM     32  C   UNL     1      -0.751  -3.064   3.923  1.00  0.00     0.072 C 
ATOM     33  O   UNL     1      -1.432  -2.500   4.775  1.00  0.00    -0.545 OA
ATOM     34  O   UNL     1       0.562  -2.854   3.812  1.00  0.00    -0.545 OA
ENDBRANCH  28  32
ENDBRANCH  12  26
BRANCH  13  35
ATOM     35  C   UNL     1       0.651  -5.218  -1.171  1.00  0.00     0.253 C 
ATOM     36  O   UNL     1       0.094  -5.565  -2.230  1.00  0.00    -0.269 OA
ATOM     37  N   UNL     1       1.437  -6.205  -0.659  1.00  0.00    -0.322 N 
ATOM     38  H   UNL     1       1.713  -6.809  -1.385  1.00  0.00     0.170 HD
BRANCH  37  39
ATOM     39  C   UNL     1       1.988  -6.653   0.553  1.00  0.00     0.041 A 
ATOM     40  C   UNL     1       2.887  -7.729   0.494  1.00  0.00     0.026 A 
ATOM     41  C   UNL     1       1.606  -6.237   1.814  1.00  0.00     0.026 A 
ATOM     42  C   UNL     1       3.399  -8.318   1.662  1.00  0.00     0.002 A 
ATOM     43  C   UNL     1       2.102  -6.810   2.986  1.00  0.00     0.002 A 
ATOM     44  C   UNL     1       3.009  -7.852   2.912  1.00  0.00     0.000 A 
ENDBRANCH  37  39
ENDBRANCH  13  35
ENDBRANCH   5   7
ENDBRANCH   4   5
ENDBRANCH   3   4
ENDBRANCH   2   3
ENDBRANCH   1   2
BRANCH   1  45
ATOM     45  C   UNL     1      -2.052  -1.907  -7.381  1.00  0.00     0.021 C 
BRANCH  45  46
ATOM     46  C   UNL     1      -1.256  -1.439  -8.598  1.00  0.00     0.116 C 
BRANCH  46  47
ATOM     47  N   UNL     1      -1.223  -2.443  -9.649  1.00  0.00    -0.352 N 
ATOM     48  C   UNL     1      -1.569  -2.340 -10.972  1.00  0.00     0.251 C 
ATOM     49  H   UNL     1      -0.904  -3.331  -9.368  1.00  0.00     0.163 HD
ATOM     50  O   UNL     1      -1.668  -3.354 -11.658  1.00  0.00    -0.269 OA
BRANCH  48  51
ATOM     51  C   UNL     1      -1.843  -1.012 -11.558  1.00  0.00     0.039 A 
ATOM     52  C   UNL     1      -2.978  -0.847 -12.356  1.00  0.00     0.014 A 
ATOM     53  C   UNL     1      -0.986   0.066 -11.317  1.00  0.00     0.014 A 
ATOM     54  C   UNL     1      -3.294   0.419 -12.851  1.00  0.00     0.010 A 
ATOM     55  C   UNL     1      -1.336   1.339 -11.759  1.00  0.00     0.010 A 
ATOM     56  C   UNL     1      -2.500   1.530 -12.520  1.00  0.00    -0.014 A 
BRANCH  56  57
ATOM     57  C   UNL     1      -2.893   2.904 -12.925  1.00  0.00     0.031 A 
ATOM     58  C   UNL     1      -2.031   3.692 -13.871  1.00  0.00     0.074 A 
ATOM     59  C   UNL     1      -3.992   3.461 -12.380  1.00  0.00     0.049 A 
ATOM     60  N   UNL     1      -2.162   4.931 -14.270  1.00  0.00    -0.248 NA
ATOM     61  C   UNL     1      -0.854   3.003 -14.419  1.00  0.00     0.031 C 
ATOM     62  C   UNL     1      -4.886   2.801 -11.425  1.00  0.00     0.029 A 
ATOM     63  N   UNL     1      -4.540   4.709 -12.536  1.00  0.00    -0.354 N 
ATOM     64  C   UNL     1      -1.082   5.175 -15.111  1.00  0.00     0.074 A 
ATOM     65  C   UNL     1      -0.277   3.971 -15.117  1.00  0.00     0.031 C 
ATOM     66  C   UNL     1      -5.879   3.643 -11.097  1.00  0.00     0.029 A 
ATOM     67  C   UNL     1      -5.665   4.919 -11.772  1.00  0.00     0.049 A 
ATOM     68  H   UNL     1      -4.163   5.391 -13.138  1.00  0.00     0.167 HD
ATOM     69  C   UNL     1      -0.800   6.294 -15.825  1.00  0.00     0.034 A 
ATOM     70  C   UNL     1      -6.426   6.020 -11.614  1.00  0.00     0.034 A 
ATOM     71  C   UNL     1      -1.616   7.485 -15.803  1.00  0.00     0.049 A 
ATOM     72  C   UNL     1      -6.062   7.268 -12.378  1.00  0.00     0.074 A 
ATOM     73  C   UNL     1      -1.456   8.652 -16.529  1.00  0.00     0.029 A 
ATOM     74  N   UNL     1      -2.737   7.669 -15.002  1.00  0.00    -0.354 N 
ATOM     75  N   UNL     1      -5.067   7.465 -13.213  1.00  0.00    -0.248 NA
ATOM     76  C   UNL     1      -6.926   8.438 -12.182  1.00  0.00     0.031 C 
ATOM     77  C   UNL     1      -2.429   9.567 -16.112  1.00  0.00     0.029 A 
ATOM     78  C   UNL     1      -3.250   8.945 -15.185  1.00  0.00     0.049 A 
ATOM     79  H   UNL     1      -3.112   6.993 -14.394  1.00  0.00     0.167 HD
ATOM     80  C   UNL     1      -5.201   8.776 -13.659  1.00  0.00     0.074 A 
ATOM     81  C   UNL     1      -6.385   9.312 -13.018  1.00  0.00     0.031 C 
ATOM     82  C   UNL     1      -4.418   9.475 -14.521  1.00  0.00     0.034 A 
BRANCH  69  83
ATOM     83  C   UNL     1       0.457   6.288 -16.662  1.00  0.00     0.023 A 
ATOM     84  C   UNL     1       0.631   5.391 -17.731  1.00  0.00     0.031 A 
ATOM     85  C   UNL     1       1.506   7.181 -16.378  1.00  0.00     0.131 A 
ATOM     86  C   UNL     1       1.848   5.357 -18.428  1.00  0.00     0.055 A 
ATOM     87  C   UNL     1       2.684   7.197 -17.128  1.00  0.00     0.041 A 
ATOM     88  F   UNL     1       1.410   8.046 -15.356  1.00  0.00    -0.206 F 
ATOM     89  C   UNL     1       2.866   6.272 -18.152  1.00  0.00     0.022 A 
BRANCH  86  90
ATOM     90  S   UNL     1       2.134   4.008 -19.606  1.00  0.00     0.124 S 
ATOM     91  O   UNL     1       1.971   2.833 -18.753  1.00  0.00    -0.237 OA
ATOM     92  O   UNL     1       1.088   4.228 -20.598  1.00  0.00    -0.237 OA
ATOM     93  O   UNL     1       3.498   4.245 -20.074  1.00  0.00    -0.744 OA
ENDBRANCH  86  90
ENDBRANCH  69  83
BRANCH  70  94
ATOM     94  C   UNL     1      -7.588   6.009 -10.680  1.00  0.00     0.023 A 
ATOM     95  C   UNL     1      -8.897   6.196 -11.152  1.00  0.00     0.031 A 
ATOM     96  C   UNL     1      -7.403   5.855  -9.294  1.00  0.00     0.131 A 
ATOM     97  C   UNL     1      -9.964   6.270 -10.243  1.00  0.00     0.055 A 
ATOM     98  C   UNL     1      -8.475   5.873  -8.400  1.00  0.00     0.041 A 
ATOM     99  F   UNL     1      -6.173   5.670  -8.789  1.00  0.00    -0.206 F 
ATOM    100  C   UNL     1      -9.764   6.095  -8.872  1.00  0.00     0.022 A 
BRANCH  97 101
ATOM    101  S   UNL     1     -11.612   6.691 -10.873  1.00  0.00     0.124 S 
ATOM    102  O   UNL     1     -11.365   7.977 -11.514  1.00  0.00    -0.237 OA
ATOM    103  O   UNL     1     -11.889   5.571 -11.767  1.00  0.00    -0.237 OA
ATOM    104  O   UNL     1     -12.434   6.740  -9.666  1.00  0.00    -0.744 OA
ENDBRANCH  97 101
ENDBRANCH  70  94
BRANCH  82 105
ATOM    105  C   UNL     1      -4.843  10.890 -14.835  1.00  0.00     0.023 A 
ATOM    106  C   UNL     1      -4.830  11.898 -13.855  1.00  0.00     0.031 A 
ATOM    107  C   UNL     1      -5.283  11.229 -16.126  1.00  0.00     0.131 A 
ATOM    108  C   UNL     1      -5.305  13.181 -14.166  1.00  0.00     0.055 A 
ATOM    109  C   UNL     1      -5.691  12.524 -16.447  1.00  0.00     0.041 A 
ATOM    110  F   UNL     1      -5.320  10.306 -17.101  1.00  0.00    -0.206 F 
ATOM    111  C   UNL     1      -5.717  13.506 -15.461  1.00  0.00     0.022 A 
BRANCH 108 112
ATOM    112  S   UNL     1      -5.468  14.397 -12.829  1.00  0.00     0.124 S 
ATOM    113  O   UNL     1      -6.385  13.721 -11.917  1.00  0.00    -0.237 OA
ATOM    114  O   UNL     1      -4.092  14.536 -12.363  1.00  0.00    -0.237 OA
ATOM    115  O   UNL     1      -6.016  15.574 -13.501  1.00  0.00    -0.744 OA
ENDBRANCH 108 112
ENDBRANCH  82 105
ENDBRANCH  56  57
ENDBRANCH  48  51
ENDBRANCH  46  47
ENDBRANCH  45  46
ENDBRANCH   1  45
TORSDOF 23
