REMARK SMILES CC[C@@H]1CCC[C@@](Cc2cccc(O)c2)(C(=O)NCCCCCCNC(=O)c2ccc(-c3c4nc(c(-c5cc(S(=O)(=O)[O-])ccc5F)c5ccc([nH]5)c(-c5cc(S(=O)(=O)[O-])ccc5F)c5nc(c(-c6cc(S(=O)(=O)[O-])ccc6F)c6ccc3[nH]6)C=C5)C=C4)cc2)C1
REMARK SMILES IDX 21 1 20 2 19 3 18 4 16 5 17 6 7 8 3 9 4 10 91 11 5 12 6 13
REMARK SMILES IDX 2 14 1 15 8 16 9 17 10 18 15 19 11 20 13 21 12 22 14 23
REMARK SMILES IDX 22 25 23 26 24 27 25 28 26 29 27 31 28 32 29 33 90 34 30 35
REMARK SMILES IDX 89 36 31 37 32 38 33 39 83 40 34 41 88 42 82 43 84 44 35 45
REMARK SMILES IDX 87 46 81 47 80 48 36 50 68 51 48 52 67 53 49 54 52 55 66 56
REMARK SMILES IDX 85 57 50 58 51 59 65 61 86 62 53 63 37 64 38 65 46 66 39 67
REMARK SMILES IDX 45 68 47 69 44 70 40 71 41 72 42 73 43 74 69 75 70 76 78 77
REMARK SMILES IDX 71 78 77 79 79 80 76 81 72 82 73 83 74 84 75 85 54 86 55 87
REMARK SMILES IDX 63 88 56 89 62 90 64 91 61 92 57 93 58 94 59 95 60 96
REMARK H PARENT 18 7 14 24 25 30 84 49 52 60
REMARK Flexibility Score: inf
ROOT
ATOM      1  C   UNL     1       3.943   7.873  -2.462  1.00  0.00     0.002 C 
ENDROOT
BRANCH   1   2
ATOM      2  C   UNL     1       3.756   7.372  -1.026  1.00  0.00     0.021 C 
BRANCH   2   3
ATOM      3  C   UNL     1       2.309   7.149  -0.611  1.00  0.00     0.116 C 
BRANCH   3   4
ATOM      4  N   UNL     1       1.712   5.971  -1.202  1.00  0.00    -0.356 N 
ATOM      5  C   UNL     1       0.805   5.081  -0.722  1.00  0.00     0.226 C 
ATOM      6  O   UNL     1       0.212   4.426  -1.590  1.00  0.00    -0.274 OA
ATOM      7  H   UNL     1       2.019   5.779  -2.117  1.00  0.00     0.163 HD
BRANCH   5   8
ATOM      8  C   UNL     1       0.468   4.882   0.783  1.00  0.00     0.053 C 
ATOM      9  C   UNL     1       0.897   2.309   0.630  1.00  0.00    -0.010 C 
ATOM     10  C   UNL     1       2.171   2.470   1.472  1.00  0.00     0.003 C 
ATOM     11  C   UNL     1      -0.119   3.430   0.938  1.00  0.00     0.020 C 
ATOM     12  C   UNL     1       2.733   3.886   1.413  1.00  0.00     0.001 C 
ATOM     13  C   UNL     1       1.664   4.921   1.761  1.00  0.00     0.017 C 
BRANCH   9  14
ATOM     14  C   UNL     1       0.246   0.931   0.861  1.00  0.00     0.000 C 
ATOM     15  C   UNL     1       0.940  -0.181   0.087  1.00  0.00     0.004 C 
ENDBRANCH   9  14
BRANCH   8  16
ATOM     16  C   UNL     1      -0.690   5.843   1.196  1.00  0.00     0.052 C 
BRANCH  16  17
ATOM     17  C   UNL     1      -0.475   7.334   1.095  1.00  0.00    -0.043 A 
ATOM     18  C   UNL     1      -0.878   8.035  -0.054  1.00  0.00     0.004 A 
ATOM     19  C   UNL     1       0.121   8.047   2.143  1.00  0.00     0.049 A 
ATOM     20  C   UNL     1      -0.651   9.410  -0.166  1.00  0.00     0.004 A 
ATOM     21  C   UNL     1       0.343   9.416   2.021  1.00  0.00     0.115 A 
ATOM     22  C   UNL     1      -0.031  10.104   0.872  1.00  0.00     0.046 A 
BRANCH  21  23
ATOM     23  O   UNL     1       0.950  10.052   3.063  1.00  0.00    -0.508 OA
ATOM     24  H   UNL     1       1.116  10.973   3.018  1.00  0.00     0.293 HD
ENDBRANCH  21  23
ENDBRANCH  16  17
ENDBRANCH   8  16
ENDBRANCH   5   8
ENDBRANCH   3   4
ENDBRANCH   2   3
ENDBRANCH   1   2
BRANCH   1  25
ATOM     25  C   UNL     1       3.083   9.073  -2.878  1.00  0.00     0.002 C 
BRANCH  25  26
ATOM     26  C   UNL     1       3.094  10.280  -1.933  1.00  0.00     0.021 C 
BRANCH  26  27
ATOM     27  C   UNL     1       4.465  10.874  -1.634  1.00  0.00     0.116 C 
BRANCH  27  28
ATOM     28  N   UNL     1       5.138  11.332  -2.835  1.00  0.00    -0.352 N 
ATOM     29  C   UNL     1       5.763  12.521  -3.097  1.00  0.00     0.251 C 
ATOM     30  H   UNL     1       5.147  10.687  -3.578  1.00  0.00     0.163 HD
ATOM     31  O   UNL     1       6.111  12.763  -4.254  1.00  0.00    -0.269 OA
BRANCH  29  32
ATOM     32  C   UNL     1       6.008  13.520  -2.029  1.00  0.00     0.039 A 
ATOM     33  C   UNL     1       5.913  14.876  -2.357  1.00  0.00     0.014 A 
ATOM     34  C   UNL     1       6.393  13.149  -0.736  1.00  0.00     0.014 A 
ATOM     35  C   UNL     1       6.181  15.851  -1.394  1.00  0.00     0.010 A 
ATOM     36  C   UNL     1       6.591  14.122   0.245  1.00  0.00     0.010 A 
ATOM     37  C   UNL     1       6.511  15.484  -0.080  1.00  0.00    -0.014 A 
BRANCH  37  38
ATOM     38  C   UNL     1       6.823  16.523   0.936  1.00  0.00     0.031 A 
ATOM     39  C   UNL     1       8.217  16.641   1.496  1.00  0.00     0.074 A 
ATOM     40  C   UNL     1       5.851  17.353   1.363  1.00  0.00     0.049 A 
ATOM     41  N   UNL     1       8.689  17.487   2.376  1.00  0.00    -0.248 NA
ATOM     42  C   UNL     1       9.202  15.656   1.025  1.00  0.00     0.031 C 
ATOM     43  C   UNL     1       4.452  17.306   0.930  1.00  0.00     0.029 A 
ATOM     44  N   UNL     1       5.889  18.399   2.250  1.00  0.00    -0.354 N 
ATOM     45  C   UNL     1      10.021  17.133   2.569  1.00  0.00     0.074 A 
ATOM     46  C   UNL     1      10.258  15.953   1.765  1.00  0.00     0.031 C 
ATOM     47  C   UNL     1       3.775  18.300   1.528  1.00  0.00     0.029 A 
ATOM     48  C   UNL     1       4.679  19.035   2.406  1.00  0.00     0.049 A 
ATOM     49  H   UNL     1       6.705  18.669   2.729  1.00  0.00     0.167 HD
ATOM     50  C   UNL     1      10.966  17.749   3.324  1.00  0.00     0.034 A 
ATOM     51  C   UNL     1       4.341  20.097   3.164  1.00  0.00     0.034 A 
ATOM     52  C   UNL     1      10.716  18.933   4.111  1.00  0.00     0.049 A 
ATOM     53  C   UNL     1       5.411  20.779   3.978  1.00  0.00     0.074 A 
ATOM     54  C   UNL     1      11.604  19.662   4.884  1.00  0.00     0.029 A 
ATOM     55  N   UNL     1       9.483  19.565   4.226  1.00  0.00    -0.354 N 
ATOM     56  N   UNL     1       6.679  20.462   4.109  1.00  0.00    -0.248 NA
ATOM     57  C   UNL     1       5.008  21.977   4.723  1.00  0.00     0.031 C 
ATOM     58  C   UNL     1      10.897  20.698   5.508  1.00  0.00     0.029 A 
ATOM     59  C   UNL     1       9.584  20.661   5.069  1.00  0.00     0.049 A 
ATOM     60  H   UNL     1       8.658  19.275   3.773  1.00  0.00     0.167 HD
ATOM     61  C   UNL     1       7.231  21.444   4.928  1.00  0.00     0.074 A 
ATOM     62  C   UNL     1       6.162  22.371   5.239  1.00  0.00     0.031 C 
ATOM     63  C   UNL     1       8.505  21.571   5.380  1.00  0.00     0.034 A 
BRANCH  50  64
ATOM     64  C   UNL     1      12.345  17.129   3.347  1.00  0.00     0.023 A 
ATOM     65  C   UNL     1      13.125  17.020   2.182  1.00  0.00     0.031 A 
ATOM     66  C   UNL     1      12.873  16.602   4.540  1.00  0.00     0.131 A 
ATOM     67  C   UNL     1      14.345  16.326   2.215  1.00  0.00     0.055 A 
ATOM     68  C   UNL     1      14.127  15.989   4.584  1.00  0.00     0.041 A 
ATOM     69  F   UNL     1      12.169  16.658   5.682  1.00  0.00    -0.206 F 
ATOM     70  C   UNL     1      14.863  15.832   3.413  1.00  0.00     0.022 A 
BRANCH  67  71
ATOM     71  S   UNL     1      15.167  15.944   0.643  1.00  0.00     0.124 S 
ATOM     72  O   UNL     1      14.144  15.157  -0.040  1.00  0.00    -0.237 OA
ATOM     73  O   UNL     1      15.428  17.270   0.093  1.00  0.00    -0.237 OA
ATOM     74  O   UNL     1      16.352  15.192   1.050  1.00  0.00    -0.744 OA
ENDBRANCH  67  71
ENDBRANCH  50  64
BRANCH  51  75
ATOM     75  C   UNL     1       2.937  20.595   3.181  1.00  0.00     0.023 A 
ATOM     76  C   UNL     1       2.611  21.862   2.670  1.00  0.00     0.031 A 
ATOM     77  C   UNL     1       1.904  19.826   3.745  1.00  0.00     0.131 A 
ATOM     78  C   UNL     1       1.298  22.344   2.778  1.00  0.00     0.055 A 
ATOM     79  C   UNL     1       0.589  20.289   3.806  1.00  0.00     0.041 A 
ATOM     80  F   UNL     1       2.160  18.603   4.237  1.00  0.00    -0.206 F 
ATOM     81  C   UNL     1       0.282  21.562   3.333  1.00  0.00     0.022 A 
BRANCH  78  82
ATOM     82  S   UNL     1       0.951  24.045   2.253  1.00  0.00     0.124 S 
ATOM     83  O   UNL     1       1.870  24.808   3.089  1.00  0.00    -0.237 OA
ATOM     84  O   UNL     1       1.270  23.992   0.830  1.00  0.00    -0.237 OA
ATOM     85  O   UNL     1      -0.467  24.214   2.565  1.00  0.00    -0.744 OA
ENDBRANCH  78  82
ENDBRANCH  51  75
BRANCH  63  86
ATOM     86  C   UNL     1       8.809  22.786   6.223  1.00  0.00     0.023 A 
ATOM     87  C   UNL     1       8.223  22.975   7.487  1.00  0.00     0.031 A 
ATOM     88  C   UNL     1       9.663  23.790   5.734  1.00  0.00     0.131 A 
ATOM     89  C   UNL     1       8.437  24.173   8.185  1.00  0.00     0.055 A 
ATOM     90  C   UNL     1       9.924  24.951   6.463  1.00  0.00     0.041 A 
ATOM     91  F   UNL     1      10.250  23.663   4.533  1.00  0.00    -0.206 F 
ATOM     92  C   UNL     1       9.295  25.157   7.687  1.00  0.00     0.022 A 
BRANCH  89  93
ATOM     93  S   UNL     1       7.477  24.483   9.693  1.00  0.00     0.124 S 
ATOM     94  O   UNL     1       6.106  24.308   9.224  1.00  0.00    -0.237 OA
ATOM     95  O   UNL     1       7.978  23.453  10.597  1.00  0.00    -0.237 OA
ATOM     96  O   UNL     1       7.839  25.853  10.054  1.00  0.00    -0.744 OA
ENDBRANCH  89  93
ENDBRANCH  63  86
ENDBRANCH  37  38
ENDBRANCH  29  32
ENDBRANCH  27  28
ENDBRANCH  26  27
ENDBRANCH  25  26
ENDBRANCH   1  25
TORSDOF 20
