REMARK SMILES O=C(CCSc1nc(-c2cccs2)cc(C(F)(F)F)n1)NCCCCCCNC(=O)c1ccc(-c2c3nc(c(-c4cc(S(=O)(=O)[O-])ccc4F)c4ccc([nH]4)c(-c4cc(S(=O)(=O)[O-])ccc4F)c4nc(c(-c5cc(S(=O)(=O)[O-])ccc5F)c5ccc2[nH]5)C=C4)C=C3)cc1
REMARK SMILES IDX 24 1 23 2 22 3 21 4 1 5 2 6 3 8 4 9 5 10 6 11 7 12 20 13
REMARK SMILES IDX 8 14 15 15 14 16 9 17 10 18 13 19 11 20 12 21 16 22 17 23
REMARK SMILES IDX 18 24 19 25 25 26 26 27 27 28 28 29 29 30 30 32 31 33 32 34
REMARK SMILES IDX 93 35 33 36 92 37 34 38 35 39 36 40 86 41 37 42 91 43 85 44
REMARK SMILES IDX 87 45 38 46 90 47 84 48 83 49 39 51 71 52 51 53 70 54 52 55
REMARK SMILES IDX 55 56 69 57 88 58 53 59 54 60 68 62 89 63 56 64 40 65 41 66
REMARK SMILES IDX 49 67 42 68 48 69 50 70 47 71 43 72 44 73 45 74 46 75 72 76
REMARK SMILES IDX 73 77 81 78 74 79 80 80 82 81 79 82 75 83 76 84 77 85 78 86
REMARK SMILES IDX 57 87 58 88 66 89 59 90 65 91 67 92 64 93 60 94 61 95 62 96
REMARK SMILES IDX 63 97
REMARK H PARENT 21 7 28 31 87 50 55 61
REMARK Flexibility Score: inf
ROOT
ATOM      1  C   UNL     1       5.027  -0.799   3.507  1.00  0.00     0.002 C 
ENDROOT
BRANCH   1   2
ATOM      2  C   UNL     1       3.647  -1.473   3.431  1.00  0.00     0.021 C 
BRANCH   2   3
ATOM      3  C   UNL     1       2.676  -1.288   2.251  1.00  0.00     0.116 C 
BRANCH   3   4
ATOM      4  N   UNL     1       3.231  -1.036   0.943  1.00  0.00    -0.356 N 
ATOM      5  O   UNL     1       1.177  -0.679  -0.065  1.00  0.00    -0.275 OA
ATOM      6  C   UNL     1       2.405  -0.649  -0.099  1.00  0.00     0.220 C 
ATOM      7  H   UNL     1       4.199  -1.140   0.791  1.00  0.00     0.163 HD
BRANCH   6   8
ATOM      8  C   UNL     1       3.143  -0.113  -1.304  1.00  0.00     0.111 C 
BRANCH   8   9
ATOM      9  C   UNL     1       3.368   1.393  -1.214  1.00  0.00     0.088 C 
BRANCH   9  10
ATOM     10  S   UNL     1       4.457   1.881   0.156  1.00  0.00    -0.086 SA
BRANCH  10  11
ATOM     11  C   UNL     1       3.287   2.623   1.283  1.00  0.00     0.188 A 
ATOM     12  N   UNL     1       2.387   1.861   1.920  1.00  0.00    -0.222 NA
ATOM     13  N   UNL     1       3.547   3.893   1.596  1.00  0.00    -0.218 NA
ATOM     14  C   UNL     1       1.730   2.414   2.969  1.00  0.00     0.085 A 
ATOM     15  C   UNL     1       2.878   4.432   2.647  1.00  0.00     0.149 A 
ATOM     16  C   UNL     1       1.950   3.710   3.377  1.00  0.00     0.063 A 
BRANCH  14  17
ATOM     17  C   UNL     1       0.825   1.509   3.699  1.00  0.00     0.053 A 
ATOM     18  C   UNL     1      -0.357   0.920   3.286  1.00  0.00     0.022 A 
ATOM     19  S   UNL     1       1.207   0.995   5.297  1.00  0.00    -0.142 S 
ATOM     20  C   UNL     1      -0.843  -0.058   4.211  1.00  0.00     0.012 A 
ATOM     21  C   UNL     1      -0.028  -0.178   5.313  1.00  0.00     0.065 A 
ENDBRANCH  14  17
BRANCH  15  22
ATOM     22  C   UNL     1       3.192   5.871   3.006  1.00  0.00     0.433 C 
ATOM     23  F   UNL     1       4.529   6.119   3.087  1.00  0.00    -0.165 F 
ATOM     24  F   UNL     1       2.700   6.751   2.089  1.00  0.00    -0.165 F 
ATOM     25  F   UNL     1       2.671   6.253   4.206  1.00  0.00    -0.165 F 
ENDBRANCH  15  22
ENDBRANCH  10  11
ENDBRANCH   9  10
ENDBRANCH   8   9
ENDBRANCH   6   8
ENDBRANCH   3   4
ENDBRANCH   2   3
ENDBRANCH   1   2
BRANCH   1  26
ATOM     26  C   UNL     1       5.266   0.685   3.826  1.00  0.00     0.002 C 
BRANCH  26  27
ATOM     27  C   UNL     1       4.740   1.391   5.081  1.00  0.00     0.021 C 
BRANCH  27  28
ATOM     28  C   UNL     1       4.724   0.662   6.423  1.00  0.00     0.116 C 
BRANCH  28  29
ATOM     29  N   UNL     1       5.988   0.775   7.130  1.00  0.00    -0.352 N 
ATOM     30  C   UNL     1       6.294   1.291   8.371  1.00  0.00     0.251 C 
ATOM     31  H   UNL     1       6.762   0.420   6.636  1.00  0.00     0.163 HD
ATOM     32  O   UNL     1       7.484   1.458   8.643  1.00  0.00    -0.269 OA
BRANCH  30  33
ATOM     33  C   UNL     1       5.262   1.665   9.384  1.00  0.00     0.039 A 
ATOM     34  C   UNL     1       5.548   2.720  10.263  1.00  0.00     0.014 A 
ATOM     35  C   UNL     1       4.074   0.951   9.567  1.00  0.00     0.014 A 
ATOM     36  C   UNL     1       4.651   3.074  11.283  1.00  0.00     0.010 A 
ATOM     37  C   UNL     1       3.148   1.344  10.548  1.00  0.00     0.010 A 
ATOM     38  C   UNL     1       3.428   2.401  11.428  1.00  0.00    -0.014 A 
BRANCH  38  39
ATOM     39  C   UNL     1       2.464   2.788  12.505  1.00  0.00     0.031 A 
ATOM     40  C   UNL     1       2.137   1.835  13.630  1.00  0.00     0.074 A 
ATOM     41  C   UNL     1       1.862   3.995  12.472  1.00  0.00     0.049 A 
ATOM     42  N   UNL     1       1.330   1.997  14.651  1.00  0.00    -0.248 NA
ATOM     43  C   UNL     1       2.786   0.519  13.585  1.00  0.00     0.031 C 
ATOM     44  C   UNL     1       2.065   5.008  11.435  1.00  0.00     0.029 A 
ATOM     45  N   UNL     1       0.963   4.580  13.332  1.00  0.00    -0.354 N 
ATOM     46  C   UNL     1       1.365   0.801  15.363  1.00  0.00     0.074 A 
ATOM     47  C   UNL     1       2.228  -0.094  14.619  1.00  0.00     0.031 C 
ATOM     48  C   UNL     1       1.346   6.100  11.740  1.00  0.00     0.029 A 
ATOM     49  C   UNL     1       0.595   5.856  12.968  1.00  0.00     0.049 A 
ATOM     50  H   UNL     1       0.614   4.128  14.135  1.00  0.00     0.167 HD
ATOM     51  C   UNL     1       0.755   0.482  16.535  1.00  0.00     0.034 A 
ATOM     52  C   UNL     1      -0.249   6.731  13.552  1.00  0.00     0.034 A 
ATOM     53  C   UNL     1      -0.098   1.385  17.275  1.00  0.00     0.049 A 
ATOM     54  C   UNL     1      -0.950   6.341  14.829  1.00  0.00     0.074 A 
ATOM     55  C   UNL     1      -0.709   1.184  18.503  1.00  0.00     0.029 A 
ATOM     56  N   UNL     1      -0.477   2.653  16.852  1.00  0.00    -0.354 N 
ATOM     57  N   UNL     1      -0.858   5.228  15.519  1.00  0.00    -0.248 NA
ATOM     58  C   UNL     1      -1.863   7.335  15.411  1.00  0.00     0.031 C 
ATOM     59  C   UNL     1      -1.517   2.293  18.782  1.00  0.00     0.029 A 
ATOM     60  C   UNL     1      -1.347   3.225  17.771  1.00  0.00     0.049 A 
ATOM     61  H   UNL     1      -0.173   3.084  16.021  1.00  0.00     0.167 HD
ATOM     62  C   UNL     1      -1.674   5.404  16.634  1.00  0.00     0.074 A 
ATOM     63  C   UNL     1      -2.239   6.733  16.530  1.00  0.00     0.031 C 
ATOM     64  C   UNL     1      -1.927   4.544  17.655  1.00  0.00     0.034 A 
BRANCH  51  65
ATOM     65  C   UNL     1       0.961  -0.921  17.067  1.00  0.00     0.023 A 
ATOM     66  C   UNL     1       2.236  -1.408  17.405  1.00  0.00     0.031 A 
ATOM     67  C   UNL     1      -0.130  -1.799  17.203  1.00  0.00     0.131 A 
ATOM     68  C   UNL     1       2.402  -2.754  17.765  1.00  0.00     0.055 A 
ATOM     69  C   UNL     1       0.030  -3.113  17.651  1.00  0.00     0.041 A 
ATOM     70  F   UNL     1      -1.372  -1.403  16.883  1.00  0.00    -0.206 F 
ATOM     71  C   UNL     1       1.304  -3.604  17.916  1.00  0.00     0.022 A 
BRANCH  68  72
ATOM     72  S   UNL     1       4.085  -3.427  17.858  1.00  0.00     0.124 S 
ATOM     73  O   UNL     1       4.603  -3.110  16.528  1.00  0.00    -0.237 OA
ATOM     74  O   UNL     1       4.665  -2.668  18.965  1.00  0.00    -0.237 OA
ATOM     75  O   UNL     1       3.876  -4.845  18.115  1.00  0.00    -0.744 OA
ENDBRANCH  68  72
ENDBRANCH  51  65
BRANCH  52  76
ATOM     76  C   UNL     1      -0.484   8.074  12.944  1.00  0.00     0.023 A 
ATOM     77  C   UNL     1      -0.100   9.246  13.617  1.00  0.00     0.031 A 
ATOM     78  C   UNL     1      -1.133   8.209  11.704  1.00  0.00     0.131 A 
ATOM     79  C   UNL     1      -0.403  10.501  13.066  1.00  0.00     0.055 A 
ATOM     80  C   UNL     1      -1.385   9.459  11.136  1.00  0.00     0.041 A 
ATOM     81  F   UNL     1      -1.521   7.121  11.019  1.00  0.00    -0.206 F 
ATOM     82  C   UNL     1      -1.030  10.615  11.824  1.00  0.00     0.022 A 
BRANCH  79  83
ATOM     83  S   UNL     1      -0.033  11.989  14.036  1.00  0.00     0.124 S 
ATOM     84  O   UNL     1      -0.827  11.765  15.238  1.00  0.00    -0.237 OA
ATOM     85  O   UNL     1       1.415  11.894  14.196  1.00  0.00    -0.237 OA
ATOM     86  O   UNL     1      -0.492  13.078  13.177  1.00  0.00    -0.744 OA
ENDBRANCH  79  83
ENDBRANCH  52  76
BRANCH  64  87
ATOM     87  C   UNL     1      -2.828   5.041  18.763  1.00  0.00     0.023 A 
ATOM     88  C   UNL     1      -4.184   5.340  18.541  1.00  0.00     0.031 A 
ATOM     89  C   UNL     1      -2.312   5.247  20.056  1.00  0.00     0.131 A 
ATOM     90  C   UNL     1      -4.960   5.888  19.575  1.00  0.00     0.055 A 
ATOM     91  C   UNL     1      -3.106   5.731  21.098  1.00  0.00     0.041 A 
ATOM     92  F   UNL     1      -1.024   4.984  20.329  1.00  0.00    -0.206 F 
ATOM     93  C   UNL     1      -4.434   6.069  20.856  1.00  0.00     0.022 A 
BRANCH  90  94
ATOM     94  S   UNL     1      -6.638   6.464  19.194  1.00  0.00     0.124 S 
ATOM     95  O   UNL     1      -6.393   7.435  18.133  1.00  0.00    -0.237 OA
ATOM     96  O   UNL     1      -7.307   5.232  18.788  1.00  0.00    -0.237 OA
ATOM     97  O   UNL     1      -7.102   7.032  20.459  1.00  0.00    -0.744 OA
ENDBRANCH  90  94
ENDBRANCH  64  87
ENDBRANCH  38  39
ENDBRANCH  30  33
ENDBRANCH  28  29
ENDBRANCH  27  28
ENDBRANCH  26  27
ENDBRANCH   1  26
TORSDOF 21
