REMARK SMILES [NH3+]CCn1cc(C(=O)N[C@@H]2CCCCC[C@H]2C(=O)NCCCCCCNC(=O)c2ccc(-c3c4nc(c(-c5cc(S(=O)(=O)[O-])ccc5F)c5ccc([nH]5)c(-c5cc(S(=O)(=O)[O-])ccc5F)c5nc(c(-c6cc(S(=O)(=O)[O-])ccc6F)c6ccc3[nH]6)C=C5)C=C4)cc2)nn1
REMARK SMILES IDX 21 1 20 2 19 3 17 4 18 5 16 7 10 8 9 9 7 10 8 11 6 13 4 14
REMARK SMILES IDX 5 15 93 16 92 17 3 18 2 19 1 20 11 24 15 26 14 27 13 28
REMARK SMILES IDX 12 29 22 31 23 32 24 33 25 34 26 35 27 36 28 38 29 39 30 40
REMARK SMILES IDX 91 41 31 42 90 43 32 44 33 45 34 46 84 47 35 48 89 49 83 50
REMARK SMILES IDX 85 51 36 52 88 53 82 54 81 55 37 57 69 58 49 59 68 60 50 61
REMARK SMILES IDX 53 62 67 63 86 64 51 65 52 66 66 68 87 69 54 70 38 71 39 72
REMARK SMILES IDX 47 73 40 74 46 75 48 76 45 77 41 78 42 79 43 80 44 81 70 82
REMARK SMILES IDX 71 83 79 84 72 85 78 86 80 87 77 88 73 89 74 90 75 91 76 92
REMARK SMILES IDX 55 93 56 94 64 95 57 96 63 97 65 98 62 99 58 100 59 101
REMARK SMILES IDX 60 102 61 103
REMARK H PARENT 19 6 9 12 1 21 1 22 1 23 26 37 85 56 53 67
REMARK Flexibility Score: 100.00
ROOT
ATOM      1  C   UNL     1      -0.618  -8.581   0.423  1.00  0.00     0.021 C 
ENDROOT
BRANCH   1   2
ATOM      2  C   UNL     1       0.637  -7.894   0.941  1.00  0.00     0.116 C 
BRANCH   2   3
ATOM      3  N   UNL     1       0.700  -6.464   0.796  1.00  0.00    -0.356 N 
ATOM      4  C   UNL     1       1.341  -5.615   1.653  1.00  0.00     0.225 C 
ATOM      5  O   UNL     1       1.997  -4.712   1.120  1.00  0.00    -0.275 OA
ATOM      6  H   UNL     1       0.245  -6.067   0.019  1.00  0.00     0.163 HD
BRANCH   4   7
ATOM      7  C   UNL     1       1.266  -5.713   3.200  1.00  0.00     0.101 C 
BRANCH   7   8
ATOM      8  C   UNL     1      -0.124  -6.029   3.811  1.00  0.00     0.094 C 
BRANCH   8   9
ATOM      9  N   UNL     1      -0.658  -4.923   4.676  1.00  0.00    -0.347 N 
ATOM     10  C   UNL     1      -0.829  -3.564   4.595  1.00  0.00     0.273 C 
ATOM     11  O   UNL     1      -1.265  -3.006   5.603  1.00  0.00    -0.267 OA
ATOM     12  H   UNL     1      -0.973  -5.270   5.542  1.00  0.00     0.164 HD
BRANCH  10  13
ATOM     13  C   UNL     1      -0.437  -2.817   3.420  1.00  0.00     0.170 A 
ATOM     14  N   UNL     1       0.163  -2.158   1.454  1.00  0.00    -0.246 N 
ATOM     15  C   UNL     1      -0.560  -3.130   2.083  1.00  0.00     0.145 A 
ATOM     16  N   UNL     1       0.556  -1.204   2.315  1.00  0.00    -0.066 NA
ATOM     17  N   UNL     1       0.178  -1.587   3.525  1.00  0.00    -0.125 NA
BRANCH  14  18
ATOM     18  C   UNL     1       0.696  -2.183   0.110  1.00  0.00     0.207 C 
BRANCH  18  19
ATOM     19  C   UNL     1       0.323  -0.972  -0.747  1.00  0.00     0.282 C 
BRANCH  19  20
ATOM     20  N   UNL     1       0.934   0.292  -0.321  1.00  0.00    -0.356 N 
ATOM     21  H   UNL     1       0.633   1.042  -0.943  1.00  0.00     0.344 HD
ATOM     22  H   UNL     1       1.950   0.207  -0.356  1.00  0.00     0.344 HD
ATOM     23  H   UNL     1       0.644   0.505   0.634  1.00  0.00     0.344 HD
ENDBRANCH  19  20
ENDBRANCH  18  19
ENDBRANCH  14  18
ENDBRANCH  10  13
ENDBRANCH   8   9
BRANCH   8  24
ATOM     24  C   UNL     1      -0.169  -7.259   4.762  1.00  0.00     0.026 CG0
ATOM     25  G   UNL     1       0.291  -8.628   4.297  1.00  0.00     0.000 G0
ENDBRANCH   8  24
ENDBRANCH   7   8
BRANCH   7  26
ATOM     26  C   UNL     1       2.485  -6.388   3.840  1.00  0.00     0.015 C 
BRANCH  26  27
ATOM     27  C   UNL     1       2.720  -7.857   3.538  1.00  0.00     0.001 C 
BRANCH  27  28
ATOM     28  C   UNL     1       1.800  -8.864   4.226  1.00  0.00     0.000 C 
BRANCH  28  29
ATOM     29  C   UNL     1       0.291  -8.628   4.297  1.00  0.00     0.002 CG0
ATOM     30  G   UNL     1      -0.169  -7.259   4.762  1.00  0.00     0.000 G0
ENDBRANCH  28  29
ENDBRANCH  27  28
ENDBRANCH  26  27
ENDBRANCH   7  26
ENDBRANCH   4   7
ENDBRANCH   2   3
ENDBRANCH   1   2
BRANCH   1  31
ATOM     31  C   UNL     1      -0.409  -9.425  -0.839  1.00  0.00     0.002 C 
BRANCH  31  32
ATOM     32  C   UNL     1       0.792 -10.389  -0.861  1.00  0.00     0.002 C 
BRANCH  32  33
ATOM     33  C   UNL     1       0.942 -11.378   0.305  1.00  0.00     0.021 C 
BRANCH  33  34
ATOM     34  C   UNL     1      -0.193 -12.382   0.426  1.00  0.00     0.116 C 
BRANCH  34  35
ATOM     35  N   UNL     1      -0.377 -13.180  -0.786  1.00  0.00    -0.352 N 
ATOM     36  C   UNL     1      -1.352 -14.117  -1.090  1.00  0.00     0.251 C 
ATOM     37  H   UNL     1       0.293 -13.030  -1.492  1.00  0.00     0.163 HD
ATOM     38  O   UNL     1      -1.168 -14.918  -1.991  1.00  0.00    -0.269 OA
BRANCH  36  39
ATOM     39  C   UNL     1      -2.602 -14.137  -0.304  1.00  0.00     0.039 A 
ATOM     40  C   UNL     1      -3.271 -15.332  -0.018  1.00  0.00     0.014 A 
ATOM     41  C   UNL     1      -3.105 -12.927   0.157  1.00  0.00     0.014 A 
ATOM     42  C   UNL     1      -4.402 -15.292   0.797  1.00  0.00     0.010 A 
ATOM     43  C   UNL     1      -4.084 -12.909   1.111  1.00  0.00     0.010 A 
ATOM     44  C   UNL     1      -4.793 -14.073   1.371  1.00  0.00    -0.014 A 
BRANCH  44  45
ATOM     45  C   UNL     1      -5.883 -13.985   2.333  1.00  0.00     0.031 A 
ATOM     46  C   UNL     1      -5.698 -14.832   3.537  1.00  0.00     0.074 A 
ATOM     47  C   UNL     1      -6.831 -13.022   2.273  1.00  0.00     0.049 A 
ATOM     48  N   UNL     1      -6.345 -15.902   3.857  1.00  0.00    -0.248 NA
ATOM     49  C   UNL     1      -4.532 -14.569   4.397  1.00  0.00     0.031 C 
ATOM     50  C   UNL     1      -6.932 -11.912   1.315  1.00  0.00     0.029 A 
ATOM     51  N   UNL     1      -7.839 -12.749   3.143  1.00  0.00    -0.354 N 
ATOM     52  C   UNL     1      -5.850 -16.285   5.099  1.00  0.00     0.074 A 
ATOM     53  C   UNL     1      -4.595 -15.601   5.241  1.00  0.00     0.031 C 
ATOM     54  C   UNL     1      -7.773 -10.971   1.795  1.00  0.00     0.029 A 
ATOM     55  C   UNL     1      -8.405 -11.484   2.996  1.00  0.00     0.049 A 
ATOM     56  H   UNL     1      -8.144 -13.392   3.823  1.00  0.00     0.167 HD
ATOM     57  C   UNL     1      -6.654 -16.901   6.012  1.00  0.00     0.034 A 
ATOM     58  C   UNL     1      -9.310 -10.881   3.814  1.00  0.00     0.034 A 
ATOM     59  C   UNL     1      -7.876 -17.363   5.382  1.00  0.00     0.049 A 
ATOM     60  C   UNL     1      -9.966 -11.965   4.588  1.00  0.00     0.074 A 
ATOM     61  C   UNL     1      -8.157 -18.200   4.318  1.00  0.00     0.029 A 
ATOM     62  N   UNL     1      -9.025 -16.627   5.583  1.00  0.00    -0.354 N 
ATOM     63  N   UNL     1     -10.709 -12.886   4.035  1.00  0.00    -0.248 NA
ATOM     64  C   UNL     1      -9.393 -12.333   5.875  1.00  0.00     0.031 C 
ATOM     65  C   UNL     1      -9.235 -17.567   3.630  1.00  0.00     0.029 A 
ATOM     66  C   UNL     1      -9.621 -16.440   4.360  1.00  0.00     0.049 A 
ATOM     67  H   UNL     1      -9.359 -16.295   6.448  1.00  0.00     0.167 HD
ATOM     68  C   UNL     1     -10.338 -14.070   4.656  1.00  0.00     0.074 A 
ATOM     69  C   UNL     1      -9.608 -13.653   5.852  1.00  0.00     0.031 C 
ATOM     70  C   UNL     1     -10.399 -15.267   3.997  1.00  0.00     0.034 A 
BRANCH  57  71
ATOM     71  C   UNL     1      -6.548 -16.743   7.518  1.00  0.00     0.023 A 
ATOM     72  C   UNL     1      -7.528 -17.400   8.288  1.00  0.00     0.031 A 
ATOM     73  C   UNL     1      -5.766 -15.795   8.215  1.00  0.00     0.131 A 
ATOM     74  C   UNL     1      -7.795 -17.009   9.611  1.00  0.00     0.055 A 
ATOM     75  C   UNL     1      -5.989 -15.460   9.555  1.00  0.00     0.041 A 
ATOM     76  F   UNL     1      -4.800 -15.075   7.638  1.00  0.00    -0.206 F 
ATOM     77  C   UNL     1      -7.035 -16.037  10.250  1.00  0.00     0.022 A 
BRANCH  74  78
ATOM     78  S   UNL     1      -9.290 -17.655  10.401  1.00  0.00     0.124 S 
ATOM     79  O   UNL     1     -10.309 -17.311   9.414  1.00  0.00    -0.237 OA
ATOM     80  O   UNL     1      -8.969 -19.072  10.532  1.00  0.00    -0.237 OA
ATOM     81  O   UNL     1      -9.357 -16.909  11.655  1.00  0.00    -0.744 OA
ENDBRANCH  74  78
ENDBRANCH  57  71
BRANCH  58  82
ATOM     82  C   UNL     1      -9.375  -9.433   4.162  1.00  0.00     0.023 A 
ATOM     83  C   UNL     1     -10.543  -8.789   4.623  1.00  0.00     0.031 A 
ATOM     84  C   UNL     1      -8.172  -8.692   4.242  1.00  0.00     0.131 A 
ATOM     85  C   UNL     1     -10.475  -7.466   5.130  1.00  0.00     0.055 A 
ATOM     86  C   UNL     1      -8.112  -7.388   4.737  1.00  0.00     0.041 A 
ATOM     87  F   UNL     1      -6.994  -9.246   3.912  1.00  0.00    -0.206 F 
ATOM     88  C   UNL     1      -9.264  -6.770   5.190  1.00  0.00     0.022 A 
BRANCH  85  89
ATOM     89  S   UNL     1     -11.964  -6.640   5.787  1.00  0.00     0.124 S 
ATOM     90  O   UNL     1     -12.839  -6.597   4.622  1.00  0.00    -0.237 OA
ATOM     91  O   UNL     1     -12.362  -7.535   6.867  1.00  0.00    -0.237 OA
ATOM     92  O   UNL     1     -11.466  -5.335   6.226  1.00  0.00    -0.744 OA
ENDBRANCH  85  89
ENDBRANCH  58  82
BRANCH  70  93
ATOM     93  C   UNL     1     -11.159 -15.337   2.685  1.00  0.00     0.023 A 
ATOM     94  C   UNL     1     -10.866 -14.573   1.532  1.00  0.00     0.031 A 
ATOM     95  C   UNL     1     -12.143 -16.336   2.571  1.00  0.00     0.131 A 
ATOM     96  C   UNL     1     -11.555 -14.823   0.327  1.00  0.00     0.055 A 
ATOM     97  C   UNL     1     -12.806 -16.594   1.372  1.00  0.00     0.041 A 
ATOM     98  F   UNL     1     -12.447 -17.114   3.623  1.00  0.00    -0.206 F 
ATOM     99  C   UNL     1     -12.517 -15.835   0.246  1.00  0.00     0.022 A 
BRANCH  96 100
ATOM    100  S   UNL     1     -11.222 -13.827  -1.164  1.00  0.00     0.124 S 
ATOM    101  O   UNL     1     -11.269 -12.454  -0.676  1.00  0.00    -0.237 OA
ATOM    102  O   UNL     1      -9.909 -14.311  -1.582  1.00  0.00    -0.237 OA
ATOM    103  O   UNL     1     -12.316 -14.189  -2.067  1.00  0.00    -0.744 OA
ENDBRANCH  96 100
ENDBRANCH  70  93
ENDBRANCH  44  45
ENDBRANCH  36  39
ENDBRANCH  34  35
ENDBRANCH  33  34
ENDBRANCH  32  33
ENDBRANCH  31  32
ENDBRANCH   1  31
TORSDOF 21
