REMARK SMILES CC1=C(C)C[C@@H](C(=O)NCCCCCCNC(=O)c2ccc(-c3c4nc(c(-c5cc(S(=O)(=O)[O-])ccc5F)c5ccc([nH]5)c(-c5cc(S(=O)(=O)[O-])ccc5F)c5nc(c(-c6cc(S(=O)(=O)[O-])ccc6F)c6ccc3[nH]6)C=C5)C=C4)cc2)[C@@H](C(=O)NCC[NH+]2CCOCC2)C1
REMARK SMILES IDX 12 1 11 2 10 3 9 4 7 5 8 6 6 8 1 9 2 10 3 11 94 12 4 13 5 14
REMARK SMILES IDX 82 15 83 16 84 17 85 18 86 20 87 21 88 22 89 23 93 24 90 26
REMARK SMILES IDX 92 27 91 28 13 29 14 30 15 31 16 32 17 33 18 35 19 36 20 37
REMARK SMILES IDX 81 38 21 39 80 40 22 41 23 42 24 43 74 44 25 45 79 46 73 47
REMARK SMILES IDX 75 48 26 49 78 50 72 51 71 52 27 54 59 55 39 56 58 57 40 58
REMARK SMILES IDX 43 59 57 60 76 61 41 62 42 63 56 65 77 66 44 67 28 68 29 69
REMARK SMILES IDX 37 70 30 71 36 72 38 73 35 74 31 75 32 76 33 77 34 78 60 79
REMARK SMILES IDX 61 80 69 81 62 82 68 83 70 84 67 85 63 86 64 87 65 88 66 89
REMARK SMILES IDX 45 90 46 91 54 92 47 93 53 94 55 95 52 96 48 97 49 98 50 99
REMARK SMILES IDX 51 100
REMARK H PARENT 9 7 85 19 88 25 16 34 75 53 43 64
REMARK Flexibility Score: inf
ROOT
ATOM      1  C   UNL     1      -0.798  -2.300   5.142  1.00  0.00     0.002 C 
ENDROOT
BRANCH   1   2
ATOM      2  C   UNL     1      -0.692  -1.965   3.657  1.00  0.00     0.021 C 
BRANCH   2   3
ATOM      3  C   UNL     1       0.411  -2.732   2.936  1.00  0.00     0.116 C 
BRANCH   3   4
ATOM      4  N   UNL     1       0.149  -4.142   2.803  1.00  0.00    -0.356 N 
ATOM      5  C   UNL     1      -0.179  -4.886   1.718  1.00  0.00     0.224 C 
ATOM      6  O   UNL     1      -0.249  -6.112   1.871  1.00  0.00    -0.275 OA
ATOM      7  H   UNL     1       0.222  -4.653   3.642  1.00  0.00     0.163 HD
BRANCH   5   8
ATOM      8  C   UNL     1      -0.379  -4.291   0.318  1.00  0.00     0.095 C 
ATOM      9  C   UNL     1       0.703  -0.023  -0.279  1.00  0.00     0.039 C 
ATOM     10  C   UNL     1       0.410  -1.506  -0.294  1.00  0.00    -0.074 C 
ATOM     11  C   UNL     1       1.346  -2.477  -0.362  1.00  0.00    -0.074 C 
ATOM     12  C   UNL     1      -1.065  -1.812  -0.111  1.00  0.00     0.045 C 
ATOM     13  C   UNL     1       2.839  -2.257  -0.413  1.00  0.00     0.039 C 
ATOM     14  C   UNL     1       0.972  -3.939  -0.316  1.00  0.00     0.045 C 
ATOM     15  C   UNL     1      -1.515  -3.281   0.064  1.00  0.00     0.095 C 
BRANCH  15  16
ATOM     16  C   UNL     1      -2.665  -3.369   1.082  1.00  0.00     0.224 C 
ATOM     17  O   UNL     1      -2.661  -4.089   2.077  1.00  0.00    -0.275 OA
ATOM     18  N   UNL     1      -3.782  -2.607   0.897  1.00  0.00    -0.350 N 
ATOM     19  H   UNL     1      -4.141  -2.131   1.680  1.00  0.00     0.163 HD
BRANCH  18  20
ATOM     20  C   UNL     1      -4.480  -2.442  -0.361  1.00  0.00     0.177 C 
BRANCH  20  21
ATOM     21  C   UNL     1      -5.420  -3.649  -0.574  1.00  0.00     0.283 C 
BRANCH  21  22
ATOM     22  N   UNL     1      -6.396  -3.816   0.527  1.00  0.00    -0.330 N 
ATOM     23  C   UNL     1      -7.022  -5.158   0.493  1.00  0.00     0.291 C 
ATOM     24  C   UNL     1      -7.487  -2.817   0.493  1.00  0.00     0.291 C 
ATOM     25  H   UNL     1      -5.855  -3.689   1.382  1.00  0.00     0.348 HD
ATOM     26  C   UNL     1      -8.001  -5.343  -0.678  1.00  0.00     0.221 C 
ATOM     27  C   UNL     1      -8.468  -3.021  -0.675  1.00  0.00     0.221 C 
ATOM     28  O   UNL     1      -9.027  -4.341  -0.670  1.00  0.00    -0.370 OA
ENDBRANCH  21  22
ENDBRANCH  20  21
ENDBRANCH  18  20
ENDBRANCH  15  16
ENDBRANCH   5   8
ENDBRANCH   3   4
ENDBRANCH   2   3
ENDBRANCH   1   2
BRANCH   1  29
ATOM     29  C   UNL     1       0.503  -2.087   5.920  1.00  0.00     0.002 C 
BRANCH  29  30
ATOM     30  C   UNL     1       1.130  -0.702   5.738  1.00  0.00     0.021 C 
BRANCH  30  31
ATOM     31  C   UNL     1       0.210   0.448   6.128  1.00  0.00     0.116 C 
BRANCH  31  32
ATOM     32  N   UNL     1      -0.139   0.384   7.538  1.00  0.00    -0.352 N 
ATOM     33  C   UNL     1       0.111   1.308   8.521  1.00  0.00     0.251 C 
ATOM     34  H   UNL     1      -0.616  -0.428   7.824  1.00  0.00     0.163 HD
ATOM     35  O   UNL     1       0.020   0.996   9.701  1.00  0.00    -0.269 OA
BRANCH  33  36
ATOM     36  C   UNL     1       0.496   2.679   8.127  1.00  0.00     0.039 A 
ATOM     37  C   UNL     1       1.569   3.301   8.768  1.00  0.00     0.014 A 
ATOM     38  C   UNL     1      -0.206   3.337   7.113  1.00  0.00     0.014 A 
ATOM     39  C   UNL     1       1.967   4.575   8.358  1.00  0.00     0.010 A 
ATOM     40  C   UNL     1       0.241   4.570   6.656  1.00  0.00     0.010 A 
ATOM     41  C   UNL     1       1.323   5.209   7.283  1.00  0.00    -0.014 A 
BRANCH  41  42
ATOM     42  C   UNL     1       1.721   6.561   6.817  1.00  0.00     0.031 A 
ATOM     43  C   UNL     1       0.734   7.692   6.916  1.00  0.00     0.074 A 
ATOM     44  C   UNL     1       2.923   6.753   6.240  1.00  0.00     0.049 A 
ATOM     45  N   UNL     1       0.811   8.905   6.434  1.00  0.00    -0.248 NA
ATOM     46  C   UNL     1      -0.524   7.403   7.622  1.00  0.00     0.031 C 
ATOM     47  C   UNL     1       3.957   5.729   6.078  1.00  0.00     0.029 A 
ATOM     48  N   UNL     1       3.473   7.873   5.668  1.00  0.00    -0.354 N 
ATOM     49  C   UNL     1      -0.395   9.518   6.761  1.00  0.00     0.074 A 
ATOM     50  C   UNL     1      -1.207   8.519   7.423  1.00  0.00     0.031 C 
ATOM     51  C   UNL     1       5.020   6.273   5.464  1.00  0.00     0.029 A 
ATOM     52  C   UNL     1       4.724   7.664   5.136  1.00  0.00     0.049 A 
ATOM     53  H   UNL     1       3.015   8.744   5.641  1.00  0.00     0.167 HD
ATOM     54  C   UNL     1      -0.778  10.800   6.547  1.00  0.00     0.034 A 
ATOM     55  C   UNL     1       5.529   8.493   4.441  1.00  0.00     0.034 A 
ATOM     56  C   UNL     1       0.053  11.782   5.895  1.00  0.00     0.049 A 
ATOM     57  C   UNL     1       5.063   9.903   4.169  1.00  0.00     0.074 A 
ATOM     58  C   UNL     1      -0.217  13.118   5.657  1.00  0.00     0.029 A 
ATOM     59  N   UNL     1       1.315  11.533   5.370  1.00  0.00    -0.354 N 
ATOM     60  N   UNL     1       3.928  10.476   4.501  1.00  0.00    -0.248 NA
ATOM     61  C   UNL     1       5.986  10.781   3.438  1.00  0.00     0.031 C 
ATOM     62  C   UNL     1       0.845  13.656   4.924  1.00  0.00     0.029 A 
ATOM     63  C   UNL     1       1.822  12.682   4.785  1.00  0.00     0.049 A 
ATOM     64  H   UNL     1       1.781  10.666   5.408  1.00  0.00     0.167 HD
ATOM     65  C   UNL     1       4.025  11.794   4.061  1.00  0.00     0.074 A 
ATOM     66  C   UNL     1       5.325  11.929   3.438  1.00  0.00     0.031 C 
ATOM     67  C   UNL     1       3.126  12.804   4.175  1.00  0.00     0.034 A 
BRANCH  54  68
ATOM     68  C   UNL     1      -2.166  11.196   6.995  1.00  0.00     0.023 A 
ATOM     69  C   UNL     1      -2.554  11.131   8.344  1.00  0.00     0.031 A 
ATOM     70  C   UNL     1      -3.126  11.612   6.056  1.00  0.00     0.131 A 
ATOM     71  C   UNL     1      -3.884  11.393   8.705  1.00  0.00     0.055 A 
ATOM     72  C   UNL     1      -4.424  11.962   6.434  1.00  0.00     0.041 A 
ATOM     73  F   UNL     1      -2.825  11.672   4.749  1.00  0.00    -0.206 F 
ATOM     74  C   UNL     1      -4.815  11.836   7.763  1.00  0.00     0.022 A 
BRANCH  71  75
ATOM     75  S   UNL     1      -4.418  10.987  10.390  1.00  0.00     0.124 S 
ATOM     76  O   UNL     1      -4.111   9.560  10.460  1.00  0.00    -0.237 OA
ATOM     77  O   UNL     1      -3.583  11.861  11.205  1.00  0.00    -0.237 OA
ATOM     78  O   UNL     1      -5.844  11.310  10.385  1.00  0.00    -0.744 OA
ENDBRANCH  71  75
ENDBRANCH  54  68
BRANCH  55  79
ATOM     79  C   UNL     1       6.851   8.018   3.938  1.00  0.00     0.023 A 
ATOM     80  C   UNL     1       8.046   8.598   4.391  1.00  0.00     0.031 A 
ATOM     81  C   UNL     1       6.938   7.008   2.962  1.00  0.00     0.131 A 
ATOM     82  C   UNL     1       9.272   8.202   3.833  1.00  0.00     0.055 A 
ATOM     83  C   UNL     1       8.165   6.575   2.455  1.00  0.00     0.041 A 
ATOM     84  F   UNL     1       5.827   6.418   2.494  1.00  0.00    -0.206 F 
ATOM     85  C   UNL     1       9.341   7.184   2.880  1.00  0.00     0.022 A 
BRANCH  82  86
ATOM     86  S   UNL     1      10.771   9.111   4.300  1.00  0.00     0.124 S 
ATOM     87  O   UNL     1      10.420  10.474   3.916  1.00  0.00    -0.237 OA
ATOM     88  O   UNL     1      10.851   8.848   5.733  1.00  0.00    -0.237 OA
ATOM     89  O   UNL     1      11.814   8.483   3.493  1.00  0.00    -0.744 OA
ENDBRANCH  82  86
ENDBRANCH  55  79
BRANCH  67  90
ATOM     90  C   UNL     1       3.546  14.170   3.689  1.00  0.00     0.023 A 
ATOM     91  C   UNL     1       3.752  14.453   2.328  1.00  0.00     0.031 A 
ATOM     92  C   UNL     1       3.715  15.216   4.616  1.00  0.00     0.131 A 
ATOM     93  C   UNL     1       4.154  15.740   1.937  1.00  0.00     0.055 A 
ATOM     94  C   UNL     1       4.055  16.508   4.215  1.00  0.00     0.041 A 
ATOM     95  F   UNL     1       3.534  15.001   5.929  1.00  0.00    -0.206 F 
ATOM     96  C   UNL     1       4.286  16.773   2.869  1.00  0.00     0.022 A 
BRANCH  93  97
ATOM     97  S   UNL     1       4.573  16.033   0.196  1.00  0.00     0.124 S 
ATOM     98  O   UNL     1       5.659  15.083  -0.019  1.00  0.00    -0.237 OA
ATOM     99  O   UNL     1       3.317  15.730  -0.483  1.00  0.00    -0.237 OA
ATOM    100  O   UNL     1       4.966  17.441   0.170  1.00  0.00    -0.744 OA
ENDBRANCH  93  97
ENDBRANCH  67  90
ENDBRANCH  41  42
ENDBRANCH  33  36
ENDBRANCH  31  32
ENDBRANCH  30  31
ENDBRANCH  29  30
ENDBRANCH   1  29
TORSDOF 20
