REMARK SMILES C[C@@H](CCC(=O)Nc1ccccn1)C(=O)NCCCCCCNC(=O)c1ccc(-c2c3nc(c(-c4cc(S(=O)(=O)[O-])ccc4F)c4ccc([nH]4)c(-c4cc(S(=O)(=O)[O-])ccc4F)c4nc(c(-c5cc(S(=O)(=O)[O-])ccc5F)c5ccc2[nH]5)C=C4)C=C3)cc1
REMARK SMILES IDX 19 1 18 2 17 3 16 4 14 5 15 6 2 8 1 9 3 10 4 11 5 12 6 13
REMARK SMILES IDX 7 14 8 16 9 17 13 18 10 19 12 20 11 21 20 22 21 23 22 24
REMARK SMILES IDX 23 25 24 26 25 28 26 29 27 30 88 31 28 32 87 33 29 34 30 35
REMARK SMILES IDX 31 36 81 37 32 38 86 39 80 40 82 41 33 42 85 43 79 44 78 45
REMARK SMILES IDX 34 47 66 48 46 49 65 50 47 51 50 52 64 53 83 54 48 55 49 56
REMARK SMILES IDX 63 58 84 59 51 60 35 61 36 62 44 63 37 64 43 65 45 66 42 67
REMARK SMILES IDX 38 68 39 69 40 70 41 71 67 72 68 73 76 74 69 75 75 76 77 77
REMARK SMILES IDX 74 78 70 79 71 80 72 81 73 82 52 83 53 84 61 85 54 86 60 87
REMARK SMILES IDX 62 88 59 89 55 90 56 91 57 92 58 93
REMARK H PARENT 16 7 7 15 23 27 82 46 50 57
REMARK Flexibility Score: inf
ROOT
ATOM      1  C   UNL     1      -4.023   2.004  -1.655  1.00  0.00     0.002 C 
ENDROOT
BRANCH   1   2
ATOM      2  C   UNL     1      -2.735   1.395  -1.062  1.00  0.00     0.021 C 
BRANCH   2   3
ATOM      3  C   UNL     1      -2.258   1.908   0.325  1.00  0.00     0.116 C 
BRANCH   3   4
ATOM      4  N   UNL     1      -1.873   0.802   1.224  1.00  0.00    -0.356 N 
ATOM      5  C   UNL     1      -1.017   0.531   2.238  1.00  0.00     0.222 C 
ATOM      6  O   UNL     1      -1.379  -0.436   2.932  1.00  0.00    -0.275 OA
ATOM      7  H   UNL     1      -2.413   0.005   1.022  1.00  0.00     0.163 HD
BRANCH   5   8
ATOM      8  C   UNL     1       0.353   1.156   2.596  1.00  0.00     0.076 C 
ATOM      9  C   UNL     1       1.553   0.171   2.543  1.00  0.00     0.018 C 
BRANCH   8  10
ATOM     10  C   UNL     1       0.745   2.522   2.069  1.00  0.00     0.023 C 
BRANCH  10  11
ATOM     11  C   UNL     1       1.604   2.540   0.808  1.00  0.00     0.101 C 
BRANCH  11  12
ATOM     12  C   UNL     1       0.890   2.450  -0.513  1.00  0.00     0.225 C 
ATOM     13  O   UNL     1       0.510   3.523  -1.014  1.00  0.00    -0.275 OA
ATOM     14  N   UNL     1       0.668   1.365  -1.276  1.00  0.00    -0.311 N 
ATOM     15  H   UNL     1       0.498   1.693  -2.189  1.00  0.00     0.171 HD
BRANCH  14  16
ATOM     16  C   UNL     1       0.575  -0.023  -1.327  1.00  0.00     0.132 A 
ATOM     17  C   UNL     1       0.438  -0.941  -0.308  1.00  0.00     0.047 A 
ATOM     18  N   UNL     1       0.458  -0.430  -2.608  1.00  0.00    -0.239 NA
ATOM     19  C   UNL     1       0.224  -2.299  -0.586  1.00  0.00     0.005 A 
ATOM     20  C   UNL     1       0.252  -1.741  -2.870  1.00  0.00     0.113 A 
ATOM     21  C   UNL     1       0.135  -2.713  -1.900  1.00  0.00     0.020 A 
ENDBRANCH  14  16
ENDBRANCH  11  12
ENDBRANCH  10  11
ENDBRANCH   8  10
ENDBRANCH   5   8
ENDBRANCH   3   4
ENDBRANCH   2   3
ENDBRANCH   1   2
BRANCH   1  22
ATOM     22  C   UNL     1      -4.179   3.525  -1.625  1.00  0.00     0.002 C 
BRANCH  22  23
ATOM     23  C   UNL     1      -3.160   4.332  -2.430  1.00  0.00     0.021 C 
BRANCH  23  24
ATOM     24  C   UNL     1      -3.188   4.144  -3.949  1.00  0.00     0.116 C 
BRANCH  24  25
ATOM     25  N   UNL     1      -4.495   4.412  -4.536  1.00  0.00    -0.352 N 
ATOM     26  C   UNL     1      -4.881   5.328  -5.488  1.00  0.00     0.251 C 
ATOM     27  H   UNL     1      -5.222   3.842  -4.195  1.00  0.00     0.163 HD
ATOM     28  O   UNL     1      -6.074   5.502  -5.704  1.00  0.00    -0.269 OA
BRANCH  26  29
ATOM     29  C   UNL     1      -3.873   6.106  -6.245  1.00  0.00     0.039 A 
ATOM     30  C   UNL     1      -4.101   7.468  -6.478  1.00  0.00     0.014 A 
ATOM     31  C   UNL     1      -2.736   5.492  -6.776  1.00  0.00     0.014 A 
ATOM     32  C   UNL     1      -3.161   8.223  -7.188  1.00  0.00     0.010 A 
ATOM     33  C   UNL     1      -1.773   6.258  -7.432  1.00  0.00     0.010 A 
ATOM     34  C   UNL     1      -1.975   7.630  -7.649  1.00  0.00    -0.014 A 
BRANCH  34  35
ATOM     35  C   UNL     1      -0.943   8.413  -8.380  1.00  0.00     0.031 A 
ATOM     36  C   UNL     1      -0.638   8.084  -9.818  1.00  0.00     0.074 A 
ATOM     37  C   UNL     1      -0.232   9.359  -7.732  1.00  0.00     0.049 A 
ATOM     38  N   UNL     1       0.307   8.551 -10.593  1.00  0.00    -0.248 NA
ATOM     39  C   UNL     1      -1.494   7.073 -10.460  1.00  0.00     0.031 C 
ATOM     40  C   UNL     1      -0.422   9.749  -6.333  1.00  0.00     0.029 A 
ATOM     41  N   UNL     1       0.807  10.152  -8.155  1.00  0.00    -0.354 N 
ATOM     42  C   UNL     1       0.179   7.871 -11.801  1.00  0.00     0.074 A 
ATOM     43  C   UNL     1      -0.912   6.934 -11.642  1.00  0.00     0.031 C 
ATOM     44  C   UNL     1       0.461  10.711  -6.019  1.00  0.00     0.029 A 
ATOM     45  C   UNL     1       1.316  10.972  -7.173  1.00  0.00     0.049 A 
ATOM     46  H   UNL     1       1.156  10.136  -9.076  1.00  0.00     0.167 HD
ATOM     47  C   UNL     1       0.899   8.026 -12.939  1.00  0.00     0.034 A 
ATOM     48  C   UNL     1       2.365  11.820  -7.194  1.00  0.00     0.034 A 
ATOM     49  C   UNL     1       1.961   8.990 -13.089  1.00  0.00     0.049 A 
ATOM     50  C   UNL     1       3.157  11.961  -8.473  1.00  0.00     0.074 A 
ATOM     51  C   UNL     1       2.706   9.280 -14.219  1.00  0.00     0.029 A 
ATOM     52  N   UNL     1       2.433   9.817 -12.078  1.00  0.00    -0.354 N 
ATOM     53  N   UNL     1       2.987  11.348  -9.623  1.00  0.00    -0.248 NA
ATOM     54  C   UNL     1       4.276  12.914  -8.463  1.00  0.00     0.031 C 
ATOM     55  C   UNL     1       3.671  10.232 -13.875  1.00  0.00     0.029 A 
ATOM     56  C   UNL     1       3.478  10.595 -12.552  1.00  0.00     0.049 A 
ATOM     57  H   UNL     1       2.078   9.847 -11.161  1.00  0.00     0.167 HD
ATOM     58  C   UNL     1       3.946  11.879 -10.481  1.00  0.00     0.074 A 
ATOM     59  C   UNL     1       4.686  12.864  -9.721  1.00  0.00     0.031 C 
ATOM     60  C   UNL     1       4.193  11.584 -11.783  1.00  0.00     0.034 A 
BRANCH  47  61
ATOM     61  C   UNL     1       0.587   7.117 -14.102  1.00  0.00     0.023 A 
ATOM     62  C   UNL     1      -0.645   7.166 -14.776  1.00  0.00     0.031 A 
ATOM     63  C   UNL     1       1.550   6.197 -14.556  1.00  0.00     0.131 A 
ATOM     64  C   UNL     1      -0.902   6.277 -15.831  1.00  0.00     0.055 A 
ATOM     65  C   UNL     1       1.315   5.365 -15.652  1.00  0.00     0.041 A 
ATOM     66  F   UNL     1       2.738   6.091 -13.940  1.00  0.00    -0.206 F 
ATOM     67  C   UNL     1       0.079   5.395 -16.291  1.00  0.00     0.022 A 
BRANCH  64  68
ATOM     68  S   UNL     1      -2.574   6.217 -16.530  1.00  0.00     0.124 S 
ATOM     69  O   UNL     1      -3.363   5.806 -15.372  1.00  0.00    -0.237 OA
ATOM     70  O   UNL     1      -2.776   7.587 -16.988  1.00  0.00    -0.237 OA
ATOM     71  O   UNL     1      -2.467   5.216 -17.590  1.00  0.00    -0.744 OA
ENDBRANCH  64  68
ENDBRANCH  47  61
BRANCH  48  72
ATOM     72  C   UNL     1       2.756  12.591  -5.977  1.00  0.00     0.023 A 
ATOM     73  C   UNL     1       2.749  13.996  -5.979  1.00  0.00     0.031 A 
ATOM     74  C   UNL     1       3.224  11.941  -4.821  1.00  0.00     0.131 A 
ATOM     75  C   UNL     1       3.265  14.703  -4.883  1.00  0.00     0.055 A 
ATOM     76  C   UNL     1       3.674  12.650  -3.704  1.00  0.00     0.041 A 
ATOM     77  F   UNL     1       3.255  10.600  -4.759  1.00  0.00    -0.206 F 
ATOM     78  C   UNL     1       3.715  14.040  -3.739  1.00  0.00     0.022 A 
BRANCH  75  79
ATOM     79  S   UNL     1       3.465  16.501  -5.028  1.00  0.00     0.124 S 
ATOM     80  O   UNL     1       4.263  16.613  -6.244  1.00  0.00    -0.237 OA
ATOM     81  O   UNL     1       2.081  16.951  -5.124  1.00  0.00    -0.237 OA
ATOM     82  O   UNL     1       4.154  16.867  -3.793  1.00  0.00    -0.744 OA
ENDBRANCH  75  79
ENDBRANCH  48  72
BRANCH  60  83
ATOM     83  C   UNL     1       5.255  12.392 -12.485  1.00  0.00     0.023 A 
ATOM     84  C   UNL     1       6.616  12.280 -12.155  1.00  0.00     0.031 A 
ATOM     85  C   UNL     1       4.892  13.282 -13.512  1.00  0.00     0.131 A 
ATOM     86  C   UNL     1       7.561  13.082 -12.813  1.00  0.00     0.055 A 
ATOM     87  C   UNL     1       5.842  14.033 -14.204  1.00  0.00     0.041 A 
ATOM     88  F   UNL     1       3.605  13.427 -13.867  1.00  0.00    -0.206 F 
ATOM     89  C   UNL     1       7.185  13.943 -13.848  1.00  0.00     0.022 A 
BRANCH  86  90
ATOM     90  S   UNL     1       9.285  13.038 -12.252  1.00  0.00     0.124 S 
ATOM     91  O   UNL     1       9.163  13.466 -10.862  1.00  0.00    -0.237 OA
ATOM     92  O   UNL     1       9.646  11.639 -12.459  1.00  0.00    -0.237 OA
ATOM     93  O   UNL     1       9.958  13.988 -13.136  1.00  0.00    -0.744 OA
ENDBRANCH  86  90
ENDBRANCH  60  83
ENDBRANCH  34  35
ENDBRANCH  26  29
ENDBRANCH  24  25
ENDBRANCH  23  24
ENDBRANCH  22  23
ENDBRANCH   1  22
TORSDOF 20
