REMARK SMILES O=C(CN1C(=O)/C(=C\c2cccs2)SC1=S)Nc1ccccc1C(=O)NCCCCCCNC(=O)c1ccc(-c2c3nc(c(-c4cc(S(=O)(=O)[O-])ccc4F)c4ccc([nH]4)c(-c4cc(S(=O)(=O)[O-])ccc4F)c4nc(c(-c5cc(S(=O)(=O)[O-])ccc5F)c5ccc2[nH]5)C=C4)C=C3)cc1
REMARK SMILES IDX 29 1 28 2 27 3 26 4 24 5 25 6 23 8 18 9 19 10 20 11 22 12
REMARK SMILES IDX 21 13 17 14 1 15 2 16 3 18 4 19 5 20 15 21 6 22 7 23 14 24
REMARK SMILES IDX 16 25 8 26 9 27 10 28 13 29 11 30 12 31 30 32 31 33 32 34
REMARK SMILES IDX 33 35 34 36 35 38 36 39 37 40 98 41 38 42 97 43 39 44 40 45
REMARK SMILES IDX 41 46 91 47 42 48 96 49 90 50 92 51 43 52 95 53 89 54 88 55
REMARK SMILES IDX 44 57 76 58 56 59 75 60 57 61 60 62 74 63 93 64 58 65 59 66
REMARK SMILES IDX 73 68 94 69 61 70 45 71 46 72 54 73 47 74 53 75 55 76 52 77
REMARK SMILES IDX 48 78 49 79 50 80 51 81 77 82 78 83 86 84 79 85 85 86 87 87
REMARK SMILES IDX 84 88 80 89 81 90 82 91 83 92 62 93 63 94 71 95 64 96 70 97
REMARK SMILES IDX 72 98 69 99 65 100 66 101 67 102 68 103
REMARK H PARENT 26 7 17 17 33 37 92 56 60 67
REMARK Flexibility Score: inf
ROOT
ATOM      1  C   UNL     1       2.841  -3.669  -1.063  1.00  0.00     0.002 C 
ENDROOT
BRANCH   1   2
ATOM      2  C   UNL     1       3.418  -2.915   0.148  1.00  0.00     0.021 C 
BRANCH   2   3
ATOM      3  C   UNL     1       2.703  -1.645   0.601  1.00  0.00     0.116 C 
BRANCH   3   4
ATOM      4  N   UNL     1       1.459  -1.779   1.306  1.00  0.00    -0.352 N 
ATOM      5  C   UNL     1       0.760  -0.848   2.055  1.00  0.00     0.253 C 
ATOM      6  O   UNL     1      -0.424  -1.124   2.280  1.00  0.00    -0.269 OA
ATOM      7  H   UNL     1       1.039  -2.668   1.248  1.00  0.00     0.163 HD
BRANCH   5   8
ATOM      8  C   UNL     1       1.358   0.343   2.768  1.00  0.00     0.063 A 
ATOM      9  C   UNL     1       2.358   1.263   2.375  1.00  0.00     0.054 A 
ATOM     10  C   UNL     1       2.880   2.164   3.332  1.00  0.00     0.027 A 
ATOM     11  C   UNL     1       2.350   2.260   4.619  1.00  0.00     0.002 A 
ATOM     12  C   UNL     1       0.831   0.481   4.080  1.00  0.00     0.016 A 
ATOM     13  C   UNL     1       1.303   1.434   4.986  1.00  0.00     0.001 A 
BRANCH   9  14
ATOM     14  N   UNL     1       2.901   1.452   1.082  1.00  0.00    -0.324 N 
ATOM     15  O   UNL     1       0.973   1.189  -0.149  1.00  0.00    -0.273 OA
ATOM     16  C   UNL     1       2.191   1.328  -0.096  1.00  0.00     0.244 C 
ATOM     17  H   UNL     1       3.855   1.690   1.017  1.00  0.00     0.170 HD
BRANCH  16  18
ATOM     18  C   UNL     1       3.083   1.107  -1.323  1.00  0.00     0.227 C 
BRANCH  18  19
ATOM     19  N   UNL     1       4.024   2.143  -1.688  1.00  0.00    -0.283 N 
ATOM     20  C   UNL     1       3.494   3.250  -2.309  1.00  0.00     0.266 C 
ATOM     21  C   UNL     1       5.402   2.055  -1.680  1.00  0.00     0.148 C 
ATOM     22  O   UNL     1       2.348   3.370  -2.695  1.00  0.00    -0.268 OA
ATOM     23  C   UNL     1       4.562   4.269  -2.432  1.00  0.00     0.081 C 
ATOM     24  S   UNL     1       6.086   3.469  -2.498  1.00  0.00    -0.054 SA
ATOM     25  S   UNL     1       6.341   0.862  -0.991  1.00  0.00    -0.052 S 
ATOM     26  C   UNL     1       4.407   5.541  -2.037  1.00  0.00     0.040 C 
BRANCH  26  27
ATOM     27  C   UNL     1       3.256   5.854  -1.260  1.00  0.00     0.028 A 
ATOM     28  C   UNL     1       3.011   5.449   0.045  1.00  0.00     0.020 A 
ATOM     29  S   UNL     1       1.921   6.707  -1.902  1.00  0.00    -0.144 S 
ATOM     30  C   UNL     1       1.681   5.720   0.462  1.00  0.00     0.012 A 
ATOM     31  C   UNL     1       0.973   6.388  -0.510  1.00  0.00     0.065 A 
ENDBRANCH  26  27
ENDBRANCH  18  19
ENDBRANCH  16  18
ENDBRANCH   9  14
ENDBRANCH   5   8
ENDBRANCH   3   4
ENDBRANCH   2   3
ENDBRANCH   1   2
BRANCH   1  32
ATOM     32  C   UNL     1       2.541  -2.908  -2.366  1.00  0.00     0.002 C 
BRANCH  32  33
ATOM     33  C   UNL     1       3.628  -2.024  -2.980  1.00  0.00     0.021 C 
BRANCH  33  34
ATOM     34  C   UNL     1       5.002  -2.617  -3.256  1.00  0.00     0.116 C 
BRANCH  34  35
ATOM     35  N   UNL     1       5.026  -3.467  -4.425  1.00  0.00    -0.352 N 
ATOM     36  C   UNL     1       5.777  -3.396  -5.576  1.00  0.00     0.251 C 
ATOM     37  H   UNL     1       4.399  -4.226  -4.392  1.00  0.00     0.163 HD
ATOM     38  O   UNL     1       5.500  -4.168  -6.493  1.00  0.00    -0.269 OA
BRANCH  36  39
ATOM     39  C   UNL     1       6.882  -2.410  -5.761  1.00  0.00     0.039 A 
ATOM     40  C   UNL     1       7.099  -1.901  -7.049  1.00  0.00     0.014 A 
ATOM     41  C   UNL     1       7.756  -2.037  -4.736  1.00  0.00     0.014 A 
ATOM     42  C   UNL     1       8.149  -1.006  -7.298  1.00  0.00     0.010 A 
ATOM     43  C   UNL     1       8.765  -1.091  -4.970  1.00  0.00     0.010 A 
ATOM     44  C   UNL     1       8.984  -0.575  -6.257  1.00  0.00    -0.014 A 
BRANCH  44  45
ATOM     45  C   UNL     1      10.108   0.375  -6.514  1.00  0.00     0.031 A 
ATOM     46  C   UNL     1      11.538  -0.072  -6.339  1.00  0.00     0.074 A 
ATOM     47  C   UNL     1       9.852   1.647  -6.881  1.00  0.00     0.049 A 
ATOM     48  N   UNL     1      12.646   0.616  -6.468  1.00  0.00    -0.248 NA
ATOM     49  C   UNL     1      11.746  -1.472  -5.945  1.00  0.00     0.031 C 
ATOM     50  C   UNL     1       8.519   2.219  -7.072  1.00  0.00     0.029 A 
ATOM     51  N   UNL     1      10.703   2.691  -7.158  1.00  0.00    -0.354 N 
ATOM     52  C   UNL     1      13.681  -0.263  -6.162  1.00  0.00     0.074 A 
ATOM     53  C   UNL     1      13.060  -1.516  -5.784  1.00  0.00     0.031 C 
ATOM     54  C   UNL     1       8.641   3.501  -7.455  1.00  0.00     0.029 A 
ATOM     55  C   UNL     1      10.057   3.858  -7.498  1.00  0.00     0.049 A 
ATOM     56  H   UNL     1      11.683   2.612  -7.117  1.00  0.00     0.167 HD
ATOM     57  C   UNL     1      15.022  -0.057  -6.210  1.00  0.00     0.034 A 
ATOM     58  C   UNL     1      10.544   5.078  -7.803  1.00  0.00     0.034 A 
ATOM     59  C   UNL     1      15.636   1.190  -6.601  1.00  0.00     0.049 A 
ATOM     60  C   UNL     1      12.037   5.295  -7.819  1.00  0.00     0.074 A 
ATOM     61  C   UNL     1      16.984   1.486  -6.726  1.00  0.00     0.029 A 
ATOM     62  N   UNL     1      14.947   2.351  -6.925  1.00  0.00    -0.354 N 
ATOM     63  N   UNL     1      12.999   4.442  -7.557  1.00  0.00    -0.248 NA
ATOM     64  C   UNL     1      12.508   6.640  -8.180  1.00  0.00     0.031 C 
ATOM     65  C   UNL     1      17.110   2.839  -7.062  1.00  0.00     0.029 A 
ATOM     66  C   UNL     1      15.840   3.371  -7.219  1.00  0.00     0.049 A 
ATOM     67  H   UNL     1      13.966   2.438  -6.943  1.00  0.00     0.167 HD
ATOM     68  C   UNL     1      14.189   5.139  -7.756  1.00  0.00     0.074 A 
ATOM     69  C   UNL     1      13.823   6.479  -8.167  1.00  0.00     0.031 C 
ATOM     70  C   UNL     1      15.468   4.708  -7.617  1.00  0.00     0.034 A 
BRANCH  57  71
ATOM     71  C   UNL     1      15.914  -1.207  -5.802  1.00  0.00     0.023 A 
ATOM     72  C   UNL     1      15.935  -2.416  -6.520  1.00  0.00     0.031 A 
ATOM     73  C   UNL     1      16.734  -1.105  -4.664  1.00  0.00     0.131 A 
ATOM     74  C   UNL     1      16.691  -3.499  -6.047  1.00  0.00     0.055 A 
ATOM     75  C   UNL     1      17.549  -2.160  -4.246  1.00  0.00     0.041 A 
ATOM     76  F   UNL     1      16.745   0.017  -3.927  1.00  0.00    -0.206 F 
ATOM     77  C   UNL     1      17.518  -3.372  -4.929  1.00  0.00     0.022 A 
BRANCH  74  78
ATOM     78  S   UNL     1      16.460  -5.121  -6.826  1.00  0.00     0.124 S 
ATOM     79  O   UNL     1      15.029  -5.341  -6.628  1.00  0.00    -0.237 OA
ATOM     80  O   UNL     1      16.886  -4.875  -8.199  1.00  0.00    -0.237 OA
ATOM     81  O   UNL     1      17.331  -6.001  -6.050  1.00  0.00    -0.744 OA
ENDBRANCH  74  78
ENDBRANCH  57  71
BRANCH  58  82
ATOM     82  C   UNL     1       9.617   6.204  -8.113  1.00  0.00     0.023 A 
ATOM     83  C   UNL     1       9.587   6.785  -9.391  1.00  0.00     0.031 A 
ATOM     84  C   UNL     1       8.781   6.748  -7.121  1.00  0.00     0.131 A 
ATOM     85  C   UNL     1       8.774   7.903  -9.632  1.00  0.00     0.055 A 
ATOM     86  C   UNL     1       7.936   7.828  -7.380  1.00  0.00     0.041 A 
ATOM     87  F   UNL     1       8.769   6.227  -5.883  1.00  0.00    -0.206 F 
ATOM     88  C   UNL     1       7.939   8.421  -8.639  1.00  0.00     0.022 A 
BRANCH  85  89
ATOM     89  S   UNL     1       8.883   8.725 -11.245  1.00  0.00     0.124 S 
ATOM     90  O   UNL     1      10.295   9.088 -11.299  1.00  0.00    -0.237 OA
ATOM     91  O   UNL     1       8.458   7.666 -12.154  1.00  0.00    -0.237 OA
ATOM     92  O   UNL     1       7.954   9.846 -11.119  1.00  0.00    -0.744 OA
ENDBRANCH  85  89
ENDBRANCH  58  82
BRANCH  70  93
ATOM     93  C   UNL     1      16.565   5.687  -7.959  1.00  0.00     0.023 A 
ATOM     94  C   UNL     1      16.807   6.832  -7.179  1.00  0.00     0.031 A 
ATOM     95  C   UNL     1      17.372   5.476  -9.092  1.00  0.00     0.131 A 
ATOM     96  C   UNL     1      17.796   7.748  -7.571  1.00  0.00     0.055 A 
ATOM     97  C   UNL     1      18.389   6.363  -9.446  1.00  0.00     0.041 A 
ATOM     98  F   UNL     1      17.183   4.400  -9.873  1.00  0.00    -0.206 F 
ATOM     99  C   UNL     1      18.598   7.513  -8.691  1.00  0.00     0.022 A 
BRANCH  96 100
ATOM    100  S   UNL     1      17.968   9.297  -6.641  1.00  0.00     0.124 S 
ATOM    101  O   UNL     1      16.641   9.888  -6.786  1.00  0.00    -0.237 OA
ATOM    102  O   UNL     1      18.312   8.823  -5.305  1.00  0.00    -0.237 OA
ATOM    103  O   UNL     1      19.040  10.002  -7.342  1.00  0.00    -0.744 OA
ENDBRANCH  96 100
ENDBRANCH  70  93
ENDBRANCH  44  45
ENDBRANCH  36  39
ENDBRANCH  34  35
ENDBRANCH  33  34
ENDBRANCH  32  33
ENDBRANCH   1  32
TORSDOF 20
