REMARK SMILES CC(C)(C)N(CC(=O)NCCCCCCNC(=O)c1ccc(-c2c3nc(c(-c4cc(S(=O)(=O)[O-])ccc4F)c4ccc([nH]4)c(-c4cc(S(=O)(=O)[O-])ccc4F)c4nc(c(-c5cc(S(=O)(=O)[O-])ccc5F)c5ccc2[nH]5)C=C4)C=C3)cc1)C(=O)NCCc1cnc[nH]1
REMARK SMILES IDX 11 1 10 2 9 3 7 4 8 5 6 7 5 8 2 9 1 10 3 11 4 12 82 13 83 14
REMARK SMILES IDX 84 15 85 17 86 18 87 19 88 20 91 21 89 22 90 23 12 25 13 26
REMARK SMILES IDX 14 27 15 28 16 29 17 30 18 32 19 33 20 34 81 35 21 36 80 37
REMARK SMILES IDX 22 38 23 39 24 40 74 41 25 42 79 43 73 44 75 45 26 46 78 47
REMARK SMILES IDX 72 48 71 49 27 51 59 52 39 53 58 54 40 55 43 56 57 57 76 58
REMARK SMILES IDX 41 59 42 60 56 62 77 63 44 64 28 65 29 66 37 67 30 68 36 69
REMARK SMILES IDX 38 70 35 71 31 72 32 73 33 74 34 75 60 76 61 77 69 78 62 79
REMARK SMILES IDX 68 80 70 81 67 82 63 83 64 84 65 85 66 86 45 87 46 88 54 89
REMARK SMILES IDX 47 90 53 91 55 92 52 93 48 94 49 95 50 96 51 97
REMARK H PARENT 9 6 84 16 91 24 16 31 75 50 43 61
REMARK Flexibility Score: inf
ROOT
ATOM      1  C   UNL     1       3.854  -2.900   1.280  1.00  0.00     0.021 C 
ENDROOT
BRANCH   1   2
ATOM      2  C   UNL     1       3.809  -1.659   0.396  1.00  0.00     0.116 C 
BRANCH   2   3
ATOM      3  N   UNL     1       4.045  -1.953  -0.996  1.00  0.00    -0.355 N 
ATOM      4  C   UNL     1       3.207  -1.752  -2.049  1.00  0.00     0.239 C 
ATOM      5  O   UNL     1       3.706  -1.764  -3.181  1.00  0.00    -0.273 OA
ATOM      6  H   UNL     1       4.921  -2.348  -1.211  1.00  0.00     0.163 HD
BRANCH   4   7
ATOM      7  C   UNL     1       1.731  -1.348  -1.851  1.00  0.00     0.221 C 
BRANCH   7   8
ATOM      8  N   UNL     1       0.912  -2.094  -0.880  1.00  0.00    -0.311 N 
BRANCH   8   9
ATOM      9  C   UNL     1       0.068  -1.314   0.133  1.00  0.00     0.037 C 
ATOM     10  C   UNL     1       0.333   0.217   0.158  1.00  0.00     0.034 C 
ATOM     11  C   UNL     1       0.296  -1.789   1.592  1.00  0.00     0.034 C 
ATOM     12  C   UNL     1      -1.434  -1.462  -0.214  1.00  0.00     0.034 C 
ENDBRANCH   8   9
BRANCH   8  13
ATOM     13  C   UNL     1       0.672  -3.448  -0.989  1.00  0.00     0.318 C 
ATOM     14  O   UNL     1       0.033  -4.079  -0.142  1.00  0.00    -0.249 OA
ATOM     15  N   UNL     1       1.085  -4.223  -2.004  1.00  0.00    -0.338 N 
ATOM     16  H   UNL     1       0.986  -5.173  -1.764  1.00  0.00     0.165 HD
BRANCH  15  17
ATOM     17  C   UNL     1       1.631  -4.103  -3.347  1.00  0.00     0.124 C 
BRANCH  17  18
ATOM     18  C   UNL     1       3.006  -4.774  -3.476  1.00  0.00     0.077 C 
BRANCH  18  19
ATOM     19  C   UNL     1       2.928  -6.259  -3.610  1.00  0.00     0.036 A 
ATOM     20  C   UNL     1       3.404  -7.285  -2.822  1.00  0.00     0.134 A 
ATOM     21  N   UNL     1       2.350  -6.891  -4.684  1.00  0.00    -0.348 N 
ATOM     22  N   UNL     1       3.120  -8.505  -3.382  1.00  0.00    -0.245 NA
ATOM     23  C   UNL     1       2.483  -8.236  -4.497  1.00  0.00     0.196 A 
ATOM     24  H   UNL     1       1.917  -6.452  -5.452  1.00  0.00     0.167 HD
ENDBRANCH  18  19
ENDBRANCH  17  18
ENDBRANCH  15  17
ENDBRANCH   8  13
ENDBRANCH   7   8
ENDBRANCH   4   7
ENDBRANCH   2   3
ENDBRANCH   1   2
BRANCH   1  25
ATOM     25  C   UNL     1       5.261  -3.454   1.525  1.00  0.00     0.002 C 
BRANCH  25  26
ATOM     26  C   UNL     1       6.287  -2.443   2.051  1.00  0.00     0.002 C 
BRANCH  26  27
ATOM     27  C   UNL     1       5.856  -1.622   3.272  1.00  0.00     0.021 C 
BRANCH  27  28
ATOM     28  C   UNL     1       5.470  -2.435   4.505  1.00  0.00     0.116 C 
BRANCH  28  29
ATOM     29  N   UNL     1       6.565  -3.264   4.973  1.00  0.00    -0.352 N 
ATOM     30  C   UNL     1       7.170  -3.323   6.200  1.00  0.00     0.251 C 
ATOM     31  H   UNL     1       6.931  -3.884   4.302  1.00  0.00     0.163 HD
ATOM     32  O   UNL     1       8.229  -3.948   6.309  1.00  0.00    -0.269 OA
BRANCH  30  33
ATOM     33  C   UNL     1       6.592  -2.641   7.381  1.00  0.00     0.039 A 
ATOM     34  C   UNL     1       7.464  -2.046   8.297  1.00  0.00     0.014 A 
ATOM     35  C   UNL     1       5.215  -2.634   7.630  1.00  0.00     0.014 A 
ATOM     36  C   UNL     1       6.958  -1.415   9.436  1.00  0.00     0.010 A 
ATOM     37  C   UNL     1       4.706  -1.944   8.732  1.00  0.00     0.010 A 
ATOM     38  C   UNL     1       5.572  -1.339   9.654  1.00  0.00    -0.014 A 
BRANCH  38  39
ATOM     39  C   UNL     1       5.037  -0.630  10.847  1.00  0.00     0.031 A 
ATOM     40  C   UNL     1       4.304  -1.384  11.924  1.00  0.00     0.074 A 
ATOM     41  C   UNL     1       5.186   0.706  10.942  1.00  0.00     0.049 A 
ATOM     42  N   UNL     1       3.789  -0.939  13.043  1.00  0.00    -0.248 NA
ATOM     43  C   UNL     1       4.094  -2.820  11.696  1.00  0.00     0.031 C 
ATOM     44  C   UNL     1       5.814   1.557   9.928  1.00  0.00     0.029 A 
ATOM     45  N   UNL     1       4.819   1.583  11.931  1.00  0.00    -0.354 N 
ATOM     46  C   UNL     1       3.186  -2.037  13.649  1.00  0.00     0.074 A 
ATOM     47  C   UNL     1       3.346  -3.152  12.738  1.00  0.00     0.031 C 
ATOM     48  C   UNL     1       5.806   2.829  10.357  1.00  0.00     0.029 A 
ATOM     49  C   UNL     1       5.152   2.889  11.661  1.00  0.00     0.049 A 
ATOM     50  H   UNL     1       4.360   1.303  12.755  1.00  0.00     0.167 HD
ATOM     51  C   UNL     1       2.577  -2.113  14.859  1.00  0.00     0.034 A 
ATOM     52  C   UNL     1       4.955   4.011  12.380  1.00  0.00     0.034 A 
ATOM     53  C   UNL     1       2.433  -0.990  15.757  1.00  0.00     0.049 A 
ATOM     54  C   UNL     1       4.311   3.901  13.737  1.00  0.00     0.074 A 
ATOM     55  C   UNL     1       1.902  -0.966  17.035  1.00  0.00     0.029 A 
ATOM     56  N   UNL     1       2.812   0.316  15.465  1.00  0.00    -0.354 N 
ATOM     57  N   UNL     1       3.825   2.838  14.336  1.00  0.00    -0.248 NA
ATOM     58  C   UNL     1       4.217   5.136  14.523  1.00  0.00     0.031 C 
ATOM     59  C   UNL     1       1.897   0.359  17.487  1.00  0.00     0.029 A 
ATOM     60  C   UNL     1       2.496   1.156  16.525  1.00  0.00     0.049 A 
ATOM     61  H   UNL     1       3.242   0.604  14.628  1.00  0.00     0.167 HD
ATOM     62  C   UNL     1       3.380   3.277  15.580  1.00  0.00     0.074 A 
ATOM     63  C   UNL     1       3.686   4.692  15.652  1.00  0.00     0.031 C 
ATOM     64  C   UNL     1       2.775   2.574  16.573  1.00  0.00     0.034 A 
BRANCH  51  65
ATOM     65  C   UNL     1       1.995  -3.452  15.260  1.00  0.00     0.023 A 
ATOM     66  C   UNL     1       2.800  -4.597  15.402  1.00  0.00     0.031 A 
ATOM     67  C   UNL     1       0.611  -3.598  15.459  1.00  0.00     0.131 A 
ATOM     68  C   UNL     1       2.209  -5.848  15.640  1.00  0.00     0.055 A 
ATOM     69  C   UNL     1       0.037  -4.830  15.783  1.00  0.00     0.041 A 
ATOM     70  F   UNL     1      -0.215  -2.548  15.322  1.00  0.00    -0.206 F 
ATOM     71  C   UNL     1       0.835  -5.968  15.856  1.00  0.00     0.022 A 
BRANCH  68  72
ATOM     72  S   UNL     1       3.239  -7.334  15.495  1.00  0.00     0.124 S 
ATOM     73  O   UNL     1       3.758  -7.203  14.136  1.00  0.00    -0.237 OA
ATOM     74  O   UNL     1       4.207  -7.152  16.570  1.00  0.00    -0.237 OA
ATOM     75  O   UNL     1       2.290  -8.429  15.688  1.00  0.00    -0.744 OA
ENDBRANCH  68  72
ENDBRANCH  51  65
BRANCH  52  76
ATOM     76  C   UNL     1       5.375   5.331  11.832  1.00  0.00     0.023 A 
ATOM     77  C   UNL     1       6.426   6.061  12.408  1.00  0.00     0.031 A 
ATOM     78  C   UNL     1       4.715   5.885  10.721  1.00  0.00     0.131 A 
ATOM     79  C   UNL     1       6.764   7.322  11.893  1.00  0.00     0.055 A 
ATOM     80  C   UNL     1       5.085   7.119  10.184  1.00  0.00     0.041 A 
ATOM     81  F   UNL     1       3.712   5.221  10.126  1.00  0.00    -0.206 F 
ATOM     82  C   UNL     1       6.109   7.850  10.778  1.00  0.00     0.022 A 
BRANCH  79  83
ATOM     83  S   UNL     1       8.043   8.292  12.737  1.00  0.00     0.124 S 
ATOM     84  O   UNL     1       7.476   8.438  14.072  1.00  0.00    -0.237 OA
ATOM     85  O   UNL     1       9.208   7.420  12.626  1.00  0.00    -0.237 OA
ATOM     86  O   UNL     1       8.113   9.521  11.950  1.00  0.00    -0.744 OA
ENDBRANCH  79  83
ENDBRANCH  52  76
BRANCH  64  87
ATOM     87  C   UNL     1       2.426   3.339  17.828  1.00  0.00     0.023 A 
ATOM     88  C   UNL     1       1.481   4.381  17.818  1.00  0.00     0.031 A 
ATOM     89  C   UNL     1       3.080   3.054  19.040  1.00  0.00     0.131 A 
ATOM     90  C   UNL     1       1.274   5.151  18.973  1.00  0.00     0.055 A 
ATOM     91  C   UNL     1       2.820   3.779  20.204  1.00  0.00     0.041 A 
ATOM     92  F   UNL     1       3.994   2.073  19.110  1.00  0.00    -0.206 F 
ATOM     93  C   UNL     1       1.926   4.846  20.170  1.00  0.00     0.022 A 
BRANCH  90  94
ATOM     94  S   UNL     1       0.239   6.636  18.855  1.00  0.00     0.124 S 
ATOM     95  O   UNL     1       0.884   7.370  17.771  1.00  0.00    -0.237 OA
ATOM     96  O   UNL     1      -1.075   6.076  18.553  1.00  0.00    -0.237 OA
ATOM     97  O   UNL     1       0.363   7.247  20.177  1.00  0.00    -0.744 OA
ENDBRANCH  90  94
ENDBRANCH  64  87
ENDBRANCH  38  39
ENDBRANCH  30  33
ENDBRANCH  28  29
ENDBRANCH  27  28
ENDBRANCH  26  27
ENDBRANCH  25  26
ENDBRANCH   1  25
TORSDOF 22
