REMARK SMILES C[C@H]1c2ccc(O)cc2OC(=O)[C@@H]1CC(=O)N[C@@H](CC1=c2ccccc2=NC1)C(=O)NCCCCCCNC(=O)c1ccc(-c2c3nc(c(-c4cc(S(=O)(=O)[O-])ccc4F)c4ccc([nH]4)c(-c4cc(S(=O)(=O)[O-])ccc4F)c4nc(c(-c5cc(S(=O)(=O)[O-])ccc5F)c5ccc2[nH]5)C=C4)C=C3)cc1
REMARK SMILES IDX 34 1 33 2 32 3 31 4 29 5 30 6 18 8 17 9 15 10 16 11 14 13
REMARK SMILES IDX 13 14 1 15 2 16 3 17 4 18 9 19 11 20 5 21 8 22 10 23 12 24
REMARK SMILES IDX 6 25 7 26 19 28 20 29 21 30 28 31 22 32 26 33 27 34 23 35
REMARK SMILES IDX 25 36 24 37 35 38 36 39 37 40 38 41 39 42 40 44 41 45 42 46
REMARK SMILES IDX 103 47 43 48 102 49 44 50 45 51 46 52 96 53 47 54 101 55
REMARK SMILES IDX 95 56 97 57 48 58 100 59 94 60 93 61 49 63 81 64 61 65 80 66
REMARK SMILES IDX 62 67 65 68 79 69 98 70 63 71 64 72 78 74 99 75 66 76 50 77
REMARK SMILES IDX 51 78 59 79 52 80 58 81 60 82 57 83 53 84 54 85 55 86 56 87
REMARK SMILES IDX 82 88 83 89 91 90 84 91 90 92 92 93 89 94 85 95 86 96 87 97
REMARK SMILES IDX 88 98 67 99 68 100 76 101 69 102 75 103 77 104 74 105 70 106
REMARK SMILES IDX 71 107 72 108 73 109
REMARK H PARENT 31 7 17 12 7 27 38 43 97 62 65 73
REMARK Flexibility Score: inf
ROOT
ATOM      1  C   UNL     1       3.991   9.071  -5.625  1.00  0.00     0.002 C 
ENDROOT
BRANCH   1   2
ATOM      2  C   UNL     1       3.033   7.865  -5.658  1.00  0.00     0.021 C 
BRANCH   2   3
ATOM      3  C   UNL     1       3.336   6.706  -4.719  1.00  0.00     0.116 C 
BRANCH   3   4
ATOM      4  N   UNL     1       2.852   6.690  -3.367  1.00  0.00    -0.354 N 
ATOM      5  C   UNL     1       3.141   5.666  -2.489  1.00  0.00     0.242 C 
ATOM      6  O   UNL     1       3.427   5.999  -1.332  1.00  0.00    -0.273 OA
ATOM      7  H   UNL     1       2.293   7.438  -3.055  1.00  0.00     0.163 HD
BRANCH   5   8
ATOM      8  C   UNL     1       3.155   4.136  -2.877  1.00  0.00     0.175 C 
BRANCH   8   9
ATOM      9  N   UNL     1       2.208   3.636  -3.880  1.00  0.00    -0.344 N 
ATOM     10  C   UNL     1       1.097   2.860  -3.708  1.00  0.00     0.221 C 
ATOM     11  O   UNL     1       0.559   2.373  -4.705  1.00  0.00    -0.275 OA
ATOM     12  H   UNL     1       2.400   3.898  -4.810  1.00  0.00     0.164 HD
BRANCH  10  13
ATOM     13  C   UNL     1       0.486   2.646  -2.328  1.00  0.00     0.116 C 
BRANCH  13  14
ATOM     14  C   UNL     1       0.980   1.398  -1.557  1.00  0.00     0.116 C 
ATOM     15  C   UNL     1       0.409  -0.409   0.167  1.00  0.00     0.014 C 
ATOM     16  C   UNL     1      -0.009   0.929  -0.462  1.00  0.00     0.034 C 
ATOM     17  C   UNL     1      -0.105   2.004   0.596  1.00  0.00    -0.001 A 
ATOM     18  C   UNL     1      -1.262   2.199   1.354  1.00  0.00     0.011 A 
ATOM     19  C   UNL     1       0.978   2.868   0.792  1.00  0.00     0.138 A 
ATOM     20  C   UNL     1       2.273   1.656  -0.821  1.00  0.00     0.315 C 
ATOM     21  C   UNL     1      -1.347   3.282   2.236  1.00  0.00     0.047 A 
ATOM     22  C   UNL     1       0.895   3.969   1.637  1.00  0.00     0.093 A 
ATOM     23  O   UNL     1       2.209   2.635   0.159  1.00  0.00    -0.426 OA
ATOM     24  O   UNL     1       3.313   1.058  -1.068  1.00  0.00    -0.251 OA
ATOM     25  C   UNL     1      -0.278   4.171   2.348  1.00  0.00     0.119 A 
BRANCH  25  26
ATOM     26  O   UNL     1      -0.347   5.262   3.164  1.00  0.00    -0.508 OA
ATOM     27  H   UNL     1      -1.125   5.428   3.659  1.00  0.00     0.293 HD
ENDBRANCH  25  26
ENDBRANCH  13  14
ENDBRANCH  10  13
ENDBRANCH   8   9
BRANCH   8  28
ATOM     28  C   UNL     1       4.506   3.322  -2.886  1.00  0.00     0.068 C 
BRANCH  28  29
ATOM     29  C   UNL     1       5.508   3.370  -4.040  1.00  0.00    -0.037 C 
ATOM     30  C   UNL     1       5.338   2.670  -5.184  1.00  0.00     0.001 A 
ATOM     31  C   UNL     1       5.984   4.740  -4.364  1.00  0.00     0.174 C 
ATOM     32  C   UNL     1       6.391   2.080  -6.031  1.00  0.00     0.010 A 
ATOM     33  C   UNL     1       4.862   3.839  -5.982  1.00  0.00     0.065 A 
ATOM     34  N   UNL     1       5.239   5.013  -5.604  1.00  0.00    -0.280 NA
ATOM     35  C   UNL     1       6.213   2.087  -7.373  1.00  0.00     0.001 A 
ATOM     36  C   UNL     1       4.236   3.503  -7.265  1.00  0.00     0.028 A 
ATOM     37  C   UNL     1       4.978   2.618  -7.952  1.00  0.00     0.002 A 
ENDBRANCH  28  29
ENDBRANCH   8  28
ENDBRANCH   5   8
ENDBRANCH   3   4
ENDBRANCH   2   3
ENDBRANCH   1   2
BRANCH   1  38
ATOM     38  C   UNL     1       5.513   8.866  -5.510  1.00  0.00     0.002 C 
BRANCH  38  39
ATOM     39  C   UNL     1       6.248   7.986  -6.522  1.00  0.00     0.021 C 
BRANCH  39  40
ATOM     40  C   UNL     1       5.939   8.170  -7.997  1.00  0.00     0.116 C 
BRANCH  40  41
ATOM     41  N   UNL     1       6.274   9.496  -8.479  1.00  0.00    -0.352 N 
ATOM     42  C   UNL     1       7.151   9.891  -9.466  1.00  0.00     0.251 C 
ATOM     43  H   UNL     1       5.799  10.232  -8.028  1.00  0.00     0.163 HD
ATOM     44  O   UNL     1       7.391  11.076  -9.619  1.00  0.00    -0.269 OA
BRANCH  42  45
ATOM     45  C   UNL     1       7.830   8.875 -10.310  1.00  0.00     0.039 A 
ATOM     46  C   UNL     1       7.133   7.793 -10.851  1.00  0.00     0.014 A 
ATOM     47  C   UNL     1       9.199   9.016 -10.562  1.00  0.00     0.014 A 
ATOM     48  C   UNL     1       7.829   6.771 -11.491  1.00  0.00     0.010 A 
ATOM     49  C   UNL     1       9.882   8.027 -11.279  1.00  0.00     0.010 A 
ATOM     50  C   UNL     1       9.213   6.871 -11.706  1.00  0.00    -0.014 A 
BRANCH  50  51
ATOM     51  C   UNL     1       9.940   5.764 -12.385  1.00  0.00     0.031 A 
ATOM     52  C   UNL     1      10.990   4.969 -11.656  1.00  0.00     0.074 A 
ATOM     53  C   UNL     1       9.626   5.455 -13.659  1.00  0.00     0.049 A 
ATOM     54  N   UNL     1      11.711   3.967 -12.089  1.00  0.00    -0.248 NA
ATOM     55  C   UNL     1      11.268   5.344 -10.260  1.00  0.00     0.031 C 
ATOM     56  C   UNL     1       8.621   6.153 -14.460  1.00  0.00     0.029 A 
ATOM     57  N   UNL     1      10.100   4.476 -14.497  1.00  0.00    -0.354 N 
ATOM     58  C   UNL     1      12.537   3.602 -11.030  1.00  0.00     0.074 A 
ATOM     59  C   UNL     1      12.253   4.513  -9.944  1.00  0.00     0.031 C 
ATOM     60  C   UNL     1       8.520   5.555 -15.654  1.00  0.00     0.029 A 
ATOM     61  C   UNL     1       9.506   4.480 -15.738  1.00  0.00     0.049 A 
ATOM     62  H   UNL     1      10.798   3.833 -14.236  1.00  0.00     0.167 HD
ATOM     63  C   UNL     1      13.434   2.589 -10.969  1.00  0.00     0.034 A 
ATOM     64  C   UNL     1       9.737   3.723 -16.831  1.00  0.00     0.034 A 
ATOM     65  C   UNL     1      13.690   1.679 -12.058  1.00  0.00     0.049 A 
ATOM     66  C   UNL     1      10.779   2.638 -16.756  1.00  0.00     0.074 A 
ATOM     67  C   UNL     1      14.545   0.591 -12.075  1.00  0.00     0.029 A 
ATOM     68  N   UNL     1      13.106   1.746 -13.315  1.00  0.00    -0.354 N 
ATOM     69  N   UNL     1      11.506   2.268 -15.728  1.00  0.00    -0.248 NA
ATOM     70  C   UNL     1      11.039   1.870 -17.981  1.00  0.00     0.031 C 
ATOM     71  C   UNL     1      14.533   0.046 -13.359  1.00  0.00     0.029 A 
ATOM     72  C   UNL     1      13.613   0.743 -14.126  1.00  0.00     0.049 A 
ATOM     73  H   UNL     1      12.431   2.408 -13.589  1.00  0.00     0.167 HD
ATOM     74  C   UNL     1      12.303   1.220 -16.179  1.00  0.00     0.074 A 
ATOM     75  C   UNL     1      11.945   0.993 -17.564  1.00  0.00     0.031 C 
ATOM     76  C   UNL     1      13.251   0.519 -15.507  1.00  0.00     0.034 A 
BRANCH  63  77
ATOM     77  C   UNL     1      14.211   2.377  -9.691  1.00  0.00     0.023 A 
ATOM     78  C   UNL     1      15.616   2.482  -9.695  1.00  0.00     0.031 A 
ATOM     79  C   UNL     1      13.582   1.931  -8.514  1.00  0.00     0.131 A 
ATOM     80  C   UNL     1      16.346   2.110  -8.559  1.00  0.00     0.055 A 
ATOM     81  C   UNL     1      14.313   1.602  -7.371  1.00  0.00     0.041 A 
ATOM     82  F   UNL     1      12.246   1.808  -8.459  1.00  0.00    -0.206 F 
ATOM     83  C   UNL     1      15.702   1.678  -7.395  1.00  0.00     0.022 A 
BRANCH  80  84
ATOM     84  S   UNL     1      18.160   2.100  -8.569  1.00  0.00     0.124 S 
ATOM     85  O   UNL     1      18.471   3.034  -7.489  1.00  0.00    -0.237 OA
ATOM     86  O   UNL     1      18.459   0.699  -8.287  1.00  0.00    -0.237 OA
ATOM     87  O   UNL     1      18.507   2.562  -9.909  1.00  0.00    -0.744 OA
ENDBRANCH  80  84
ENDBRANCH  63  77
BRANCH  64  88
ATOM     88  C   UNL     1       8.929   3.969 -18.062  1.00  0.00     0.023 A 
ATOM     89  C   UNL     1       8.952   5.223 -18.701  1.00  0.00     0.031 A 
ATOM     90  C   UNL     1       8.023   3.005 -18.535  1.00  0.00     0.131 A 
ATOM     91  C   UNL     1       8.023   5.511 -19.708  1.00  0.00     0.055 A 
ATOM     92  C   UNL     1       7.154   3.270 -19.595  1.00  0.00     0.041 A 
ATOM     93  F   UNL     1       7.956   1.798 -17.953  1.00  0.00    -0.206 F 
ATOM     94  C   UNL     1       7.135   4.537 -20.171  1.00  0.00     0.022 A 
BRANCH  91  95
ATOM     95  S   UNL     1       7.828   7.204 -20.334  1.00  0.00     0.124 S 
ATOM     96  O   UNL     1       8.103   7.035 -21.758  1.00  0.00    -0.237 OA
ATOM     97  O   UNL     1       6.438   7.489 -19.989  1.00  0.00    -0.237 OA
ATOM     98  O   UNL     1       8.821   7.965 -19.584  1.00  0.00    -0.744 OA
ENDBRANCH  91  95
ENDBRANCH  64  88
BRANCH  76  99
ATOM     99  C   UNL     1      14.005  -0.566 -16.238  1.00  0.00     0.023 A 
ATOM    100  C   UNL     1      13.917  -1.903 -15.805  1.00  0.00     0.031 A 
ATOM    101  C   UNL     1      14.938  -0.251 -17.241  1.00  0.00     0.131 A 
ATOM    102  C   UNL     1      14.789  -2.865 -16.331  1.00  0.00     0.055 A 
ATOM    103  C   UNL     1      15.768  -1.224 -17.801  1.00  0.00     0.041 A 
ATOM    104  F   UNL     1      15.065   1.010 -17.683  1.00  0.00    -0.206 F 
ATOM    105  C   UNL     1      15.707  -2.534 -17.333  1.00  0.00     0.022 A 
BRANCH 102 106
ATOM    106  S   UNL     1      14.829  -4.553 -15.670  1.00  0.00     0.124 S 
ATOM    107  O   UNL     1      14.550  -5.352 -16.861  1.00  0.00    -0.237 OA
ATOM    108  O   UNL     1      16.194  -4.650 -15.160  1.00  0.00    -0.237 OA
ATOM    109  O   UNL     1      13.777  -4.560 -14.658  1.00  0.00    -0.744 OA
ENDBRANCH 102 106
ENDBRANCH  76  99
ENDBRANCH  50  51
ENDBRANCH  42  45
ENDBRANCH  40  41
ENDBRANCH  39  40
ENDBRANCH  38  39
ENDBRANCH   1  38
TORSDOF 22
