REMARK SMILES NS(=O)(=O)c1ccc(-n2nc(C(=O)NCCCCCCNC(=O)c3ccc(-c4c5nc(c(-c6cc(S(=O)(=O)[O-])ccc6F)c6ccc([nH]6)c(-c6cc(S(=O)(=O)[O-])ccc6F)c6nc(c(-c7cc(S(=O)(=O)[O-])ccc7F)c7ccc4[nH]7)C=C6)C=C5)cc3)c(Cl)c2-c2ccc(Cl)cc2)cc1
REMARK SMILES IDX 17 1 16 2 15 3 14 4 12 5 13 6 11 8 9 9 10 10 89 11 87 12
REMARK SMILES IDX 88 13 8 14 5 15 6 16 98 17 7 18 97 19 2 20 3 21 4 22 1 23
REMARK SMILES IDX 90 26 91 27 96 28 92 29 95 30 93 31 94 32 18 33 19 34 20 35
REMARK SMILES IDX 21 36 22 37 23 39 24 40 25 41 86 42 26 43 85 44 27 45 28 46
REMARK SMILES IDX 29 47 79 48 30 49 84 50 78 51 80 52 31 53 83 54 77 55 76 56
REMARK SMILES IDX 32 58 64 59 44 60 63 61 45 62 48 63 62 64 81 65 46 66 47 67
REMARK SMILES IDX 61 69 82 70 49 71 33 72 34 73 42 74 35 75 41 76 43 77 40 78
REMARK SMILES IDX 36 79 37 80 38 81 39 82 65 83 66 84 74 85 67 86 73 87 75 88
REMARK SMILES IDX 72 89 68 90 69 91 70 92 71 93 50 94 51 95 59 96 52 97 58 98
REMARK SMILES IDX 60 99 57 100 53 101 54 102 55 103 56 104
REMARK H PARENT 14 7 1 24 1 25 21 38 80 57 48 68
REMARK Flexibility Score: inf
ROOT
ATOM      1  C   UNL     1       2.106   8.200  11.606  1.00  0.00     0.002 C 
ENDROOT
BRANCH   1   2
ATOM      2  C   UNL     1       1.534   7.428  10.419  1.00  0.00     0.021 C 
BRANCH   2   3
ATOM      3  C   UNL     1       2.240   7.821   9.116  1.00  0.00     0.116 C 
BRANCH   3   4
ATOM      4  N   UNL     1       3.391   7.000   8.874  1.00  0.00    -0.351 N 
ATOM      5  C   UNL     1       3.591   6.012   7.926  1.00  0.00     0.273 C 
ATOM      6  O   UNL     1       4.754   5.596   7.864  1.00  0.00    -0.267 OA
ATOM      7  H   UNL     1       4.155   7.164   9.473  1.00  0.00     0.163 HD
BRANCH   5   8
ATOM      8  C   UNL     1       2.523   5.536   6.981  1.00  0.00     0.169 A 
ATOM      9  N   UNL     1       1.733   4.612   5.168  1.00  0.00    -0.231 N 
ATOM     10  N   UNL     1       2.863   4.736   5.919  1.00  0.00    -0.160 NA
ATOM     11  C   UNL     1       0.715   5.378   5.675  1.00  0.00     0.094 A 
ATOM     12  C   UNL     1       1.111   5.718   6.947  1.00  0.00     0.100 A 
ATOM     13  Cl  UNL     1      -0.079   6.200   8.083  1.00  0.00    -0.079 Cl
BRANCH   9  14
ATOM     14  C   UNL     1       1.648   3.866   3.954  1.00  0.00     0.065 A 
ATOM     15  C   UNL     1       0.931   2.443   1.633  1.00  0.00     0.082 A 
ATOM     16  C   UNL     1       1.341   1.749   2.778  1.00  0.00     0.024 A 
ATOM     17  C   UNL     1       0.906   3.841   1.637  1.00  0.00     0.024 A 
ATOM     18  C   UNL     1       1.703   2.462   3.947  1.00  0.00     0.030 A 
ATOM     19  C   UNL     1       1.243   4.545   2.796  1.00  0.00     0.030 A 
BRANCH  15  20
ATOM     20  S   UNL     1       0.464   1.655   0.110  1.00  0.00     0.238 S 
ATOM     21  O   UNL     1       1.139   2.273  -0.964  1.00  0.00    -0.207 OA
ATOM     22  O   UNL     1      -1.005   1.501   0.128  1.00  0.00    -0.207 OA
BRANCH  20  23
ATOM     23  N   UNL     1       1.079   0.092   0.188  1.00  0.00    -0.225 NA
ATOM     24  H   UNL     1       0.840  -0.411  -0.666  1.00  0.00     0.137 HD
ATOM     25  H   UNL     1       0.677  -0.392   0.992  1.00  0.00     0.137 HD
ENDBRANCH  20  23
ENDBRANCH  15  20
ENDBRANCH   9  14
BRANCH  11  26
ATOM     26  C   UNL     1      -0.645   5.524   5.188  1.00  0.00     0.002 A 
ATOM     27  C   UNL     1      -1.105   6.825   4.931  1.00  0.00     0.012 A 
ATOM     28  C   UNL     1      -1.548   4.476   5.389  1.00  0.00     0.012 A 
ATOM     29  C   UNL     1      -2.470   7.086   4.939  1.00  0.00     0.021 A 
ATOM     30  C   UNL     1      -2.914   4.737   5.360  1.00  0.00     0.021 A 
ATOM     31  C   UNL     1      -3.368   6.038   5.141  1.00  0.00     0.041 A 
ATOM     32  Cl  UNL     1      -5.054   6.367   5.159  1.00  0.00    -0.084 Cl
ENDBRANCH  11  26
ENDBRANCH   5   8
ENDBRANCH   3   4
ENDBRANCH   2   3
ENDBRANCH   1   2
BRANCH   1  33
ATOM     33  C   UNL     1       2.010   9.725  11.413  1.00  0.00     0.002 C 
BRANCH  33  34
ATOM     34  C   UNL     1       0.593  10.239  11.144  1.00  0.00     0.021 C 
BRANCH  34  35
ATOM     35  C   UNL     1      -0.319   9.932  12.301  1.00  0.00     0.116 C 
BRANCH  35  36
ATOM     36  N   UNL     1       0.042  10.662  13.514  1.00  0.00    -0.352 N 
ATOM     37  C   UNL     1      -0.845  11.128  14.474  1.00  0.00     0.251 C 
ATOM     38  H   UNL     1       0.999  10.839  13.662  1.00  0.00     0.163 HD
ATOM     39  O   UNL     1      -0.524  12.029  15.238  1.00  0.00    -0.269 OA
BRANCH  37  40
ATOM     40  C   UNL     1      -2.117  10.365  14.617  1.00  0.00     0.039 A 
ATOM     41  C   UNL     1      -3.293  10.729  15.259  1.00  0.00     0.014 A 
ATOM     42  C   UNL     1      -2.042   9.031  14.261  1.00  0.00     0.014 A 
ATOM     43  C   UNL     1      -4.187   9.636  15.633  1.00  0.00     0.010 A 
ATOM     44  C   UNL     1      -3.179   8.312  14.101  1.00  0.00     0.010 A 
ATOM     45  C   UNL     1      -3.902   8.251  15.255  1.00  0.00    -0.014 A 
BRANCH  45  46
ATOM     46  C   UNL     1      -4.798   6.933  15.217  1.00  0.00     0.031 A 
ATOM     47  C   UNL     1      -6.056   7.641  14.379  1.00  0.00     0.074 A 
ATOM     48  C   UNL     1      -4.550   5.521  15.651  1.00  0.00     0.049 A 
ATOM     49  N   UNL     1      -7.004   8.314  14.982  1.00  0.00    -0.248 NA
ATOM     50  C   UNL     1      -6.050   8.209  12.940  1.00  0.00     0.031 C 
ATOM     51  C   UNL     1      -3.415   4.670  16.341  1.00  0.00     0.029 A 
ATOM     52  N   UNL     1      -5.406   4.362  15.594  1.00  0.00    -0.354 N 
ATOM     53  C   UNL     1      -7.945   8.608  13.991  1.00  0.00     0.074 A 
ATOM     54  C   UNL     1      -7.213   8.871  12.818  1.00  0.00     0.031 C 
ATOM     55  C   UNL     1      -3.550   3.291  16.181  1.00  0.00     0.029 A 
ATOM     56  C   UNL     1      -4.835   2.986  15.584  1.00  0.00     0.049 A 
ATOM     57  H   UNL     1      -6.383   4.482  15.561  1.00  0.00     0.167 HD
ATOM     58  C   UNL     1      -9.172   8.039  14.094  1.00  0.00     0.034 A 
ATOM     59  C   UNL     1      -5.468   1.722  15.381  1.00  0.00     0.034 A 
ATOM     60  C   UNL     1      -9.315   7.591  15.461  1.00  0.00     0.049 A 
ATOM     61  C   UNL     1      -6.923   2.048  15.426  1.00  0.00     0.074 A 
ATOM     62  C   UNL     1      -9.163   8.196  16.696  1.00  0.00     0.029 A 
ATOM     63  N   UNL     1      -8.954   6.285  15.611  1.00  0.00    -0.354 N 
ATOM     64  N   UNL     1      -7.492   2.419  16.545  1.00  0.00    -0.248 NA
ATOM     65  C   UNL     1      -7.364   2.693  14.184  1.00  0.00     0.031 C 
ATOM     66  C   UNL     1      -8.460   7.257  17.512  1.00  0.00     0.029 A 
ATOM     67  C   UNL     1      -8.388   6.048  16.829  1.00  0.00     0.049 A 
ATOM     68  H   UNL     1      -9.086   5.594  14.922  1.00  0.00     0.167 HD
ATOM     69  C   UNL     1      -7.951   3.692  16.261  1.00  0.00     0.074 A 
ATOM     70  C   UNL     1      -7.840   3.804  14.767  1.00  0.00     0.031 C 
ATOM     71  C   UNL     1      -7.945   4.718  17.187  1.00  0.00     0.034 A 
BRANCH  58  72
ATOM     72  C   UNL     1      -9.905   7.371  12.942  1.00  0.00     0.023 A 
ATOM     73  C   UNL     1     -11.205   6.947  13.234  1.00  0.00     0.031 A 
ATOM     74  C   UNL     1      -9.365   6.888  11.719  1.00  0.00     0.131 A 
ATOM     75  C   UNL     1     -11.901   6.088  12.370  1.00  0.00     0.055 A 
ATOM     76  C   UNL     1     -10.096   6.104  10.815  1.00  0.00     0.041 A 
ATOM     77  F   UNL     1      -8.083   7.061  11.371  1.00  0.00    -0.206 F 
ATOM     78  C   UNL     1     -11.376   5.691  11.143  1.00  0.00     0.022 A 
BRANCH  75  79
ATOM     79  S   UNL     1     -13.445   5.382  12.982  1.00  0.00     0.124 S 
ATOM     80  O   UNL     1     -12.995   4.694  14.186  1.00  0.00    -0.237 OA
ATOM     81  O   UNL     1     -14.253   6.580  13.190  1.00  0.00    -0.237 OA
ATOM     82  O   UNL     1     -13.879   4.519  11.888  1.00  0.00    -0.744 OA
ENDBRANCH  75  79
ENDBRANCH  58  72
BRANCH  59  83
ATOM     83  C   UNL     1      -5.001   0.452  14.546  1.00  0.00     0.023 A 
ATOM     84  C   UNL     1      -5.612  -0.857  14.279  1.00  0.00     0.031 A 
ATOM     85  C   UNL     1      -3.920   0.742  13.706  1.00  0.00     0.131 A 
ATOM     86  C   UNL     1      -5.125  -1.707  13.200  1.00  0.00     0.055 A 
ATOM     87  C   UNL     1      -3.505  -0.056  12.637  1.00  0.00     0.041 A 
ATOM     88  F   UNL     1      -3.247   1.888  13.839  1.00  0.00    -0.206 F 
ATOM     89  C   UNL     1      -4.112  -1.261  12.357  1.00  0.00     0.022 A 
BRANCH  86  90
ATOM     90  S   UNL     1      -5.713  -3.441  12.813  1.00  0.00     0.124 S 
ATOM     91  O   UNL     1      -5.304  -4.187  13.997  1.00  0.00    -0.237 OA
ATOM     92  O   UNL     1      -7.145  -3.276  12.606  1.00  0.00    -0.237 OA
ATOM     93  O   UNL     1      -4.970  -3.801  11.599  1.00  0.00    -0.744 OA
ENDBRANCH  86  90
ENDBRANCH  59  83
BRANCH  71  94
ATOM     94  C   UNL     1      -7.569   4.511  18.662  1.00  0.00     0.023 A 
ATOM     95  C   UNL     1      -6.289   4.274  19.245  1.00  0.00     0.031 A 
ATOM     96  C   UNL     1      -8.625   4.736  19.560  1.00  0.00     0.131 A 
ATOM     97  C   UNL     1      -6.161   4.134  20.657  1.00  0.00     0.055 A 
ATOM     98  C   UNL     1      -8.474   4.686  20.945  1.00  0.00     0.041 A 
ATOM     99  F   UNL     1      -9.839   5.072  19.097  1.00  0.00    -0.206 F 
ATOM    100  C   UNL     1      -7.250   4.350  21.502  1.00  0.00     0.022 A 
BRANCH  97 101
ATOM    101  S   UNL     1      -4.619   3.483  21.416  1.00  0.00     0.124 S 
ATOM    102  O   UNL     1      -4.368   2.280  20.631  1.00  0.00    -0.237 OA
ATOM    103  O   UNL     1      -3.668   4.574  21.225  1.00  0.00    -0.237 OA
ATOM    104  O   UNL     1      -4.995   3.238  22.810  1.00  0.00    -0.744 OA
ENDBRANCH  97 101
ENDBRANCH  71  94
ENDBRANCH  45  46
ENDBRANCH  37  40
ENDBRANCH  35  36
ENDBRANCH  34  35
ENDBRANCH  33  34
ENDBRANCH   1  33
TORSDOF 20
