REMARK SMILES O=C1NC(=O)/C(=C/c2ccc(OCc3cn(-c4ccc(C(=O)NCCCCCCNC(=O)c5ccc(-c6c7nc(c(-c8cc(S(=O)(=O)[O-])ccc8F)c8ccc([nH]8)c(-c8cc(S(=O)(=O)[O-])ccc8F)c8nc(c(-c9cc(S(=O)(=O)[O-])ccc9F)c9ccc6[nH]9)C=C8)C=C7)cc5)cc4)nn3)cc2)S1
REMARK SMILES IDX 25 1 24 2 23 3 21 4 22 5 20 7 17 8 18 9 97 10 19 11 96 12
REMARK SMILES IDX 16 13 14 14 15 15 99 16 98 17 13 18 12 19 11 20 8 21 9 22
REMARK SMILES IDX 101 23 10 24 100 25 7 26 1 27 2 28 3 29 102 30 4 31 6 33
REMARK SMILES IDX 5 34 26 35 27 36 28 37 29 38 30 39 31 40 32 42 33 43 34 44
REMARK SMILES IDX 95 45 35 46 94 47 36 48 37 49 38 50 88 51 39 52 93 53 87 54
REMARK SMILES IDX 89 55 40 56 92 57 86 58 85 59 41 61 73 62 53 63 72 64 54 65
REMARK SMILES IDX 57 66 71 67 90 68 55 69 56 70 70 72 91 73 58 74 42 75 43 76
REMARK SMILES IDX 51 77 44 78 50 79 52 80 49 81 45 82 46 83 47 84 48 85 74 86
REMARK SMILES IDX 75 87 83 88 76 89 82 90 84 91 81 92 77 93 78 94 79 95 80 96
REMARK SMILES IDX 59 97 60 98 68 99 61 100 67 101 69 102 66 103 62 104 63 105
REMARK SMILES IDX 64 106 65 107
REMARK H PARENT 23 6 3 32 30 41 89 60 57 71
REMARK Flexibility Score: inf
ROOT
ATOM      1  C   UNL     1      -8.109  10.037  -2.428  1.00  0.00     0.021 C 
ENDROOT
BRANCH   1   2
ATOM      2  C   UNL     1      -7.678  10.482  -1.030  1.00  0.00     0.116 C 
BRANCH   2   3
ATOM      3  N   UNL     1      -8.294   9.635  -0.031  1.00  0.00    -0.352 N 
ATOM      4  C   UNL     1      -7.829   8.595   0.727  1.00  0.00     0.251 C 
ATOM      5  O   UNL     1      -8.632   8.048   1.486  1.00  0.00    -0.269 OA
ATOM      6  H   UNL     1      -9.240   9.850   0.136  1.00  0.00     0.163 HD
BRANCH   4   7
ATOM      7  C   UNL     1      -6.400   8.173   0.752  1.00  0.00     0.039 A 
ATOM      8  C   UNL     1      -3.685   7.571   1.115  1.00  0.00     0.066 A 
ATOM      9  C   UNL     1      -4.621   7.181   2.080  1.00  0.00     0.029 A 
ATOM     10  C   UNL     1      -4.109   8.176  -0.068  1.00  0.00     0.029 A 
ATOM     11  C   UNL     1      -5.964   7.514   1.911  1.00  0.00     0.016 A 
ATOM     12  C   UNL     1      -5.474   8.403  -0.270  1.00  0.00     0.016 A 
BRANCH   8  13
ATOM     13  N   UNL     1      -2.317   7.331   1.347  1.00  0.00    -0.220 N 
ATOM     14  C   UNL     1      -0.137   7.373   1.404  1.00  0.00     0.120 A 
ATOM     15  C   UNL     1      -1.228   8.031   0.875  1.00  0.00     0.144 A 
ATOM     16  N   UNL     1      -0.589   6.357   2.204  1.00  0.00    -0.131 NA
ATOM     17  N   UNL     1      -1.909   6.362   2.191  1.00  0.00    -0.062 NA
BRANCH  14  18
ATOM     18  C   UNL     1       1.324   7.670   1.331  1.00  0.00     0.289 C 
BRANCH  18  19
ATOM     19  O   UNL     1       2.051   6.993   0.292  1.00  0.00    -0.487 OA
BRANCH  19  20
ATOM     20  C   UNL     1       2.173   5.631   0.355  1.00  0.00     0.119 A 
ATOM     21  C   UNL     1       2.209   2.829   0.118  1.00  0.00    -0.024 A 
ATOM     22  C   UNL     1       2.676   3.628  -0.927  1.00  0.00     0.012 A 
ATOM     23  C   UNL     1       1.820   3.436   1.314  1.00  0.00     0.012 A 
ATOM     24  C   UNL     1       2.650   5.023  -0.809  1.00  0.00     0.047 A 
ATOM     25  C   UNL     1       1.834   4.827   1.440  1.00  0.00     0.047 A 
BRANCH  21  26
ATOM     26  C   UNL     1       2.138   1.373  -0.026  1.00  0.00     0.029 C 
ATOM     27  O   UNL     1      -2.443  -0.713   0.197  1.00  0.00    -0.261 OA
ATOM     28  C   UNL     1      -1.257  -0.428   0.042  1.00  0.00     0.290 C 
ATOM     29  N   UNL     1      -0.247  -1.316  -0.091  1.00  0.00    -0.282 N 
ATOM     30  S   UNL     1      -0.624   1.202   0.049  1.00  0.00    -0.022 SA
ATOM     31  C   UNL     1       1.030  -0.836  -0.109  1.00  0.00     0.265 C 
ATOM     32  H   UNL     1      -0.427  -2.280  -0.172  1.00  0.00     0.174 HD
ATOM     33  C   UNL     1       1.009   0.649  -0.039  1.00  0.00     0.083 C 
ATOM     34  O   UNL     1       2.035  -1.526  -0.124  1.00  0.00    -0.268 OA
ENDBRANCH  21  26
ENDBRANCH  19  20
ENDBRANCH  18  19
ENDBRANCH  14  18
ENDBRANCH   8  13
ENDBRANCH   4   7
ENDBRANCH   2   3
ENDBRANCH   1   2
BRANCH   1  35
ATOM     35  C   UNL     1      -9.515  10.528  -2.796  1.00  0.00     0.002 C 
BRANCH  35  36
ATOM     36  C   UNL     1      -9.723  12.050  -2.694  1.00  0.00     0.002 C 
BRANCH  36  37
ATOM     37  C   UNL     1      -8.673  12.923  -3.402  1.00  0.00     0.021 C 
BRANCH  37  38
ATOM     38  C   UNL     1      -8.747  12.839  -4.917  1.00  0.00     0.116 C 
BRANCH  38  39
ATOM     39  N   UNL     1      -9.993  13.418  -5.433  1.00  0.00    -0.352 N 
ATOM     40  C   UNL     1     -10.491  13.431  -6.725  1.00  0.00     0.251 C 
ATOM     41  H   UNL     1     -10.559  13.864  -4.762  1.00  0.00     0.163 HD
ATOM     42  O   UNL     1     -11.310  14.278  -7.065  1.00  0.00    -0.269 OA
BRANCH  40  43
ATOM     43  C   UNL     1     -10.032  12.399  -7.670  1.00  0.00     0.039 A 
ATOM     44  C   UNL     1      -9.896  12.617  -9.045  1.00  0.00     0.014 A 
ATOM     45  C   UNL     1      -9.711  11.167  -7.121  1.00  0.00     0.014 A 
ATOM     46  C   UNL     1      -9.416  11.573  -9.838  1.00  0.00     0.010 A 
ATOM     47  C   UNL     1      -8.957  10.289  -7.832  1.00  0.00     0.010 A 
ATOM     48  C   UNL     1      -8.962  10.406  -9.208  1.00  0.00    -0.014 A 
BRANCH  48  49
ATOM     49  C   UNL     1      -8.391   9.269  -9.908  1.00  0.00     0.031 A 
ATOM     50  C   UNL     1      -7.084   9.574 -10.529  1.00  0.00     0.074 A 
ATOM     51  C   UNL     1      -8.829   8.007  -9.690  1.00  0.00     0.049 A 
ATOM     52  N   UNL     1      -6.850   9.806 -11.776  1.00  0.00    -0.248 NA
ATOM     53  C   UNL     1      -5.954   9.908  -9.643  1.00  0.00     0.031 C 
ATOM     54  C   UNL     1      -9.886   7.544  -8.780  1.00  0.00     0.029 A 
ATOM     55  N   UNL     1      -8.322   6.837 -10.153  1.00  0.00    -0.354 N 
ATOM     56  C   UNL     1      -5.477  10.000 -11.854  1.00  0.00     0.074 A 
ATOM     57  C   UNL     1      -5.070  10.372 -10.529  1.00  0.00     0.031 C 
ATOM     58  C   UNL     1      -9.770   6.209  -8.589  1.00  0.00     0.029 A 
ATOM     59  C   UNL     1      -8.727   5.696  -9.462  1.00  0.00     0.049 A 
ATOM     60  H   UNL     1      -7.710   6.796 -10.923  1.00  0.00     0.167 HD
ATOM     61  C   UNL     1      -4.760   9.512 -12.906  1.00  0.00     0.034 A 
ATOM     62  C   UNL     1      -8.190   4.446  -9.569  1.00  0.00     0.034 A 
ATOM     63  C   UNL     1      -5.654   9.061 -13.960  1.00  0.00     0.049 A 
ATOM     64  C   UNL     1      -7.462   4.421 -10.871  1.00  0.00     0.074 A 
ATOM     65  C   UNL     1      -6.692   9.652 -14.659  1.00  0.00     0.029 A 
ATOM     66  N   UNL     1      -5.843   7.700 -14.110  1.00  0.00    -0.354 N 
ATOM     67  N   UNL     1      -8.067   4.536 -12.026  1.00  0.00    -0.248 NA
ATOM     68  C   UNL     1      -6.062   4.832 -10.871  1.00  0.00     0.031 C 
ATOM     69  C   UNL     1      -7.711   8.654 -14.704  1.00  0.00     0.029 A 
ATOM     70  C   UNL     1      -7.198   7.474 -14.160  1.00  0.00     0.049 A 
ATOM     71  H   UNL     1      -5.136   7.018 -14.170  1.00  0.00     0.167 HD
ATOM     72  C   UNL     1      -7.288   5.421 -12.760  1.00  0.00     0.074 A 
ATOM     73  C   UNL     1      -6.025   5.510 -12.024  1.00  0.00     0.031 C 
ATOM     74  C   UNL     1      -7.835   6.249 -13.704  1.00  0.00     0.034 A 
BRANCH  61  75
ATOM     75  C   UNL     1      -3.315   9.058 -12.847  1.00  0.00     0.023 A 
ATOM     76  C   UNL     1      -2.770   8.555 -14.043  1.00  0.00     0.031 A 
ATOM     77  C   UNL     1      -2.539   8.833 -11.686  1.00  0.00     0.131 A 
ATOM     78  C   UNL     1      -1.611   7.762 -14.036  1.00  0.00     0.055 A 
ATOM     79  C   UNL     1      -1.347   8.102 -11.695  1.00  0.00     0.041 A 
ATOM     80  F   UNL     1      -2.910   9.225 -10.464  1.00  0.00    -0.206 F 
ATOM     81  C   UNL     1      -0.896   7.527 -12.868  1.00  0.00     0.022 A 
BRANCH  78  82
ATOM     82  S   UNL     1      -1.174   6.889 -15.558  1.00  0.00     0.124 S 
ATOM     83  O   UNL     1      -2.412   6.172 -15.845  1.00  0.00    -0.237 OA
ATOM     84  O   UNL     1      -0.846   7.995 -16.452  1.00  0.00    -0.237 OA
ATOM     85  O   UNL     1      -0.045   6.055 -15.155  1.00  0.00    -0.744 OA
ENDBRANCH  78  82
ENDBRANCH  61  75
BRANCH  62  86
ATOM     86  C   UNL     1      -7.979   3.450  -8.467  1.00  0.00     0.023 A 
ATOM     87  C   UNL     1      -7.712   2.076  -8.685  1.00  0.00     0.031 A 
ATOM     88  C   UNL     1      -7.814   3.908  -7.138  1.00  0.00     0.131 A 
ATOM     89  C   UNL     1      -7.317   1.238  -7.606  1.00  0.00     0.055 A 
ATOM     90  C   UNL     1      -7.428   3.079  -6.081  1.00  0.00     0.041 A 
ATOM     91  F   UNL     1      -7.940   5.209  -6.829  1.00  0.00    -0.206 F 
ATOM     92  C   UNL     1      -7.170   1.740  -6.312  1.00  0.00     0.022 A 
BRANCH  89  93
ATOM     93  S   UNL     1      -6.897  -0.520  -7.879  1.00  0.00     0.124 S 
ATOM     94  O   UNL     1      -8.194  -1.103  -8.204  1.00  0.00    -0.237 OA
ATOM     95  O   UNL     1      -5.926  -0.448  -8.964  1.00  0.00    -0.237 OA
ATOM     96  O   UNL     1      -6.341  -0.944  -6.593  1.00  0.00    -0.744 OA
ENDBRANCH  89  93
ENDBRANCH  62  86
BRANCH  74  97
ATOM     97  C   UNL     1      -9.264   6.015 -14.167  1.00  0.00     0.023 A 
ATOM     98  C   UNL     1     -10.402   5.941 -13.329  1.00  0.00     0.031 A 
ATOM     99  C   UNL     1      -9.487   6.011 -15.557  1.00  0.00     0.131 A 
ATOM    100  C   UNL     1     -11.693   5.862 -13.895  1.00  0.00     0.055 A 
ATOM    101  C   UNL     1     -10.764   5.959 -16.112  1.00  0.00     0.041 A 
ATOM    102  F   UNL     1      -8.454   6.100 -16.412  1.00  0.00    -0.206 F 
ATOM    103  C   UNL     1     -11.873   5.878 -15.282  1.00  0.00     0.022 A 
BRANCH 100 104
ATOM    104  S   UNL     1     -13.175   5.703 -12.844  1.00  0.00     0.124 S 
ATOM    105  O   UNL     1     -12.779   4.723 -11.839  1.00  0.00    -0.237 OA
ATOM    106  O   UNL     1     -13.368   7.069 -12.364  1.00  0.00    -0.237 OA
ATOM    107  O   UNL     1     -14.203   5.236 -13.777  1.00  0.00    -0.744 OA
ENDBRANCH 100 104
ENDBRANCH  74  97
ENDBRANCH  48  49
ENDBRANCH  40  43
ENDBRANCH  38  39
ENDBRANCH  37  38
ENDBRANCH  36  37
ENDBRANCH  35  36
ENDBRANCH   1  35
TORSDOF 21
