REMARK SMILES CCCc1cc(OC(F)(F)F)cc2c1O[C@@H](C(F)(F)F)C(C(=O)NCCCCCCNC(=O)c1ccc(-c3c4nc(c(-c5cc(S(=O)(=O)[O-])ccc5F)c5ccc([nH]5)c(-c5cc(S(=O)(=O)[O-])ccc5F)c5nc(c(-c6cc(S(=O)(=O)[O-])ccc6F)c6ccc3[nH]6)C=C5)C=C4)cc1)=C2
REMARK SMILES IDX 28 1 27 2 26 3 25 4 24 5 22 6 23 7 21 9 4 10 5 11 14 12 6 13
REMARK SMILES IDX 13 14 15 15 12 16 97 17 16 18 3 19 2 20 1 21 7 22 8 23 9 24
REMARK SMILES IDX 10 25 11 26 17 27 18 28 19 29 20 30 29 31 30 32 31 33 32 34
REMARK SMILES IDX 33 36 34 37 35 38 96 39 36 40 95 41 37 42 38 43 39 44 89 45
REMARK SMILES IDX 40 46 94 47 88 48 90 49 41 50 93 51 87 52 86 53 42 55 74 56
REMARK SMILES IDX 54 57 73 58 55 59 58 60 72 61 91 62 56 63 57 64 71 66 92 67
REMARK SMILES IDX 59 68 43 69 44 70 52 71 45 72 51 73 53 74 50 75 46 76 47 77
REMARK SMILES IDX 48 78 49 79 75 80 76 81 84 82 77 83 83 84 85 85 82 86 78 87
REMARK SMILES IDX 79 88 80 89 81 90 60 91 61 92 69 93 62 94 68 95 70 96 67 97
REMARK SMILES IDX 63 98 64 99 65 100 66 101
REMARK H PARENT 24 8 31 35 90 54 58 65
REMARK Flexibility Score: inf
ROOT
ATOM      1  C   UNL     1      -1.574  -1.467  11.818  1.00  0.00     0.002 C 
ENDROOT
BRANCH   1   2
ATOM      2  C   UNL     1      -2.562  -1.583  10.651  1.00  0.00     0.002 C 
BRANCH   2   3
ATOM      3  C   UNL     1      -1.998  -1.147   9.292  1.00  0.00     0.021 C 
BRANCH   3   4
ATOM      4  C   UNL     1      -0.851  -2.041   8.804  1.00  0.00     0.116 C 
BRANCH   4   5
ATOM      5  N   UNL     1      -1.402  -3.268   8.247  1.00  0.00    -0.352 N 
ATOM      6  C   UNL     1      -1.751  -3.634   6.985  1.00  0.00     0.251 C 
ATOM      7  O   UNL     1      -2.407  -4.662   6.841  1.00  0.00    -0.270 OA
ATOM      8  H   UNL     1      -1.552  -3.973   8.917  1.00  0.00     0.163 HD
BRANCH   6   9
ATOM      9  C   UNL     1      -1.280  -2.899   5.781  1.00  0.00     0.067 C 
ATOM     10  C   UNL     1       0.716  -1.118   2.536  1.00  0.00    -0.002 A 
ATOM     11  C   UNL     1       1.032   0.251   2.635  1.00  0.00     0.054 A 
ATOM     12  C   UNL     1      -0.037  -1.712   3.563  1.00  0.00     0.131 A 
ATOM     13  C   UNL     1       0.536   1.037   3.672  1.00  0.00     0.130 A 
ATOM     14  C   UNL     1      -0.510  -0.936   4.622  1.00  0.00     0.021 A 
ATOM     15  O   UNL     1      -0.209  -3.065   3.520  1.00  0.00    -0.475 OA
ATOM     16  C   UNL     1      -0.235   0.436   4.664  1.00  0.00     0.058 A 
ATOM     17  C   UNL     1      -1.174  -1.565   5.751  1.00  0.00     0.025 C 
ATOM     18  C   UNL     1      -1.046  -3.720   4.519  1.00  0.00     0.314 C 
BRANCH  10  19
ATOM     19  C   UNL     1       1.228  -1.901   1.345  1.00  0.00     0.039 C 
BRANCH  19  20
ATOM     20  C   UNL     1       0.548  -1.550   0.011  1.00  0.00     0.001 C 
ATOM     21  C   UNL     1       0.937  -0.195  -0.567  1.00  0.00     0.004 C 
ENDBRANCH  19  20
ENDBRANCH  10  19
BRANCH  13  22
ATOM     22  O   UNL     1       0.761   2.372   3.847  1.00  0.00    -0.406 OA
BRANCH  22  23
ATOM     23  C   UNL     1       1.226   3.104   2.723  1.00  0.00     0.573 C 
ATOM     24  F   UNL     1       2.495   2.760   2.413  1.00  0.00    -0.132 F 
ATOM     25  F   UNL     1       0.433   2.901   1.647  1.00  0.00    -0.132 F 
ATOM     26  F   UNL     1       1.204   4.420   3.019  1.00  0.00    -0.132 F 
ENDBRANCH  22  23
ENDBRANCH  13  22
BRANCH  18  27
ATOM     27  C   UNL     1      -0.500  -5.155   4.705  1.00  0.00     0.429 C 
ATOM     28  F   UNL     1      -1.469  -6.054   4.986  1.00  0.00    -0.167 F 
ATOM     29  F   UNL     1       0.078  -5.605   3.556  1.00  0.00    -0.167 F 
ATOM     30  F   UNL     1       0.445  -5.233   5.669  1.00  0.00    -0.167 F 
ENDBRANCH  18  27
ENDBRANCH   6   9
ENDBRANCH   4   5
ENDBRANCH   3   4
ENDBRANCH   2   3
ENDBRANCH   1   2
BRANCH   1  31
ATOM     31  C   UNL     1      -0.967  -0.075  12.009  1.00  0.00     0.021 C 
BRANCH  31  32
ATOM     32  C   UNL     1      -1.990   1.015  12.311  1.00  0.00     0.116 C 
BRANCH  32  33
ATOM     33  N   UNL     1      -2.641   0.791  13.591  1.00  0.00    -0.352 N 
ATOM     34  C   UNL     1      -2.686   1.610  14.693  1.00  0.00     0.251 C 
ATOM     35  H   UNL     1      -3.116  -0.067  13.681  1.00  0.00     0.163 HD
ATOM     36  O   UNL     1      -3.045   1.159  15.775  1.00  0.00    -0.269 OA
BRANCH  34  37
ATOM     37  C   UNL     1      -2.287   3.028  14.564  1.00  0.00     0.039 A 
ATOM     38  C   UNL     1      -1.481   3.601  15.550  1.00  0.00     0.014 A 
ATOM     39  C   UNL     1      -2.721   3.793  13.477  1.00  0.00     0.014 A 
ATOM     40  C   UNL     1      -1.069   4.930  15.419  1.00  0.00     0.010 A 
ATOM     41  C   UNL     1      -2.250   5.091  13.311  1.00  0.00     0.010 A 
ATOM     42  C   UNL     1      -1.427   5.677  14.286  1.00  0.00    -0.014 A 
BRANCH  42  43
ATOM     43  C   UNL     1      -0.974   7.082  14.110  1.00  0.00     0.031 A 
ATOM     44  C   UNL     1      -1.985   8.195  14.070  1.00  0.00     0.074 A 
ATOM     45  C   UNL     1       0.335   7.345  13.926  1.00  0.00     0.049 A 
ATOM     46  N   UNL     1      -1.807   9.470  13.835  1.00  0.00    -0.248 NA
ATOM     47  C   UNL     1      -3.389   7.817  14.294  1.00  0.00     0.031 C 
ATOM     48  C   UNL     1       1.404   6.344  13.914  1.00  0.00     0.029 A 
ATOM     49  N   UNL     1       0.989   8.531  13.704  1.00  0.00    -0.354 N 
ATOM     50  C   UNL     1      -3.074  10.043  13.869  1.00  0.00     0.074 A 
ATOM     51  C   UNL     1      -4.015   8.964  14.082  1.00  0.00     0.031 C 
ATOM     52  C   UNL     1       2.581   6.961  13.719  1.00  0.00     0.029 A 
ATOM     53  C   UNL     1       2.349   8.391  13.541  1.00  0.00     0.049 A 
ATOM     54  H   UNL     1       0.529   9.400  13.665  1.00  0.00     0.167 HD
ATOM     55  C   UNL     1      -3.417  11.350  13.756  1.00  0.00     0.034 A 
ATOM     56  C   UNL     1       3.297   9.308  13.264  1.00  0.00     0.034 A 
ATOM     57  C   UNL     1      -2.462  12.413  13.556  1.00  0.00     0.049 A 
ATOM     58  C   UNL     1       2.888  10.752  13.110  1.00  0.00     0.074 A 
ATOM     59  C   UNL     1      -2.692  13.775  13.477  1.00  0.00     0.029 A 
ATOM     60  N   UNL     1      -1.093  12.233  13.394  1.00  0.00    -0.354 N 
ATOM     61  N   UNL     1       1.689  11.284  13.188  1.00  0.00    -0.248 NA
ATOM     62  C   UNL     1       3.959  11.719  12.842  1.00  0.00     0.031 C 
ATOM     63  C   UNL     1      -1.478  14.410  13.195  1.00  0.00     0.029 A 
ATOM     64  C   UNL     1      -0.473  13.455  13.183  1.00  0.00     0.049 A 
ATOM     65  H   UNL     1      -0.631  11.364  13.425  1.00  0.00     0.167 HD
ATOM     66  C   UNL     1       1.871  12.654  13.014  1.00  0.00     0.074 A 
ATOM     67  C   UNL     1       3.293  12.864  12.840  1.00  0.00     0.031 C 
ATOM     68  C   UNL     1       0.947  13.649  13.004  1.00  0.00     0.034 A 
BRANCH  55  69
ATOM     69  C   UNL     1      -4.888  11.691  13.819  1.00  0.00     0.023 A 
ATOM     70  C   UNL     1      -5.661  11.426  14.964  1.00  0.00     0.031 A 
ATOM     71  C   UNL     1      -5.535  12.265  12.711  1.00  0.00     0.131 A 
ATOM     72  C   UNL     1      -7.044  11.657  14.946  1.00  0.00     0.055 A 
ATOM     73  C   UNL     1      -6.897  12.575  12.730  1.00  0.00     0.041 A 
ATOM     74  F   UNL     1      -4.858  12.521  11.580  1.00  0.00    -0.206 F 
ATOM     75  C   UNL     1      -7.664  12.255  13.847  1.00  0.00     0.022 A 
BRANCH  72  76
ATOM     76  S   UNL     1      -8.045  11.022  16.319  1.00  0.00     0.124 S 
ATOM     77  O   UNL     1      -7.743   9.594  16.267  1.00  0.00    -0.237 OA
ATOM     78  O   UNL     1      -7.508  11.748  17.464  1.00  0.00    -0.237 OA
ATOM     79  O   UNL     1      -9.412  11.377  15.940  1.00  0.00    -0.744 OA
ENDBRANCH  72  76
ENDBRANCH  55  69
BRANCH  56  80
ATOM     80  C   UNL     1       4.722   8.898  13.101  1.00  0.00     0.023 A 
ATOM     81  C   UNL     1       5.713   9.362  13.980  1.00  0.00     0.031 A 
ATOM     82  C   UNL     1       5.121   8.072  12.035  1.00  0.00     0.131 A 
ATOM     83  C   UNL     1       7.060   9.040  13.750  1.00  0.00     0.055 A 
ATOM     84  C   UNL     1       6.455   7.707  11.844  1.00  0.00     0.041 A 
ATOM     85  F   UNL     1       4.214   7.597  11.166  1.00  0.00    -0.206 F 
ATOM     86  C   UNL     1       7.436   8.204  12.696  1.00  0.00     0.022 A 
BRANCH  83  87
ATOM     87  S   UNL     1       8.327   9.808  14.796  1.00  0.00     0.124 S 
ATOM     88  O   UNL     1       8.070  11.227  14.578  1.00  0.00    -0.237 OA
ATOM     89  O   UNL     1       7.986   9.287  16.115  1.00  0.00    -0.237 OA
ATOM     90  O   UNL     1       9.580   9.306  14.235  1.00  0.00    -0.744 OA
ENDBRANCH  83  87
ENDBRANCH  56  80
BRANCH  68  91
ATOM     91  C   UNL     1       1.459  15.062  12.851  1.00  0.00     0.023 A 
ATOM     92  C   UNL     1       2.072  15.506  11.667  1.00  0.00     0.031 A 
ATOM     93  C   UNL     1       1.334  15.974  13.914  1.00  0.00     0.131 A 
ATOM     94  C   UNL     1       2.588  16.809  11.595  1.00  0.00     0.055 A 
ATOM     95  C   UNL     1       1.791  17.289  13.813  1.00  0.00     0.041 A 
ATOM     96  F   UNL     1       0.759  15.603  15.070  1.00  0.00    -0.206 F 
ATOM     97  C   UNL     1       2.435  17.709  12.653  1.00  0.00     0.022 A 
BRANCH  94  98
ATOM     98  S   UNL     1       3.550  17.285  10.133  1.00  0.00     0.124 S 
ATOM     99  O   UNL     1       4.624  16.297  10.141  1.00  0.00    -0.237 OA
ATOM    100  O   UNL     1       2.571  17.154   9.059  1.00  0.00    -0.237 OA
ATOM    101  O   UNL     1       3.967  18.655  10.427  1.00  0.00    -0.744 OA
ENDBRANCH  94  98
ENDBRANCH  68  91
ENDBRANCH  42  43
ENDBRANCH  34  37
ENDBRANCH  32  33
ENDBRANCH  31  32
ENDBRANCH   1  31
TORSDOF 21
