REMARK SMILES COc1ccc(-c2cnc(N)c(C(=O)NCCCCCCNC(=O)c3ccc(-c4c5nc(c(-c6cc(S(=O)(=O)[O-])ccc6F)c6ccc([nH]6)c(-c6cc(S(=O)(=O)[O-])ccc6F)c6nc(c(-c7cc(S(=O)(=O)[O-])ccc7F)c7ccc4[nH]7)C=C6)C=C5)cc3)c2)c(C)c1
REMARK SMILES IDX 19 1 18 2 17 3 16 4 15 5 13 6 14 7 12 9 7 10 8 11 88 12 9 13
REMARK SMILES IDX 10 14 6 15 3 16 4 17 91 18 5 19 89 20 90 21 2 22 1 23 11 24
REMARK SMILES IDX 20 27 21 28 22 29 23 30 24 32 25 33 26 34 87 35 27 36 86 37
REMARK SMILES IDX 28 38 29 39 30 40 80 41 31 42 85 43 79 44 81 45 32 46 84 47
REMARK SMILES IDX 78 48 77 49 33 51 65 52 45 53 64 54 46 55 49 56 63 57 82 58
REMARK SMILES IDX 47 59 48 60 62 62 83 63 50 64 34 65 35 66 43 67 36 68 42 69
REMARK SMILES IDX 44 70 41 71 37 72 38 73 39 74 40 75 66 76 67 77 75 78 68 79
REMARK SMILES IDX 74 80 76 81 73 82 69 83 70 84 71 85 72 86 51 87 52 88 60 89
REMARK SMILES IDX 53 90 59 91 61 92 58 93 54 94 55 95 56 96 57 97
REMARK H PARENT 15 8 11 25 11 26 22 31 81 50 49 61
REMARK Flexibility Score: inf
ROOT
ATOM      1  C   UNL     1       2.861  13.926  -0.622  1.00  0.00     0.002 C 
ENDROOT
BRANCH   1   2
ATOM      2  C   UNL     1       1.645  13.688  -1.528  1.00  0.00     0.002 C 
BRANCH   2   3
ATOM      3  C   UNL     1       1.711  12.559  -2.563  1.00  0.00     0.021 C 
BRANCH   3   4
ATOM      4  C   UNL     1       2.292  11.225  -2.105  1.00  0.00     0.116 C 
BRANCH   4   5
ATOM      5  N   UNL     1       1.712  10.677  -0.892  1.00  0.00    -0.352 N 
ATOM      6  C   UNL     1       1.771   9.397  -0.394  1.00  0.00     0.255 C 
ATOM      7  O   UNL     1       1.271   9.157   0.706  1.00  0.00    -0.269 OA
ATOM      8  H   UNL     1       1.201  11.317  -0.346  1.00  0.00     0.163 HD
BRANCH   6   9
ATOM      9  C   UNL     1       2.348   8.263  -1.159  1.00  0.00     0.082 A 
ATOM     10  C   UNL     1       2.114   5.912  -1.774  1.00  0.00     0.001 A 
ATOM     11  C   UNL     1       3.263   6.100  -2.539  1.00  0.00     0.122 A 
ATOM     12  C   UNL     1       1.640   7.045  -1.106  1.00  0.00     0.028 A 
ATOM     13  N   UNL     1       4.005   7.229  -2.556  1.00  0.00    -0.238 NA
ATOM     14  C   UNL     1       3.582   8.269  -1.809  1.00  0.00     0.136 A 
BRANCH  10  15
ATOM     15  C   UNL     1       1.551   4.562  -1.590  1.00  0.00    -0.014 A 
ATOM     16  C   UNL     1       0.695   1.896  -1.124  1.00  0.00     0.119 A 
ATOM     17  C   UNL     1       2.021   2.242  -0.910  1.00  0.00     0.047 A 
ATOM     18  C   UNL     1      -0.194   2.865  -1.593  1.00  0.00     0.050 A 
ATOM     19  C   UNL     1       2.434   3.556  -1.131  1.00  0.00     0.013 A 
ATOM     20  C   UNL     1       0.211   4.198  -1.829  1.00  0.00    -0.040 A 
ATOM     21  C   UNL     1      -0.846   5.162  -2.298  1.00  0.00     0.045 C 
BRANCH  16  22
ATOM     22  O   UNL     1       0.177   0.643  -0.940  1.00  0.00    -0.497 OA
ATOM     23  C   UNL     1       0.805  -0.122   0.084  1.00  0.00     0.278 C 
ENDBRANCH  16  22
ENDBRANCH  10  15
BRANCH  14  24
ATOM     24  N   UNL     1       4.504   9.288  -1.740  1.00  0.00    -0.383 N 
ATOM     25  H   UNL     1       5.355   9.216  -2.231  1.00  0.00     0.158 HD
ATOM     26  H   UNL     1       4.313  10.090  -1.202  1.00  0.00     0.158 HD
ENDBRANCH  14  24
ENDBRANCH   6   9
ENDBRANCH   4   5
ENDBRANCH   3   4
ENDBRANCH   2   3
ENDBRANCH   1   2
BRANCH   1  27
ATOM     27  C   UNL     1       4.205  14.153  -1.306  1.00  0.00     0.021 C 
BRANCH  27  28
ATOM     28  C   UNL     1       4.257  15.304  -2.303  1.00  0.00     0.116 C 
BRANCH  28  29
ATOM     29  N   UNL     1       4.743  16.568  -1.760  1.00  0.00    -0.352 N 
ATOM     30  C   UNL     1       5.057  17.731  -2.452  1.00  0.00     0.251 C 
ATOM     31  H   UNL     1       4.864  16.600  -0.784  1.00  0.00     0.163 HD
ATOM     32  O   UNL     1       5.464  18.732  -1.891  1.00  0.00    -0.269 OA
BRANCH  30  33
ATOM     33  C   UNL     1       4.759  17.770  -3.907  1.00  0.00     0.039 A 
ATOM     34  C   UNL     1       3.817  18.707  -4.340  1.00  0.00     0.014 A 
ATOM     35  C   UNL     1       5.178  16.743  -4.749  1.00  0.00     0.014 A 
ATOM     36  C   UNL     1       3.110  18.462  -5.515  1.00  0.00     0.010 A 
ATOM     37  C   UNL     1       4.417  16.450  -5.867  1.00  0.00     0.010 A 
ATOM     38  C   UNL     1       3.333  17.265  -6.203  1.00  0.00    -0.014 A 
BRANCH  38  39
ATOM     39  C   UNL     1       2.360  16.733  -7.155  1.00  0.00     0.031 A 
ATOM     40  C   UNL     1       2.601  16.820  -8.614  1.00  0.00     0.074 A 
ATOM     41  C   UNL     1       1.192  16.206  -6.715  1.00  0.00     0.049 A 
ATOM     42  N   UNL     1       1.670  17.029  -9.486  1.00  0.00    -0.248 NA
ATOM     43  C   UNL     1       3.929  16.700  -9.208  1.00  0.00     0.031 C 
ATOM     44  C   UNL     1       0.173  15.545  -7.533  1.00  0.00     0.029 A 
ATOM     45  N   UNL     1       0.576  16.281  -5.470  1.00  0.00    -0.354 N 
ATOM     46  C   UNL     1       2.206  16.804 -10.732  1.00  0.00     0.074 A 
ATOM     47  C   UNL     1       3.630  16.673 -10.512  1.00  0.00     0.031 C 
ATOM     48  C   UNL     1      -1.001  15.604  -6.883  1.00  0.00     0.029 A 
ATOM     49  C   UNL     1      -0.795  16.422  -5.702  1.00  0.00     0.049 A 
ATOM     50  H   UNL     1       1.020  16.242  -4.592  1.00  0.00     0.167 HD
ATOM     51  C   UNL     1       1.391  16.607 -11.808  1.00  0.00     0.034 A 
ATOM     52  C   UNL     1      -1.552  17.506  -5.359  1.00  0.00     0.034 A 
ATOM     53  C   UNL     1      -0.021  16.627 -11.438  1.00  0.00     0.049 A 
ATOM     54  C   UNL     1      -2.311  18.110  -6.532  1.00  0.00     0.074 A 
ATOM     55  C   UNL     1      -0.931  15.613 -11.191  1.00  0.00     0.029 A 
ATOM     56  N   UNL     1      -0.618  17.806 -11.013  1.00  0.00    -0.354 N 
ATOM     57  N   UNL     1      -2.035  17.869  -7.784  1.00  0.00    -0.248 NA
ATOM     58  C   UNL     1      -3.401  19.070  -6.383  1.00  0.00     0.031 C 
ATOM     59  C   UNL     1      -2.070  16.185 -10.573  1.00  0.00     0.029 A 
ATOM     60  C   UNL     1      -1.863  17.549 -10.469  1.00  0.00     0.049 A 
ATOM     61  H   UNL     1      -0.212  18.700 -11.088  1.00  0.00     0.167 HD
ATOM     62  C   UNL     1      -2.838  18.635  -8.595  1.00  0.00     0.074 A 
ATOM     63  C   UNL     1      -3.701  19.343  -7.666  1.00  0.00     0.031 C 
ATOM     64  C   UNL     1      -2.696  18.630  -9.957  1.00  0.00     0.034 A 
BRANCH  51  65
ATOM     65  C   UNL     1       1.886  16.077 -13.133  1.00  0.00     0.023 A 
ATOM     66  C   UNL     1       1.073  15.202 -13.883  1.00  0.00     0.031 A 
ATOM     67  C   UNL     1       3.142  16.373 -13.694  1.00  0.00     0.131 A 
ATOM     68  C   UNL     1       1.547  14.580 -15.052  1.00  0.00     0.055 A 
ATOM     69  C   UNL     1       3.638  15.714 -14.828  1.00  0.00     0.041 A 
ATOM     70  F   UNL     1       3.925  17.335 -13.182  1.00  0.00    -0.206 F 
ATOM     71  C   UNL     1       2.845  14.797 -15.504  1.00  0.00     0.022 A 
BRANCH  68  72
ATOM     72  S   UNL     1       0.438  13.477 -15.972  1.00  0.00     0.124 S 
ATOM     73  O   UNL     1       0.076  12.487 -14.963  1.00  0.00    -0.237 OA
ATOM     74  O   UNL     1      -0.621  14.387 -16.394  1.00  0.00    -0.237 OA
ATOM     75  O   UNL     1       1.284  12.972 -17.053  1.00  0.00    -0.744 OA
ENDBRANCH  68  72
ENDBRANCH  51  65
BRANCH  52  76
ATOM     76  C   UNL     1      -1.046  18.298  -4.207  1.00  0.00     0.023 A 
ATOM     77  C   UNL     1      -0.989  17.682  -2.942  1.00  0.00     0.031 A 
ATOM     78  C   UNL     1      -0.335  19.493  -4.394  1.00  0.00     0.131 A 
ATOM     79  C   UNL     1      -0.137  18.189  -1.952  1.00  0.00     0.055 A 
ATOM     80  C   UNL     1       0.490  20.013  -3.391  1.00  0.00     0.041 A 
ATOM     81  F   UNL     1      -0.333  20.109  -5.584  1.00  0.00    -0.206 F 
ATOM     82  C   UNL     1       0.622  19.340  -2.178  1.00  0.00     0.022 A 
BRANCH  79  83
ATOM     83  S   UNL     1       0.152  17.254  -0.422  1.00  0.00     0.124 S 
ATOM     84  O   UNL     1      -0.458  18.115   0.584  1.00  0.00    -0.237 OA
ATOM     85  O   UNL     1      -0.531  15.987  -0.662  1.00  0.00    -0.237 OA
ATOM     86  O   UNL     1       1.610  17.168  -0.384  1.00  0.00    -0.744 OA
ENDBRANCH  79  83
ENDBRANCH  52  76
BRANCH  64  87
ATOM     87  C   UNL     1      -3.378  19.563 -10.945  1.00  0.00     0.023 A 
ATOM     88  C   UNL     1      -4.054  20.735 -10.575  1.00  0.00     0.031 A 
ATOM     89  C   UNL     1      -3.309  19.323 -12.342  1.00  0.00     0.131 A 
ATOM     90  C   UNL     1      -4.687  21.552 -11.532  1.00  0.00     0.055 A 
ATOM     91  C   UNL     1      -3.872  20.177 -13.298  1.00  0.00     0.041 A 
ATOM     92  F   UNL     1      -2.682  18.251 -12.847  1.00  0.00    -0.206 F 
ATOM     93  C   UNL     1      -4.583  21.294 -12.895  1.00  0.00     0.022 A 
BRANCH  90  94
ATOM     94  S   UNL     1      -5.706  22.932 -10.944  1.00  0.00     0.124 S 
ATOM     95  O   UNL     1      -6.739  22.237 -10.181  1.00  0.00    -0.237 OA
ATOM     96  O   UNL     1      -4.754  23.711 -10.159  1.00  0.00    -0.237 OA
ATOM     97  O   UNL     1      -6.168  23.570 -12.175  1.00  0.00    -0.744 OA
ENDBRANCH  90  94
ENDBRANCH  64  87
ENDBRANCH  38  39
ENDBRANCH  30  33
ENDBRANCH  28  29
ENDBRANCH  27  28
ENDBRANCH   1  27
TORSDOF 19
