REMARK SMILES CCN1C(=O)[C@H](CC(=O)Nc2ccc(C(=O)NCCCCCCNC(=O)c3ccc(-c4c5nc(c(-c6cc(S(=O)(=O)[O-])ccc6F)c6ccc([nH]6)c(-c6cc(S(=O)(=O)[O-])ccc6F)c6nc(c(-c7cc(S(=O)(=O)[O-])ccc7F)c7ccc4[nH]7)C=C6)C=C5)cc3)cc2)S/C1=[NH+]\c1ccc(Cl)cc1
REMARK SMILES IDX 20 1 19 2 18 3 17 4 15 5 16 6 14 8 11 9 12 10 91 11 13 12
REMARK SMILES IDX 90 13 10 14 8 15 9 16 7 18 6 19 3 20 4 21 93 22 5 23 92 24
REMARK SMILES IDX 94 25 2 27 1 28 95 29 96 30 101 31 97 32 100 33 98 34 99 35
REMARK SMILES IDX 21 36 22 37 23 38 24 39 25 40 26 42 27 43 28 44 89 45 29 46
REMARK SMILES IDX 88 47 30 48 31 49 32 50 82 51 33 52 87 53 81 54 83 55 34 56
REMARK SMILES IDX 86 57 80 58 79 59 35 61 67 62 47 63 66 64 48 65 51 66 65 67
REMARK SMILES IDX 84 68 49 69 50 70 64 72 85 73 52 74 36 75 37 76 45 77 38 78
REMARK SMILES IDX 44 79 46 80 43 81 39 82 40 83 41 84 42 85 68 86 69 87 77 88
REMARK SMILES IDX 70 89 76 90 78 91 75 92 71 93 72 94 73 95 74 96 53 97 54 98
REMARK SMILES IDX 62 99 55 100 61 101 63 102 60 103 56 104 57 105 58 106
REMARK SMILES IDX 59 107
REMARK H PARENT 17 7 10 17 94 26 24 41 83 60 51 71
REMARK Flexibility Score: inf
ROOT
ATOM      1  C   UNL     1       0.208   2.624  -2.003  1.00  0.00     0.002 C 
ENDROOT
BRANCH   1   2
ATOM      2  C   UNL     1       0.278   1.142  -1.626  1.00  0.00     0.021 C 
BRANCH   2   3
ATOM      3  C   UNL     1      -0.656   0.708  -0.496  1.00  0.00     0.116 C 
BRANCH   3   4
ATOM      4  N   UNL     1      -1.987   0.326  -0.952  1.00  0.00    -0.352 N 
ATOM      5  C   UNL     1      -2.769  -0.765  -0.634  1.00  0.00     0.251 C 
ATOM      6  O   UNL     1      -3.837  -0.926  -1.223  1.00  0.00    -0.269 OA
ATOM      7  H   UNL     1      -2.396   0.951  -1.594  1.00  0.00     0.163 HD
BRANCH   5   8
ATOM      8  C   UNL     1      -2.344  -1.780   0.370  1.00  0.00     0.039 A 
ATOM      9  C   UNL     1      -1.370  -3.790   2.118  1.00  0.00     0.041 A 
ATOM     10  C   UNL     1      -2.204  -4.114   1.037  1.00  0.00     0.027 A 
ATOM     11  C   UNL     1      -1.146  -2.442   2.375  1.00  0.00     0.027 A 
ATOM     12  C   UNL     1      -2.686  -3.121   0.169  1.00  0.00     0.016 A 
ATOM     13  C   UNL     1      -1.643  -1.446   1.524  1.00  0.00     0.016 A 
BRANCH   9  14
ATOM     14  N   UNL     1      -0.802  -4.868   2.824  1.00  0.00    -0.326 N 
ATOM     15  C   UNL     1       0.095  -5.005   3.841  1.00  0.00     0.226 C 
ATOM     16  O   UNL     1       0.424  -6.155   4.154  1.00  0.00    -0.275 OA
ATOM     17  H   UNL     1      -1.135  -5.737   2.503  1.00  0.00     0.169 HD
BRANCH  15  18
ATOM     18  C   UNL     1       0.675  -3.843   4.613  1.00  0.00     0.128 C 
BRANCH  18  19
ATOM     19  C   UNL     1       1.997  -3.301   4.067  1.00  0.00     0.183 C 
ATOM     20  N   UNL     1       2.201  -2.088   1.995  1.00  0.00    -0.190 N 
ATOM     21  C   UNL     1       2.157  -3.347   2.562  1.00  0.00     0.324 C 
ATOM     22  C   UNL     1       2.184  -1.015   2.849  1.00  0.00     0.319 C 
ATOM     23  O   UNL     1       2.221  -4.401   1.933  1.00  0.00    -0.245 OA
ATOM     24  S   UNL     1       2.213  -1.545   4.511  1.00  0.00    -0.022 SA
ATOM     25  N   UNL     1       2.148   0.198   2.412  1.00  0.00    -0.235 N 
ATOM     26  H   UNL     1       1.950   0.352   1.460  1.00  0.00     0.313 HD
BRANCH  20  27
ATOM     27  C   UNL     1       2.232  -1.958   0.539  1.00  0.00     0.243 C 
ATOM     28  C   UNL     1       3.322  -1.052  -0.019  1.00  0.00     0.054 C 
ENDBRANCH  20  27
BRANCH  25  29
ATOM     29  C   UNL     1       2.379   1.307   3.237  1.00  0.00     0.125 A 
ATOM     30  C   UNL     1       1.404   2.298   3.381  1.00  0.00     0.053 A 
ATOM     31  C   UNL     1       3.660   1.541   3.757  1.00  0.00     0.053 A 
ATOM     32  C   UNL     1       1.701   3.495   4.044  1.00  0.00     0.025 A 
ATOM     33  C   UNL     1       3.961   2.730   4.426  1.00  0.00     0.025 A 
ATOM     34  C   UNL     1       2.979   3.706   4.561  1.00  0.00     0.041 A 
ATOM     35  Cl  UNL     1       3.353   5.194   5.338  1.00  0.00    -0.084 Cl
ENDBRANCH  25  29
ENDBRANCH  18  19
ENDBRANCH  15  18
ENDBRANCH   9  14
ENDBRANCH   5   8
ENDBRANCH   3   4
ENDBRANCH   2   3
ENDBRANCH   1   2
BRANCH   1  36
ATOM     36  C   UNL     1       0.622   3.619  -0.909  1.00  0.00     0.002 C 
BRANCH  36  37
ATOM     37  C   UNL     1       2.007   3.422  -0.282  1.00  0.00     0.021 C 
BRANCH  37  38
ATOM     38  C   UNL     1       3.197   3.426  -1.243  1.00  0.00     0.116 C 
BRANCH  38  39
ATOM     39  N   UNL     1       3.292   4.654  -2.014  1.00  0.00    -0.352 N 
ATOM     40  C   UNL     1       4.279   5.605  -2.080  1.00  0.00     0.251 C 
ATOM     41  H   UNL     1       2.513   4.835  -2.589  1.00  0.00     0.163 HD
ATOM     42  O   UNL     1       4.045   6.656  -2.679  1.00  0.00    -0.269 OA
BRANCH  40  43
ATOM     43  C   UNL     1       5.602   5.408  -1.439  1.00  0.00     0.039 A 
ATOM     44  C   UNL     1       6.209   6.503  -0.812  1.00  0.00     0.014 A 
ATOM     45  C   UNL     1       6.285   4.191  -1.506  1.00  0.00     0.014 A 
ATOM     46  C   UNL     1       7.462   6.364  -0.205  1.00  0.00     0.010 A 
ATOM     47  C   UNL     1       7.511   4.037  -0.850  1.00  0.00     0.010 A 
ATOM     48  C   UNL     1       8.112   5.120  -0.190  1.00  0.00    -0.014 A 
BRANCH  48  49
ATOM     49  C   UNL     1       9.413   4.940   0.514  1.00  0.00     0.031 A 
ATOM     50  C   UNL     1      10.662   4.604  -0.258  1.00  0.00     0.074 A 
ATOM     51  C   UNL     1       9.460   5.029   1.859  1.00  0.00     0.049 A 
ATOM     52  N   UNL     1      11.864   4.336   0.185  1.00  0.00    -0.248 NA
ATOM     53  C   UNL     1      10.533   4.540  -1.721  1.00  0.00     0.031 C 
ATOM     54  C   UNL     1       8.317   5.325   2.726  1.00  0.00     0.029 A 
ATOM     55  N   UNL     1      10.506   4.870   2.736  1.00  0.00    -0.354 N 
ATOM     56  C   UNL     1      12.634   4.059  -0.941  1.00  0.00     0.074 A 
ATOM     57  C   UNL     1      11.745   4.142  -2.082  1.00  0.00     0.031 C 
ATOM     58  C   UNL     1       8.728   5.346   4.004  1.00  0.00     0.029 A 
ATOM     59  C   UNL     1      10.149   5.018   4.057  1.00  0.00     0.049 A 
ATOM     60  H   UNL     1      11.425   4.670   2.446  1.00  0.00     0.167 HD
ATOM     61  C   UNL     1      13.960   3.780  -1.018  1.00  0.00     0.034 A 
ATOM     62  C   UNL     1      10.878   4.888   5.184  1.00  0.00     0.034 A 
ATOM     63  C   UNL     1      14.839   3.711   0.126  1.00  0.00     0.049 A 
ATOM     64  C   UNL     1      12.343   4.548   5.074  1.00  0.00     0.074 A 
ATOM     65  C   UNL     1      16.204   3.482   0.153  1.00  0.00     0.029 A 
ATOM     66  N   UNL     1      14.440   3.862   1.448  1.00  0.00    -0.354 N 
ATOM     67  N   UNL     1      13.062   4.327   3.998  1.00  0.00    -0.248 NA
ATOM     68  C   UNL     1      13.097   4.449   6.331  1.00  0.00     0.031 C 
ATOM     69  C   UNL     1      16.617   3.428   1.489  1.00  0.00     0.029 A 
ATOM     70  C   UNL     1      15.526   3.700   2.297  1.00  0.00     0.049 A 
ATOM     71  H   UNL     1      13.520   4.056   1.741  1.00  0.00     0.167 HD
ATOM     72  C   UNL     1      14.360   4.097   4.449  1.00  0.00     0.074 A 
ATOM     73  C   UNL     1      14.325   4.220   5.892  1.00  0.00     0.031 C 
ATOM     74  C   UNL     1      15.479   3.815   3.736  1.00  0.00     0.034 A 
BRANCH  61  75
ATOM     75  C   UNL     1      14.535   3.500  -2.388  1.00  0.00     0.023 A 
ATOM     76  C   UNL     1      14.550   4.479  -3.398  1.00  0.00     0.031 A 
ATOM     77  C   UNL     1      15.063   2.233  -2.695  1.00  0.00     0.131 A 
ATOM     78  C   UNL     1      15.013   4.155  -4.682  1.00  0.00     0.055 A 
ATOM     79  C   UNL     1      15.597   1.941  -3.952  1.00  0.00     0.041 A 
ATOM     80  F   UNL     1      15.060   1.252  -1.779  1.00  0.00    -0.206 F 
ATOM     81  C   UNL     1      15.560   2.900  -4.960  1.00  0.00     0.022 A 
BRANCH  78  82
ATOM     82  S   UNL     1      14.762   5.350  -6.023  1.00  0.00     0.124 S 
ATOM     83  O   UNL     1      13.308   5.500  -6.014  1.00  0.00    -0.237 OA
ATOM     84  O   UNL     1      15.525   6.506  -5.561  1.00  0.00    -0.237 OA
ATOM     85  O   UNL     1      15.304   4.672  -7.195  1.00  0.00    -0.744 OA
ENDBRANCH  78  82
ENDBRANCH  61  75
BRANCH  62  86
ATOM     86  C   UNL     1      10.239   5.064   6.521  1.00  0.00     0.023 A 
ATOM     87  C   UNL     1      10.633   6.104   7.378  1.00  0.00     0.031 A 
ATOM     88  C   UNL     1       9.261   4.164   6.982  1.00  0.00     0.131 A 
ATOM     89  C   UNL     1      10.091   6.188   8.671  1.00  0.00     0.055 A 
ATOM     90  C   UNL     1       8.685   4.286   8.247  1.00  0.00     0.041 A 
ATOM     91  F   UNL     1       8.845   3.155   6.201  1.00  0.00    -0.206 F 
ATOM     92  C   UNL     1       9.111   5.294   9.106  1.00  0.00     0.022 A 
BRANCH  89  93
ATOM     93  S   UNL     1      10.759   7.430   9.812  1.00  0.00     0.124 S 
ATOM     94  O   UNL     1      12.176   7.082   9.832  1.00  0.00    -0.237 OA
ATOM     95  O   UNL     1      10.414   8.677   9.137  1.00  0.00    -0.237 OA
ATOM     96  O   UNL     1      10.035   7.174  11.055  1.00  0.00    -0.744 OA
ENDBRANCH  89  93
ENDBRANCH  62  86
BRANCH  74  97
ATOM     97  C   UNL     1      16.767   3.667   4.509  1.00  0.00     0.023 A 
ATOM     98  C   UNL     1      16.978   2.602   5.403  1.00  0.00     0.031 A 
ATOM     99  C   UNL     1      17.793   4.617   4.360  1.00  0.00     0.131 A 
ATOM    100  C   UNL     1      18.161   2.544   6.155  1.00  0.00     0.055 A 
ATOM    101  C   UNL     1      18.993   4.522   5.067  1.00  0.00     0.041 A 
ATOM    102  F   UNL     1      17.646   5.656   3.522  1.00  0.00    -0.206 F 
ATOM    103  C   UNL     1      19.177   3.488   5.981  1.00  0.00     0.022 A 
BRANCH 100 104
ATOM    104  S   UNL     1      18.320   1.267   7.434  1.00  0.00     0.124 S 
ATOM    105  O   UNL     1      17.174   1.552   8.292  1.00  0.00    -0.237 OA
ATOM    106  O   UNL     1      18.243   0.035   6.656  1.00  0.00    -0.237 OA
ATOM    107  O   UNL     1      19.626   1.540   8.032  1.00  0.00    -0.744 OA
ENDBRANCH 100 104
ENDBRANCH  74  97
ENDBRANCH  48  49
ENDBRANCH  40  43
ENDBRANCH  38  39
ENDBRANCH  37  38
ENDBRANCH  36  37
ENDBRANCH   1  36
TORSDOF 21
