REMARK SMILES C[C@H]1[NH2+]CC[C@H]1C(=O)N1CCC(C(=O)NCCCCCCNC(=O)c2ccc(-c3c4nc(c(-c5cc(S(=O)(=O)[O-])ccc5F)c5ccc([nH]5)c(-c5cc(S(=O)(=O)[O-])ccc5F)c5nc(c(-c6cc(S(=O)(=O)[O-])ccc6F)c6ccc3[nH]6)C=C5)C=C4)cc2)CC1
REMARK SMILES IDX 19 1 18 2 17 3 16 4 15 5 13 6 14 7 12 9 7 10 8 11 9 12 10 13
REMARK SMILES IDX 89 14 11 15 88 16 6 17 1 18 2 19 3 20 4 21 5 24 20 25 21 26
REMARK SMILES IDX 22 27 23 28 24 30 25 31 26 32 87 33 27 34 86 35 28 36 29 37
REMARK SMILES IDX 30 38 80 39 31 40 85 41 79 42 81 43 32 44 84 45 78 46 77 47
REMARK SMILES IDX 33 49 65 50 45 51 64 52 46 53 49 54 63 55 82 56 47 57 48 58
REMARK SMILES IDX 62 60 83 61 50 62 34 63 35 64 43 65 36 66 42 67 44 68 41 69
REMARK SMILES IDX 37 70 38 71 39 72 40 73 66 74 67 75 75 76 68 77 74 78 76 79
REMARK SMILES IDX 73 80 69 81 70 82 71 83 72 84 51 85 52 86 60 87 53 88 59 89
REMARK SMILES IDX 61 90 58 91 54 92 55 93 56 94 57 95
REMARK H PARENT 15 8 3 22 3 23 22 29 81 48 49 59
REMARK Flexibility Score: inf
ROOT
ATOM      1  C   UNL     1       6.339   6.853  -1.532  1.00  0.00     0.002 C 
ENDROOT
BRANCH   1   2
ATOM      2  C   UNL     1       5.374   7.423  -0.486  1.00  0.00     0.002 C 
BRANCH   2   3
ATOM      3  C   UNL     1       4.155   6.540  -0.197  1.00  0.00     0.021 C 
BRANCH   3   4
ATOM      4  C   UNL     1       4.526   5.136   0.276  1.00  0.00     0.116 C 
BRANCH   4   5
ATOM      5  N   UNL     1       5.109   5.190   1.607  1.00  0.00    -0.356 N 
ATOM      6  C   UNL     1       4.638   4.744   2.802  1.00  0.00     0.223 C 
ATOM      7  O   UNL     1       5.284   5.014   3.818  1.00  0.00    -0.275 OA
ATOM      8  H   UNL     1       5.992   5.622   1.651  1.00  0.00     0.163 HD
BRANCH   6   9
ATOM      9  C   UNL     1       3.399   3.868   2.890  1.00  0.00     0.082 C 
ATOM     10  C   UNL     1       1.072   2.261   0.153  1.00  0.00     0.231 C 
ATOM     11  O   UNL     1       1.450   3.128  -0.636  1.00  0.00    -0.274 OA
ATOM     12  N   UNL     1       1.336   2.376   1.512  1.00  0.00    -0.342 N 
ATOM     13  C   UNL     1       0.949   3.595   2.210  1.00  0.00     0.120 C 
ATOM     14  C   UNL     1       2.444   1.665   2.112  1.00  0.00     0.120 C 
ATOM     15  C   UNL     1       2.108   4.564   2.439  1.00  0.00     0.035 C 
ATOM     16  C   UNL     1       3.684   2.532   2.203  1.00  0.00     0.035 C 
BRANCH  10  17
ATOM     17  C   UNL     1       0.138   1.125  -0.294  1.00  0.00     0.142 C 
ATOM     18  C   UNL     1       1.791  -0.896   0.104  1.00  0.00     0.076 C 
ATOM     19  C   UNL     1       0.651  -0.267  -0.681  1.00  0.00     0.192 C 
ATOM     20  N   UNL     1      -0.528  -1.154  -0.564  1.00  0.00    -0.343 N 
ATOM     21  C   UNL     1      -1.564  -0.482   0.214  1.00  0.00     0.261 C 
ATOM     22  H   UNL     1      -0.258  -2.019  -0.097  1.00  0.00     0.346 HD
ATOM     23  H   UNL     1      -0.886  -1.369  -1.495  1.00  0.00     0.346 HD
ATOM     24  C   UNL     1      -0.999   0.846   0.676  1.00  0.00     0.081 C 
ENDBRANCH  10  17
ENDBRANCH   6   9
ENDBRANCH   4   5
ENDBRANCH   3   4
ENDBRANCH   2   3
ENDBRANCH   1   2
BRANCH   1  25
ATOM     25  C   UNL     1       5.689   6.487  -2.868  1.00  0.00     0.021 C 
BRANCH  25  26
ATOM     26  C   UNL     1       4.952   7.639  -3.542  1.00  0.00     0.116 C 
BRANCH  26  27
ATOM     27  N   UNL     1       5.849   8.740  -3.858  1.00  0.00    -0.352 N 
ATOM     28  C   UNL     1       6.066   9.354  -5.065  1.00  0.00     0.251 C 
ATOM     29  H   UNL     1       6.372   9.093  -3.102  1.00  0.00     0.163 HD
ATOM     30  O   UNL     1       7.021  10.114  -5.205  1.00  0.00    -0.269 OA
BRANCH  28  31
ATOM     31  C   UNL     1       5.157   9.073  -6.194  1.00  0.00     0.039 A 
ATOM     32  C   UNL     1       5.697   8.798  -7.452  1.00  0.00     0.014 A 
ATOM     33  C   UNL     1       3.772   9.062  -6.003  1.00  0.00     0.014 A 
ATOM     34  C   UNL     1       4.849   8.452  -8.505  1.00  0.00     0.010 A 
ATOM     35  C   UNL     1       2.936   8.642  -7.032  1.00  0.00     0.010 A 
ATOM     36  C   UNL     1       3.465   8.336  -8.295  1.00  0.00    -0.014 A 
BRANCH  36  37
ATOM     37  C   UNL     1       2.550   7.902  -9.383  1.00  0.00     0.031 A 
ATOM     38  C   UNL     1       1.480   8.836  -9.880  1.00  0.00     0.074 A 
ATOM     39  C   UNL     1       2.641   6.651  -9.875  1.00  0.00     0.049 A 
ATOM     40  N   UNL     1       0.527   8.617 -10.748  1.00  0.00    -0.248 NA
ATOM     41  C   UNL     1       1.465  10.188  -9.299  1.00  0.00     0.031 C 
ATOM     42  C   UNL     1       3.619   5.646  -9.451  1.00  0.00     0.029 A 
ATOM     43  N   UNL     1       1.896   6.004 -10.830  1.00  0.00    -0.354 N 
ATOM     44  C   UNL     1      -0.210   9.795 -10.807  1.00  0.00     0.074 A 
ATOM     45  C   UNL     1       0.372  10.702  -9.842  1.00  0.00     0.031 C 
ATOM     46  C   UNL     1       3.427   4.520 -10.157  1.00  0.00     0.029 A 
ATOM     47  C   UNL     1       2.280   4.699 -11.042  1.00  0.00     0.049 A 
ATOM     48  H   UNL     1       1.157   6.433 -11.317  1.00  0.00     0.167 HD
ATOM     49  C   UNL     1      -1.262  10.096 -11.609  1.00  0.00     0.034 A 
ATOM     50  C   UNL     1       1.756   3.748 -11.841  1.00  0.00     0.034 A 
ATOM     51  C   UNL     1      -1.823   9.179 -12.571  1.00  0.00     0.049 A 
ATOM     52  C   UNL     1       0.557   4.094 -12.691  1.00  0.00     0.074 A 
ATOM     53  C   UNL     1      -2.852   9.398 -13.470  1.00  0.00     0.029 A 
ATOM     54  N   UNL     1      -1.413   7.863 -12.751  1.00  0.00    -0.354 N 
ATOM     55  N   UNL     1      -0.100   5.228 -12.771  1.00  0.00    -0.248 NA
ATOM     56  C   UNL     1       0.035   3.034 -13.564  1.00  0.00     0.031 C 
ATOM     57  C   UNL     1      -3.118   8.196 -14.133  1.00  0.00     0.029 A 
ATOM     58  C   UNL     1      -2.195   7.250 -13.719  1.00  0.00     0.049 A 
ATOM     59  H   UNL     1      -0.675   7.430 -12.264  1.00  0.00     0.167 HD
ATOM     60  C   UNL     1      -1.089   5.027 -13.730  1.00  0.00     0.074 A 
ATOM     61  C   UNL     1      -0.935   3.668 -14.206  1.00  0.00     0.031 C 
ATOM     62  C   UNL     1      -2.035   5.890 -14.181  1.00  0.00     0.034 A 
BRANCH  49  63
ATOM     63  C   UNL     1      -1.889  11.462 -11.453  1.00  0.00     0.023 A 
ATOM     64  C   UNL     1      -1.168  12.643 -11.702  1.00  0.00     0.031 A 
ATOM     65  C   UNL     1      -3.225  11.586 -11.031  1.00  0.00     0.131 A 
ATOM     66  C   UNL     1      -1.758  13.891 -11.455  1.00  0.00     0.055 A 
ATOM     67  C   UNL     1      -3.835  12.832 -10.871  1.00  0.00     0.041 A 
ATOM     68  F   UNL     1      -3.960  10.497 -10.755  1.00  0.00    -0.206 F 
ATOM     69  C   UNL     1      -3.096  13.995 -11.069  1.00  0.00     0.022 A 
BRANCH  66  70
ATOM     70  S   UNL     1      -0.709  15.370 -11.501  1.00  0.00     0.124 S 
ATOM     71  O   UNL     1       0.302  15.046 -10.498  1.00  0.00    -0.237 OA
ATOM     72  O   UNL     1      -0.252  15.390 -12.886  1.00  0.00    -0.237 OA
ATOM     73  O   UNL     1      -1.621  16.449 -11.129  1.00  0.00    -0.744 OA
ENDBRANCH  66  70
ENDBRANCH  49  63
BRANCH  50  74
ATOM     74  C   UNL     1       2.337   2.374 -11.866  1.00  0.00     0.023 A 
ATOM     75  C   UNL     1       2.905   1.848 -13.037  1.00  0.00     0.031 A 
ATOM     76  C   UNL     1       2.292   1.548 -10.728  1.00  0.00     0.131 A 
ATOM     77  C   UNL     1       3.358   0.519 -13.059  1.00  0.00     0.055 A 
ATOM     78  C   UNL     1       2.800   0.248 -10.738  1.00  0.00     0.041 A 
ATOM     79  F   UNL     1       1.761   2.000  -9.581  1.00  0.00    -0.206 F 
ATOM     80  C   UNL     1       3.325  -0.279 -11.914  1.00  0.00     0.022 A 
BRANCH  77  81
ATOM     81  S   UNL     1       3.903  -0.186 -14.639  1.00  0.00     0.124 S 
ATOM     82  O   UNL     1       2.716  -0.009 -15.467  1.00  0.00    -0.237 OA
ATOM     83  O   UNL     1       5.048   0.657 -14.969  1.00  0.00    -0.237 OA
ATOM     84  O   UNL     1       4.229  -1.570 -14.300  1.00  0.00    -0.744 OA
ENDBRANCH  77  81
ENDBRANCH  50  74
BRANCH  62  85
ATOM     85  C   UNL     1      -2.942   5.407 -15.288  1.00  0.00     0.023 A 
ATOM     86  C   UNL     1      -3.872   4.372 -15.092  1.00  0.00     0.031 A 
ATOM     87  C   UNL     1      -2.876   6.004 -16.561  1.00  0.00     0.131 A 
ATOM     88  C   UNL     1      -4.663   3.932 -16.164  1.00  0.00     0.055 A 
ATOM     89  C   UNL     1      -3.711   5.606 -17.605  1.00  0.00     0.041 A 
ATOM     90  F   UNL     1      -2.002   6.993 -16.807  1.00  0.00    -0.206 F 
ATOM     91  C   UNL     1      -4.603   4.556 -17.413  1.00  0.00     0.022 A 
BRANCH  88  92
ATOM     92  S   UNL     1      -5.712   2.470 -15.933  1.00  0.00     0.124 S 
ATOM     93  O   UNL     1      -4.735   1.451 -15.564  1.00  0.00    -0.237 OA
ATOM     94  O   UNL     1      -6.618   2.899 -14.872  1.00  0.00    -0.237 OA
ATOM     95  O   UNL     1      -6.337   2.285 -17.242  1.00  0.00    -0.744 OA
ENDBRANCH  88  92
ENDBRANCH  62  85
ENDBRANCH  36  37
ENDBRANCH  28  31
ENDBRANCH  26  27
ENDBRANCH  25  26
ENDBRANCH   1  25
TORSDOF 17
