REMARK SMILES C[C@H](C(=O)NCCCCCCNC(=O)c1ccc(-c2c3nc(c(-c4cc(S(=O)(=O)[O-])ccc4F)c4ccc([nH]4)c(-c4cc(S(=O)(=O)[O-])ccc4F)c4nc(c(-c5cc(S(=O)(=O)[O-])ccc5F)c5ccc2[nH]5)C=C4)C=C3)cc1)N1C(=O)C[C@](C)(c2ccccc2)C1=O
REMARK SMILES IDX 9 1 8 2 7 3 6 4 5 5 3 6 4 7 2 9 1 10 78 11 79 12 90 13 80 14
REMARK SMILES IDX 81 15 82 16 91 17 83 18 84 19 85 20 89 21 86 22 88 23 87 24
REMARK SMILES IDX 10 25 11 26 12 27 13 28 14 30 15 31 16 32 77 33 17 34 76 35
REMARK SMILES IDX 18 36 19 37 20 38 70 39 21 40 75 41 69 42 71 43 22 44 74 45
REMARK SMILES IDX 68 46 67 47 23 49 55 50 35 51 54 52 36 53 39 54 53 55 72 56
REMARK SMILES IDX 37 57 38 58 52 60 73 61 40 62 24 63 25 64 33 65 26 66 32 67
REMARK SMILES IDX 34 68 31 69 27 70 28 71 29 72 30 73 56 74 57 75 65 76 58 77
REMARK SMILES IDX 64 78 66 79 63 80 59 81 60 82 61 83 62 84 41 85 42 86 50 87
REMARK SMILES IDX 43 88 49 89 51 90 48 91 44 92 45 93 46 94 47 95
REMARK H PARENT 5 8 12 29 71 48 39 59
REMARK Flexibility Score: inf
ROOT
ATOM      1  C   UNL     1       2.058   3.595   3.259  1.00  0.00     0.002 C 
ENDROOT
BRANCH   1   2
ATOM      2  C   UNL     1       2.722   2.219   3.133  1.00  0.00     0.002 C 
BRANCH   2   3
ATOM      3  C   UNL     1       1.762   1.031   3.242  1.00  0.00     0.021 C 
BRANCH   3   4
ATOM      4  C   UNL     1       0.659   1.050   2.192  1.00  0.00     0.116 C 
BRANCH   4   5
ATOM      5  N   UNL     1       1.185   0.810   0.860  1.00  0.00    -0.354 N 
ATOM      6  C   UNL     1       0.994  -0.247   0.024  1.00  0.00     0.243 C 
ATOM      7  O   UNL     1       1.349  -0.119  -1.153  1.00  0.00    -0.273 OA
ATOM      8  H   UNL     1       1.768   1.521   0.508  1.00  0.00     0.163 HD
BRANCH   6   9
ATOM      9  C   UNL     1       0.257  -1.522   0.475  1.00  0.00     0.179 C 
ATOM     10  C   UNL     1       0.602  -2.084   1.851  1.00  0.00     0.042 C 
BRANCH   9  11
ATOM     11  N   UNL     1      -1.168  -1.503   0.143  1.00  0.00    -0.269 N 
ATOM     12  C   UNL     1      -1.855  -2.646  -0.135  1.00  0.00     0.231 C 
ATOM     13  C   UNL     1      -2.004  -0.425   0.246  1.00  0.00     0.240 C 
ATOM     14  O   UNL     1      -1.417  -3.788  -0.076  1.00  0.00    -0.274 OA
ATOM     15  C   UNL     1      -3.269  -2.318  -0.504  1.00  0.00     0.122 C 
ATOM     16  C   UNL     1      -3.396  -0.811  -0.241  1.00  0.00     0.081 C 
ATOM     17  O   UNL     1      -1.724   0.688   0.660  1.00  0.00    -0.273 OA
ATOM     18  C   UNL     1      -4.349  -0.569   0.945  1.00  0.00     0.027 C 
BRANCH  16  19
ATOM     19  C   UNL     1      -3.749  -0.043  -1.524  1.00  0.00    -0.032 A 
ATOM     20  C   UNL     1      -4.910   0.739  -1.640  1.00  0.00     0.005 A 
ATOM     21  C   UNL     1      -2.885  -0.093  -2.638  1.00  0.00     0.005 A 
ATOM     22  C   UNL     1      -5.197   1.437  -2.818  1.00  0.00     0.000 A 
ATOM     23  C   UNL     1      -3.175   0.603  -3.815  1.00  0.00     0.000 A 
ATOM     24  C   UNL     1      -4.332   1.368  -3.905  1.00  0.00     0.000 A 
ENDBRANCH  16  19
ENDBRANCH   9  11
ENDBRANCH   6   9
ENDBRANCH   4   5
ENDBRANCH   3   4
ENDBRANCH   2   3
ENDBRANCH   1   2
BRANCH   1  25
ATOM     25  C   UNL     1       1.213   3.790   4.519  1.00  0.00     0.021 C 
BRANCH  25  26
ATOM     26  C   UNL     1       1.966   3.559   5.824  1.00  0.00     0.116 C 
BRANCH  26  27
ATOM     27  N   UNL     1       3.068   4.495   5.986  1.00  0.00    -0.352 N 
ATOM     28  C   UNL     1       3.327   5.354   7.025  1.00  0.00     0.251 C 
ATOM     29  H   UNL     1       3.718   4.515   5.247  1.00  0.00     0.163 HD
ATOM     30  O   UNL     1       4.176   6.231   6.898  1.00  0.00    -0.269 OA
BRANCH  28  31
ATOM     31  C   UNL     1       2.560   5.227   8.282  1.00  0.00     0.039 A 
ATOM     32  C   UNL     1       2.045   6.378   8.882  1.00  0.00     0.014 A 
ATOM     33  C   UNL     1       2.338   3.972   8.858  1.00  0.00     0.014 A 
ATOM     34  C   UNL     1       1.255   6.263  10.028  1.00  0.00     0.010 A 
ATOM     35  C   UNL     1       1.486   3.854   9.951  1.00  0.00     0.010 A 
ATOM     36  C   UNL     1       0.938   4.999  10.551  1.00  0.00    -0.014 A 
BRANCH  36  37
ATOM     37  C   UNL     1       0.037   4.853  11.724  1.00  0.00     0.031 A 
ATOM     38  C   UNL     1       0.552   4.239  12.997  1.00  0.00     0.074 A 
ATOM     39  C   UNL     1      -1.258   5.209  11.620  1.00  0.00     0.049 A 
ATOM     40  N   UNL     1      -0.094   3.946  14.096  1.00  0.00    -0.248 NA
ATOM     41  C   UNL     1       1.976   3.874  13.021  1.00  0.00     0.031 C 
ATOM     42  C   UNL     1      -1.883   5.776  10.422  1.00  0.00     0.029 A 
ATOM     43  N   UNL     1      -2.287   5.136  12.526  1.00  0.00    -0.354 N 
ATOM     44  C   UNL     1       0.840   3.352  14.938  1.00  0.00     0.074 A 
ATOM     45  C   UNL     1       2.077   3.265  14.192  1.00  0.00     0.031 C 
ATOM     46  C   UNL     1      -3.180   6.013  10.673  1.00  0.00     0.029 A 
ATOM     47  C   UNL     1      -3.495   5.567  12.027  1.00  0.00     0.049 A 
ATOM     48  H   UNL     1      -2.172   4.805  13.446  1.00  0.00     0.167 HD
ATOM     49  C   UNL     1       0.684   2.937  16.221  1.00  0.00     0.034 A 
ATOM     50  C   UNL     1      -4.722   5.580  12.585  1.00  0.00     0.034 A 
ATOM     51  C   UNL     1      -0.560   3.036  16.946  1.00  0.00     0.049 A 
ATOM     52  C   UNL     1      -4.883   5.084  14.000  1.00  0.00     0.074 A 
ATOM     53  C   UNL     1      -0.817   2.706  18.265  1.00  0.00     0.029 A 
ATOM     54  N   UNL     1      -1.763   3.480  16.409  1.00  0.00    -0.354 N 
ATOM     55  N   UNL     1      -3.976   4.582  14.806  1.00  0.00    -0.248 NA
ATOM     56  C   UNL     1      -6.228   5.165  14.583  1.00  0.00     0.031 C 
ATOM     57  C   UNL     1      -2.186   2.868  18.500  1.00  0.00     0.029 A 
ATOM     58  C   UNL     1      -2.772   3.391  17.357  1.00  0.00     0.049 A 
ATOM     59  H   UNL     1      -1.882   3.811  15.489  1.00  0.00     0.167 HD
ATOM     60  C   UNL     1      -4.637   4.315  16.003  1.00  0.00     0.074 A 
ATOM     61  C   UNL     1      -6.014   4.724  15.814  1.00  0.00     0.031 C 
ATOM     62  C   UNL     1      -4.147   3.786  17.154  1.00  0.00     0.034 A 
BRANCH  49  63
ATOM     63  C   UNL     1       1.881   2.308  16.898  1.00  0.00     0.023 A 
ATOM     64  C   UNL     1       3.086   3.011  17.079  1.00  0.00     0.031 A 
ATOM     65  C   UNL     1       1.833   0.971  17.333  1.00  0.00     0.131 A 
ATOM     66  C   UNL     1       4.215   2.351  17.586  1.00  0.00     0.055 A 
ATOM     67  C   UNL     1       2.933   0.348  17.926  1.00  0.00     0.041 A 
ATOM     68  F   UNL     1       0.720   0.238  17.169  1.00  0.00    -0.206 F 
ATOM     69  C   UNL     1       4.140   1.032  18.037  1.00  0.00     0.022 A 
BRANCH  66  70
ATOM     70  S   UNL     1       5.823   3.183  17.477  1.00  0.00     0.124 S 
ATOM     71  O   UNL     1       5.916   3.459  16.044  1.00  0.00    -0.237 OA
ATOM     72  O   UNL     1       5.637   4.343  18.340  1.00  0.00    -0.237 OA
ATOM     73  O   UNL     1       6.763   2.179  17.971  1.00  0.00    -0.744 OA
ENDBRANCH  66  70
ENDBRANCH  49  63
BRANCH  50  74
ATOM     74  C   UNL     1      -5.898   6.050  11.796  1.00  0.00     0.023 A 
ATOM     75  C   UNL     1      -6.621   7.194  12.170  1.00  0.00     0.031 A 
ATOM     76  C   UNL     1      -6.331   5.339  10.661  1.00  0.00     0.131 A 
ATOM     77  C   UNL     1      -7.759   7.571  11.440  1.00  0.00     0.055 A 
ATOM     78  C   UNL     1      -7.430   5.751   9.905  1.00  0.00     0.041 A 
ATOM     79  F   UNL     1      -5.676   4.239  10.258  1.00  0.00    -0.206 F 
ATOM     80  C   UNL     1      -8.158   6.868  10.300  1.00  0.00     0.022 A 
BRANCH  77  81
ATOM     81  S   UNL     1      -8.765   8.953  12.048  1.00  0.00     0.124 S 
ATOM     82  O   UNL     1      -9.130   8.488  13.382  1.00  0.00    -0.237 OA
ATOM     83  O   UNL     1      -7.822  10.063  11.991  1.00  0.00    -0.237 OA
ATOM     84  O   UNL     1      -9.865   9.021  11.088  1.00  0.00    -0.744 OA
ENDBRANCH  77  81
ENDBRANCH  50  74
BRANCH  62  85
ATOM     85  C   UNL     1      -5.102   3.662  18.318  1.00  0.00     0.023 A 
ATOM     86  C   UNL     1      -6.205   2.791  18.288  1.00  0.00     0.031 A 
ATOM     87  C   UNL     1      -4.898   4.428  19.481  1.00  0.00     0.131 A 
ATOM     88  C   UNL     1      -7.090   2.746  19.376  1.00  0.00     0.055 A 
ATOM     89  C   UNL     1      -5.744   4.328  20.586  1.00  0.00     0.041 A 
ATOM     90  F   UNL     1      -3.865   5.282  19.565  1.00  0.00    -0.206 F 
ATOM     91  C   UNL     1      -6.855   3.493  20.533  1.00  0.00     0.022 A 
BRANCH  88  92
ATOM     92  S   UNL     1      -8.610   1.766  19.225  1.00  0.00     0.124 S 
ATOM     93  O   UNL     1      -9.248   2.376  18.062  1.00  0.00    -0.237 OA
ATOM     94  O   UNL     1      -8.094   0.415  19.034  1.00  0.00    -0.237 OA
ATOM     95  O   UNL     1      -9.293   1.994  20.497  1.00  0.00    -0.744 OA
ENDBRANCH  88  92
ENDBRANCH  62  85
ENDBRANCH  36  37
ENDBRANCH  28  31
ENDBRANCH  26  27
ENDBRANCH  25  26
ENDBRANCH   1  25
TORSDOF 18
