REMARK SMILES Cc1cnc(S[C@H]2CC[C@@]([NH2+]C(C)C)(C(=O)NCCCCCCNC(=O)c3ccc(-c4c5nc(c(-c6cc(S(=O)(=O)[O-])ccc6F)c6ccc([nH]6)c(-c6cc(S(=O)(=O)[O-])ccc6F)c6nc(c(-c7cc(S(=O)(=O)[O-])ccc7F)c7ccc4[nH]7)C=C6)C=C5)cc3)C2)nc1
REMARK SMILES IDX 21 1 20 2 19 3 18 4 17 5 15 6 16 7 10 9 7 10 8 11 90 12 9 13
REMARK SMILES IDX 6 14 5 15 1 16 2 17 3 18 92 19 4 20 91 21 11 22 12 25 13 26
REMARK SMILES IDX 14 27 22 28 23 29 24 30 25 31 26 33 27 34 28 35 89 36 29 37
REMARK SMILES IDX 88 38 30 39 31 40 32 41 82 42 33 43 87 44 81 45 83 46 34 47
REMARK SMILES IDX 86 48 80 49 79 50 35 52 67 53 47 54 66 55 48 56 51 57 65 58
REMARK SMILES IDX 84 59 49 60 50 61 64 63 85 64 52 65 36 66 37 67 45 68 38 69
REMARK SMILES IDX 44 70 46 71 43 72 39 73 40 74 41 75 42 76 68 77 69 78 77 79
REMARK SMILES IDX 70 80 76 81 78 82 75 83 71 84 72 85 73 86 74 87 53 88 54 89
REMARK SMILES IDX 62 90 55 91 61 92 63 93 60 94 56 95 57 96 58 97 59 98
REMARK H PARENT 17 8 11 23 11 24 24 32 83 51 51 62
REMARK Flexibility Score: inf
ROOT
ATOM      1  C   UNL     1       7.572  -8.734  -0.912  1.00  0.00     0.002 C 
ENDROOT
BRANCH   1   2
ATOM      2  C   UNL     1       7.480  -7.389  -1.640  1.00  0.00     0.002 C 
BRANCH   2   3
ATOM      3  C   UNL     1       6.061  -6.826  -1.788  1.00  0.00     0.021 C 
BRANCH   3   4
ATOM      4  C   UNL     1       5.314  -6.641  -0.466  1.00  0.00     0.116 C 
BRANCH   4   5
ATOM      5  N   UNL     1       5.974  -5.665   0.381  1.00  0.00    -0.351 N 
ATOM      6  C   UNL     1       5.501  -4.508   0.932  1.00  0.00     0.281 C 
ATOM      7  O   UNL     1       6.219  -3.971   1.783  1.00  0.00    -0.268 OA
ATOM      8  H   UNL     1       6.913  -5.870   0.593  1.00  0.00     0.163 HD
BRANCH   6   9
ATOM      9  C   UNL     1       4.061  -3.978   0.600  1.00  0.00     0.176 C 
ATOM     10  C   UNL     1       4.252  -1.613  -0.111  1.00  0.00     0.062 C 
ATOM     11  C   UNL     1       3.673  -2.389  -1.284  1.00  0.00     0.022 C 
ATOM     12  C   UNL     1       3.847  -2.513   1.070  1.00  0.00     0.094 C 
ATOM     13  C   UNL     1       3.847  -3.867  -0.937  1.00  0.00     0.080 C 
BRANCH  10  14
ATOM     14  S   UNL     1       6.071  -1.429  -0.129  1.00  0.00    -0.083 SA
BRANCH  14  15
ATOM     15  C   UNL     1       6.386  -0.248  -1.401  1.00  0.00     0.187 A 
ATOM     16  C   UNL     1       7.461   2.280  -4.577  1.00  0.00     0.048 C 
ATOM     17  C   UNL     1       7.075   1.406  -3.435  1.00  0.00    -0.014 A 
ATOM     18  C   UNL     1       5.784   0.958  -3.240  1.00  0.00     0.119 A 
ATOM     19  C   UNL     1       7.985   0.966  -2.503  1.00  0.00     0.119 A 
ATOM     20  N   UNL     1       5.410   0.141  -2.234  1.00  0.00    -0.231 NA
ATOM     21  N   UNL     1       7.668   0.148  -1.488  1.00  0.00    -0.231 NA
ENDBRANCH  14  15
ENDBRANCH  10  14
BRANCH   9  22
ATOM     22  N   UNL     1       3.067  -4.912   1.201  1.00  0.00    -0.332 N 
ATOM     23  H   UNL     1       3.070  -5.766   0.643  1.00  0.00     0.347 HD
ATOM     24  H   UNL     1       2.184  -4.401   1.195  1.00  0.00     0.347 HD
BRANCH  22  25
ATOM     25  C   UNL     1       3.281  -5.296   2.607  1.00  0.00     0.176 C 
ATOM     26  C   UNL     1       2.836  -4.233   3.611  1.00  0.00     0.075 C 
ATOM     27  C   UNL     1       2.501  -6.591   2.858  1.00  0.00     0.075 C 
ENDBRANCH  22  25
ENDBRANCH   9  22
ENDBRANCH   6   9
ENDBRANCH   4   5
ENDBRANCH   3   4
ENDBRANCH   2   3
ENDBRANCH   1   2
BRANCH   1  28
ATOM     28  C   UNL     1       6.709  -9.851  -1.502  1.00  0.00     0.021 C 
BRANCH  28  29
ATOM     29  C   UNL     1       6.994 -10.172  -2.966  1.00  0.00     0.116 C 
BRANCH  29  30
ATOM     30  N   UNL     1       8.341 -10.681  -3.165  1.00  0.00    -0.352 N 
ATOM     31  C   UNL     1       8.745 -11.816  -3.826  1.00  0.00     0.251 C 
ATOM     32  H   UNL     1       9.063 -10.139  -2.772  1.00  0.00     0.163 HD
ATOM     33  O   UNL     1       9.909 -12.196  -3.740  1.00  0.00    -0.269 OA
BRANCH  31  34
ATOM     34  C   UNL     1       7.762 -12.587  -4.618  1.00  0.00     0.039 A 
ATOM     35  C   UNL     1       7.702 -13.974  -4.464  1.00  0.00     0.014 A 
ATOM     36  C   UNL     1       6.892 -11.938  -5.499  1.00  0.00     0.014 A 
ATOM     37  C   UNL     1       6.726 -14.704  -5.148  1.00  0.00     0.010 A 
ATOM     38  C   UNL     1       5.879 -12.658  -6.125  1.00  0.00     0.010 A 
ATOM     39  C   UNL     1       5.785 -14.049  -5.957  1.00  0.00    -0.014 A 
BRANCH  39  40
ATOM     40  C   UNL     1       4.701 -14.793  -6.652  1.00  0.00     0.031 A 
ATOM     41  C   UNL     1       4.655 -14.810  -8.157  1.00  0.00     0.074 A 
ATOM     42  C   UNL     1       3.723 -15.383  -5.937  1.00  0.00     0.049 A 
ATOM     43  N   UNL     1       3.731 -15.283  -8.952  1.00  0.00    -0.248 NA
ATOM     44  C   UNL     1       5.786 -14.181  -8.857  1.00  0.00     0.031 C 
ATOM     45  C   UNL     1       3.645 -15.412  -4.474  1.00  0.00     0.029 A 
ATOM     46  N   UNL     1       2.597 -16.058  -6.340  1.00  0.00    -0.354 N 
ATOM     47  C   UNL     1       4.157 -14.992 -10.244  1.00  0.00     0.074 A 
ATOM     48  C   UNL     1       5.396 -14.255 -10.120  1.00  0.00     0.031 C 
ATOM     49  C   UNL     1       2.539 -16.079  -4.105  1.00  0.00     0.029 A 
ATOM     50  C   UNL     1       1.801 -16.481  -5.299  1.00  0.00     0.049 A 
ATOM     51  H   UNL     1       2.378 -16.224  -7.285  1.00  0.00     0.167 HD
ATOM     52  C   UNL     1       3.576 -15.325 -11.423  1.00  0.00     0.034 A 
ATOM     53  C   UNL     1       0.604 -17.102  -5.306  1.00  0.00     0.034 A 
ATOM     54  C   UNL     1       2.351 -16.079 -11.529  1.00  0.00     0.049 A 
ATOM     55  C   UNL     1      -0.034 -17.440  -6.632  1.00  0.00     0.074 A 
ATOM     56  C   UNL     1       1.706 -16.519 -12.672  1.00  0.00     0.029 A 
ATOM     57  N   UNL     1       1.583 -16.504 -10.452  1.00  0.00    -0.354 N 
ATOM     58  N   UNL     1       0.403 -17.193  -7.845  1.00  0.00    -0.248 NA
ATOM     59  C   UNL     1      -1.320 -18.149  -6.590  1.00  0.00     0.031 C 
ATOM     60  C   UNL     1       0.517 -17.148 -12.291  1.00  0.00     0.029 A 
ATOM     61  C   UNL     1       0.457 -17.174 -10.907  1.00  0.00     0.049 A 
ATOM     62  H   UNL     1       1.805 -16.351  -9.505  1.00  0.00     0.167 HD
ATOM     63  C   UNL     1      -0.535 -17.754  -8.708  1.00  0.00     0.074 A 
ATOM     64  C   UNL     1      -1.556 -18.357  -7.877  1.00  0.00     0.031 C 
ATOM     65  C   UNL     1      -0.549 -17.775 -10.065  1.00  0.00     0.034 A 
BRANCH  52  66
ATOM     66  C   UNL     1       4.246 -14.852 -12.691  1.00  0.00     0.023 A 
ATOM     67  C   UNL     1       5.531 -15.291 -13.058  1.00  0.00     0.031 A 
ATOM     68  C   UNL     1       3.595 -13.942 -13.542  1.00  0.00     0.131 A 
ATOM     69  C   UNL     1       6.148 -14.769 -14.204  1.00  0.00     0.055 A 
ATOM     70  C   UNL     1       4.182 -13.488 -14.724  1.00  0.00     0.041 A 
ATOM     71  F   UNL     1       2.376 -13.471 -13.234  1.00  0.00    -0.206 F 
ATOM     72  C   UNL     1       5.473 -13.890 -15.054  1.00  0.00     0.022 A 
BRANCH  69  73
ATOM     73  S   UNL     1       7.896 -15.153 -14.498  1.00  0.00     0.124 S 
ATOM     74  O   UNL     1       8.523 -14.607 -13.296  1.00  0.00    -0.237 OA
ATOM     75  O   UNL     1       7.886 -16.607 -14.608  1.00  0.00    -0.237 OA
ATOM     76  O   UNL     1       8.202 -14.435 -15.733  1.00  0.00    -0.744 OA
ENDBRANCH  69  73
ENDBRANCH  52  66
BRANCH  53  77
ATOM     77  C   UNL     1      -0.092 -17.428  -4.026  1.00  0.00     0.023 A 
ATOM     78  C   UNL     1      -0.359 -18.759  -3.667  1.00  0.00     0.031 A 
ATOM     79  C   UNL     1      -0.556 -16.411  -3.172  1.00  0.00     0.131 A 
ATOM     80  C   UNL     1      -1.119 -19.036  -2.520  1.00  0.00     0.055 A 
ATOM     81  C   UNL     1      -1.260 -16.695  -2.000  1.00  0.00     0.041 A 
ATOM     82  F   UNL     1      -0.328 -15.121  -3.465  1.00  0.00    -0.206 F 
ATOM     83  C   UNL     1      -1.560 -18.014  -1.677  1.00  0.00     0.022 A 
BRANCH  80  84
ATOM     84  S   UNL     1      -1.619 -20.752  -2.206  1.00  0.00     0.124 S 
ATOM     85  O   UNL     1      -2.318 -21.087  -3.441  1.00  0.00    -0.237 OA
ATOM     86  O   UNL     1      -0.333 -21.407  -1.997  1.00  0.00    -0.237 OA
ATOM     87  O   UNL     1      -2.465 -20.647  -1.018  1.00  0.00    -0.744 OA
ENDBRANCH  80  84
ENDBRANCH  53  77
BRANCH  65  88
ATOM     88  C   UNL     1      -1.671 -18.531 -10.733  1.00  0.00     0.023 A 
ATOM     89  C   UNL     1      -3.004 -18.091 -10.677  1.00  0.00     0.031 A 
ATOM     90  C   UNL     1      -1.392 -19.712 -11.445  1.00  0.00     0.131 A 
ATOM     91  C   UNL     1      -4.016 -18.851 -11.284  1.00  0.00     0.055 A 
ATOM     92  C   UNL     1      -2.394 -20.432 -12.095  1.00  0.00     0.041 A 
ATOM     93  F   UNL     1      -0.136 -20.179 -11.529  1.00  0.00    -0.206 F 
ATOM     94  C   UNL     1      -3.717 -20.009 -12.007  1.00  0.00     0.022 A 
BRANCH  91  95
ATOM     95  S   UNL     1      -5.743 -18.347 -11.053  1.00  0.00     0.124 S 
ATOM     96  O   UNL     1      -5.885 -18.402  -9.602  1.00  0.00    -0.237 OA
ATOM     97  O   UNL     1      -5.762 -17.014 -11.646  1.00  0.00    -0.237 OA
ATOM     98  O   UNL     1      -6.497 -19.361 -11.789  1.00  0.00    -0.744 OA
ENDBRANCH  91  95
ENDBRANCH  65  88
ENDBRANCH  39  40
ENDBRANCH  31  34
ENDBRANCH  29  30
ENDBRANCH  28  29
ENDBRANCH   1  28
TORSDOF 20
