REMARK SMILES CCN(C[C@H](C)C(=O)NCCCCCCNC(=O)c1ccc(-c2c3nc(c(-c4cc(S(=O)(=O)[O-])ccc4F)c4ccc([nH]4)c(-c4cc(S(=O)(=O)[O-])ccc4F)c4nc(c(-c5cc(S(=O)(=O)[O-])ccc5F)c5ccc2[nH]5)C=C4)C=C3)cc1)c1ccc(C(=O)NC)nn1
REMARK SMILES IDX 12 1 11 2 10 3 9 4 7 5 8 6 5 8 6 9 4 10 3 11 2 12 1 13 82 14
REMARK SMILES IDX 83 15 91 16 84 17 90 18 85 19 86 20 87 21 88 22 89 23 13 25
REMARK SMILES IDX 14 26 15 27 16 28 17 29 18 31 19 32 20 33 81 34 21 35 80 36
REMARK SMILES IDX 22 37 23 38 24 39 74 40 25 41 79 42 73 43 75 44 26 45 78 46
REMARK SMILES IDX 72 47 71 48 27 50 59 51 39 52 58 53 40 54 43 55 57 56 76 57
REMARK SMILES IDX 41 58 42 59 56 61 77 62 44 63 28 64 29 65 37 66 30 67 36 68
REMARK SMILES IDX 38 69 35 70 31 71 32 72 33 73 34 74 60 75 61 76 69 77 62 78
REMARK SMILES IDX 68 79 70 80 67 81 63 82 64 83 65 84 66 85 45 86 46 87 54 88
REMARK SMILES IDX 47 89 53 90 55 91 52 92 48 93 49 94 50 95 51 96
REMARK H PARENT 9 7 88 24 16 30 75 49 43 60
REMARK Flexibility Score: inf
ROOT
ATOM      1  C   UNL     1      -1.627  -4.721   5.572  1.00  0.00     0.002 C 
ENDROOT
BRANCH   1   2
ATOM      2  C   UNL     1      -0.796  -3.871   4.604  1.00  0.00     0.021 C 
BRANCH   2   3
ATOM      3  C   UNL     1       0.055  -4.698   3.645  1.00  0.00     0.116 C 
BRANCH   3   4
ATOM      4  N   UNL     1      -0.792  -5.386   2.690  1.00  0.00    -0.356 N 
ATOM      5  C   UNL     1      -0.889  -5.257   1.339  1.00  0.00     0.224 C 
ATOM      6  O   UNL     1      -1.952  -5.603   0.818  1.00  0.00    -0.275 OA
ATOM      7  H   UNL     1      -1.396  -6.057   3.083  1.00  0.00     0.163 HD
BRANCH   5   8
ATOM      8  C   UNL     1       0.222  -4.629   0.510  1.00  0.00     0.095 C 
ATOM      9  C   UNL     1       0.118  -3.102   0.616  1.00  0.00     0.020 C 
BRANCH   8  10
ATOM     10  C   UNL     1       1.623  -5.177   0.847  1.00  0.00     0.131 C 
BRANCH  10  11
ATOM     11  N   UNL     1       2.028  -6.359   0.075  1.00  0.00    -0.355 N 
BRANCH  11  12
ATOM     12  C   UNL     1       3.066  -6.258  -0.941  1.00  0.00     0.115 C 
ATOM     13  C   UNL     1       4.343  -6.974  -0.522  1.00  0.00     0.027 C 
ENDBRANCH  11  12
BRANCH  11  14
ATOM     14  C   UNL     1       1.353  -7.552   0.250  1.00  0.00     0.151 A 
ATOM     15  C   UNL     1       1.909  -8.593   0.984  1.00  0.00     0.051 A 
ATOM     16  N   UNL     1       0.123  -7.718  -0.263  1.00  0.00    -0.132 NA
ATOM     17  C   UNL     1       1.191  -9.776   1.210  1.00  0.00     0.040 A 
ATOM     18  N   UNL     1      -0.601  -8.888  -0.052  1.00  0.00    -0.143 NA
ATOM     19  C   UNL     1      -0.075  -9.899   0.669  1.00  0.00     0.150 A 
BRANCH  19  20
ATOM     20  C   UNL     1      -0.994 -11.053   0.910  1.00  0.00     0.271 C 
ATOM     21  O   UNL     1      -2.212 -10.872   0.952  1.00  0.00    -0.267 OA
ATOM     22  N   UNL     1      -0.564 -12.346   1.104  1.00  0.00    -0.354 N 
ATOM     23  C   UNL     1       0.724 -12.982   0.970  1.00  0.00     0.143 C 
ATOM     24  H   UNL     1      -1.279 -12.960   1.390  1.00  0.00     0.163 HD
ENDBRANCH  19  20
ENDBRANCH  11  14
ENDBRANCH  10  11
ENDBRANCH   8  10
ENDBRANCH   5   8
ENDBRANCH   3   4
ENDBRANCH   2   3
ENDBRANCH   1   2
BRANCH   1  25
ATOM     25  C   UNL     1      -0.808  -5.676   6.448  1.00  0.00     0.002 C 
BRANCH  25  26
ATOM     26  C   UNL     1       0.316  -5.008   7.242  1.00  0.00     0.021 C 
BRANCH  26  27
ATOM     27  C   UNL     1      -0.147  -3.872   8.146  1.00  0.00     0.116 C 
BRANCH  27  28
ATOM     28  N   UNL     1      -1.074  -4.336   9.164  1.00  0.00    -0.352 N 
ATOM     29  C   UNL     1      -1.019  -4.163  10.525  1.00  0.00     0.251 C 
ATOM     30  H   UNL     1      -1.848  -4.845   8.832  1.00  0.00     0.163 HD
ATOM     31  O   UNL     1      -1.757  -4.814  11.254  1.00  0.00    -0.269 OA
BRANCH  29  32
ATOM     32  C   UNL     1      -0.048  -3.204  11.096  1.00  0.00     0.039 A 
ATOM     33  C   UNL     1       0.684  -3.574  12.226  1.00  0.00     0.014 A 
ATOM     34  C   UNL     1       0.137  -1.944  10.518  1.00  0.00     0.014 A 
ATOM     35  C   UNL     1       1.636  -2.697  12.748  1.00  0.00     0.010 A 
ATOM     36  C   UNL     1       1.143  -1.107  10.989  1.00  0.00     0.010 A 
ATOM     37  C   UNL     1       1.894  -1.468  12.118  1.00  0.00    -0.014 A 
BRANCH  37  38
ATOM     38  C   UNL     1       2.920  -0.532  12.648  1.00  0.00     0.031 A 
ATOM     39  C   UNL     1       2.507   0.828  13.146  1.00  0.00     0.074 A 
ATOM     40  C   UNL     1       4.220  -0.885  12.639  1.00  0.00     0.049 A 
ATOM     41  N   UNL     1       3.251   1.812  13.581  1.00  0.00    -0.248 NA
ATOM     42  C   UNL     1       1.067   1.130  13.120  1.00  0.00     0.031 C 
ATOM     43  C   UNL     1       4.745  -2.163  12.154  1.00  0.00     0.029 A 
ATOM     44  N   UNL     1       5.339  -0.202  13.046  1.00  0.00    -0.354 N 
ATOM     45  C   UNL     1       2.372   2.851  13.871  1.00  0.00     0.074 A 
ATOM     46  C   UNL     1       1.051   2.400  13.492  1.00  0.00     0.031 C 
ATOM     47  C   UNL     1       6.077  -2.184  12.322  1.00  0.00     0.029 A 
ATOM     48  C   UNL     1       6.510  -0.905  12.876  1.00  0.00     0.049 A 
ATOM     49  H   UNL     1       5.306   0.706  13.426  1.00  0.00     0.167 HD
ATOM     50  C   UNL     1       2.639   4.059  14.429  1.00  0.00     0.034 A 
ATOM     51  C   UNL     1       7.787  -0.553  13.126  1.00  0.00     0.034 A 
ATOM     52  C   UNL     1       3.963   4.488  14.808  1.00  0.00     0.049 A 
ATOM     53  C   UNL     1       8.064   0.811  13.709  1.00  0.00     0.074 A 
ATOM     54  C   UNL     1       4.344   5.673  15.413  1.00  0.00     0.029 A 
ATOM     55  N   UNL     1       5.126   3.753  14.612  1.00  0.00    -0.354 N 
ATOM     56  N   UNL     1       7.218   1.768  14.013  1.00  0.00    -0.248 NA
ATOM     57  C   UNL     1       9.467   1.135  13.995  1.00  0.00     0.031 C 
ATOM     58  C   UNL     1       5.739   5.687  15.511  1.00  0.00     0.029 A 
ATOM     59  C   UNL     1       6.225   4.472  15.056  1.00  0.00     0.049 A 
ATOM     60  H   UNL     1       5.163   2.853  14.215  1.00  0.00     0.167 HD
ATOM     61  C   UNL     1       7.985   2.791  14.567  1.00  0.00     0.074 A 
ATOM     62  C   UNL     1       9.357   2.326  14.563  1.00  0.00     0.031 C 
ATOM     63  C   UNL     1       7.591   3.999  15.044  1.00  0.00     0.034 A 
BRANCH  50  64
ATOM     64  C   UNL     1       1.476   5.003  14.632  1.00  0.00     0.023 A 
ATOM     65  C   UNL     1       0.391   4.671  15.464  1.00  0.00     0.031 A 
ATOM     66  C   UNL     1       1.434   6.239  13.963  1.00  0.00     0.131 A 
ATOM     67  C   UNL     1      -0.723   5.521  15.537  1.00  0.00     0.055 A 
ATOM     68  C   UNL     1       0.363   7.123  14.114  1.00  0.00     0.041 A 
ATOM     69  F   UNL     1       2.427   6.604  13.137  1.00  0.00    -0.206 F 
ATOM     70  C   UNL     1      -0.732   6.759  14.891  1.00  0.00     0.022 A 
BRANCH  67  71
ATOM     71  S   UNL     1      -2.222   4.913  16.357  1.00  0.00     0.124 S 
ATOM     72  O   UNL     1      -2.513   3.709  15.582  1.00  0.00    -0.237 OA
ATOM     73  O   UNL     1      -1.768   4.698  17.726  1.00  0.00    -0.237 OA
ATOM     74  O   UNL     1      -3.177   6.005  16.180  1.00  0.00    -0.744 OA
ENDBRANCH  67  71
ENDBRANCH  50  64
BRANCH  51  75
ATOM     75  C   UNL     1       8.905  -1.495  12.827  1.00  0.00     0.023 A 
ATOM     76  C   UNL     1       9.731  -1.988  13.850  1.00  0.00     0.031 A 
ATOM     77  C   UNL     1       9.197  -1.878  11.505  1.00  0.00     0.131 A 
ATOM     78  C   UNL     1      10.839  -2.788  13.532  1.00  0.00     0.055 A 
ATOM     79  C   UNL     1      10.264  -2.725  11.200  1.00  0.00     0.041 A 
ATOM     80  F   UNL     1       8.439  -1.440  10.487  1.00  0.00    -0.206 F 
ATOM     81  C   UNL     1      11.102  -3.172  12.215  1.00  0.00     0.022 A 
BRANCH  78  82
ATOM     82  S   UNL     1      11.995  -3.236  14.856  1.00  0.00     0.124 S 
ATOM     83  O   UNL     1      12.401  -1.926  15.350  1.00  0.00    -0.237 OA
ATOM     84  O   UNL     1      11.147  -4.024  15.744  1.00  0.00    -0.237 OA
ATOM     85  O   UNL     1      13.034  -3.991  14.158  1.00  0.00    -0.744 OA
ENDBRANCH  78  82
ENDBRANCH  51  75
BRANCH  63  86
ATOM     86  C   UNL     1       8.653   4.877  15.664  1.00  0.00     0.023 A 
ATOM     87  C   UNL     1       9.716   5.408  14.913  1.00  0.00     0.031 A 
ATOM     88  C   UNL     1       8.603   5.176  17.038  1.00  0.00     0.131 A 
ATOM     89  C   UNL     1      10.718   6.155  15.551  1.00  0.00     0.055 A 
ATOM     90  C   UNL     1       9.563   5.979  17.653  1.00  0.00     0.041 A 
ATOM     91  F   UNL     1       7.613   4.693  17.807  1.00  0.00    -0.206 F 
ATOM     92  C   UNL     1      10.638   6.460  16.912  1.00  0.00     0.022 A 
BRANCH  89  93
ATOM     93  S   UNL     1      12.190   6.628  14.601  1.00  0.00     0.124 S 
ATOM     94  O   UNL     1      12.680   5.335  14.137  1.00  0.00    -0.237 OA
ATOM     95  O   UNL     1      11.630   7.503  13.576  1.00  0.00    -0.237 OA
ATOM     96  O   UNL     1      13.036   7.294  15.590  1.00  0.00    -0.744 OA
ENDBRANCH  89  93
ENDBRANCH  63  86
ENDBRANCH  37  38
ENDBRANCH  29  32
ENDBRANCH  27  28
ENDBRANCH  26  27
ENDBRANCH  25  26
ENDBRANCH   1  25
TORSDOF 21
