REMARK SMILES CC1(C)C(n2c(SCC(=O)NCCCCCCNC(=O)c3ccc(-c4c5nc(c(-c6cc(S(=O)(=O)[O-])ccc6F)c6ccc([nH]6)c(-c6cc(S(=O)(=O)[O-])ccc6F)c6nc(c(-c7cc(S(=O)(=O)[O-])ccc7F)c7ccc4[nH]7)C=C6)C=C5)cc3)nc3cnccc32)C1(C)C
REMARK SMILES IDX 14 1 13 2 12 3 11 4 9 5 10 6 8 8 7 9 6 10 5 11 90 12 84 13
REMARK SMILES IDX 85 14 89 15 86 16 88 17 87 18 4 19 1 20 2 21 3 22 91 23
REMARK SMILES IDX 92 24 93 25 15 26 16 27 17 28 18 29 19 30 20 32 21 33 22 34
REMARK SMILES IDX 83 35 23 36 82 37 24 38 25 39 26 40 76 41 27 42 81 43 75 44
REMARK SMILES IDX 77 45 28 46 80 47 74 48 73 49 29 51 61 52 41 53 60 54 42 55
REMARK SMILES IDX 45 56 59 57 78 58 43 59 44 60 58 62 79 63 46 64 30 65 31 66
REMARK SMILES IDX 39 67 32 68 38 69 40 70 37 71 33 72 34 73 35 74 36 75 62 76
REMARK SMILES IDX 63 77 71 78 64 79 70 80 72 81 69 82 65 83 66 84 67 85 68 86
REMARK SMILES IDX 47 87 48 88 56 89 49 90 55 91 57 92 54 93 50 94 51 95 52 96
REMARK SMILES IDX 53 97
REMARK H PARENT 11 7 18 31 77 50 45 61
REMARK Flexibility Score: inf
ROOT
ATOM      1  C   UNL     1      -4.554   6.085   0.842  1.00  0.00     0.002 C 
ENDROOT
BRANCH   1   2
ATOM      2  C   UNL     1      -4.518   5.272   2.144  1.00  0.00     0.021 C 
BRANCH   2   3
ATOM      3  C   UNL     1      -5.170   3.900   2.009  1.00  0.00     0.116 C 
BRANCH   3   4
ATOM      4  N   UNL     1      -4.424   3.135   1.043  1.00  0.00    -0.355 N 
ATOM      5  C   UNL     1      -3.332   2.385   1.326  1.00  0.00     0.230 C 
ATOM      6  O   UNL     1      -2.511   2.219   0.415  1.00  0.00    -0.274 OA
ATOM      7  H   UNL     1      -4.731   3.158   0.108  1.00  0.00     0.163 HD
BRANCH   5   8
ATOM      8  C   UNL     1      -3.238   1.720   2.676  1.00  0.00     0.178 C 
BRANCH   8   9
ATOM      9  S   UNL     1      -2.423   2.625   3.966  1.00  0.00    -0.078 SA
BRANCH   9  10
ATOM     10  C   UNL     1      -0.750   2.884   3.632  1.00  0.00     0.169 A 
ATOM     11  N   UNL     1       0.135   2.295   2.745  1.00  0.00    -0.315 N 
ATOM     12  C   UNL     1       1.267   3.103   2.726  1.00  0.00     0.072 A 
ATOM     13  N   UNL     1      -0.141   3.807   4.354  1.00  0.00    -0.221 NA
ATOM     14  C   UNL     1       1.081   3.992   3.779  1.00  0.00     0.108 A 
ATOM     15  C   UNL     1       2.405   3.171   1.917  1.00  0.00     0.049 A 
ATOM     16  C   UNL     1       2.073   4.934   4.072  1.00  0.00     0.141 A 
ATOM     17  C   UNL     1       3.323   4.155   2.269  1.00  0.00     0.113 A 
ATOM     18  N   UNL     1       3.196   5.006   3.313  1.00  0.00    -0.262 NA
BRANCH  11  19
ATOM     19  C   UNL     1      -0.087   1.290   1.720  1.00  0.00     0.102 C 
ATOM     20  C   UNL     1       1.205  -0.070  -0.077  1.00  0.00     0.014 C 
ATOM     21  C   UNL     1       0.852   0.138   1.387  1.00  0.00    -0.007 C 
ATOM     22  C   UNL     1       1.969  -0.274   2.315  1.00  0.00     0.014 C 
ATOM     23  C   UNL     1      -0.605  -0.143   1.830  1.00  0.00    -0.007 C 
ATOM     24  C   UNL     1      -1.560  -0.662   0.758  1.00  0.00     0.014 C 
ATOM     25  C   UNL     1      -0.848  -0.784   3.187  1.00  0.00     0.014 C 
ENDBRANCH  11  19
ENDBRANCH   9  10
ENDBRANCH   8   9
ENDBRANCH   5   8
ENDBRANCH   3   4
ENDBRANCH   2   3
ENDBRANCH   1   2
BRANCH   1  26
ATOM     26  C   UNL     1      -5.952   6.221   0.231  1.00  0.00     0.002 C 
BRANCH  26  27
ATOM     27  C   UNL     1      -7.021   6.689   1.227  1.00  0.00     0.021 C 
BRANCH  27  28
ATOM     28  C   UNL     1      -6.607   7.939   2.003  1.00  0.00     0.116 C 
BRANCH  28  29
ATOM     29  N   UNL     1      -6.361   9.064   1.137  1.00  0.00    -0.352 N 
ATOM     30  C   UNL     1      -7.172   9.977   0.529  1.00  0.00     0.251 C 
ATOM     31  H   UNL     1      -5.406   9.204   0.942  1.00  0.00     0.163 HD
ATOM     32  O   UNL     1      -6.605  10.823  -0.166  1.00  0.00    -0.269 OA
BRANCH  30  33
ATOM     33  C   UNL     1      -8.657   9.957   0.598  1.00  0.00     0.039 A 
ATOM     34  C   UNL     1      -9.427   9.097   1.386  1.00  0.00     0.014 A 
ATOM     35  C   UNL     1      -9.313  10.843  -0.272  1.00  0.00     0.014 A 
ATOM     36  C   UNL     1     -10.795   9.008   1.199  1.00  0.00     0.010 A 
ATOM     37  C   UNL     1     -10.688  10.792  -0.431  1.00  0.00     0.010 A 
ATOM     38  C   UNL     1     -11.409   9.818   0.249  1.00  0.00    -0.014 A 
BRANCH  38  39
ATOM     39  C   UNL     1     -12.828   9.611   0.018  1.00  0.00     0.031 A 
ATOM     40  C   UNL     1     -13.709   9.865   1.194  1.00  0.00     0.074 A 
ATOM     41  C   UNL     1     -13.296   9.290  -1.202  1.00  0.00     0.049 A 
ATOM     42  N   UNL     1     -14.489   9.036   1.811  1.00  0.00    -0.248 NA
ATOM     43  C   UNL     1     -13.596  11.177   1.848  1.00  0.00     0.031 C 
ATOM     44  C   UNL     1     -12.584   9.290  -2.484  1.00  0.00     0.029 A 
ATOM     45  N   UNL     1     -14.570   9.010  -1.569  1.00  0.00    -0.354 N 
ATOM     46  C   UNL     1     -15.103   9.767   2.830  1.00  0.00     0.074 A 
ATOM     47  C   UNL     1     -14.409  11.028   2.893  1.00  0.00     0.031 C 
ATOM     48  C   UNL     1     -13.487   9.306  -3.489  1.00  0.00     0.029 A 
ATOM     49  C   UNL     1     -14.817   9.168  -2.922  1.00  0.00     0.049 A 
ATOM     50  H   UNL     1     -15.259   8.720  -0.929  1.00  0.00     0.167 HD
ATOM     51  C   UNL     1     -16.249   9.350   3.443  1.00  0.00     0.034 A 
ATOM     52  C   UNL     1     -16.038   9.338  -3.488  1.00  0.00     0.034 A 
ATOM     53  C   UNL     1     -16.513   7.964   3.179  1.00  0.00     0.049 A 
ATOM     54  C   UNL     1     -17.049   8.823  -2.523  1.00  0.00     0.074 A 
ATOM     55  C   UNL     1     -15.866   6.785   3.488  1.00  0.00     0.029 A 
ATOM     56  N   UNL     1     -17.403   7.654   2.178  1.00  0.00    -0.354 N 
ATOM     57  N   UNL     1     -17.162   7.563  -2.195  1.00  0.00    -0.248 NA
ATOM     58  C   UNL     1     -17.599   9.771  -1.560  1.00  0.00     0.031 C 
ATOM     59  C   UNL     1     -16.026   5.971   2.332  1.00  0.00     0.029 A 
ATOM     60  C   UNL     1     -16.816   6.673   1.419  1.00  0.00     0.049 A 
ATOM     61  H   UNL     1     -18.289   8.057   2.034  1.00  0.00     0.167 HD
ATOM     62  C   UNL     1     -17.382   7.575  -0.824  1.00  0.00     0.074 A 
ATOM     63  C   UNL     1     -17.715   8.963  -0.502  1.00  0.00     0.031 C 
ATOM     64  C   UNL     1     -16.987   6.546  -0.015  1.00  0.00     0.034 A 
BRANCH  51  65
ATOM     65  C   UNL     1     -17.284  10.269   4.045  1.00  0.00     0.023 A 
ATOM     66  C   UNL     1     -17.304  11.654   3.800  1.00  0.00     0.031 A 
ATOM     67  C   UNL     1     -18.420   9.744   4.697  1.00  0.00     0.131 A 
ATOM     68  C   UNL     1     -18.384  12.456   4.192  1.00  0.00     0.055 A 
ATOM     69  C   UNL     1     -19.529  10.533   5.031  1.00  0.00     0.041 A 
ATOM     70  F   UNL     1     -18.513   8.435   4.980  1.00  0.00    -0.206 F 
ATOM     71  C   UNL     1     -19.516  11.898   4.777  1.00  0.00     0.022 A 
BRANCH  68  72
ATOM     72  S   UNL     1     -18.336  14.249   3.932  1.00  0.00     0.124 S 
ATOM     73  O   UNL     1     -19.456  14.450   3.019  1.00  0.00    -0.237 OA
ATOM     74  O   UNL     1     -18.528  14.751   5.290  1.00  0.00    -0.237 OA
ATOM     75  O   UNL     1     -17.007  14.476   3.373  1.00  0.00    -0.744 OA
ENDBRANCH  68  72
ENDBRANCH  51  65
BRANCH  52  76
ATOM     76  C   UNL     1     -16.333  10.447  -4.436  1.00  0.00     0.023 A 
ATOM     77  C   UNL     1     -15.525  11.603  -4.439  1.00  0.00     0.031 A 
ATOM     78  C   UNL     1     -17.544  10.516  -5.141  1.00  0.00     0.131 A 
ATOM     79  C   UNL     1     -15.934  12.772  -5.088  1.00  0.00     0.055 A 
ATOM     80  C   UNL     1     -17.949  11.683  -5.805  1.00  0.00     0.041 A 
ATOM     81  F   UNL     1     -18.387   9.471  -5.147  1.00  0.00    -0.206 F 
ATOM     82  C   UNL     1     -17.146  12.823  -5.773  1.00  0.00     0.022 A 
BRANCH  79  83
ATOM     83  S   UNL     1     -14.912  14.268  -4.984  1.00  0.00     0.124 S 
ATOM     84  O   UNL     1     -14.909  14.739  -6.367  1.00  0.00    -0.237 OA
ATOM     85  O   UNL     1     -15.673  15.081  -4.043  1.00  0.00    -0.237 OA
ATOM     86  O   UNL     1     -13.627  13.771  -4.502  1.00  0.00    -0.744 OA
ENDBRANCH  79  83
ENDBRANCH  52  76
BRANCH  64  87
ATOM     87  C   UNL     1     -16.420   5.280  -0.626  1.00  0.00     0.023 A 
ATOM     88  C   UNL     1     -16.884   4.056  -0.115  1.00  0.00     0.031 A 
ATOM     89  C   UNL     1     -15.269   5.245  -1.437  1.00  0.00     0.131 A 
ATOM     90  C   UNL     1     -16.175   2.873  -0.357  1.00  0.00     0.055 A 
ATOM     91  C   UNL     1     -14.606   4.051  -1.739  1.00  0.00     0.041 A 
ATOM     92  F   UNL     1     -14.687   6.365  -1.877  1.00  0.00    -0.206 F 
ATOM     93  C   UNL     1     -15.046   2.858  -1.179  1.00  0.00     0.022 A 
BRANCH  90  94
ATOM     94  S   UNL     1     -16.594   1.357   0.542  1.00  0.00     0.124 S 
ATOM     95  O   UNL     1     -16.963   0.450  -0.540  1.00  0.00    -0.237 OA
ATOM     96  O   UNL     1     -15.337   1.044   1.220  1.00  0.00    -0.237 OA
ATOM     97  O   UNL     1     -17.687   1.758   1.422  1.00  0.00    -0.744 OA
ENDBRANCH  90  94
ENDBRANCH  64  87
ENDBRANCH  38  39
ENDBRANCH  30  33
ENDBRANCH  28  29
ENDBRANCH  27  28
ENDBRANCH  26  27
ENDBRANCH   1  26
TORSDOF 19
