REMARK SMILES N#Cc1ccc(C(=O)NCCCCCCNC(=O)c2ccc(-c3c4nc(c(-c5cc(S(=O)(=O)[O-])ccc5F)c5ccc([nH]5)c(-c5cc(S(=O)(=O)[O-])ccc5F)c5nc(c(-c6cc(S(=O)(=O)[O-])ccc6F)c6ccc3[nH]6)C=C5)C=C4)cc2)nc1/C=C/c1ccc(O)c(Cl)c1
REMARK SMILES IDX 12 1 11 2 10 3 9 4 7 5 8 6 6 8 3 9 4 10 83 11 5 12 82 13
REMARK SMILES IDX 2 14 1 15 84 16 85 17 86 18 87 19 93 20 88 21 91 22 89 23
REMARK SMILES IDX 92 24 90 25 13 27 14 28 15 29 16 30 17 31 18 33 19 34 20 35
REMARK SMILES IDX 81 36 21 37 80 38 22 39 23 40 24 41 74 42 25 43 79 44 73 45
REMARK SMILES IDX 75 46 26 47 78 48 72 49 71 50 27 52 59 53 39 54 58 55 40 56
REMARK SMILES IDX 43 57 57 58 76 59 41 60 42 61 56 63 77 64 44 65 28 66 29 67
REMARK SMILES IDX 37 68 30 69 36 70 38 71 35 72 31 73 32 74 33 75 34 76 60 77
REMARK SMILES IDX 61 78 69 79 62 80 68 81 70 82 67 83 63 84 64 85 65 86 66 87
REMARK SMILES IDX 45 88 46 89 54 90 47 91 53 92 55 93 52 94 48 95 49 96 50 97
REMARK SMILES IDX 51 98
REMARK H PARENT 9 7 90 26 16 32 75 51 43 62
REMARK Flexibility Score: inf
ROOT
ATOM      1  C   UNL     1      -5.836   3.671  -1.439  1.00  0.00     0.002 C 
ENDROOT
BRANCH   1   2
ATOM      2  C   UNL     1      -4.355   3.333  -1.595  1.00  0.00     0.021 C 
BRANCH   2   3
ATOM      3  C   UNL     1      -3.690   2.689  -0.385  1.00  0.00     0.116 C 
BRANCH   3   4
ATOM      4  N   UNL     1      -4.104   1.319  -0.153  1.00  0.00    -0.351 N 
ATOM      5  C   UNL     1      -3.393   0.158   0.080  1.00  0.00     0.269 C 
ATOM      6  O   UNL     1      -4.050  -0.879   0.198  1.00  0.00    -0.268 OA
ATOM      7  H   UNL     1      -5.080   1.191  -0.165  1.00  0.00     0.163 HD
BRANCH   5   8
ATOM      8  C   UNL     1      -1.887   0.104   0.163  1.00  0.00     0.128 A 
ATOM      9  C   UNL     1       0.860  -0.156   0.079  1.00  0.00     0.078 A 
ATOM     10  C   UNL     1       0.290   1.077   0.389  1.00  0.00     0.024 A 
ATOM     11  C   UNL     1       0.009  -1.252  -0.072  1.00  0.00     0.082 A 
ATOM     12  C   UNL     1      -1.093   1.188   0.504  1.00  0.00     0.035 A 
ATOM     13  N   UNL     1      -1.343  -1.120  -0.085  1.00  0.00    -0.242 NA
BRANCH   9  14
ATOM     14  C   UNL     1       2.282  -0.262  -0.007  1.00  0.00     0.101 C 
ATOM     15  N   UNL     1       3.439  -0.354  -0.080  1.00  0.00    -0.192 NA
ENDBRANCH   9  14
BRANCH  11  16
ATOM     16  C   UNL     1       0.529  -2.634  -0.078  1.00  0.00     0.030 C 
ATOM     17  C   UNL     1      -0.222  -3.739   0.069  1.00  0.00     0.010 C 
BRANCH  17  18
ATOM     18  C   UNL     1       0.400  -5.056   0.259  1.00  0.00    -0.024 A 
ATOM     19  C   UNL     1      -0.047  -6.158  -0.478  1.00  0.00     0.012 A 
ATOM     20  C   UNL     1       1.420  -5.234   1.209  1.00  0.00     0.032 A 
ATOM     21  C   UNL     1       0.547  -7.412  -0.306  1.00  0.00     0.048 A 
ATOM     22  C   UNL     1       2.012  -6.484   1.378  1.00  0.00     0.083 A 
ATOM     23  C   UNL     1       1.579  -7.568   0.614  1.00  0.00     0.134 A 
ATOM     24  Cl  UNL     1       3.280  -6.676   2.531  1.00  0.00    -0.080 Cl
BRANCH  23  25
ATOM     25  O   UNL     1       2.142  -8.808   0.736  1.00  0.00    -0.506 OA
ATOM     26  H   UNL     1       1.830  -9.518   0.209  1.00  0.00     0.293 HD
ENDBRANCH  23  25
ENDBRANCH  17  18
ENDBRANCH  11  16
ENDBRANCH   5   8
ENDBRANCH   3   4
ENDBRANCH   2   3
ENDBRANCH   1   2
BRANCH   1  27
ATOM     27  C   UNL     1      -6.195   4.532  -0.225  1.00  0.00     0.002 C 
BRANCH  27  28
ATOM     28  C   UNL     1      -5.374   5.812  -0.052  1.00  0.00     0.021 C 
BRANCH  28  29
ATOM     29  C   UNL     1      -5.386   6.751  -1.254  1.00  0.00     0.116 C 
BRANCH  29  30
ATOM     30  N   UNL     1      -6.727   7.204  -1.576  1.00  0.00    -0.352 N 
ATOM     31  C   UNL     1      -7.220   8.483  -1.649  1.00  0.00     0.251 C 
ATOM     32  H   UNL     1      -7.377   6.490  -1.770  1.00  0.00     0.163 HD
ATOM     33  O   UNL     1      -8.432   8.665  -1.698  1.00  0.00    -0.269 OA
BRANCH  31  34
ATOM     34  C   UNL     1      -6.288   9.632  -1.645  1.00  0.00     0.039 A 
ATOM     35  C   UNL     1      -6.600  10.752  -0.873  1.00  0.00     0.014 A 
ATOM     36  C   UNL     1      -5.114   9.607  -2.404  1.00  0.00     0.014 A 
ATOM     37  C   UNL     1      -5.705  11.822  -0.817  1.00  0.00     0.010 A 
ATOM     38  C   UNL     1      -4.185  10.636  -2.279  1.00  0.00     0.010 A 
ATOM     39  C   UNL     1      -4.471  11.758  -1.488  1.00  0.00    -0.014 A 
BRANCH  39  40
ATOM     40  C   UNL     1      -3.477  12.857  -1.372  1.00  0.00     0.031 A 
ATOM     41  C   UNL     1      -3.059  13.632  -2.592  1.00  0.00     0.074 A 
ATOM     42  C   UNL     1      -2.924  13.131  -0.173  1.00  0.00     0.049 A 
ATOM     43  N   UNL     1      -2.168  14.585  -2.701  1.00  0.00    -0.248 NA
ATOM     44  C   UNL     1      -3.710  13.274  -3.862  1.00  0.00     0.031 C 
ATOM     45  C   UNL     1      -3.229  12.430   1.077  1.00  0.00     0.029 A 
ATOM     46  N   UNL     1      -1.991  14.068   0.196  1.00  0.00    -0.354 N 
ATOM     47  C   UNL     1      -2.152  14.938  -4.045  1.00  0.00     0.074 A 
ATOM     48  C   UNL     1      -3.070  14.050  -4.724  1.00  0.00     0.031 C 
ATOM     49  C   UNL     1      -2.525  12.983   2.076  1.00  0.00     0.029 A 
ATOM     50  C   UNL     1      -1.670  14.035   1.535  1.00  0.00     0.049 A 
ATOM     51  H   UNL     1      -1.588  14.705  -0.437  1.00  0.00     0.167 HD
ATOM     52  C   UNL     1      -1.454  15.930  -4.653  1.00  0.00     0.034 A 
ATOM     53  C   UNL     1      -0.776  14.754   2.243  1.00  0.00     0.034 A 
ATOM     54  C   UNL     1      -0.542  16.807  -3.961  1.00  0.00     0.049 A 
ATOM     55  C   UNL     1       0.036  15.807   1.529  1.00  0.00     0.074 A 
ATOM     56  C   UNL     1       0.187  17.866  -4.475  1.00  0.00     0.029 A 
ATOM     57  N   UNL     1      -0.223  16.725  -2.612  1.00  0.00    -0.354 N 
ATOM     58  N   UNL     1       0.006  16.156   0.263  1.00  0.00    -0.248 NA
ATOM     59  C   UNL     1       0.994  16.570   2.339  1.00  0.00     0.031 C 
ATOM     60  C   UNL     1       1.012  18.363  -3.462  1.00  0.00     0.029 A 
ATOM     61  C   UNL     1       0.723  17.687  -2.288  1.00  0.00     0.049 A 
ATOM     62  H   UNL     1      -0.611  16.079  -1.979  1.00  0.00     0.167 HD
ATOM     63  C   UNL     1       0.914  17.205   0.137  1.00  0.00     0.074 A 
ATOM     64  C   UNL     1       1.458  17.442   1.458  1.00  0.00     0.031 C 
ATOM     65  C   UNL     1       1.263  17.912  -0.968  1.00  0.00     0.034 A 
BRANCH  52  66
ATOM     66  C   UNL     1      -1.631  16.101  -6.143  1.00  0.00     0.023 A 
ATOM     67  C   UNL     1      -2.873  16.443  -6.705  1.00  0.00     0.031 A 
ATOM     68  C   UNL     1      -0.541  15.925  -7.014  1.00  0.00     0.131 A 
ATOM     69  C   UNL     1      -3.010  16.534  -8.098  1.00  0.00     0.055 A 
ATOM     70  C   UNL     1      -0.664  16.104  -8.393  1.00  0.00     0.041 A 
ATOM     71  F   UNL     1       0.664  15.571  -6.540  1.00  0.00    -0.206 F 
ATOM     72  C   UNL     1      -1.908  16.398  -8.944  1.00  0.00     0.022 A 
BRANCH  69  73
ATOM     73  S   UNL     1      -4.677  16.692  -8.794  1.00  0.00     0.124 S 
ATOM     74  O   UNL     1      -5.328  15.493  -8.271  1.00  0.00    -0.237 OA
ATOM     75  O   UNL     1      -5.133  17.961  -8.239  1.00  0.00    -0.237 OA
ATOM     76  O   UNL     1      -4.447  16.686 -10.237  1.00  0.00    -0.744 OA
ENDBRANCH  69  73
ENDBRANCH  52  66
BRANCH  53  77
ATOM     77  C   UNL     1      -0.568  14.492   3.699  1.00  0.00     0.023 A 
ATOM     78  C   UNL     1      -0.781  15.497   4.655  1.00  0.00     0.031 A 
ATOM     79  C   UNL     1      -0.079  13.252   4.149  1.00  0.00     0.131 A 
ATOM     80  C   UNL     1      -0.442  15.270   5.998  1.00  0.00     0.055 A 
ATOM     81  C   UNL     1       0.185  13.006   5.498  1.00  0.00     0.041 A 
ATOM     82  F   UNL     1       0.149  12.254   3.281  1.00  0.00    -0.206 F 
ATOM     83  C   UNL     1       0.022  14.026   6.429  1.00  0.00     0.022 A 
BRANCH  80  84
ATOM     84  S   UNL     1      -0.486  16.670   7.152  1.00  0.00     0.124 S 
ATOM     85  O   UNL     1       0.405  17.619   6.495  1.00  0.00    -0.237 OA
ATOM     86  O   UNL     1      -1.904  17.015   7.155  1.00  0.00    -0.237 OA
ATOM     87  O   UNL     1       0.019  16.098   8.398  1.00  0.00    -0.744 OA
ENDBRANCH  80  84
ENDBRANCH  53  77
BRANCH  65  88
ATOM     88  C   UNL     1       2.242  19.048  -0.784  1.00  0.00     0.023 A 
ATOM     89  C   UNL     1       3.566  18.829  -0.366  1.00  0.00     0.031 A 
ATOM     90  C   UNL     1       1.837  20.373  -1.025  1.00  0.00     0.131 A 
ATOM     91  C   UNL     1       4.416  19.922  -0.140  1.00  0.00     0.055 A 
ATOM     92  C   UNL     1       2.711  21.450  -0.875  1.00  0.00     0.041 A 
ATOM     93  F   UNL     1       0.582  20.645  -1.419  1.00  0.00    -0.206 F 
ATOM     94  C   UNL     1       4.005  21.229  -0.415  1.00  0.00     0.022 A 
BRANCH  91  95
ATOM     95  S   UNL     1       6.031  19.621   0.630  1.00  0.00     0.124 S 
ATOM     96  O   UNL     1       5.653  18.963   1.876  1.00  0.00    -0.237 OA
ATOM     97  O   UNL     1       6.697  18.779  -0.359  1.00  0.00    -0.237 OA
ATOM     98  O   UNL     1       6.593  20.962   0.781  1.00  0.00    -0.744 OA
ENDBRANCH  91  95
ENDBRANCH  65  88
ENDBRANCH  39  40
ENDBRANCH  31  34
ENDBRANCH  29  30
ENDBRANCH  28  29
ENDBRANCH  27  28
ENDBRANCH   1  27
TORSDOF 20
