REMARK SMILES C[C@H](NC(=O)OCc1ccccc1)C(=O)NCC(=O)N1CCC[C@H]1C(=O)NCCCCCCNC(=O)c1ccc(-c2c3nc(c(-c4cc(S(=O)(=O)[O-])ccc4F)c4ccc([nH]4)c(-c4cc(S(=O)(=O)[O-])ccc4F)c4nc(c(-c5cc(S(=O)(=O)[O-])ccc5F)c5ccc2[nH]5)C=C4)C=C3)cc1
REMARK SMILES IDX 28 1 27 2 25 3 26 4 24 6 20 7 21 8 22 9 23 10 18 11 19 12
REMARK SMILES IDX 17 13 16 14 14 15 15 16 2 18 1 19 3 20 4 21 5 23 6 24 7 25
REMARK SMILES IDX 8 26 9 27 13 28 10 29 12 30 11 31 29 32 30 33 31 34 32 35
REMARK SMILES IDX 33 36 34 37 35 38 36 40 37 41 38 42 99 43 39 44 98 45 40 46
REMARK SMILES IDX 41 47 42 48 92 49 43 50 97 51 91 52 93 53 44 54 96 55 90 56
REMARK SMILES IDX 89 57 45 59 77 60 57 61 76 62 58 63 61 64 75 65 94 66 59 67
REMARK SMILES IDX 60 68 74 70 95 71 62 72 46 73 47 74 55 75 48 76 54 77 56 78
REMARK SMILES IDX 53 79 49 80 50 81 51 82 52 83 78 84 79 85 87 86 80 87 86 88
REMARK SMILES IDX 88 89 85 90 81 91 82 92 83 93 84 94 63 95 64 96 72 97 65 98
REMARK SMILES IDX 71 99 73 100 70 101 66 102 67 103 68 104 69 105
REMARK H PARENT 27 5 16 17 3 22 34 39 93 58 61 69
REMARK Flexibility Score: inf
ROOT
ATOM      1  C   UNL     1      -0.852  -5.798   0.622  1.00  0.00     0.116 C 
ENDROOT
BRANCH   1   2
ATOM      2  N   UNL     1      -1.550  -5.361   1.821  1.00  0.00    -0.354 N 
ATOM      3  C   UNL     1      -1.598  -4.110   2.373  1.00  0.00     0.242 C 
ATOM      4  O   UNL     1      -2.469  -3.881   3.217  1.00  0.00    -0.273 OA
ATOM      5  H   UNL     1      -2.056  -6.057   2.298  1.00  0.00     0.163 HD
BRANCH   3   6
ATOM      6  C   UNL     1      -0.613  -3.019   1.893  1.00  0.00     0.174 C 
ATOM      7  N   UNL     1      -1.235  -2.027   1.001  1.00  0.00    -0.329 N 
ATOM      8  C   UNL     1      -1.553  -0.824   1.744  1.00  0.00     0.120 C 
ATOM      9  C   UNL     1      -0.452  -0.741   2.781  1.00  0.00     0.024 C 
ATOM     10  C   UNL     1      -0.131  -2.196   3.109  1.00  0.00     0.037 C 
BRANCH   7  11
ATOM     11  C   UNL     1      -1.704  -2.382  -0.247  1.00  0.00     0.242 C 
ATOM     12  O   UNL     1      -2.064  -3.533  -0.496  1.00  0.00    -0.273 OA
BRANCH  11  13
ATOM     13  C   UNL     1      -1.448  -1.455  -1.440  1.00  0.00     0.216 C 
BRANCH  13  14
ATOM     14  N   UNL     1      -1.750  -0.051  -1.286  1.00  0.00    -0.345 N 
ATOM     15  C   UNL     1      -0.934   1.040  -1.273  1.00  0.00     0.242 C 
ATOM     16  O   UNL     1      -1.478   2.148  -1.256  1.00  0.00    -0.273 OA
ATOM     17  H   UNL     1      -2.707   0.152  -1.171  1.00  0.00     0.164 HD
BRANCH  15  18
ATOM     18  C   UNL     1       0.597   0.911  -1.400  1.00  0.00     0.171 C 
ATOM     19  C   UNL     1       0.977   0.615  -2.850  1.00  0.00     0.042 C 
BRANCH  18  20
ATOM     20  N   UNL     1       1.129  -0.078  -0.471  1.00  0.00    -0.310 N 
ATOM     21  C   UNL     1       2.435  -0.312  -0.183  1.00  0.00     0.408 C 
ATOM     22  H   UNL     1       0.469  -0.638  -0.002  1.00  0.00     0.167 HD
ATOM     23  O   UNL     1       2.750  -1.226   0.569  1.00  0.00    -0.225 OA
BRANCH  21  24
ATOM     24  O   UNL     1       3.278   0.536  -0.811  1.00  0.00    -0.445 OA
BRANCH  24  25
ATOM     25  C   UNL     1       4.672   0.279  -0.604  1.00  0.00     0.270 C 
BRANCH  25  26
ATOM     26  C   UNL     1       5.144   0.867   0.701  1.00  0.00    -0.011 A 
ATOM     27  C   UNL     1       5.417   0.032   1.793  1.00  0.00     0.007 A 
ATOM     28  C   UNL     1       5.274   2.254   0.856  1.00  0.00     0.007 A 
ATOM     29  C   UNL     1       5.816   0.570   3.016  1.00  0.00     0.000 A 
ATOM     30  C   UNL     1       5.677   2.791   2.080  1.00  0.00     0.000 A 
ATOM     31  C   UNL     1       5.946   1.950   3.159  1.00  0.00     0.000 A 
ENDBRANCH  25  26
ENDBRANCH  24  25
ENDBRANCH  21  24
ENDBRANCH  18  20
ENDBRANCH  15  18
ENDBRANCH  13  14
ENDBRANCH  11  13
ENDBRANCH   7  11
ENDBRANCH   3   6
ENDBRANCH   1   2
BRANCH   1  32
ATOM     32  C   UNL     1      -0.267  -7.196   0.760  1.00  0.00     0.021 C 
BRANCH  32  33
ATOM     33  C   UNL     1      -1.314  -8.297   0.955  1.00  0.00     0.002 C 
BRANCH  33  34
ATOM     34  C   UNL     1      -2.418  -8.357  -0.108  1.00  0.00     0.002 C 
BRANCH  34  35
ATOM     35  C   UNL     1      -1.934  -8.472  -1.555  1.00  0.00     0.021 C 
BRANCH  35  36
ATOM     36  C   UNL     1      -1.006  -9.650  -1.828  1.00  0.00     0.116 C 
BRANCH  36  37
ATOM     37  N   UNL     1      -1.642 -10.928  -1.553  1.00  0.00    -0.352 N 
ATOM     38  C   UNL     1      -1.721 -12.047  -2.345  1.00  0.00     0.251 C 
ATOM     39  H   UNL     1      -2.078 -11.002  -0.673  1.00  0.00     0.163 HD
ATOM     40  O   UNL     1      -2.458 -12.973  -2.021  1.00  0.00    -0.269 OA
BRANCH  38  41
ATOM     41  C   UNL     1      -0.939 -12.114  -3.599  1.00  0.00     0.039 A 
ATOM     42  C   UNL     1      -1.563 -12.576  -4.759  1.00  0.00     0.014 A 
ATOM     43  C   UNL     1       0.400 -11.713  -3.633  1.00  0.00     0.014 A 
ATOM     44  C   UNL     1      -0.863 -12.573  -5.968  1.00  0.00     0.010 A 
ATOM     45  C   UNL     1       1.070 -11.638  -4.851  1.00  0.00     0.010 A 
ATOM     46  C   UNL     1       0.446 -12.066  -6.033  1.00  0.00    -0.014 A 
BRANCH  46  47
ATOM     47  C   UNL     1       1.171 -11.973  -7.328  1.00  0.00     0.031 A 
ATOM     48  C   UNL     1       2.437 -12.757  -7.546  1.00  0.00     0.074 A 
ATOM     49  C   UNL     1       0.719 -11.138  -8.285  1.00  0.00     0.049 A 
ATOM     50  N   UNL     1       3.241 -12.760  -8.577  1.00  0.00    -0.248 NA
ATOM     51  C   UNL     1       2.868 -13.632  -6.446  1.00  0.00     0.031 C 
ATOM     52  C   UNL     1      -0.476 -10.298  -8.176  1.00  0.00     0.029 A 
ATOM     53  N   UNL     1       1.209 -10.853  -9.536  1.00  0.00    -0.354 N 
ATOM     54  C   UNL     1       4.278 -13.628  -8.249  1.00  0.00     0.074 A 
ATOM     55  C   UNL     1       4.031 -14.079  -6.895  1.00  0.00     0.031 C 
ATOM     56  C   UNL     1      -0.641  -9.617  -9.321  1.00  0.00     0.029 A 
ATOM     57  C   UNL     1       0.461  -9.927 -10.226  1.00  0.00     0.049 A 
ATOM     58  H   UNL     1       2.021 -11.272  -9.904  1.00  0.00     0.167 HD
ATOM     59  C   UNL     1       5.324 -14.029  -9.014  1.00  0.00     0.034 A 
ATOM     60  C   UNL     1       0.647  -9.379 -11.444  1.00  0.00     0.034 A 
ATOM     61  C   UNL     1       5.550 -13.572 -10.364  1.00  0.00     0.049 A 
ATOM     62  C   UNL     1       1.841  -9.809 -12.260  1.00  0.00     0.074 A 
ATOM     63  C   UNL     1       6.548 -13.951 -11.245  1.00  0.00     0.029 A 
ATOM     64  N   UNL     1       4.778 -12.625 -11.025  1.00  0.00    -0.354 N 
ATOM     65  N   UNL     1       2.784 -10.670 -11.954  1.00  0.00    -0.248 NA
ATOM     66  C   UNL     1       1.988  -9.203 -13.589  1.00  0.00     0.031 C 
ATOM     67  C   UNL     1       6.428 -13.178 -12.404  1.00  0.00     0.029 A 
ATOM     68  C   UNL     1       5.300 -12.381 -12.287  1.00  0.00     0.049 A 
ATOM     69  H   UNL     1       3.977 -12.190 -10.653  1.00  0.00     0.167 HD
ATOM     70  C   UNL     1       3.616 -10.734 -13.069  1.00  0.00     0.074 A 
ATOM     71  C   UNL     1       3.055  -9.835 -14.056  1.00  0.00     0.031 C 
ATOM     72  C   UNL     1       4.738 -11.474 -13.262  1.00  0.00     0.034 A 
BRANCH  59  73
ATOM     73  C   UNL     1       6.314 -14.988  -8.393  1.00  0.00     0.023 A 
ATOM     74  C   UNL     1       5.932 -16.271  -7.963  1.00  0.00     0.031 A 
ATOM     75  C   UNL     1       7.655 -14.608  -8.209  1.00  0.00     0.131 A 
ATOM     76  C   UNL     1       6.856 -17.093  -7.301  1.00  0.00     0.055 A 
ATOM     77  C   UNL     1       8.592 -15.466  -7.630  1.00  0.00     0.041 A 
ATOM     78  F   UNL     1       8.077 -13.388  -8.578  1.00  0.00    -0.206 F 
ATOM     79  C   UNL     1       8.191 -16.711  -7.156  1.00  0.00     0.022 A 
BRANCH  76  80
ATOM     80  S   UNL     1       6.249 -18.601  -6.495  1.00  0.00     0.124 S 
ATOM     81  O   UNL     1       5.247 -18.062  -5.579  1.00  0.00    -0.237 OA
ATOM     82  O   UNL     1       5.738 -19.376  -7.619  1.00  0.00    -0.237 OA
ATOM     83  O   UNL     1       7.441 -19.147  -5.849  1.00  0.00    -0.744 OA
ENDBRANCH  76  80
ENDBRANCH  59  73
BRANCH  60  84
ATOM     84  C   UNL     1      -0.304  -8.354 -11.965  1.00  0.00     0.023 A 
ATOM     85  C   UNL     1      -1.066  -8.593 -13.120  1.00  0.00     0.031 A 
ATOM     86  C   UNL     1      -0.434  -7.101 -11.340  1.00  0.00     0.131 A 
ATOM     87  C   UNL     1      -1.883  -7.579 -13.642  1.00  0.00     0.055 A 
ATOM     88  C   UNL     1      -1.295  -6.117 -11.828  1.00  0.00     0.041 A 
ATOM     89  F   UNL     1       0.270  -6.818 -10.232  1.00  0.00    -0.206 F 
ATOM     90  C   UNL     1      -2.015  -6.348 -12.995  1.00  0.00     0.022 A 
BRANCH  87  91
ATOM     91  S   UNL     1      -2.700  -7.857 -15.238  1.00  0.00     0.124 S 
ATOM     92  O   UNL     1      -1.562  -8.130 -16.108  1.00  0.00    -0.237 OA
ATOM     93  O   UNL     1      -3.568  -8.990 -14.941  1.00  0.00    -0.237 OA
ATOM     94  O   UNL     1      -3.390  -6.594 -15.491  1.00  0.00    -0.744 OA
ENDBRANCH  87  91
ENDBRANCH  60  84
BRANCH  72  95
ATOM     95  C   UNL     1       5.403 -11.381 -14.615  1.00  0.00     0.023 A 
ATOM     96  C   UNL     1       6.003 -10.194 -15.070  1.00  0.00     0.031 A 
ATOM     97  C   UNL     1       5.432 -12.503 -15.463  1.00  0.00     0.131 A 
ATOM     98  C   UNL     1       6.558 -10.141 -16.358  1.00  0.00     0.055 A 
ATOM     99  C   UNL     1       6.045 -12.463 -16.716  1.00  0.00     0.041 A 
ATOM    100  F   UNL     1       4.871 -13.662 -15.084  1.00  0.00    -0.206 F 
ATOM    101  C   UNL     1       6.601 -11.273 -17.175  1.00  0.00     0.022 A 
BRANCH  98 102
ATOM    102  S   UNL     1       7.139  -8.543 -16.991  1.00  0.00     0.124 S 
ATOM    103  O   UNL     1       5.933  -7.727 -16.908  1.00  0.00    -0.237 OA
ATOM    104  O   UNL     1       8.204  -8.204 -16.052  1.00  0.00    -0.237 OA
ATOM    105  O   UNL     1       7.586  -8.854 -18.348  1.00  0.00    -0.744 OA
ENDBRANCH  98 102
ENDBRANCH  72  95
ENDBRANCH  46  47
ENDBRANCH  38  41
ENDBRANCH  36  37
ENDBRANCH  35  36
ENDBRANCH  34  35
ENDBRANCH  33  34
ENDBRANCH  32  33
ENDBRANCH   1  32
TORSDOF 24
