REMARK SMILES CCCCOC(=O)[C@@H]1[C@H]2c3ccccc3[C@H](c3ccccc32)[C@@H]1C(=O)NCCCCCCNC(=O)c1ccc(-c2c3nc(c(-c4cc(S(=O)(=O)[O-])ccc4F)c4ccc([nH]4)c(-c4cc(S(=O)(=O)[O-])ccc4F)c4nc(c(-c5cc(S(=O)(=O)[O-])ccc5F)c5ccc2[nH]5)C=C4)C=C3)cc1
REMARK SMILES IDX 28 1 27 2 26 3 24 4 25 5 23 7 8 8 9 9 22 10 10 11 16 12
REMARK SMILES IDX 21 13 17 14 15 15 11 16 20 17 18 18 14 19 12 20 19 21 13 22
REMARK SMILES IDX 6 23 7 24 5 25 4 26 3 27 2 28 1 29 29 30 30 31 31 32 32 33
REMARK SMILES IDX 33 34 34 35 35 37 36 38 37 39 98 40 38 41 97 42 39 43 40 44
REMARK SMILES IDX 41 45 91 46 42 47 96 48 90 49 92 50 43 51 95 52 89 53 88 54
REMARK SMILES IDX 44 56 76 57 56 58 75 59 57 60 60 61 74 62 93 63 58 64 59 65
REMARK SMILES IDX 73 67 94 68 61 69 45 70 46 71 54 72 47 73 53 74 55 75 52 76
REMARK SMILES IDX 48 77 49 78 50 79 51 80 77 81 78 82 86 83 79 84 85 85 87 86
REMARK SMILES IDX 84 87 80 88 81 89 82 90 83 91 62 92 63 93 71 94 64 95 70 96
REMARK SMILES IDX 72 97 69 98 65 99 66 100 67 101 68 102
REMARK H PARENT 26 6 33 36 92 55 60 66
REMARK Flexibility Score: inf
ROOT
ATOM      1  C   UNL     1      -7.972   2.515   0.156  1.00  0.00     0.021 C 
ENDROOT
BRANCH   1   2
ATOM      2  C   UNL     1      -6.533   2.848  -0.221  1.00  0.00     0.116 C 
BRANCH   2   3
ATOM      3  N   UNL     1      -5.712   3.150   0.930  1.00  0.00    -0.356 N 
ATOM      4  C   UNL     1      -4.543   2.660   1.396  1.00  0.00     0.224 C 
ATOM      5  O   UNL     1      -4.073   3.264   2.371  1.00  0.00    -0.275 OA
ATOM      6  H   UNL     1      -6.084   3.866   1.494  1.00  0.00     0.163 HD
BRANCH   4   7
ATOM      7  C   UNL     1      -3.807   1.426   0.879  1.00  0.00     0.105 C 
ATOM      8  C   UNL     1      -3.210   1.392  -0.559  1.00  0.00     0.124 C 
ATOM      9  C   UNL     1      -3.583   0.056  -1.270  1.00  0.00     0.065 C 
ATOM     10  C   UNL     1      -5.085  -0.199  -1.167  1.00  0.00    -0.036 A 
ATOM     11  C   UNL     1      -2.949  -1.032  -0.372  1.00  0.00    -0.036 A 
ATOM     12  C   UNL     1      -4.499   0.071   1.215  1.00  0.00     0.063 C 
ATOM     13  C   UNL     1      -5.919  -0.540  -2.224  1.00  0.00     0.004 A 
ATOM     14  C   UNL     1      -5.567  -0.233   0.171  1.00  0.00    -0.036 A 
ATOM     15  C   UNL     1      -3.427  -1.004   0.974  1.00  0.00    -0.036 A 
ATOM     16  C   UNL     1      -2.071  -2.023  -0.784  1.00  0.00     0.004 A 
ATOM     17  C   UNL     1      -7.228  -0.940  -1.942  1.00  0.00     0.000 A 
ATOM     18  C   UNL     1      -6.857  -0.667   0.448  1.00  0.00     0.004 A 
ATOM     19  C   UNL     1      -3.011  -1.948   1.900  1.00  0.00     0.004 A 
ATOM     20  C   UNL     1      -1.663  -2.979   0.151  1.00  0.00     0.000 A 
ATOM     21  C   UNL     1      -7.687  -1.020  -0.618  1.00  0.00     0.000 A 
ATOM     22  C   UNL     1      -2.123  -2.939   1.478  1.00  0.00     0.000 A 
BRANCH   8  23
ATOM     23  C   UNL     1      -3.265   2.677  -1.349  1.00  0.00     0.310 C 
ATOM     24  O   UNL     1      -2.500   3.605  -1.103  1.00  0.00    -0.252 OA
BRANCH  23  25
ATOM     25  O   UNL     1      -4.183   2.694  -2.344  1.00  0.00    -0.465 OA
BRANCH  25  26
ATOM     26  C   UNL     1      -4.096   3.808  -3.261  1.00  0.00     0.233 C 
BRANCH  26  27
ATOM     27  C   UNL     1      -5.080   4.936  -2.937  1.00  0.00     0.041 C 
BRANCH  27  28
ATOM     28  C   UNL     1      -4.833   5.678  -1.619  1.00  0.00     0.000 C 
ATOM     29  C   UNL     1      -3.666   6.649  -1.667  1.00  0.00     0.004 C 
ENDBRANCH  27  28
ENDBRANCH  26  27
ENDBRANCH  25  26
ENDBRANCH  23  25
ENDBRANCH   8  23
ENDBRANCH   4   7
ENDBRANCH   2   3
ENDBRANCH   1   2
BRANCH   1  30
ATOM     30  C   UNL     1      -8.975   3.630  -0.157  1.00  0.00     0.002 C 
BRANCH  30  31
ATOM     31  C   UNL     1      -9.062   4.056  -1.630  1.00  0.00     0.002 C 
BRANCH  31  32
ATOM     32  C   UNL     1      -9.185   2.923  -2.651  1.00  0.00     0.021 C 
BRANCH  32  33
ATOM     33  C   UNL     1     -10.354   1.972  -2.415  1.00  0.00     0.116 C 
BRANCH  33  34
ATOM     34  N   UNL     1     -11.634   2.662  -2.430  1.00  0.00    -0.352 N 
ATOM     35  C   UNL     1     -12.694   2.520  -3.291  1.00  0.00     0.251 C 
ATOM     36  H   UNL     1     -11.760   3.329  -1.717  1.00  0.00     0.163 HD
ATOM     37  O   UNL     1     -13.612   3.336  -3.273  1.00  0.00    -0.269 OA
BRANCH  35  38
ATOM     38  C   UNL     1     -12.706   1.400  -4.254  1.00  0.00     0.039 A 
ATOM     39  C   UNL     1     -12.388   0.105  -3.836  1.00  0.00     0.014 A 
ATOM     40  C   UNL     1     -13.021   1.653  -5.590  1.00  0.00     0.014 A 
ATOM     41  C   UNL     1     -12.232  -0.905  -4.780  1.00  0.00     0.010 A 
ATOM     42  C   UNL     1     -12.941   0.618  -6.525  1.00  0.00     0.010 A 
ATOM     43  C   UNL     1     -12.504  -0.658  -6.135  1.00  0.00    -0.014 A 
BRANCH  43  44
ATOM     44  C   UNL     1     -12.344  -1.744  -7.135  1.00  0.00     0.031 A 
ATOM     45  C   UNL     1     -11.315  -1.633  -8.225  1.00  0.00     0.074 A 
ATOM     46  C   UNL     1     -13.129  -2.836  -7.051  1.00  0.00     0.049 A 
ATOM     47  N   UNL     1     -11.073  -2.454  -9.213  1.00  0.00    -0.248 NA
ATOM     48  C   UNL     1     -10.442  -0.447  -8.207  1.00  0.00     0.031 C 
ATOM     49  C   UNL     1     -14.147  -3.053  -6.023  1.00  0.00     0.029 A 
ATOM     50  N   UNL     1     -13.198  -3.963  -7.832  1.00  0.00    -0.354 N 
ATOM     51  C   UNL     1     -10.043  -1.877  -9.947  1.00  0.00     0.074 A 
ATOM     52  C   UNL     1      -9.719  -0.623  -9.305  1.00  0.00     0.031 C 
ATOM     53  C   UNL     1     -14.723  -4.246  -6.221  1.00  0.00     0.029 A 
ATOM     54  C   UNL     1     -14.175  -4.846  -7.435  1.00  0.00     0.049 A 
ATOM     55  H   UNL     1     -12.607  -4.123  -8.602  1.00  0.00     0.167 HD
ATOM     56  C   UNL     1      -9.424  -2.360 -11.050  1.00  0.00     0.034 A 
ATOM     57  C   UNL     1     -14.610  -5.993  -7.997  1.00  0.00     0.034 A 
ATOM     58  C   UNL     1      -9.749  -3.625 -11.659  1.00  0.00     0.049 A 
ATOM     59  C   UNL     1     -13.930  -6.490  -9.246  1.00  0.00     0.074 A 
ATOM     60  C   UNL     1      -9.150  -4.220 -12.755  1.00  0.00     0.029 A 
ATOM     61  N   UNL     1     -10.751  -4.486 -11.236  1.00  0.00    -0.354 N 
ATOM     62  N   UNL     1     -12.925  -5.956  -9.901  1.00  0.00    -0.248 NA
ATOM     63  C   UNL     1     -14.430  -7.739  -9.835  1.00  0.00     0.031 C 
ATOM     64  C   UNL     1      -9.836  -5.399 -13.040  1.00  0.00     0.029 A 
ATOM     65  C   UNL     1     -10.806  -5.591 -12.069  1.00  0.00     0.049 A 
ATOM     66  H   UNL     1     -11.336  -4.335 -10.458  1.00  0.00     0.167 HD
ATOM     67  C   UNL     1     -12.655  -6.817 -10.960  1.00  0.00     0.074 A 
ATOM     68  C   UNL     1     -13.590  -7.917 -10.848  1.00  0.00     0.031 C 
ATOM     69  C   UNL     1     -11.721  -6.700 -11.936  1.00  0.00     0.034 A 
BRANCH  56  70
ATOM     70  C   UNL     1      -8.322  -1.551 -11.691  1.00  0.00     0.023 A 
ATOM     71  C   UNL     1      -8.469  -1.101 -13.017  1.00  0.00     0.031 A 
ATOM     72  C   UNL     1      -7.077  -1.373 -11.063  1.00  0.00     0.131 A 
ATOM     73  C   UNL     1      -7.375  -0.544 -13.690  1.00  0.00     0.055 A 
ATOM     74  C   UNL     1      -6.002  -0.777 -11.724  1.00  0.00     0.041 A 
ATOM     75  F   UNL     1      -6.886  -1.785  -9.799  1.00  0.00    -0.206 F 
ATOM     76  C   UNL     1      -6.144  -0.375 -13.049  1.00  0.00     0.022 A 
BRANCH  73  77
ATOM     77  S   UNL     1      -7.481  -0.097 -15.445  1.00  0.00     0.124 S 
ATOM     78  O   UNL     1      -7.136   1.323 -15.412  1.00  0.00    -0.237 OA
ATOM     79  O   UNL     1      -6.475  -0.969 -16.043  1.00  0.00    -0.237 OA
ATOM     80  O   UNL     1      -8.865  -0.391 -15.799  1.00  0.00    -0.744 OA
ENDBRANCH  73  77
ENDBRANCH  56  70
BRANCH  57  81
ATOM     81  C   UNL     1     -15.729  -6.738  -7.348  1.00  0.00     0.023 A 
ATOM     82  C   UNL     1     -16.988  -6.131  -7.170  1.00  0.00     0.031 A 
ATOM     83  C   UNL     1     -15.525  -8.008  -6.787  1.00  0.00     0.131 A 
ATOM     84  C   UNL     1     -17.959  -6.756  -6.378  1.00  0.00     0.055 A 
ATOM     85  C   UNL     1     -16.526  -8.664  -6.067  1.00  0.00     0.041 A 
ATOM     86  F   UNL     1     -14.340  -8.623  -6.917  1.00  0.00    -0.206 F 
ATOM     87  C   UNL     1     -17.743  -8.028  -5.841  1.00  0.00     0.022 A 
BRANCH  84  88
ATOM     88  S   UNL     1     -19.467  -5.872  -5.889  1.00  0.00     0.124 S 
ATOM     89  O   UNL     1     -20.512  -6.714  -6.461  1.00  0.00    -0.237 OA
ATOM     90  O   UNL     1     -19.365  -5.894  -4.431  1.00  0.00    -0.237 OA
ATOM     91  O   UNL     1     -19.308  -4.557  -6.500  1.00  0.00    -0.744 OA
ENDBRANCH  84  88
ENDBRANCH  57  81
BRANCH  69  92
ATOM     92  C   UNL     1     -11.610  -7.789 -12.976  1.00  0.00     0.023 A 
ATOM     93  C   UNL     1     -10.409  -8.517 -13.095  1.00  0.00     0.031 A 
ATOM     94  C   UNL     1     -12.598  -7.971 -13.958  1.00  0.00     0.131 A 
ATOM     95  C   UNL     1     -10.202  -9.344 -14.205  1.00  0.00     0.055 A 
ATOM     96  C   UNL     1     -12.408  -8.840 -15.034  1.00  0.00     0.041 A 
ATOM     97  F   UNL     1     -13.754  -7.292 -13.895  1.00  0.00    -0.206 F 
ATOM     98  C   UNL     1     -11.198  -9.516 -15.171  1.00  0.00     0.022 A 
BRANCH  95  99
ATOM     99  S   UNL     1      -8.595 -10.137 -14.492  1.00  0.00     0.124 S 
ATOM    100  O   UNL     1      -8.959 -11.552 -14.524  1.00  0.00    -0.237 OA
ATOM    101  O   UNL     1      -8.196  -9.567 -15.775  1.00  0.00    -0.237 OA
ATOM    102  O   UNL     1      -7.791  -9.729 -13.345  1.00  0.00    -0.744 OA
ENDBRANCH  95  99
ENDBRANCH  69  92
ENDBRANCH  43  44
ENDBRANCH  35  38
ENDBRANCH  33  34
ENDBRANCH  32  33
ENDBRANCH  31  32
ENDBRANCH  30  31
ENDBRANCH   1  30
TORSDOF 21
