REMARK SMILES O=C(C[C@H]1C[C@H]2CC[C@@H](C1)[N@@H+]2C[C@@H]1CNC(=O)O1)NCCCCCCNC(=O)c1ccc(-c2c3nc(c(-c4cc(S(=O)(=O)[O-])ccc4F)c4ccc([nH]4)c(-c4cc(S(=O)(=O)[O-])ccc4F)c4nc(c(-c5cc(S(=O)(=O)[O-])ccc5F)c5ccc2[nH]5)C=C4)C=C3)cc1
REMARK SMILES IDX 22 1 21 2 20 3 19 4 1 5 2 6 3 8 4 9 5 10 10 11 6 12 9 13
REMARK SMILES IDX 7 14 11 15 8 16 12 18 13 19 14 20 18 21 15 22 16 23 17 25
REMARK SMILES IDX 23 26 24 27 25 28 26 29 27 30 28 32 29 33 30 34 91 35 31 36
REMARK SMILES IDX 90 37 32 38 33 39 34 40 84 41 35 42 89 43 83 44 85 45 36 46
REMARK SMILES IDX 88 47 82 48 81 49 37 51 69 52 49 53 68 54 50 55 53 56 67 57
REMARK SMILES IDX 86 58 51 59 52 60 66 62 87 63 54 64 38 65 39 66 47 67 40 68
REMARK SMILES IDX 46 69 48 70 45 71 41 72 42 73 43 74 44 75 70 76 71 77 79 78
REMARK SMILES IDX 72 79 78 80 80 81 77 82 73 83 74 84 75 85 76 86 55 87 56 88
REMARK SMILES IDX 64 89 57 90 63 91 65 92 62 93 58 94 59 95 60 96 61 97
REMARK H PARENT 19 7 11 17 15 24 26 31 85 50 53 61
REMARK Flexibility Score: inf
ROOT
ATOM      1  C   UNL     1       3.434  -2.330   3.648  1.00  0.00     0.002 C 
ENDROOT
BRANCH   1   2
ATOM      2  C   UNL     1       1.929  -2.507   3.413  1.00  0.00     0.021 C 
BRANCH   2   3
ATOM      3  C   UNL     1       1.190  -1.409   2.638  1.00  0.00     0.116 C 
BRANCH   3   4
ATOM      4  N   UNL     1       1.519  -1.340   1.222  1.00  0.00    -0.356 N 
ATOM      5  O   UNL     1       0.458   0.665   0.911  1.00  0.00    -0.275 OA
ATOM      6  C   UNL     1       1.157  -0.243   0.468  1.00  0.00     0.220 C 
ATOM      7  H   UNL     1       2.005  -2.084   0.798  1.00  0.00     0.163 HD
BRANCH   6   8
ATOM      8  C   UNL     1       1.702  -0.207  -0.952  1.00  0.00     0.104 C 
BRANCH   8   9
ATOM      9  C   UNL     1       2.947   0.678  -1.215  1.00  0.00     0.010 C 
ATOM     10  C   UNL     1       3.137   1.890  -0.257  1.00  0.00     0.069 C 
ATOM     11  C   UNL     1       4.245  -0.152  -1.462  1.00  0.00     0.069 C 
ATOM     12  C   UNL     1       4.321   1.772   0.717  1.00  0.00     0.184 C 
ATOM     13  C   UNL     1       5.288  -0.054  -0.344  1.00  0.00     0.184 C 
ATOM     14  C   UNL     1       4.193   0.623   1.691  1.00  0.00     0.071 C 
ATOM     15  N   UNL     1       5.431   1.370  -0.119  1.00  0.00    -0.327 N 
ATOM     16  C   UNL     1       4.738  -0.597   0.960  1.00  0.00     0.071 C 
ATOM     17  H   UNL     1       5.364   1.863  -1.009  1.00  0.00     0.348 HD
BRANCH  15  18
ATOM     18  C   UNL     1       6.743   1.928   0.099  1.00  0.00     0.310 C 
BRANCH  18  19
ATOM     19  C   UNL     1       7.056   2.904  -1.060  1.00  0.00     0.252 C 
ATOM     20  C   UNL     1       6.082   4.066  -1.179  1.00  0.00     0.170 C 
ATOM     21  O   UNL     1       6.969   2.227  -2.338  1.00  0.00    -0.438 OA
ATOM     22  N   UNL     1       5.332   3.751  -2.345  1.00  0.00    -0.318 N 
ATOM     23  C   UNL     1       5.859   2.677  -2.993  1.00  0.00     0.407 C 
ATOM     24  H   UNL     1       4.535   4.245  -2.644  1.00  0.00     0.167 HD
ATOM     25  O   UNL     1       5.421   2.208  -4.035  1.00  0.00    -0.225 OA
ENDBRANCH  18  19
ENDBRANCH  15  18
ENDBRANCH   8   9
ENDBRANCH   6   8
ENDBRANCH   3   4
ENDBRANCH   2   3
ENDBRANCH   1   2
BRANCH   1  26
ATOM     26  C   UNL     1       3.879  -1.116   4.472  1.00  0.00     0.002 C 
BRANCH  26  27
ATOM     27  C   UNL     1       3.488  -1.106   5.942  1.00  0.00     0.021 C 
BRANCH  27  28
ATOM     28  C   UNL     1       3.863  -2.355   6.712  1.00  0.00     0.116 C 
BRANCH  28  29
ATOM     29  N   UNL     1       5.300  -2.588   6.793  1.00  0.00    -0.352 N 
ATOM     30  C   UNL     1       6.003  -3.055   7.884  1.00  0.00     0.251 C 
ATOM     31  H   UNL     1       5.824  -2.391   5.983  1.00  0.00     0.163 HD
ATOM     32  O   UNL     1       7.227  -3.099   7.880  1.00  0.00    -0.269 OA
BRANCH  30  33
ATOM     33  C   UNL     1       5.225  -3.456   9.075  1.00  0.00     0.039 A 
ATOM     34  C   UNL     1       5.497  -2.857  10.305  1.00  0.00     0.014 A 
ATOM     35  C   UNL     1       4.125  -4.303   8.918  1.00  0.00     0.014 A 
ATOM     36  C   UNL     1       4.609  -3.051  11.364  1.00  0.00     0.010 A 
ATOM     37  C   UNL     1       3.185  -4.394   9.935  1.00  0.00     0.010 A 
ATOM     38  C   UNL     1       3.423  -3.782  11.174  1.00  0.00    -0.014 A 
BRANCH  38  39
ATOM     39  C   UNL     1       2.433  -3.948  12.268  1.00  0.00     0.031 A 
ATOM     40  C   UNL     1       2.104  -5.331  12.763  1.00  0.00     0.074 A 
ATOM     41  C   UNL     1       1.800  -2.871  12.776  1.00  0.00     0.049 A 
ATOM     42  N   UNL     1       1.238  -5.701  13.670  1.00  0.00    -0.248 NA
ATOM     43  C   UNL     1       2.818  -6.450  12.126  1.00  0.00     0.031 C 
ATOM     44  C   UNL     1       2.000  -1.486  12.339  1.00  0.00     0.029 A 
ATOM     45  N   UNL     1       0.861  -2.768  13.771  1.00  0.00    -0.354 N 
ATOM     46  C   UNL     1       1.295  -7.090  13.700  1.00  0.00     0.074 A 
ATOM     47  C   UNL     1       2.219  -7.498  12.666  1.00  0.00     0.031 C 
ATOM     48  C   UNL     1       1.242  -0.673  13.091  1.00  0.00     0.029 A 
ATOM     49  C   UNL     1       0.461  -1.475  14.026  1.00  0.00     0.049 A 
ATOM     50  H   UNL     1       0.505  -3.546  14.258  1.00  0.00     0.167 HD
ATOM     51  C   UNL     1       0.658  -7.946  14.535  1.00  0.00     0.034 A 
ATOM     52  C   UNL     1      -0.440  -0.995  14.908  1.00  0.00     0.034 A 
ATOM     53  C   UNL     1      -0.247  -7.517  15.571  1.00  0.00     0.049 A 
ATOM     54  C   UNL     1      -1.155  -1.969  15.811  1.00  0.00     0.074 A 
ATOM     55  C   UNL     1      -0.902  -8.288  16.514  1.00  0.00     0.029 A 
ATOM     56  N   UNL     1      -0.634  -6.201  15.794  1.00  0.00    -0.354 N 
ATOM     57  N   UNL     1      -1.046  -3.277  15.868  1.00  0.00    -0.248 NA
ATOM     58  C   UNL     1      -2.105  -1.402  16.775  1.00  0.00     0.031 C 
ATOM     59  C   UNL     1      -1.750  -7.453  17.247  1.00  0.00     0.029 A 
ATOM     60  C   UNL     1      -1.551  -6.145  16.832  1.00  0.00     0.049 A 
ATOM     61  H   UNL     1      -0.306  -5.423  15.288  1.00  0.00     0.167 HD
ATOM     62  C   UNL     1      -1.889  -3.684  16.898  1.00  0.00     0.074 A 
ATOM     63  C   UNL     1      -2.485  -2.481  17.443  1.00  0.00     0.031 C 
ATOM     64  C   UNL     1      -2.145  -4.937  17.356  1.00  0.00     0.034 A 
BRANCH  51  65
ATOM     65  C   UNL     1       0.901  -9.424  14.339  1.00  0.00     0.023 A 
ATOM     66  C   UNL     1       2.181  -9.992  14.476  1.00  0.00     0.031 A 
ATOM     67  C   UNL     1      -0.159 -10.275  13.984  1.00  0.00     0.131 A 
ATOM     68  C   UNL     1       2.380 -11.350  14.187  1.00  0.00     0.055 A 
ATOM     69  C   UNL     1       0.029 -11.644  13.786  1.00  0.00     0.041 A 
ATOM     70  F   UNL     1      -1.398  -9.788  13.809  1.00  0.00    -0.206 F 
ATOM     71  C   UNL     1       1.308 -12.187  13.872  1.00  0.00     0.022 A 
BRANCH  68  72
ATOM     72  S   UNL     1       4.080 -11.973  14.080  1.00  0.00     0.124 S 
ATOM     73  O   UNL     1       4.641 -11.119  13.035  1.00  0.00    -0.237 OA
ATOM     74  O   UNL     1       4.585 -11.748  15.429  1.00  0.00    -0.237 OA
ATOM     75  O   UNL     1       3.908 -13.374  13.702  1.00  0.00    -0.744 OA
ENDBRANCH  68  72
ENDBRANCH  51  65
BRANCH  52  76
ATOM     76  C   UNL     1      -0.727   0.469  14.978  1.00  0.00     0.023 A 
ATOM     77  C   UNL     1      -0.460   1.208  16.142  1.00  0.00     0.031 A 
ATOM     78  C   UNL     1      -1.314   1.143  13.893  1.00  0.00     0.131 A 
ATOM     79  C   UNL     1      -0.823   2.563  16.211  1.00  0.00     0.055 A 
ATOM     80  C   UNL     1      -1.617   2.505  13.944  1.00  0.00     0.041 A 
ATOM     81  F   UNL     1      -1.591   0.487  12.755  1.00  0.00    -0.206 F 
ATOM     82  C   UNL     1      -1.384   3.220  15.114  1.00  0.00     0.022 A 
BRANCH  79  83
ATOM     83  S   UNL     1      -0.638   3.434  17.792  1.00  0.00     0.124 S 
ATOM     84  O   UNL     1      -1.459   2.617  18.678  1.00  0.00    -0.237 OA
ATOM     85  O   UNL     1       0.804   3.367  18.008  1.00  0.00    -0.237 OA
ATOM     86  O   UNL     1      -1.162   4.768  17.507  1.00  0.00    -0.744 OA
ENDBRANCH  79  83
ENDBRANCH  52  76
BRANCH  64  87
ATOM     87  C   UNL     1      -3.075  -5.062  18.540  1.00  0.00     0.023 A 
ATOM     88  C   UNL     1      -4.430  -4.698  18.462  1.00  0.00     0.031 A 
ATOM     89  C   UNL     1      -2.591  -5.550  19.768  1.00  0.00     0.131 A 
ATOM     90  C   UNL     1      -5.238  -4.766  19.607  1.00  0.00     0.055 A 
ATOM     91  C   UNL     1      -3.418  -5.687  20.882  1.00  0.00     0.041 A 
ATOM     92  F   UNL     1      -1.304  -5.908  19.902  1.00  0.00    -0.206 F 
ATOM     93  C   UNL     1      -4.747  -5.279  20.810  1.00  0.00     0.022 A 
BRANCH  90  94
ATOM     94  S   UNL     1      -6.910  -4.069  19.533  1.00  0.00     0.124 S 
ATOM     95  O   UNL     1      -6.644  -2.689  19.136  1.00  0.00    -0.237 OA
ATOM     96  O   UNL     1      -7.555  -4.908  18.529  1.00  0.00    -0.237 OA
ATOM     97  O   UNL     1      -7.412  -4.236  20.896  1.00  0.00    -0.744 OA
ENDBRANCH  90  94
ENDBRANCH  64  87
ENDBRANCH  38  39
ENDBRANCH  30  33
ENDBRANCH  28  29
ENDBRANCH  27  28
ENDBRANCH  26  27
ENDBRANCH   1  26
TORSDOF 19
