REMARK SMILES Cc1ccc(/C=C(\NC(=O)c2cccc(C)c2)C(=O)NCCCCCCNC(=O)c2ccc(-c3c4nc(c(-c5cc(S(=O)(=O)[O-])ccc5F)c5ccc([nH]5)c(-c5cc(S(=O)(=O)[O-])ccc5F)c5nc(c(-c6cc(S(=O)(=O)[O-])ccc6F)c6ccc3[nH]6)C=C5)C=C4)cc2)cc1
REMARK SMILES IDX 24 1 23 2 22 3 21 4 20 5 18 6 19 7 7 9 6 10 5 11 1 12 2 13
REMARK SMILES IDX 3 14 94 15 4 16 93 17 8 18 9 19 10 21 11 22 12 23 17 24
REMARK SMILES IDX 13 25 15 26 14 27 16 28 25 29 26 30 27 31 28 32 29 34 30 35
REMARK SMILES IDX 31 36 92 37 32 38 91 39 33 40 34 41 35 42 85 43 36 44 90 45
REMARK SMILES IDX 84 46 86 47 37 48 89 49 83 50 82 51 38 53 70 54 50 55 69 56
REMARK SMILES IDX 51 57 54 58 68 59 87 60 52 61 53 62 67 64 88 65 55 66 39 67
REMARK SMILES IDX 40 68 48 69 41 70 47 71 49 72 46 73 42 74 43 75 44 76 45 77
REMARK SMILES IDX 71 78 72 79 80 80 73 81 79 82 81 83 78 84 74 85 75 86 76 87
REMARK SMILES IDX 77 88 56 89 57 90 65 91 58 92 64 93 66 94 63 95 59 96 60 97
REMARK SMILES IDX 61 98 62 99
REMARK H PARENT 20 8 8 20 27 33 86 52 54 63
REMARK Flexibility Score: inf
ROOT
ATOM      1  C   UNL     1      -8.242  -5.073   0.004  1.00  0.00     0.002 C 
ENDROOT
BRANCH   1   2
ATOM      2  C   UNL     1      -8.152  -4.526   1.434  1.00  0.00     0.002 C 
BRANCH   2   3
ATOM      3  C   UNL     1      -6.765  -4.266   2.035  1.00  0.00     0.021 C 
BRANCH   3   4
ATOM      4  C   UNL     1      -5.719  -3.600   1.146  1.00  0.00     0.116 C 
BRANCH   4   5
ATOM      5  N   UNL     1      -6.095  -2.314   0.594  1.00  0.00    -0.351 N 
ATOM      6  C   UNL     1      -5.311  -1.365  -0.004  1.00  0.00     0.267 C 
ATOM      7  O   UNL     1      -5.833  -0.326  -0.416  1.00  0.00    -0.268 OA
ATOM      8  H   UNL     1      -7.052  -2.091   0.658  1.00  0.00     0.163 HD
BRANCH   6   9
ATOM      9  C   UNL     1      -3.810  -1.561  -0.124  1.00  0.00     0.107 C 
ATOM     10  C   UNL     1      -3.053  -0.452   0.048  1.00  0.00     0.040 C 
BRANCH  10  11
ATOM     11  C   UNL     1      -1.577  -0.236  -0.036  1.00  0.00    -0.023 A 
ATOM     12  C   UNL     1       2.694   0.588   0.003  1.00  0.00     0.044 C 
ATOM     13  C   UNL     1       1.218   0.336  -0.053  1.00  0.00    -0.051 A 
ATOM     14  C   UNL     1       0.749  -0.947  -0.324  1.00  0.00     0.004 A 
ATOM     15  C   UNL     1       0.287   1.345   0.193  1.00  0.00     0.004 A 
ATOM     16  C   UNL     1      -0.625  -1.217  -0.345  1.00  0.00     0.008 A 
ATOM     17  C   UNL     1      -1.089   1.060   0.204  1.00  0.00     0.008 A 
ENDBRANCH  10  11
BRANCH   9  18
ATOM     18  N   UNL     1      -3.233  -2.781  -0.355  1.00  0.00    -0.317 N 
ATOM     19  C   UNL     1      -3.492  -3.831  -1.199  1.00  0.00     0.255 C 
ATOM     20  H   UNL     1      -2.450  -2.943   0.220  1.00  0.00     0.170 HD
ATOM     21  O   UNL     1      -2.751  -4.813  -1.105  1.00  0.00    -0.269 OA
BRANCH  19  22
ATOM     22  C   UNL     1      -4.579  -3.852  -2.214  1.00  0.00     0.040 A 
ATOM     23  C   UNL     1      -5.051  -5.119  -2.588  1.00  0.00     0.014 A 
ATOM     24  C   UNL     1      -5.153  -2.718  -2.794  1.00  0.00     0.017 A 
ATOM     25  C   UNL     1      -6.130  -5.250  -3.458  1.00  0.00     0.001 A 
ATOM     26  C   UNL     1      -6.268  -2.839  -3.638  1.00  0.00    -0.050 A 
ATOM     27  C   UNL     1      -6.755  -4.112  -3.957  1.00  0.00     0.003 A 
ATOM     28  C   UNL     1      -6.990  -1.623  -4.138  1.00  0.00     0.044 C 
ENDBRANCH  19  22
ENDBRANCH   9  18
ENDBRANCH   6   9
ENDBRANCH   4   5
ENDBRANCH   3   4
ENDBRANCH   2   3
ENDBRANCH   1   2
BRANCH   1  29
ATOM     29  C   UNL     1      -7.488  -6.366  -0.295  1.00  0.00     0.021 C 
BRANCH  29  30
ATOM     30  C   UNL     1      -7.946  -7.597   0.480  1.00  0.00     0.116 C 
BRANCH  30  31
ATOM     31  N   UNL     1      -8.671  -8.561  -0.351  1.00  0.00    -0.352 N 
ATOM     32  C   UNL     1      -8.838  -9.926  -0.157  1.00  0.00     0.251 C 
ATOM     33  H   UNL     1      -9.098  -8.191  -1.157  1.00  0.00     0.163 HD
ATOM     34  O   UNL     1      -9.489 -10.631  -0.902  1.00  0.00    -0.269 OA
BRANCH  32  35
ATOM     35  C   UNL     1      -8.286 -10.492   1.095  1.00  0.00     0.039 A 
ATOM     36  C   UNL     1      -9.211 -10.793   2.098  1.00  0.00     0.014 A 
ATOM     37  C   UNL     1      -6.931 -10.345   1.377  1.00  0.00     0.014 A 
ATOM     38  C   UNL     1      -8.821 -10.668   3.426  1.00  0.00     0.010 A 
ATOM     39  C   UNL     1      -6.563 -10.143   2.697  1.00  0.00     0.010 A 
ATOM     40  C   UNL     1      -7.531 -10.210   3.709  1.00  0.00    -0.014 A 
BRANCH  40  41
ATOM     41  C   UNL     1      -7.216  -9.560   4.981  1.00  0.00     0.031 A 
ATOM     42  C   UNL     1      -6.350 -10.205   5.985  1.00  0.00     0.074 A 
ATOM     43  C   UNL     1      -7.762  -8.361   5.293  1.00  0.00     0.049 A 
ATOM     44  N   UNL     1      -6.508 -10.050   7.258  1.00  0.00    -0.248 NA
ATOM     45  C   UNL     1      -5.257 -11.103   5.638  1.00  0.00     0.031 C 
ATOM     46  C   UNL     1      -7.431  -7.508   6.431  1.00  0.00     0.029 A 
ATOM     47  N   UNL     1      -8.918  -7.793   4.766  1.00  0.00    -0.354 N 
ATOM     48  C   UNL     1      -5.407 -10.584   7.877  1.00  0.00     0.074 A 
ATOM     49  C   UNL     1      -4.691 -11.289   6.835  1.00  0.00     0.031 C 
ATOM     50  C   UNL     1      -8.469  -6.697   6.683  1.00  0.00     0.029 A 
ATOM     51  C   UNL     1      -9.550  -7.067   5.788  1.00  0.00     0.049 A 
ATOM     52  H   UNL     1      -9.236  -7.884   3.838  1.00  0.00     0.167 HD
ATOM     53  C   UNL     1      -5.131 -10.277   9.174  1.00  0.00     0.034 A 
ATOM     54  C   UNL     1     -10.835  -7.340   6.156  1.00  0.00     0.034 A 
ATOM     55  C   UNL     1      -6.093  -9.350   9.762  1.00  0.00     0.049 A 
ATOM     56  C   UNL     1     -10.987  -7.815   7.592  1.00  0.00     0.074 A 
ATOM     57  C   UNL     1      -6.076  -7.998  10.066  1.00  0.00     0.029 A 
ATOM     58  N   UNL     1      -7.407  -9.753   9.913  1.00  0.00    -0.354 N 
ATOM     59  N   UNL     1     -10.008  -7.934   8.447  1.00  0.00    -0.248 NA
ATOM     60  C   UNL     1     -12.256  -8.297   8.139  1.00  0.00     0.031 C 
ATOM     61  C   UNL     1      -7.396  -7.604  10.427  1.00  0.00     0.029 A 
ATOM     62  C   UNL     1      -8.210  -8.718  10.354  1.00  0.00     0.049 A 
ATOM     63  H   UNL     1      -7.731 -10.665   9.730  1.00  0.00     0.167 HD
ATOM     64  C   UNL     1     -10.459  -8.585   9.572  1.00  0.00     0.074 A 
ATOM     65  C   UNL     1     -11.878  -8.776   9.335  1.00  0.00     0.031 C 
ATOM     66  C   UNL     1      -9.623  -8.980  10.580  1.00  0.00     0.034 A 
BRANCH  53  67
ATOM     67  C   UNL     1      -3.822 -10.642   9.818  1.00  0.00     0.023 A 
ATOM     68  C   UNL     1      -3.203  -9.740  10.703  1.00  0.00     0.031 A 
ATOM     69  C   UNL     1      -3.137 -11.848   9.583  1.00  0.00     0.131 A 
ATOM     70  C   UNL     1      -1.924  -9.997  11.225  1.00  0.00     0.055 A 
ATOM     71  C   UNL     1      -1.839 -12.081  10.055  1.00  0.00     0.041 A 
ATOM     72  F   UNL     1      -3.710 -12.852   8.899  1.00  0.00    -0.206 F 
ATOM     73  C   UNL     1      -1.218 -11.144  10.869  1.00  0.00     0.022 A 
BRANCH  70  74
ATOM     74  S   UNL     1      -1.197  -8.803  12.379  1.00  0.00     0.124 S 
ATOM     75  O   UNL     1      -1.233  -7.564  11.608  1.00  0.00    -0.237 OA
ATOM     76  O   UNL     1      -2.107  -8.882  13.516  1.00  0.00    -0.237 OA
ATOM     77  O   UNL     1       0.142  -9.339  12.620  1.00  0.00    -0.744 OA
ENDBRANCH  70  74
ENDBRANCH  53  67
BRANCH  54  78
ATOM     78  C   UNL     1     -11.686  -7.768   5.008  1.00  0.00     0.023 A 
ATOM     79  C   UNL     1     -11.866  -6.852   3.946  1.00  0.00     0.031 A 
ATOM     80  C   UNL     1     -11.998  -9.114   4.774  1.00  0.00     0.131 A 
ATOM     81  C   UNL     1     -12.213  -7.312   2.668  1.00  0.00     0.055 A 
ATOM     82  C   UNL     1     -12.397  -9.560   3.510  1.00  0.00     0.041 A 
ATOM     83  F   UNL     1     -11.805 -10.037   5.727  1.00  0.00    -0.206 F 
ATOM     84  C   UNL     1     -12.466  -8.666   2.441  1.00  0.00     0.022 A 
BRANCH  81  85
ATOM     85  S   UNL     1     -12.126  -6.192   1.240  1.00  0.00     0.124 S 
ATOM     86  O   UNL     1     -13.534  -5.993   0.920  1.00  0.00    -0.237 OA
ATOM     87  O   UNL     1     -11.426  -5.024   1.767  1.00  0.00    -0.237 OA
ATOM     88  O   UNL     1     -11.358  -6.971   0.269  1.00  0.00    -0.744 OA
ENDBRANCH  81  85
ENDBRANCH  54  78
BRANCH  66  89
ATOM     89  C   UNL     1     -10.060  -9.701  11.840  1.00  0.00     0.023 A 
ATOM     90  C   UNL     1     -11.321  -9.508  12.427  1.00  0.00     0.031 A 
ATOM     91  C   UNL     1      -9.184 -10.565  12.544  1.00  0.00     0.131 A 
ATOM     92  C   UNL     1     -11.701 -10.219  13.583  1.00  0.00     0.055 A 
ATOM     93  C   UNL     1      -9.539 -11.214  13.731  1.00  0.00     0.041 A 
ATOM     94  F   UNL     1      -7.950 -10.843  12.102  1.00  0.00    -0.206 F 
ATOM     95  C   UNL     1     -10.812 -11.059  14.249  1.00  0.00     0.022 A 
BRANCH  92  96
ATOM     96  S   UNL     1     -13.408 -10.071  14.171  1.00  0.00     0.124 S 
ATOM     97  O   UNL     1     -13.564  -8.629  14.332  1.00  0.00    -0.237 OA
ATOM     98  O   UNL     1     -14.155 -10.671  13.068  1.00  0.00    -0.237 OA
ATOM     99  O   UNL     1     -13.415 -10.840  15.414  1.00  0.00    -0.744 OA
ENDBRANCH  92  96
ENDBRANCH  66  89
ENDBRANCH  40  41
ENDBRANCH  32  35
ENDBRANCH  30  31
ENDBRANCH  29  30
ENDBRANCH   1  29
TORSDOF 19
