REMARK SMILES O=C(C[C@@H]1CSCCN1c1ncnc2c1CCCCC2)NCCCCCCNC(=O)c1ccc(-c2c3nc(c(-c4cc(S(=O)(=O)[O-])ccc4F)c4ccc([nH]4)c(-c4cc(S(=O)(=O)[O-])ccc4F)c4nc(c(-c5cc(S(=O)(=O)[O-])ccc5F)c5ccc2[nH]5)C=C4)C=C3)cc1
REMARK SMILES IDX 23 1 22 2 21 3 1 4 2 5 3 7 4 8 5 9 9 10 6 11 8 12 7 13 10 14
REMARK SMILES IDX 11 15 15 16 12 17 14 18 13 19 16 20 20 22 19 23 18 24 17 25
REMARK SMILES IDX 24 27 25 28 26 29 27 30 28 31 29 32 30 34 31 35 32 36 93 37
REMARK SMILES IDX 33 38 92 39 34 40 35 41 36 42 86 43 37 44 91 45 85 46 87 47
REMARK SMILES IDX 38 48 90 49 84 50 83 51 39 53 71 54 51 55 70 56 52 57 55 58
REMARK SMILES IDX 69 59 88 60 53 61 54 62 68 64 89 65 56 66 40 67 41 68 49 69
REMARK SMILES IDX 42 70 48 71 50 72 47 73 43 74 44 75 45 76 46 77 72 78 73 79
REMARK SMILES IDX 81 80 74 81 80 82 82 83 79 84 75 85 76 86 77 87 78 88 57 89
REMARK SMILES IDX 58 90 66 91 59 92 65 93 67 94 64 95 60 96 61 97 62 98 63 99
REMARK H PARENT 21 6 28 33 87 52 55 63
REMARK Flexibility Score: 80.00
ROOT
ATOM      1  C   UNL     1       2.646   3.348  -1.034  1.00  0.00     0.021 C 
ENDROOT
BRANCH   1   2
ATOM      2  C   UNL     1       2.066   2.002  -1.465  1.00  0.00     0.116 C 
BRANCH   2   3
ATOM      3  N   UNL     1       2.688   0.916  -0.738  1.00  0.00    -0.356 N 
ATOM      4  O   UNL     1       0.731  -0.138  -0.159  1.00  0.00    -0.275 OA
ATOM      5  C   UNL     1       1.955  -0.075  -0.134  1.00  0.00     0.222 C 
ATOM      6  H   UNL     1       3.670   0.887  -0.674  1.00  0.00     0.163 HD
BRANCH   5   7
ATOM      7  C   UNL     1       2.778  -1.029   0.690  1.00  0.00     0.125 C 
BRANCH   7   8
ATOM      8  C   UNL     1       3.766  -1.970  -0.027  1.00  0.00     0.103 C 
ATOM      9  C   UNL     1       3.724  -2.035  -1.569  1.00  0.00     0.095 C 
ATOM     10  N   UNL     1       3.649  -3.324   0.570  1.00  0.00    -0.351 N 
ATOM     11  S   UNL     1       2.237  -2.829  -2.247  1.00  0.00    -0.158 SA
ATOM     12  C   UNL     1       2.515  -4.174   0.173  1.00  0.00     0.129 C 
ATOM     13  C   UNL     1       2.398  -4.397  -1.336  1.00  0.00     0.091 C 
BRANCH  10  14
ATOM     14  C   UNL     1       4.802  -3.968   0.992  1.00  0.00     0.135 A 
ATOM     15  N   UNL     1       5.255  -4.973   0.222  1.00  0.00    -0.219 NA
ATOM     16  C   UNL     1       5.431  -3.620   2.193  1.00  0.00     0.016 A 
ATOM     17  C   UNL     1       6.353  -5.611   0.643  1.00  0.00     0.224 A 
ATOM     18  C   UNL     1       6.561  -4.358   2.535  1.00  0.00     0.049 A 
ATOM     19  N   UNL     1       7.037  -5.355   1.762  1.00  0.00    -0.241 NA
BRANCH  16  20
ATOM     20  C   UNL     1       4.899  -2.565   3.126  1.00  0.00     0.041 CG0
ATOM     21  G   UNL     1       4.389  -3.130   4.450  1.00  0.00     0.000 G0
ENDBRANCH  16  20
BRANCH  18  22
ATOM     22  C   UNL     1       7.312  -4.112   3.820  1.00  0.00     0.057 C 
BRANCH  22  23
ATOM     23  C   UNL     1       6.497  -4.460   5.067  1.00  0.00     0.006 C 
BRANCH  23  24
ATOM     24  C   UNL     1       5.492  -3.383   5.471  1.00  0.00     0.001 C 
BRANCH  24  25
ATOM     25  C   UNL     1       4.389  -3.130   4.450  1.00  0.00     0.005 CG0
ATOM     26  G   UNL     1       4.899  -2.565   3.126  1.00  0.00     0.000 G0
ENDBRANCH  24  25
ENDBRANCH  23  24
ENDBRANCH  22  23
ENDBRANCH  18  22
ENDBRANCH  10  14
ENDBRANCH   7   8
ENDBRANCH   5   7
ENDBRANCH   2   3
ENDBRANCH   1   2
BRANCH   1  27
ATOM     27  C   UNL     1       4.159   3.492  -1.247  1.00  0.00     0.002 C 
BRANCH  27  28
ATOM     28  C   UNL     1       4.643   3.249  -2.679  1.00  0.00     0.002 C 
BRANCH  28  29
ATOM     29  C   UNL     1       3.983   4.126  -3.745  1.00  0.00     0.021 C 
BRANCH  29  30
ATOM     30  C   UNL     1       4.092   5.628  -3.502  1.00  0.00     0.116 C 
BRANCH  30  31
ATOM     31  N   UNL     1       5.469   6.092  -3.503  1.00  0.00    -0.352 N 
ATOM     32  C   UNL     1       6.009   7.181  -4.143  1.00  0.00     0.251 C 
ATOM     33  H   UNL     1       6.101   5.553  -2.973  1.00  0.00     0.163 HD
ATOM     34  O   UNL     1       7.226   7.339  -4.162  1.00  0.00    -0.269 OA
BRANCH  32  35
ATOM     35  C   UNL     1       5.117   8.140  -4.831  1.00  0.00     0.039 A 
ATOM     36  C   UNL     1       5.418   8.522  -6.140  1.00  0.00     0.014 A 
ATOM     37  C   UNL     1       3.979   8.644  -4.193  1.00  0.00     0.014 A 
ATOM     38  C   UNL     1       4.540   9.357  -6.835  1.00  0.00     0.010 A 
ATOM     39  C   UNL     1       3.077   9.432  -4.906  1.00  0.00     0.010 A 
ATOM     40  C   UNL     1       3.345   9.789  -6.237  1.00  0.00    -0.014 A 
BRANCH  40  41
ATOM     41  C   UNL     1       2.360  10.612  -6.986  1.00  0.00     0.031 A 
ATOM     42  C   UNL     1       2.095  12.032  -6.568  1.00  0.00     0.074 A 
ATOM     43  C   UNL     1       1.681  10.069  -8.017  1.00  0.00     0.049 A 
ATOM     44  N   UNL     1       1.204  12.873  -7.026  1.00  0.00    -0.248 NA
ATOM     45  C   UNL     1       2.931  12.573  -5.484  1.00  0.00     0.031 C 
ATOM     46  C   UNL     1       1.852   8.703  -8.517  1.00  0.00     0.029 A 
ATOM     47  N   UNL     1       0.711  10.599  -8.831  1.00  0.00    -0.354 N 
ATOM     48  C   UNL     1       1.373  14.041  -6.294  1.00  0.00     0.074 A 
ATOM     49  C   UNL     1       2.418  13.785  -5.326  1.00  0.00     0.031 C 
ATOM     50  C   UNL     1       1.040   8.515  -9.571  1.00  0.00     0.029 A 
ATOM     51  C   UNL     1       0.255   9.725  -9.792  1.00  0.00     0.049 A 
ATOM     52  H   UNL     1       0.373  11.519  -8.737  1.00  0.00     0.167 HD
ATOM     53  C   UNL     1       0.732  15.226  -6.431  1.00  0.00     0.034 A 
ATOM     54  C   UNL     1      -0.696   9.878 -10.736  1.00  0.00     0.034 A 
ATOM     55  C   UNL     1      -0.298  15.480  -7.405  1.00  0.00     0.049 A 
ATOM     56  C   UNL     1      -1.434  11.190 -10.826  1.00  0.00     0.074 A 
ATOM     57  C   UNL     1      -1.012  16.647  -7.617  1.00  0.00     0.029 A 
ATOM     58  N   UNL     1      -0.753  14.560  -8.338  1.00  0.00    -0.354 N 
ATOM     59  N   UNL     1      -1.283  12.271 -10.098  1.00  0.00    -0.248 NA
ATOM     60  C   UNL     1      -2.469  11.301 -11.863  1.00  0.00     0.031 C 
ATOM     61  C   UNL     1      -1.927  16.421  -8.650  1.00  0.00     0.029 A 
ATOM     62  C   UNL     1      -1.742  15.132  -9.122  1.00  0.00     0.049 A 
ATOM     63  H   UNL     1      -0.422  13.638  -8.431  1.00  0.00     0.167 HD
ATOM     64  C   UNL     1      -2.181  13.201 -10.614  1.00  0.00     0.074 A 
ATOM     65  C   UNL     1      -2.867  12.557 -11.713  1.00  0.00     0.031 C 
ATOM     66  C   UNL     1      -2.412  14.477 -10.217  1.00  0.00     0.034 A 
BRANCH  53  67
ATOM     67  C   UNL     1       1.123  16.347  -5.507  1.00  0.00     0.023 A 
ATOM     68  C   UNL     1       2.362  16.996  -5.638  1.00  0.00     0.031 A 
ATOM     69  C   UNL     1       0.231  16.806  -4.524  1.00  0.00     0.131 A 
ATOM     70  C   UNL     1       2.687  18.056  -4.779  1.00  0.00     0.055 A 
ATOM     71  C   UNL     1       0.537  17.898  -3.710  1.00  0.00     0.041 A 
ATOM     72  F   UNL     1      -0.959  16.209  -4.349  1.00  0.00    -0.206 F 
ATOM     73  C   UNL     1       1.772  18.527  -3.833  1.00  0.00     0.022 A 
BRANCH  70  74
ATOM     74  S   UNL     1       4.342  18.787  -4.884  1.00  0.00     0.124 S 
ATOM     75  O   UNL     1       5.176  17.694  -4.391  1.00  0.00    -0.237 OA
ATOM     76  O   UNL     1       4.467  19.095  -6.304  1.00  0.00    -0.237 OA
ATOM     77  O   UNL     1       4.259  19.949  -4.001  1.00  0.00    -0.744 OA
ENDBRANCH  70  74
ENDBRANCH  53  67
BRANCH  54  78
ATOM     78  C   UNL     1      -1.018   8.768 -11.677  1.00  0.00     0.023 A 
ATOM     79  C   UNL     1      -0.763   8.897 -13.051  1.00  0.00     0.031 A 
ATOM     80  C   UNL     1      -1.627   7.584 -11.225  1.00  0.00     0.131 A 
ATOM     81  C   UNL     1      -1.156   7.880 -13.934  1.00  0.00     0.055 A 
ATOM     82  C   UNL     1      -1.972   6.554 -12.102  1.00  0.00     0.041 A 
ATOM     83  F   UNL     1      -1.888   7.410  -9.920  1.00  0.00    -0.206 F 
ATOM     84  C   UNL     1      -1.748   6.704 -13.467  1.00  0.00     0.022 A 
BRANCH  81  85
ATOM     85  S   UNL     1      -0.946   8.147 -15.715  1.00  0.00     0.124 S 
ATOM     86  O   UNL     1      -1.778   9.324 -15.938  1.00  0.00    -0.237 OA
ATOM     87  O   UNL     1       0.495   8.349 -15.824  1.00  0.00    -0.237 OA
ATOM     88  O   UNL     1      -1.445   6.907 -16.306  1.00  0.00    -0.744 OA
ENDBRANCH  81  85
ENDBRANCH  54  78
BRANCH  66  89
ATOM     89  C   UNL     1      -3.408  15.279 -11.010  1.00  0.00     0.023 A 
ATOM     90  C   UNL     1      -4.786  15.018 -10.941  1.00  0.00     0.031 A 
ATOM     91  C   UNL     1      -2.969  16.341 -11.821  1.00  0.00     0.131 A 
ATOM     92  C   UNL     1      -5.679  15.790 -11.699  1.00  0.00     0.055 A 
ATOM     93  C   UNL     1      -3.865  17.135 -12.536  1.00  0.00     0.041 A 
ATOM     94  F   UNL     1      -1.662  16.631 -11.917  1.00  0.00    -0.206 F 
ATOM     95  C   UNL     1      -5.228  16.857 -12.483  1.00  0.00     0.022 A 
BRANCH  92  96
ATOM     96  S   UNL     1      -7.439  15.358 -11.678  1.00  0.00     0.124 S 
ATOM     97  O   UNL     1      -7.431  14.027 -12.277  1.00  0.00    -0.237 OA
ATOM     98  O   UNL     1      -7.761  15.414 -10.256  1.00  0.00    -0.237 OA
ATOM     99  O   UNL     1      -8.059  16.401 -12.494  1.00  0.00    -0.744 OA
ENDBRANCH  92  96
ENDBRANCH  66  89
ENDBRANCH  40  41
ENDBRANCH  32  35
ENDBRANCH  30  31
ENDBRANCH  29  30
ENDBRANCH  28  29
ENDBRANCH  27  28
ENDBRANCH   1  27
TORSDOF 18
