REMARK SMILES O=C(NCCCCCCNC(=O)[C@H]1CC=CC[C@@H]1C(=O)Nc1ccccc1C(=O)NCc1ccco1)c1ccc(-c2c3nc(c(-c4cc(S(=O)(=O)[O-])ccc4F)c4ccc([nH]4)c(-c4cc(S(=O)(=O)[O-])ccc4F)c4nc(c(-c5cc(S(=O)(=O)[O-])ccc5F)c5ccc2[nH]5)C=C4)C=C3)cc1
REMARK SMILES IDX 7 1 6 2 5 3 4 4 3 5 1 6 2 7 37 9 38 10 99 11 39 12 98 13
REMARK SMILES IDX 40 14 41 15 42 16 92 17 43 18 97 19 91 20 93 21 44 22 96 23
REMARK SMILES IDX 90 24 89 25 45 27 77 28 57 29 76 30 58 31 61 32 75 33 94 34
REMARK SMILES IDX 59 35 60 36 74 38 95 39 62 40 46 41 47 42 55 43 48 44 54 45
REMARK SMILES IDX 56 46 53 47 49 48 50 49 51 50 52 51 78 52 79 53 87 54 80 55
REMARK SMILES IDX 86 56 88 57 85 58 81 59 82 60 83 61 84 62 63 63 64 64 72 65
REMARK SMILES IDX 65 66 71 67 73 68 70 69 66 70 67 71 68 72 69 73 8 74 9 75
REMARK SMILES IDX 10 76 11 77 12 79 13 80 14 81 18 82 15 83 17 84 16 85 19 86
REMARK SMILES IDX 20 87 21 88 22 90 23 91 27 92 24 93 26 94 25 95 28 96 29 97
REMARK SMILES IDX 30 98 31 100 32 101 33 102 36 103 34 104 35 105
REMARK H PARENT 3 8 93 26 61 37 10 78 21 89 30 99
REMARK Flexibility Score: inf
ROOT
ATOM      1  C   UNL     1       3.813   1.621   3.914  1.00  0.00     0.002 C 
ENDROOT
BRANCH   1   2
ATOM      2  C   UNL     1       3.231   2.292   2.661  1.00  0.00     0.002 C 
BRANCH   2   3
ATOM      3  C   UNL     1       3.991   2.005   1.361  1.00  0.00     0.021 C 
BRANCH   3   4
ATOM      4  C   UNL     1       4.089   0.522   1.033  1.00  0.00     0.116 C 
BRANCH   4   5
ATOM      5  N   UNL     1       2.761  -0.055   0.909  1.00  0.00    -0.352 N 
ATOM      6  O   UNL     1       0.886  -0.515  -0.256  1.00  0.00    -0.269 OA
ATOM      7  C   UNL     1       2.115  -0.424  -0.237  1.00  0.00     0.251 C 
ATOM      8  H   UNL     1       2.270  -0.198   1.750  1.00  0.00     0.163 HD
BRANCH   7   9
ATOM      9  C   UNL     1       2.914  -0.741  -1.433  1.00  0.00     0.039 A 
ATOM     10  C   UNL     1       4.079  -1.505  -1.298  1.00  0.00     0.014 A 
ATOM     11  C   UNL     1       2.476  -0.328  -2.692  1.00  0.00     0.014 A 
ATOM     12  C   UNL     1       4.849  -1.793  -2.412  1.00  0.00     0.010 A 
ATOM     13  C   UNL     1       3.207  -0.693  -3.823  1.00  0.00     0.010 A 
ATOM     14  C   UNL     1       4.391  -1.436  -3.688  1.00  0.00    -0.014 A 
BRANCH  14  15
ATOM     15  C   UNL     1       5.089  -1.978  -4.875  1.00  0.00     0.031 A 
ATOM     16  C   UNL     1       5.798  -1.073  -5.834  1.00  0.00     0.074 A 
ATOM     17  C   UNL     1       5.051  -3.311  -5.069  1.00  0.00     0.049 A 
ATOM     18  N   UNL     1       6.410  -1.378  -6.947  1.00  0.00    -0.248 NA
ATOM     19  C   UNL     1       5.816   0.361  -5.508  1.00  0.00     0.031 C 
ATOM     20  C   UNL     1       4.377  -4.270  -4.184  1.00  0.00     0.029 A 
ATOM     21  N   UNL     1       5.582  -4.096  -6.058  1.00  0.00    -0.354 N 
ATOM     22  C   UNL     1       6.869  -0.176  -7.471  1.00  0.00     0.074 A 
ATOM     23  C   UNL     1       6.447   0.867  -6.559  1.00  0.00     0.031 C 
ATOM     24  C   UNL     1       4.559  -5.510  -4.656  1.00  0.00     0.029 A 
ATOM     25  C   UNL     1       5.285  -5.432  -5.916  1.00  0.00     0.049 A 
ATOM     26  H   UNL     1       6.123  -3.739  -6.799  1.00  0.00     0.167 HD
ATOM     27  C   UNL     1       7.575   0.025  -8.611  1.00  0.00     0.034 A 
ATOM     28  C   UNL     1       5.529  -6.474  -6.733  1.00  0.00     0.034 A 
ATOM     29  C   UNL     1       7.980  -1.043  -9.495  1.00  0.00     0.049 A 
ATOM     30  C   UNL     1       6.265  -6.209  -8.017  1.00  0.00     0.074 A 
ATOM     31  C   UNL     1       8.750  -0.965 -10.642  1.00  0.00     0.029 A 
ATOM     32  N   UNL     1       7.630  -2.380  -9.343  1.00  0.00    -0.354 N 
ATOM     33  N   UNL     1       6.733  -5.071  -8.477  1.00  0.00    -0.248 NA
ATOM     34  C   UNL     1       6.504  -7.361  -8.892  1.00  0.00     0.031 C 
ATOM     35  C   UNL     1       8.798  -2.236 -11.225  1.00  0.00     0.029 A 
ATOM     36  C   UNL     1       8.126  -3.126 -10.401  1.00  0.00     0.049 A 
ATOM     37  H   UNL     1       7.106  -2.744  -8.594  1.00  0.00     0.167 HD
ATOM     38  C   UNL     1       7.336  -5.376  -9.692  1.00  0.00     0.074 A 
ATOM     39  C   UNL     1       7.194  -6.806  -9.878  1.00  0.00     0.031 C 
ATOM     40  C   UNL     1       7.952  -4.550 -10.575  1.00  0.00     0.034 A 
BRANCH  27  41
ATOM     41  C   UNL     1       7.901   1.446  -8.997  1.00  0.00     0.023 A 
ATOM     42  C   UNL     1       8.758   2.253  -8.229  1.00  0.00     0.031 A 
ATOM     43  C   UNL     1       7.344   2.002 -10.164  1.00  0.00     0.131 A 
ATOM     44  C   UNL     1       8.992   3.585  -8.608  1.00  0.00     0.055 A 
ATOM     45  C   UNL     1       7.636   3.304 -10.573  1.00  0.00     0.041 A 
ATOM     46  F   UNL     1       6.500   1.287 -10.925  1.00  0.00    -0.206 F 
ATOM     47  C   UNL     1       8.456   4.108  -9.788  1.00  0.00     0.022 A 
BRANCH  44  48
ATOM     48  S   UNL     1       9.914   4.663  -7.477  1.00  0.00     0.124 S 
ATOM     49  O   UNL     1       9.093   4.599  -6.270  1.00  0.00    -0.237 OA
ATOM     50  O   UNL     1      11.213   4.005  -7.402  1.00  0.00    -0.237 OA
ATOM     51  O   UNL     1       9.908   5.958  -8.155  1.00  0.00    -0.744 OA
ENDBRANCH  44  48
ENDBRANCH  27  41
BRANCH  28  52
ATOM     52  C   UNL     1       5.021  -7.833  -6.393  1.00  0.00     0.023 A 
ATOM     53  C   UNL     1       5.899  -8.907  -6.190  1.00  0.00     0.031 A 
ATOM     54  C   UNL     1       3.639  -8.085  -6.301  1.00  0.00     0.131 A 
ATOM     55  C   UNL     1       5.387 -10.192  -5.950  1.00  0.00     0.055 A 
ATOM     56  C   UNL     1       3.136  -9.352  -6.000  1.00  0.00     0.041 A 
ATOM     57  F   UNL     1       2.752  -7.094  -6.485  1.00  0.00    -0.206 F 
ATOM     58  C   UNL     1       4.013 -10.418  -5.838  1.00  0.00     0.022 A 
BRANCH  55  59
ATOM     59  S   UNL     1       6.545 -11.586  -5.889  1.00  0.00     0.124 S 
ATOM     60  O   UNL     1       7.229 -11.461  -7.171  1.00  0.00    -0.237 OA
ATOM     61  O   UNL     1       7.336 -11.269  -4.705  1.00  0.00    -0.237 OA
ATOM     62  O   UNL     1       5.669 -12.749  -5.760  1.00  0.00    -0.744 OA
ENDBRANCH  55  59
ENDBRANCH  28  52
BRANCH  40  63
ATOM     63  C   UNL     1       8.538  -5.193 -11.805  1.00  0.00     0.023 A 
ATOM     64  C   UNL     1       7.720  -5.756 -12.800  1.00  0.00     0.031 A 
ATOM     65  C   UNL     1       9.932  -5.252 -11.978  1.00  0.00     0.131 A 
ATOM     66  C   UNL     1       8.305  -6.398 -13.901  1.00  0.00     0.055 A 
ATOM     67  C   UNL     1      10.506  -5.838 -13.105  1.00  0.00     0.041 A 
ATOM     68  F   UNL     1      10.757  -4.734 -11.054  1.00  0.00    -0.206 F 
ATOM     69  C   UNL     1       9.692  -6.426 -14.069  1.00  0.00     0.022 A 
BRANCH  66  70
ATOM     70  S   UNL     1       7.229  -7.267 -15.074  1.00  0.00     0.124 S 
ATOM     71  O   UNL     1       6.607  -8.276 -14.224  1.00  0.00    -0.237 OA
ATOM     72  O   UNL     1       6.352  -6.200 -15.544  1.00  0.00    -0.237 OA
ATOM     73  O   UNL     1       8.162  -7.786 -16.073  1.00  0.00    -0.744 OA
ENDBRANCH  66  70
ENDBRANCH  40  63
ENDBRANCH  14  15
ENDBRANCH   7   9
ENDBRANCH   4   5
ENDBRANCH   3   4
ENDBRANCH   2   3
ENDBRANCH   1   2
BRANCH   1  74
ATOM     74  C   UNL     1       5.326   1.767   4.085  1.00  0.00     0.021 C 
BRANCH  74  75
ATOM     75  C   UNL     1       5.806   3.201   3.930  1.00  0.00     0.116 C 
BRANCH  75  76
ATOM     76  N   UNL     1       5.983   3.880   5.186  1.00  0.00    -0.356 N 
ATOM     77  C   UNL     1       7.073   4.166   5.927  1.00  0.00     0.224 C 
ATOM     78  H   UNL     1       5.141   4.199   5.584  1.00  0.00     0.163 HD
ATOM     79  O   UNL     1       6.875   4.905   6.901  1.00  0.00    -0.275 OA
BRANCH  77  80
ATOM     80  C   UNL     1       8.465   3.554   5.726  1.00  0.00     0.095 C 
ATOM     81  C   UNL     1       8.537   2.316   6.648  1.00  0.00     0.041 C 
ATOM     82  C   UNL     1       9.015   3.440   4.295  1.00  0.00     0.095 C 
ATOM     83  C   UNL     1       8.676   0.993   5.988  1.00  0.00    -0.030 C 
ATOM     84  C   UNL     1       9.056   1.981   3.730  1.00  0.00     0.041 C 
ATOM     85  C   UNL     1       8.891   0.847   4.683  1.00  0.00    -0.030 C 
BRANCH  82  86
ATOM     86  C   UNL     1      10.274   4.152   3.764  1.00  0.00     0.228 C 
ATOM     87  O   UNL     1      10.726   3.797   2.659  1.00  0.00    -0.274 OA
ATOM     88  N   UNL     1      10.881   5.277   4.180  1.00  0.00    -0.325 N 
ATOM     89  H   UNL     1      11.502   5.603   3.489  1.00  0.00     0.169 HD
BRANCH  88  90
ATOM     90  C   UNL     1      10.905   6.125   5.286  1.00  0.00     0.054 A 
ATOM     91  C   UNL     1      10.974   7.485   4.903  1.00  0.00     0.027 A 
ATOM     92  C   UNL     1      10.902   5.810   6.649  1.00  0.00     0.063 A 
ATOM     93  C   UNL     1      10.830   8.519   5.823  1.00  0.00     0.002 A 
ATOM     94  C   UNL     1      10.679   6.874   7.560  1.00  0.00     0.016 A 
ATOM     95  C   UNL     1      10.621   8.208   7.153  1.00  0.00     0.001 A 
BRANCH  92  96
ATOM     96  C   UNL     1      11.151   4.495   7.324  1.00  0.00     0.253 C 
ATOM     97  O   UNL     1      10.705   4.330   8.465  1.00  0.00    -0.269 OA
ATOM     98  N   UNL     1      11.860   3.446   6.811  1.00  0.00    -0.345 N 
ATOM     99  H   UNL     1      11.885   2.666   7.410  1.00  0.00     0.164 HD
BRANCH  98 100
ATOM    100  C   UNL     1      12.580   3.236   5.576  1.00  0.00     0.191 C 
BRANCH 100 101
ATOM    101  C   UNL     1      13.652   2.237   5.781  1.00  0.00     0.122 A 
ATOM    102  C   UNL     1      14.720   2.143   6.646  1.00  0.00     0.047 A 
ATOM    103  O   UNL     1      13.637   1.161   4.942  1.00  0.00    -0.467 OA
ATOM    104  C   UNL     1      15.404   0.951   6.305  1.00  0.00     0.042 A 
ATOM    105  C   UNL     1      14.706   0.390   5.261  1.00  0.00     0.195 A 
ENDBRANCH 100 101
ENDBRANCH  98 100
ENDBRANCH  92  96
ENDBRANCH  88  90
ENDBRANCH  82  86
ENDBRANCH  77  80
ENDBRANCH  75  76
ENDBRANCH  74  75
ENDBRANCH   1  74
TORSDOF 21
