REMARK SMILES O=C1OC(c2ccc(Cl)cc2)=N/C1=C/Nc1ccc(O)c(C(=O)NCCCCCCNC(=O)c2ccc(-c3c4nc(c(-c5cc(S(=O)(=O)[O-])ccc5F)c5ccc([nH]5)c(-c5cc(S(=O)(=O)[O-])ccc5F)c5nc(c(-c6cc(S(=O)(=O)[O-])ccc6F)c6ccc3[nH]6)C=C5)C=C4)cc2)c1
REMARK SMILES IDX 27 1 26 2 25 3 24 4 22 5 23 6 21 8 16 9 17 10 97 11 18 12
REMARK SMILES IDX 19 13 15 14 14 16 1 17 2 18 3 19 13 20 4 21 12 22 5 23 6 24
REMARK SMILES IDX 11 25 7 26 10 27 8 28 9 29 20 30 28 32 29 33 30 34 31 35
REMARK SMILES IDX 32 36 33 38 34 39 35 40 96 41 36 42 95 43 37 44 38 45 39 46
REMARK SMILES IDX 89 47 40 48 94 49 88 50 90 51 41 52 93 53 87 54 86 55 42 57
REMARK SMILES IDX 74 58 54 59 73 60 55 61 58 62 72 63 91 64 56 65 57 66 71 68
REMARK SMILES IDX 92 69 59 70 43 71 44 72 52 73 45 74 51 75 53 76 50 77 46 78
REMARK SMILES IDX 47 79 48 80 49 81 75 82 76 83 84 84 77 85 83 86 85 87 82 88
REMARK SMILES IDX 78 89 79 90 80 91 81 92 60 93 61 94 69 95 62 96 68 97 70 98
REMARK SMILES IDX 67 99 63 100 64 101 65 102 66 103
REMARK H PARENT 24 7 15 15 20 31 31 37 90 56 58 67
REMARK Flexibility Score: inf
ROOT
ATOM      1  C   UNL     1      -3.838 -11.183  -0.895  1.00  0.00     0.002 C 
ENDROOT
BRANCH   1   2
ATOM      2  C   UNL     1      -2.884 -10.173  -0.248  1.00  0.00     0.021 C 
BRANCH   2   3
ATOM      3  C   UNL     1      -2.068  -9.385  -1.278  1.00  0.00     0.116 C 
BRANCH   3   4
ATOM      4  N   UNL     1      -2.839  -8.247  -1.721  1.00  0.00    -0.352 N 
ATOM      5  C   UNL     1      -2.899  -6.954  -1.279  1.00  0.00     0.255 C 
ATOM      6  O   UNL     1      -3.797  -6.260  -1.768  1.00  0.00    -0.269 OA
ATOM      7  H   UNL     1      -3.432  -8.437  -2.483  1.00  0.00     0.163 HD
BRANCH   5   8
ATOM      8  C   UNL     1      -1.908  -6.305  -0.365  1.00  0.00     0.083 A 
ATOM      9  C   UNL     1      -0.842  -4.138   0.113  1.00  0.00     0.039 A 
ATOM     10  C   UNL     1      -0.002  -4.767   1.029  1.00  0.00     0.030 A 
ATOM     11  C   UNL     1      -1.760  -4.921  -0.593  1.00  0.00     0.043 A 
ATOM     12  C   UNL     1      -0.166  -6.119   1.322  1.00  0.00     0.049 A 
ATOM     13  C   UNL     1      -1.143  -6.873   0.660  1.00  0.00     0.128 A 
BRANCH   9  14
ATOM     14  N   UNL     1      -0.762  -2.770  -0.168  1.00  0.00    -0.360 N 
ATOM     15  H   UNL     1      -1.601  -2.322  -0.422  1.00  0.00     0.166 HD
BRANCH  14  16
ATOM     16  C   UNL     1       0.361  -1.992  -0.124  1.00  0.00     0.119 C 
ATOM     17  O   UNL     1      -1.881   0.035  -0.013  1.00  0.00    -0.244 OA
ATOM     18  C   UNL     1      -0.691   0.271  -0.010  1.00  0.00     0.365 C 
ATOM     19  O   UNL     1      -0.085   1.490   0.084  1.00  0.00    -0.402 OA
ATOM     20  C   UNL     1       0.465  -0.662  -0.103  1.00  0.00     0.168 C 
ATOM     21  C   UNL     1       1.243   1.251  -0.006  1.00  0.00     0.231 C 
ATOM     22  N   UNL     1       1.644   0.029  -0.125  1.00  0.00    -0.204 NA
BRANCH  21  23
ATOM     23  C   UNL     1       2.087   2.437  -0.023  1.00  0.00     0.037 A 
ATOM     24  C   UNL     1       1.990   3.393   0.989  1.00  0.00     0.015 A 
ATOM     25  C   UNL     1       3.025   2.568  -1.052  1.00  0.00     0.015 A 
ATOM     26  C   UNL     1       2.849   4.494   0.970  1.00  0.00     0.021 A 
ATOM     27  C   UNL     1       3.867   3.680  -1.077  1.00  0.00     0.021 A 
ATOM     28  C   UNL     1       3.778   4.635  -0.063  1.00  0.00     0.041 A 
ATOM     29  Cl  UNL     1       4.830   5.996  -0.085  1.00  0.00    -0.084 Cl
ENDBRANCH  21  23
ENDBRANCH  14  16
ENDBRANCH   9  14
BRANCH  13  30
ATOM     30  O   UNL     1      -1.348  -8.140   1.117  1.00  0.00    -0.507 OA
ATOM     31  H   UNL     1      -0.813  -8.483   1.806  1.00  0.00     0.293 HD
ENDBRANCH  13  30
ENDBRANCH   5   8
ENDBRANCH   3   4
ENDBRANCH   2   3
ENDBRANCH   1   2
BRANCH   1  32
ATOM     32  C   UNL     1      -3.131 -12.311  -1.655  1.00  0.00     0.002 C 
BRANCH  32  33
ATOM     33  C   UNL     1      -2.120 -13.100  -0.820  1.00  0.00     0.021 C 
BRANCH  33  34
ATOM     34  C   UNL     1      -2.740 -13.820   0.372  1.00  0.00     0.116 C 
BRANCH  34  35
ATOM     35  N   UNL     1      -3.685 -14.837  -0.065  1.00  0.00    -0.352 N 
ATOM     36  C   UNL     1      -3.638 -16.195   0.130  1.00  0.00     0.251 C 
ATOM     37  H   UNL     1      -4.464 -14.506  -0.569  1.00  0.00     0.163 HD
ATOM     38  O   UNL     1      -4.338 -16.939  -0.547  1.00  0.00    -0.269 OA
BRANCH  36  39
ATOM     39  C   UNL     1      -2.727 -16.741   1.156  1.00  0.00     0.039 A 
ATOM     40  C   UNL     1      -1.950 -17.861   0.856  1.00  0.00     0.014 A 
ATOM     41  C   UNL     1      -2.639 -16.133   2.412  1.00  0.00     0.014 A 
ATOM     42  C   UNL     1      -1.037 -18.336   1.800  1.00  0.00     0.010 A 
ATOM     43  C   UNL     1      -1.673 -16.557   3.317  1.00  0.00     0.010 A 
ATOM     44  C   UNL     1      -0.866 -17.666   3.024  1.00  0.00    -0.014 A 
BRANCH  44  45
ATOM     45  C   UNL     1       0.142 -18.113   4.019  1.00  0.00     0.031 A 
ATOM     46  C   UNL     1      -0.304 -18.578   5.378  1.00  0.00     0.074 A 
ATOM     47  C   UNL     1       1.455 -18.039   3.721  1.00  0.00     0.049 A 
ATOM     48  N   UNL     1       0.417 -18.910   6.417  1.00  0.00    -0.248 NA
ATOM     49  C   UNL     1      -1.756 -18.650   5.607  1.00  0.00     0.031 C 
ATOM     50  C   UNL     1       2.007 -17.580   2.444  1.00  0.00     0.029 A 
ATOM     51  N   UNL     1       2.564 -18.339   4.471  1.00  0.00    -0.354 N 
ATOM     52  C   UNL     1      -0.490 -19.221   7.424  1.00  0.00     0.074 A 
ATOM     53  C   UNL     1      -1.811 -18.972   6.890  1.00  0.00     0.031 C 
ATOM     54  C   UNL     1       3.346 -17.655   2.492  1.00  0.00     0.029 A 
ATOM     55  C   UNL     1       3.754 -18.109   3.818  1.00  0.00     0.049 A 
ATOM     56  H   UNL     1       2.514 -18.686   5.391  1.00  0.00     0.167 HD
ATOM     57  C   UNL     1      -0.243 -19.695   8.670  1.00  0.00     0.034 A 
ATOM     58  C   UNL     1       5.027 -18.230   4.245  1.00  0.00     0.034 A 
ATOM     59  C   UNL     1       1.082 -19.943   9.182  1.00  0.00     0.049 A 
ATOM     60  C   UNL     1       5.276 -18.705   5.656  1.00  0.00     0.074 A 
ATOM     61  C   UNL     1       1.446 -20.460  10.413  1.00  0.00     0.029 A 
ATOM     62  N   UNL     1       2.263 -19.685   8.497  1.00  0.00    -0.354 N 
ATOM     63  N   UNL     1       4.405 -19.032   6.584  1.00  0.00    -0.248 NA
ATOM     64  C   UNL     1       6.678 -18.835   6.075  1.00  0.00     0.031 C 
ATOM     65  C   UNL     1       2.841 -20.438  10.503  1.00  0.00     0.029 A 
ATOM     66  C   UNL     1       3.353 -19.998   9.293  1.00  0.00     0.049 A 
ATOM     67  H   UNL     1       2.317 -19.332   7.579  1.00  0.00     0.167 HD
ATOM     68  C   UNL     1       5.158 -19.445   7.681  1.00  0.00     0.074 A 
ATOM     69  C   UNL     1       6.549 -19.336   7.295  1.00  0.00     0.031 C 
ATOM     70  C   UNL     1       4.737 -19.882   8.895  1.00  0.00     0.034 A 
BRANCH  57  71
ATOM     71  C   UNL     1      -1.429 -19.949   9.569  1.00  0.00     0.023 A 
ATOM     72  C   UNL     1      -2.414 -20.898   9.243  1.00  0.00     0.031 A 
ATOM     73  C   UNL     1      -1.587 -19.224  10.764  1.00  0.00     0.131 A 
ATOM     74  C   UNL     1      -3.544 -21.046  10.060  1.00  0.00     0.055 A 
ATOM     75  C   UNL     1      -2.671 -19.437  11.618  1.00  0.00     0.041 A 
ATOM     76  F   UNL     1      -0.694 -18.286  11.118  1.00  0.00    -0.206 F 
ATOM     77  C   UNL     1      -3.666 -20.343  11.261  1.00  0.00     0.022 A 
BRANCH  74  78
ATOM     78  S   UNL     1      -4.921 -22.060   9.457  1.00  0.00     0.124 S 
ATOM     79  O   UNL     1      -5.257 -21.386   8.206  1.00  0.00    -0.237 OA
ATOM     80  O   UNL     1      -4.310 -23.378   9.329  1.00  0.00    -0.237 OA
ATOM     81  O   UNL     1      -5.925 -21.937  10.512  1.00  0.00    -0.744 OA
ENDBRANCH  74  78
ENDBRANCH  57  71
BRANCH  58  82
ATOM     82  C   UNL     1       6.168 -17.882   3.347  1.00  0.00     0.023 A 
ATOM     83  C   UNL     1       7.117 -18.849   2.979  1.00  0.00     0.031 A 
ATOM     84  C   UNL     1       6.362 -16.565   2.894  1.00  0.00     0.131 A 
ATOM     85  C   UNL     1       8.246 -18.473   2.235  1.00  0.00     0.055 A 
ATOM     86  C   UNL     1       7.452 -16.210   2.097  1.00  0.00     0.041 A 
ATOM     87  F   UNL     1       5.486 -15.599   3.216  1.00  0.00    -0.206 F 
ATOM     88  C   UNL     1       8.412 -17.165   1.778  1.00  0.00     0.022 A 
BRANCH  85  89
ATOM     89  S   UNL     1       9.559 -19.698   1.975  1.00  0.00     0.124 S 
ATOM     90  O   UNL     1       9.893 -20.067   3.346  1.00  0.00    -0.237 OA
ATOM     91  O   UNL     1       8.871 -20.715   1.186  1.00  0.00    -0.237 OA
ATOM     92  O   UNL     1      10.588 -18.946   1.261  1.00  0.00    -0.744 OA
ENDBRANCH  85  89
ENDBRANCH  58  82
BRANCH  70  93
ATOM     93  C   UNL     1       5.795 -20.333   9.874  1.00  0.00     0.023 A 
ATOM     94  C   UNL     1       6.728 -19.440  10.428  1.00  0.00     0.031 A 
ATOM     95  C   UNL     1       5.863 -21.684  10.262  1.00  0.00     0.131 A 
ATOM     96  C   UNL     1       7.719 -19.916  11.299  1.00  0.00     0.055 A 
ATOM     97  C   UNL     1       6.808 -22.140  11.181  1.00  0.00     0.041 A 
ATOM     98  F   UNL     1       5.000 -22.583   9.761  1.00  0.00    -0.206 F 
ATOM     99  C   UNL     1       7.752 -21.256  11.695  1.00  0.00     0.022 A 
BRANCH  96 100
ATOM    100  S   UNL     1       9.026 -18.780  11.837  1.00  0.00     0.124 S 
ATOM    101  O   UNL     1       9.610 -18.366  10.565  1.00  0.00    -0.237 OA
ATOM    102  O   UNL     1       8.274 -17.756  12.556  1.00  0.00    -0.237 OA
ATOM    103  O   UNL     1       9.887 -19.616  12.671  1.00  0.00    -0.744 OA
ENDBRANCH  96 100
ENDBRANCH  70  93
ENDBRANCH  44  45
ENDBRANCH  36  39
ENDBRANCH  34  35
ENDBRANCH  33  34
ENDBRANCH  32  33
ENDBRANCH   1  32
TORSDOF 20
