REMARK SMILES Cc1ccc(S(=O)(=O)N2C[C@@H](CC(=O)NCCCCCCNC(=O)c3ccc(-c4c5nc(c(-c6cc(S(=O)(=O)[O-])ccc6F)c6ccc([nH]6)c(-c6cc(S(=O)(=O)[O-])ccc6F)c6nc(c(-c7cc(S(=O)(=O)[O-])ccc7F)c7ccc4[nH]7)C=C6)C=C5)cc3)c3ccccc32)c(C)c1
REMARK SMILES IDX 18 1 17 2 16 3 15 4 13 5 14 6 12 8 11 9 9 10 10 11 93 12
REMARK SMILES IDX 88 13 92 14 89 15 91 16 90 17 6 18 7 19 8 20 5 21 1 22 2 23
REMARK SMILES IDX 3 24 96 25 4 26 94 27 95 28 19 29 20 30 21 31 22 32 23 33
REMARK SMILES IDX 24 35 25 36 26 37 87 38 27 39 86 40 28 41 29 42 30 43 80 44
REMARK SMILES IDX 31 45 85 46 79 47 81 48 32 49 84 50 78 51 77 52 33 54 65 55
REMARK SMILES IDX 45 56 64 57 46 58 49 59 63 60 82 61 47 62 48 63 62 65 83 66
REMARK SMILES IDX 50 67 34 68 35 69 43 70 36 71 42 72 44 73 41 74 37 75 38 76
REMARK SMILES IDX 39 77 40 78 66 79 67 80 75 81 68 82 74 83 76 84 73 85 69 86
REMARK SMILES IDX 70 87 71 88 72 89 51 90 52 91 60 92 53 93 59 94 61 95 58 96
REMARK SMILES IDX 54 97 55 98 56 99 57 100
REMARK H PARENT 15 7 22 34 81 53 49 64
REMARK Flexibility Score: inf
ROOT
ATOM      1  C   UNL     1       0.608  -9.051   2.901  1.00  0.00     0.002 C 
ENDROOT
BRANCH   1   2
ATOM      2  C   UNL     1      -0.066  -7.946   2.093  1.00  0.00     0.021 C 
BRANCH   2   3
ATOM      3  C   UNL     1       0.240  -7.944   0.598  1.00  0.00     0.116 C 
BRANCH   3   4
ATOM      4  N   UNL     1      -0.817  -8.641  -0.117  1.00  0.00    -0.356 N 
ATOM      5  C   UNL     1      -1.903  -8.127  -0.761  1.00  0.00     0.220 C 
ATOM      6  O   UNL     1      -2.836  -8.881  -1.040  1.00  0.00    -0.275 OA
ATOM      7  H   UNL     1      -0.737  -9.622  -0.140  1.00  0.00     0.163 HD
BRANCH   5   8
ATOM      8  C   UNL     1      -1.925  -6.675  -1.189  1.00  0.00     0.110 C 
BRANCH   8   9
ATOM      9  C   UNL     1      -2.985  -5.829  -0.468  1.00  0.00     0.051 C 
ATOM     10  N   UNL     1      -2.164  -3.536  -0.473  1.00  0.00    -0.265 N 
ATOM     11  C   UNL     1      -3.120  -4.464  -1.179  1.00  0.00     0.144 C 
ATOM     12  C   UNL     1      -2.017  -4.080   0.852  1.00  0.00     0.055 A 
ATOM     13  C   UNL     1      -2.568  -5.363   0.899  1.00  0.00    -0.018 A 
ATOM     14  C   UNL     1      -1.403  -3.526   1.963  1.00  0.00     0.027 A 
ATOM     15  C   UNL     1      -2.690  -6.031   2.106  1.00  0.00     0.006 A 
ATOM     16  C   UNL     1      -1.454  -4.229   3.169  1.00  0.00     0.002 A 
ATOM     17  C   UNL     1      -2.126  -5.455   3.248  1.00  0.00     0.000 A 
BRANCH  10  18
ATOM     18  S   UNL     1      -2.633  -1.888  -0.594  1.00  0.00     0.264 S 
ATOM     19  O   UNL     1      -3.540  -1.615   0.499  1.00  0.00    -0.201 OA
ATOM     20  O   UNL     1      -3.035  -1.660  -1.972  1.00  0.00    -0.201 OA
BRANCH  18  21
ATOM     21  C   UNL     1      -1.140  -0.938  -0.365  1.00  0.00     0.090 A 
ATOM     22  C   UNL     1       2.541   1.260   0.085  1.00  0.00     0.044 C 
ATOM     23  C   UNL     1       1.266   0.481  -0.056  1.00  0.00    -0.051 A 
ATOM     24  C   UNL     1       1.290  -0.887  -0.330  1.00  0.00     0.005 A 
ATOM     25  C   UNL     1       0.030   1.135   0.042  1.00  0.00     0.008 A 
ATOM     26  C   UNL     1       0.097  -1.590  -0.495  1.00  0.00     0.023 A 
ATOM     27  C   UNL     1      -1.189   0.445  -0.105  1.00  0.00    -0.030 A 
ATOM     28  C   UNL     1      -2.444   1.272  -0.054  1.00  0.00     0.046 C 
ENDBRANCH  18  21
ENDBRANCH  10  18
ENDBRANCH   8   9
ENDBRANCH   5   8
ENDBRANCH   3   4
ENDBRANCH   2   3
ENDBRANCH   1   2
BRANCH   1  29
ATOM     29  C   UNL     1       2.112  -8.873   3.108  1.00  0.00     0.002 C 
BRANCH  29  30
ATOM     30  C   UNL     1       2.551  -7.510   3.654  1.00  0.00     0.021 C 
BRANCH  30  31
ATOM     31  C   UNL     1       1.826  -7.043   4.915  1.00  0.00     0.116 C 
BRANCH  31  32
ATOM     32  N   UNL     1       2.040  -7.948   6.031  1.00  0.00    -0.352 N 
ATOM     33  C   UNL     1       2.792  -7.777   7.167  1.00  0.00     0.251 C 
ATOM     34  H   UNL     1       1.577  -8.813   5.962  1.00  0.00     0.163 HD
ATOM     35  O   UNL     1       3.061  -8.752   7.863  1.00  0.00    -0.269 OA
BRANCH  33  36
ATOM     36  C   UNL     1       3.286  -6.434   7.544  1.00  0.00     0.039 A 
ATOM     37  C   UNL     1       4.595  -6.303   8.015  1.00  0.00     0.014 A 
ATOM     38  C   UNL     1       2.453  -5.313   7.480  1.00  0.00     0.014 A 
ATOM     39  C   UNL     1       5.081  -5.044   8.379  1.00  0.00     0.010 A 
ATOM     40  C   UNL     1       2.962  -4.048   7.771  1.00  0.00     0.010 A 
ATOM     41  C   UNL     1       4.278  -3.900   8.237  1.00  0.00    -0.014 A 
BRANCH  41  42
ATOM     42  C   UNL     1       4.788  -2.551   8.606  1.00  0.00     0.031 A 
ATOM     43  C   UNL     1       4.146  -1.783   9.732  1.00  0.00     0.074 A 
ATOM     44  C   UNL     1       5.801  -2.001   7.906  1.00  0.00     0.049 A 
ATOM     45  N   UNL     1       4.405  -0.576  10.165  1.00  0.00    -0.248 NA
ATOM     46  C   UNL     1       3.049  -2.454  10.445  1.00  0.00     0.031 C 
ATOM     47  C   UNL     1       6.488  -2.632   6.777  1.00  0.00     0.029 A 
ATOM     48  N   UNL     1       6.427  -0.786   8.036  1.00  0.00    -0.354 N 
ATOM     49  C   UNL     1       3.497  -0.339  11.194  1.00  0.00     0.074 A 
ATOM     50  C   UNL     1       2.640  -1.503  11.269  1.00  0.00     0.031 C 
ATOM     51  C   UNL     1       7.456  -1.812   6.337  1.00  0.00     0.029 A 
ATOM     52  C   UNL     1       7.429  -0.578   7.116  1.00  0.00     0.049 A 
ATOM     53  H   UNL     1       6.182  -0.125   8.723  1.00  0.00     0.167 HD
ATOM     54  C   UNL     1       3.403   0.738  12.014  1.00  0.00     0.034 A 
ATOM     55  C   UNL     1       8.229   0.490   6.914  1.00  0.00     0.034 A 
ATOM     56  C   UNL     1       4.270   1.889  11.930  1.00  0.00     0.049 A 
ATOM     57  C   UNL     1       8.082   1.690   7.816  1.00  0.00     0.074 A 
ATOM     58  C   UNL     1       4.288   3.016  12.734  1.00  0.00     0.029 A 
ATOM     59  N   UNL     1       5.270   2.066  10.981  1.00  0.00    -0.354 N 
ATOM     60  N   UNL     1       7.244   1.883   8.809  1.00  0.00    -0.248 NA
ATOM     61  C   UNL     1       9.002   2.811   7.580  1.00  0.00     0.031 C 
ATOM     62  C   UNL     1       5.242   3.904  12.226  1.00  0.00     0.029 A 
ATOM     63  C   UNL     1       5.888   3.295  11.162  1.00  0.00     0.049 A 
ATOM     64  H   UNL     1       5.506   1.414  10.283  1.00  0.00     0.167 HD
ATOM     65  C   UNL     1       7.566   3.129   9.342  1.00  0.00     0.074 A 
ATOM     66  C   UNL     1       8.681   3.634   8.567  1.00  0.00     0.031 C 
ATOM     67  C   UNL     1       6.997   3.793  10.381  1.00  0.00     0.034 A 
BRANCH  54  68
ATOM     68  C   UNL     1       2.303   0.728  13.052  1.00  0.00     0.023 A 
ATOM     69  C   UNL     1       2.247  -0.248  14.062  1.00  0.00     0.031 A 
ATOM     70  C   UNL     1       1.279   1.692  13.016  1.00  0.00     0.131 A 
ATOM     71  C   UNL     1       1.152  -0.289  14.940  1.00  0.00     0.055 A 
ATOM     72  C   UNL     1       0.240   1.701  13.949  1.00  0.00     0.041 A 
ATOM     73  F   UNL     1       1.263   2.638  12.063  1.00  0.00    -0.206 F 
ATOM     74  C   UNL     1       0.163   0.696  14.908  1.00  0.00     0.022 A 
BRANCH  71  75
ATOM     75  S   UNL     1       0.959  -1.736  16.016  1.00  0.00     0.124 S 
ATOM     76  O   UNL     1       0.908  -2.823  15.040  1.00  0.00    -0.237 OA
ATOM     77  O   UNL     1       2.158  -1.676  16.844  1.00  0.00    -0.237 OA
ATOM     78  O   UNL     1      -0.298  -1.478  16.715  1.00  0.00    -0.744 OA
ENDBRANCH  71  75
ENDBRANCH  54  68
BRANCH  55  79
ATOM     79  C   UNL     1       9.234   0.486   5.811  1.00  0.00     0.023 A 
ATOM     80  C   UNL     1      10.609   0.572   6.083  1.00  0.00     0.031 A 
ATOM     81  C   UNL     1       8.832   0.447   4.464  1.00  0.00     0.131 A 
ATOM     82  C   UNL     1      11.527   0.673   5.026  1.00  0.00     0.055 A 
ATOM     83  C   UNL     1       9.754   0.486   3.416  1.00  0.00     0.041 A 
ATOM     84  F   UNL     1       7.530   0.362   4.145  1.00  0.00    -0.206 F 
ATOM     85  C   UNL     1      11.111   0.615   3.695  1.00  0.00     0.022 A 
BRANCH  82  86
ATOM     86  S   UNL     1      13.272   0.982   5.418  1.00  0.00     0.124 S 
ATOM     87  O   UNL     1      13.189   2.225   6.176  1.00  0.00    -0.237 OA
ATOM     88  O   UNL     1      13.628  -0.212   6.177  1.00  0.00    -0.237 OA
ATOM     89  O   UNL     1      13.900   1.093   4.103  1.00  0.00    -0.744 OA
ENDBRANCH  82  86
ENDBRANCH  55  79
BRANCH  67  90
ATOM     90  C   UNL     1       7.618   5.112  10.780  1.00  0.00     0.023 A 
ATOM     91  C   UNL     1       7.615   6.228   9.926  1.00  0.00     0.031 A 
ATOM     92  C   UNL     1       8.241   5.245  12.035  1.00  0.00     0.131 A 
ATOM     93  C   UNL     1       8.281   7.403  10.308  1.00  0.00     0.055 A 
ATOM     94  C   UNL     1       8.838   6.439  12.439  1.00  0.00     0.041 A 
ATOM     95  F   UNL     1       8.279   4.212  12.892  1.00  0.00    -0.206 F 
ATOM     96  C   UNL     1       8.876   7.522  11.566  1.00  0.00     0.022 A 
BRANCH  93  97
ATOM     97  S   UNL     1       8.462   8.736   9.090  1.00  0.00     0.124 S 
ATOM     98  O   UNL     1       9.128   8.050   7.987  1.00  0.00    -0.237 OA
ATOM     99  O   UNL     1       7.078   9.131   8.852  1.00  0.00    -0.237 OA
ATOM    100  O   UNL     1       9.279   9.728   9.787  1.00  0.00    -0.744 OA
ENDBRANCH  93  97
ENDBRANCH  67  90
ENDBRANCH  41  42
ENDBRANCH  33  36
ENDBRANCH  31  32
ENDBRANCH  30  31
ENDBRANCH  29  30
ENDBRANCH   1  29
TORSDOF 19
