REMARK SMILES CC(C)C[C@H](NC(=O)c1cc(Cl)nnc1Cl)C(=O)NCCCCCCNC(=O)c1ccc(-c2c3nc(c(-c4cc(S(=O)(=O)[O-])ccc4F)c4ccc([nH]4)c(-c4cc(S(=O)(=O)[O-])ccc4F)c4nc(c(-c5cc(S(=O)(=O)[O-])ccc5F)c5ccc2[nH]5)C=C4)C=C3)cc1
REMARK SMILES IDX 23 1 22 2 21 3 20 4 19 5 17 6 18 7 5 9 4 10 2 11 1 12 3 13
REMARK SMILES IDX 6 14 7 15 8 17 9 18 10 19 15 20 11 21 14 22 16 23 12 24
REMARK SMILES IDX 13 25 24 26 25 27 26 28 27 29 28 31 29 32 30 33 91 34 31 35
REMARK SMILES IDX 90 36 32 37 33 38 34 39 84 40 35 41 89 42 83 43 85 44 36 45
REMARK SMILES IDX 88 46 82 47 81 48 37 50 69 51 49 52 68 53 50 54 53 55 67 56
REMARK SMILES IDX 86 57 51 58 52 59 66 61 87 62 54 63 38 64 39 65 47 66 40 67
REMARK SMILES IDX 46 68 48 69 45 70 41 71 42 72 43 73 44 74 70 75 71 76 79 77
REMARK SMILES IDX 72 78 78 79 80 80 77 81 73 82 74 83 75 84 76 85 55 86 56 87
REMARK SMILES IDX 64 88 57 89 63 90 65 91 62 92 58 93 59 94 60 95 61 96
REMARK H PARENT 19 8 6 16 26 30 85 49 53 60
REMARK Flexibility Score: inf
ROOT
ATOM      1  C   UNL     1      -5.619   0.639   5.014  1.00  0.00     0.002 C 
ENDROOT
BRANCH   1   2
ATOM      2  C   UNL     1      -5.184   1.599   3.902  1.00  0.00     0.002 C 
BRANCH   2   3
ATOM      3  C   UNL     1      -3.677   1.635   3.614  1.00  0.00     0.021 C 
BRANCH   3   4
ATOM      4  C   UNL     1      -3.061   0.285   3.253  1.00  0.00     0.116 C 
BRANCH   4   5
ATOM      5  N   UNL     1      -3.610  -0.234   2.013  1.00  0.00    -0.354 N 
ATOM      6  C   UNL     1      -3.042  -0.986   1.031  1.00  0.00     0.242 C 
ATOM      7  O   UNL     1      -3.787  -1.437   0.156  1.00  0.00    -0.273 OA
ATOM      8  H   UNL     1      -4.554  -0.003   1.855  1.00  0.00     0.163 HD
BRANCH   6   9
ATOM      9  C   UNL     1      -1.544  -1.341   1.042  1.00  0.00     0.171 C 
BRANCH   9  10
ATOM     10  C   UNL     1      -1.199  -2.305   2.190  1.00  0.00     0.038 C 
BRANCH  10  11
ATOM     11  C   UNL     1      -1.855  -3.696   2.071  1.00  0.00    -0.015 C 
ATOM     12  C   UNL     1      -1.440  -4.433   0.795  1.00  0.00     0.007 C 
ATOM     13  C   UNL     1      -1.486  -4.542   3.292  1.00  0.00     0.007 C 
ENDBRANCH  10  11
ENDBRANCH   9  10
BRANCH   9  14
ATOM     14  N   UNL     1      -0.715  -0.128   1.044  1.00  0.00    -0.340 N 
ATOM     15  C   UNL     1       0.586   0.021   0.635  1.00  0.00     0.255 C 
ATOM     16  H   UNL     1      -1.151   0.686   1.385  1.00  0.00     0.164 HD
ATOM     17  O   UNL     1       1.152   1.104   0.671  1.00  0.00    -0.269 OA
BRANCH  15  18
ATOM     18  C   UNL     1       1.332  -1.151   0.179  1.00  0.00     0.082 A 
ATOM     19  C   UNL     1       2.199  -1.780   1.071  1.00  0.00     0.060 A 
ATOM     20  C   UNL     1       1.200  -1.639  -1.106  1.00  0.00     0.164 A 
ATOM     21  C   UNL     1       2.830  -2.920   0.633  1.00  0.00     0.152 A 
ATOM     22  N   UNL     1       1.839  -2.760  -1.498  1.00  0.00    -0.136 NA
ATOM     23  Cl  UNL     1       0.220  -0.928  -2.320  1.00  0.00    -0.059 Cl
ATOM     24  Cl  UNL     1       3.856  -3.831   1.651  1.00  0.00    -0.060 Cl
ATOM     25  N   UNL     1       2.656  -3.418  -0.610  1.00  0.00    -0.137 NA
ENDBRANCH  15  18
ENDBRANCH   9  14
ENDBRANCH   6   9
ENDBRANCH   4   5
ENDBRANCH   3   4
ENDBRANCH   2   3
ENDBRANCH   1   2
BRANCH   1  26
ATOM     26  C   UNL     1      -4.908   0.826   6.355  1.00  0.00     0.021 C 
BRANCH  26  27
ATOM     27  C   UNL     1      -4.957   2.242   6.917  1.00  0.00     0.116 C 
BRANCH  27  28
ATOM     28  N   UNL     1      -6.314   2.680   7.196  1.00  0.00    -0.352 N 
ATOM     29  C   UNL     1      -6.802   3.250   8.346  1.00  0.00     0.251 C 
ATOM     30  H   UNL     1      -6.966   2.553   6.469  1.00  0.00     0.163 HD
ATOM     31  O   UNL     1      -8.004   3.439   8.492  1.00  0.00    -0.269 OA
BRANCH  29  32
ATOM     32  C   UNL     1      -5.851   3.611   9.416  1.00  0.00     0.039 A 
ATOM     33  C   UNL     1      -6.042   3.088  10.696  1.00  0.00     0.014 A 
ATOM     34  C   UNL     1      -4.755   4.434   9.133  1.00  0.00     0.014 A 
ATOM     35  C   UNL     1      -5.102   3.357  11.692  1.00  0.00     0.010 A 
ATOM     36  C   UNL     1      -3.796   4.661  10.115  1.00  0.00     0.010 A 
ATOM     37  C   UNL     1      -3.967   4.132  11.403  1.00  0.00    -0.014 A 
BRANCH  37  38
ATOM     38  C   UNL     1      -2.958   4.420  12.450  1.00  0.00     0.031 A 
ATOM     39  C   UNL     1      -2.840   5.809  13.006  1.00  0.00     0.074 A 
ATOM     40  C   UNL     1      -2.119   3.449  12.856  1.00  0.00     0.049 A 
ATOM     41  N   UNL     1      -2.022   6.262  13.918  1.00  0.00    -0.248 NA
ATOM     42  C   UNL     1      -3.748   6.827  12.452  1.00  0.00     0.031 C 
ATOM     43  C   UNL     1      -2.106   2.079  12.342  1.00  0.00     0.029 A 
ATOM     44  N   UNL     1      -1.105   3.469  13.780  1.00  0.00    -0.354 N 
ATOM     45  C   UNL     1      -2.311   7.614  14.045  1.00  0.00     0.074 A 
ATOM     46  C   UNL     1      -3.343   7.921  13.081  1.00  0.00     0.031 C 
ATOM     47  C   UNL     1      -1.137   1.389  12.962  1.00  0.00     0.029 A 
ATOM     48  C   UNL     1      -0.446   2.268  13.904  1.00  0.00     0.049 A 
ATOM     49  H   UNL     1      -0.872   4.268  14.306  1.00  0.00     0.167 HD
ATOM     50  C   UNL     1      -1.780   8.512  14.907  1.00  0.00     0.034 A 
ATOM     51  C   UNL     1       0.592   1.915  14.689  1.00  0.00     0.034 A 
ATOM     52  C   UNL     1      -0.769   8.190  15.877  1.00  0.00     0.049 A 
ATOM     53  C   UNL     1       1.151   2.925  15.659  1.00  0.00     0.074 A 
ATOM     54  C   UNL     1      -0.218   9.013  16.842  1.00  0.00     0.029 A 
ATOM     55  N   UNL     1      -0.159   6.952  16.008  1.00  0.00    -0.354 N 
ATOM     56  N   UNL     1       0.788   4.172  15.849  1.00  0.00    -0.248 NA
ATOM     57  C   UNL     1       2.245   2.482  16.535  1.00  0.00     0.031 C 
ATOM     58  C   UNL     1       0.753   8.285  17.531  1.00  0.00     0.029 A 
ATOM     59  C   UNL     1       0.776   6.993  17.027  1.00  0.00     0.049 A 
ATOM     60  H   UNL     1      -0.361   6.161  15.458  1.00  0.00     0.167 HD
ATOM     61  C   UNL     1       1.586   4.652  16.882  1.00  0.00     0.074 A 
ATOM     62  C   UNL     1       2.444   3.558  17.288  1.00  0.00     0.031 C 
ATOM     63  C   UNL     1       1.606   5.888  17.441  1.00  0.00     0.034 A 
BRANCH  50  64
ATOM     64  C   UNL     1      -2.301   9.923  14.873  1.00  0.00     0.023 A 
ATOM     65  C   UNL     1      -1.460  10.977  14.477  1.00  0.00     0.031 A 
ATOM     66  C   UNL     1      -3.595  10.231  15.327  1.00  0.00     0.131 A 
ATOM     67  C   UNL     1      -1.919  12.297  14.561  1.00  0.00     0.055 A 
ATOM     68  C   UNL     1      -4.059  11.545  15.379  1.00  0.00     0.041 A 
ATOM     69  F   UNL     1      -4.433   9.254  15.710  1.00  0.00    -0.206 F 
ATOM     70  C   UNL     1      -3.216  12.586  15.002  1.00  0.00     0.022 A 
BRANCH  67  71
ATOM     71  S   UNL     1      -0.846  13.692  14.123  1.00  0.00     0.124 S 
ATOM     72  O   UNL     1      -1.667  14.411  13.151  1.00  0.00    -0.237 OA
ATOM     73  O   UNL     1      -0.675  14.358  15.411  1.00  0.00    -0.237 OA
ATOM     74  O   UNL     1       0.347  13.056  13.575  1.00  0.00    -0.744 OA
ENDBRANCH  67  71
ENDBRANCH  50  64
BRANCH  51  75
ATOM     75  C   UNL     1       1.105   0.518  14.629  1.00  0.00     0.023 A 
ATOM     76  C   UNL     1       1.725   0.023  13.467  1.00  0.00     0.031 A 
ATOM     77  C   UNL     1       0.891  -0.369  15.697  1.00  0.00     0.131 A 
ATOM     78  C   UNL     1       2.065  -1.334  13.385  1.00  0.00     0.055 A 
ATOM     79  C   UNL     1       1.285  -1.707  15.633  1.00  0.00     0.041 A 
ATOM     80  F   UNL     1       0.289   0.056  16.818  1.00  0.00    -0.206 F 
ATOM     81  C   UNL     1       1.865  -2.198  14.467  1.00  0.00     0.022 A 
BRANCH  78  82
ATOM     82  S   UNL     1       2.693  -2.045  11.838  1.00  0.00     0.124 S 
ATOM     83  O   UNL     1       3.940  -2.667  12.269  1.00  0.00    -0.237 OA
ATOM     84  O   UNL     1       1.618  -2.967  11.479  1.00  0.00    -0.237 OA
ATOM     85  O   UNL     1       2.837  -0.888  10.960  1.00  0.00    -0.744 OA
ENDBRANCH  78  82
ENDBRANCH  51  75
BRANCH  63  86
ATOM     86  C   UNL     1       2.568   6.155  18.570  1.00  0.00     0.023 A 
ATOM     87  C   UNL     1       2.075   6.442  19.857  1.00  0.00     0.031 A 
ATOM     88  C   UNL     1       3.947   6.287  18.336  1.00  0.00     0.131 A 
ATOM     89  C   UNL     1       2.952   6.887  20.853  1.00  0.00     0.055 A 
ATOM     90  C   UNL     1       4.822   6.693  19.344  1.00  0.00     0.041 A 
ATOM     91  F   UNL     1       4.459   6.033  17.122  1.00  0.00    -0.206 F 
ATOM     92  C   UNL     1       4.323   7.008  20.606  1.00  0.00     0.022 A 
BRANCH  89  93
ATOM     93  S   UNL     1       2.337   7.392  22.483  1.00  0.00     0.124 S 
ATOM     94  O   UNL     1       3.106   6.530  23.378  1.00  0.00    -0.237 OA
ATOM     95  O   UNL     1       2.695   8.807  22.520  1.00  0.00    -0.237 OA
ATOM     96  O   UNL     1       0.907   7.106  22.425  1.00  0.00    -0.744 OA
ENDBRANCH  89  93
ENDBRANCH  63  86
ENDBRANCH  37  38
ENDBRANCH  29  32
ENDBRANCH  27  28
ENDBRANCH  26  27
ENDBRANCH   1  26
TORSDOF 20
