REMARK SMILES CS(=O)(=O)N1C[C@@H]2CN(C(=O)c3ccco3)C[C@]2(C(=O)NCCCCCCNC(=O)c2ccc(-c3c4nc(c(-c5cc(S(=O)(=O)[O-])ccc5F)c5ccc([nH]5)c(-c5cc(S(=O)(=O)[O-])ccc5F)c5nc(c(-c6cc(S(=O)(=O)[O-])ccc6F)c6ccc3[nH]6)C=C5)C=C4)cc2)C1
REMARK SMILES IDX 25 1 24 2 23 3 22 4 21 5 19 6 20 7 18 9 5 10 6 11 94 12 7 13
REMARK SMILES IDX 8 14 17 15 9 16 2 17 1 18 3 19 4 20 10 21 11 22 12 23 13 24
REMARK SMILES IDX 16 25 14 26 15 27 26 28 27 29 28 30 29 31 30 33 31 34 32 35
REMARK SMILES IDX 93 36 33 37 92 38 34 39 35 40 36 41 86 42 37 43 91 44 85 45
REMARK SMILES IDX 87 46 38 47 90 48 84 49 83 50 39 52 71 53 51 54 70 55 52 56
REMARK SMILES IDX 55 57 69 58 88 59 53 60 54 61 68 63 89 64 56 65 40 66 41 67
REMARK SMILES IDX 49 68 42 69 48 70 50 71 47 72 43 73 44 74 45 75 46 76 72 77
REMARK SMILES IDX 73 78 81 79 74 80 80 81 82 82 79 83 75 84 76 85 77 86 78 87
REMARK SMILES IDX 57 88 58 89 66 90 59 91 65 92 67 93 64 94 60 95 61 96 62 97
REMARK SMILES IDX 63 98
REMARK H PARENT 21 8 28 32 87 51 55 62
REMARK Flexibility Score: inf
ROOT
ATOM      1  C   UNL     1       6.277  -5.117   6.603  1.00  0.00     0.002 C 
ENDROOT
BRANCH   1   2
ATOM      2  C   UNL     1       6.196  -5.336   5.093  1.00  0.00     0.002 C 
BRANCH   2   3
ATOM      3  C   UNL     1       4.768  -5.348   4.548  1.00  0.00     0.021 C 
BRANCH   3   4
ATOM      4  C   UNL     1       4.100  -3.976   4.506  1.00  0.00     0.116 C 
BRANCH   4   5
ATOM      5  N   UNL     1       4.519  -3.281   3.304  1.00  0.00    -0.356 N 
ATOM      6  C   UNL     1       3.874  -3.308   2.092  1.00  0.00     0.229 C 
ATOM      7  O   UNL     1       4.509  -3.026   1.074  1.00  0.00    -0.274 OA
ATOM      8  H   UNL     1       5.341  -2.741   3.362  1.00  0.00     0.163 HD
BRANCH   6   9
ATOM      9  C   UNL     1       2.359  -3.647   2.128  1.00  0.00     0.086 C 
ATOM     10  N   UNL     1       0.823  -1.686   2.038  1.00  0.00    -0.201 NA
ATOM     11  C   UNL     1      -0.032  -2.850   2.001  1.00  0.00     0.108 C 
ATOM     12  C   UNL     1       2.192  -2.106   1.663  1.00  0.00     0.121 C 
ATOM     13  C   UNL     1       0.930  -3.904   1.499  1.00  0.00     0.042 C 
ATOM     14  C   UNL     1       0.497  -5.291   1.914  1.00  0.00     0.126 C 
ATOM     15  C   UNL     1       2.796  -5.070   1.480  1.00  0.00     0.138 C 
ATOM     16  N   UNL     1       1.738  -5.998   1.884  1.00  0.00    -0.334 N 
BRANCH  10  17
ATOM     17  S   UNL     1       0.257  -0.166   1.629  1.00  0.00     0.211 S 
ATOM     18  C   UNL     1       0.572  -0.073  -0.123  1.00  0.00     0.176 C 
ATOM     19  O   UNL     1       1.120   0.808   2.266  1.00  0.00    -0.213 OA
ATOM     20  O   UNL     1      -1.173  -0.150   1.835  1.00  0.00    -0.213 OA
ENDBRANCH  10  17
BRANCH  16  21
ATOM     21  C   UNL     1       1.810  -7.256   2.478  1.00  0.00     0.289 C 
ATOM     22  O   UNL     1       0.784  -7.773   2.926  1.00  0.00    -0.265 OA
BRANCH  21  23
ATOM     23  C   UNL     1       3.100  -7.885   2.657  1.00  0.00     0.191 A 
ATOM     24  C   UNL     1       3.620  -8.527   3.767  1.00  0.00     0.056 A 
ATOM     25  O   UNL     1       3.994  -7.963   1.624  1.00  0.00    -0.459 OA
ATOM     26  C   UNL     1       4.902  -8.999   3.405  1.00  0.00     0.043 A 
ATOM     27  C   UNL     1       5.067  -8.664   2.082  1.00  0.00     0.196 A 
ENDBRANCH  21  23
ENDBRANCH  16  21
ENDBRANCH   6   9
ENDBRANCH   4   5
ENDBRANCH   3   4
ENDBRANCH   2   3
ENDBRANCH   1   2
BRANCH   1  28
ATOM     28  C   UNL     1       5.512  -6.142   7.447  1.00  0.00     0.021 C 
BRANCH  28  29
ATOM     29  C   UNL     1       5.914  -7.596   7.214  1.00  0.00     0.116 C 
BRANCH  29  30
ATOM     30  N   UNL     1       7.321  -7.825   7.490  1.00  0.00    -0.352 N 
ATOM     31  C   UNL     1       7.898  -8.752   8.322  1.00  0.00     0.251 C 
ATOM     32  H   UNL     1       7.948  -7.233   7.015  1.00  0.00     0.163 HD
ATOM     33  O   UNL     1       9.092  -8.672   8.592  1.00  0.00    -0.269 OA
BRANCH  31  34
ATOM     34  C   UNL     1       7.067  -9.831   8.896  1.00  0.00     0.039 A 
ATOM     35  C   UNL     1       7.156 -10.097  10.264  1.00  0.00     0.014 A 
ATOM     36  C   UNL     1       6.211 -10.580   8.083  1.00  0.00     0.014 A 
ATOM     37  C   UNL     1       6.355 -11.094  10.824  1.00  0.00     0.010 A 
ATOM     38  C   UNL     1       5.367 -11.529   8.656  1.00  0.00     0.010 A 
ATOM     39  C   UNL     1       5.439 -11.806  10.031  1.00  0.00    -0.014 A 
BRANCH  39  40
ATOM     40  C   UNL     1       4.586 -12.873  10.620  1.00  0.00     0.031 A 
ATOM     41  C   UNL     1       4.772 -14.304  10.188  1.00  0.00     0.074 A 
ATOM     42  C   UNL     1       3.643 -12.559  11.531  1.00  0.00     0.049 A 
ATOM     43  N   UNL     1       4.108 -15.371  10.548  1.00  0.00    -0.248 NA
ATOM     44  C   UNL     1       5.834 -14.563   9.202  1.00  0.00     0.031 C 
ATOM     45  C   UNL     1       3.358 -11.209  12.022  1.00  0.00     0.029 A 
ATOM     46  N   UNL     1       2.751 -13.351  12.210  1.00  0.00    -0.354 N 
ATOM     47  C   UNL     1       4.675 -16.428   9.844  1.00  0.00     0.074 A 
ATOM     48  C   UNL     1       5.683 -15.859   8.975  1.00  0.00     0.031 C 
ATOM     49  C   UNL     1       2.386 -11.273  12.946  1.00  0.00     0.029 A 
ATOM     50  C   UNL     1       1.940 -12.656  13.080  1.00  0.00     0.049 A 
ATOM     51  H   UNL     1       2.696 -14.326  12.087  1.00  0.00     0.167 HD
ATOM     52  C   UNL     1       4.408 -17.754   9.937  1.00  0.00     0.034 A 
ATOM     53  C   UNL     1       0.948 -13.086  13.886  1.00  0.00     0.034 A 
ATOM     54  C   UNL     1       3.400 -18.312  10.805  1.00  0.00     0.049 A 
ATOM     55  C   UNL     1       0.620 -14.562  13.913  1.00  0.00     0.074 A 
ATOM     56  C   UNL     1       3.046 -19.639  10.974  1.00  0.00     0.029 A 
ATOM     57  N   UNL     1       2.585 -17.574  11.653  1.00  0.00    -0.354 N 
ATOM     58  N   UNL     1       1.183 -15.549  13.253  1.00  0.00    -0.248 NA
ATOM     59  C   UNL     1      -0.466 -14.983  14.808  1.00  0.00     0.031 C 
ATOM     60  C   UNL     1       1.976 -19.698  11.872  1.00  0.00     0.029 A 
ATOM     61  C   UNL     1       1.721 -18.418  12.334  1.00  0.00     0.049 A 
ATOM     62  H   UNL     1       2.616 -16.596  11.756  1.00  0.00     0.167 HD
ATOM     63  C   UNL     1       0.556 -16.710  13.703  1.00  0.00     0.074 A 
ATOM     64  C   UNL     1      -0.415 -16.301  14.694  1.00  0.00     0.031 C 
ATOM     65  C   UNL     1       0.768 -18.000  13.335  1.00  0.00     0.034 A 
BRANCH  52  66
ATOM     66  C   UNL     1       5.216 -18.688   9.068  1.00  0.00     0.023 A 
ATOM     67  C   UNL     1       6.608 -18.811   9.223  1.00  0.00     0.031 A 
ATOM     68  C   UNL     1       4.595 -19.460   8.070  1.00  0.00     0.131 A 
ATOM     69  C   UNL     1       7.341 -19.630   8.352  1.00  0.00     0.055 A 
ATOM     70  C   UNL     1       5.320 -20.339   7.263  1.00  0.00     0.041 A 
ATOM     71  F   UNL     1       3.273 -19.369   7.858  1.00  0.00    -0.206 F 
ATOM     72  C   UNL     1       6.704 -20.418   7.392  1.00  0.00     0.022 A 
BRANCH  69  73
ATOM     73  S   UNL     1       9.152 -19.545   8.404  1.00  0.00     0.124 S 
ATOM     74  O   UNL     1       9.389 -18.138   8.088  1.00  0.00    -0.237 OA
ATOM     75  O   UNL     1       9.449 -19.951   9.773  1.00  0.00    -0.237 OA
ATOM     76  O   UNL     1       9.569 -20.488   7.369  1.00  0.00    -0.744 OA
ENDBRANCH  69  73
ENDBRANCH  52  66
BRANCH  53  77
ATOM     77  C   UNL     1       0.173 -12.130  14.735  1.00  0.00     0.023 A 
ATOM     78  C   UNL     1       0.138 -12.275  16.131  1.00  0.00     0.031 A 
ATOM     79  C   UNL     1      -0.626 -11.126  14.160  1.00  0.00     0.131 A 
ATOM     80  C   UNL     1      -0.742 -11.493  16.895  1.00  0.00     0.055 A 
ATOM     81  C   UNL     1      -1.442 -10.298  14.933  1.00  0.00     0.041 A 
ATOM     82  F   UNL     1      -0.633 -10.940  12.830  1.00  0.00    -0.206 F 
ATOM     83  C   UNL     1      -1.522 -10.495  16.308  1.00  0.00     0.022 A 
BRANCH  80  84
ATOM     84  S   UNL     1      -0.967 -11.908  18.648  1.00  0.00     0.124 S 
ATOM     85  O   UNL     1      -1.343 -13.315  18.570  1.00  0.00    -0.237 OA
ATOM     86  O   UNL     1       0.354 -11.626  19.197  1.00  0.00    -0.237 OA
ATOM     87  O   UNL     1      -2.028 -11.000  19.077  1.00  0.00    -0.744 OA
ENDBRANCH  80  84
ENDBRANCH  53  77
BRANCH  65  88
ATOM     88  C   UNL     1      -0.003 -19.067  14.076  1.00  0.00     0.023 A 
ATOM     89  C   UNL     1      -1.403 -19.165  14.008  1.00  0.00     0.031 A 
ATOM     90  C   UNL     1       0.684 -19.993  14.883  1.00  0.00     0.131 A 
ATOM     91  C   UNL     1      -2.076 -20.118  14.789  1.00  0.00     0.055 A 
ATOM     92  C   UNL     1       0.014 -20.986  15.599  1.00  0.00     0.041 A 
ATOM     93  F   UNL     1       2.022 -19.948  14.990  1.00  0.00    -0.206 F 
ATOM     94  C   UNL     1      -1.375 -21.041  15.568  1.00  0.00     0.022 A 
BRANCH  91  95
ATOM     95  S   UNL     1      -3.888 -20.059  14.863  1.00  0.00     0.124 S 
ATOM     96  O   UNL     1      -4.130 -18.694  15.317  1.00  0.00    -0.237 OA
ATOM     97  O   UNL     1      -4.266 -20.348  13.483  1.00  0.00    -0.237 OA
ATOM     98  O   UNL     1      -4.226 -21.104  15.829  1.00  0.00    -0.744 OA
ENDBRANCH  91  95
ENDBRANCH  65  88
ENDBRANCH  39  40
ENDBRANCH  31  34
ENDBRANCH  29  30
ENDBRANCH  28  29
ENDBRANCH   1  28
TORSDOF 19
