REMARK SMILES CC(C)Cc1ccc([C@H](CC(=O)NCCCCCCNC(=O)c2ccc(-c3c4nc(c(-c5cc(S(=O)(=O)[O-])ccc5F)c5ccc([nH]5)c(-c5cc(S(=O)(=O)[O-])ccc5F)c5nc(c(-c6cc(S(=O)(=O)[O-])ccc6F)c6ccc3[nH]6)C=C5)C=C4)cc2)C(F)(F)F)cc1
REMARK SMILES IDX 16 1 15 2 14 3 13 4 11 5 12 6 10 8 9 9 8 10 5 11 6 12 91 13
REMARK SMILES IDX 7 14 90 15 4 16 2 17 1 18 3 19 86 20 87 21 88 22 89 23 17 24
REMARK SMILES IDX 18 25 19 26 20 27 21 28 22 30 23 31 24 32 85 33 25 34 84 35
REMARK SMILES IDX 26 36 27 37 28 38 78 39 29 40 83 41 77 42 79 43 30 44 82 45
REMARK SMILES IDX 76 46 75 47 31 49 63 50 43 51 62 52 44 53 47 54 61 55 80 56
REMARK SMILES IDX 45 57 46 58 60 60 81 61 48 62 32 63 33 64 41 65 34 66 40 67
REMARK SMILES IDX 42 68 39 69 35 70 36 71 37 72 38 73 64 74 65 75 73 76 66 77
REMARK SMILES IDX 72 78 74 79 71 80 67 81 68 82 69 83 70 84 49 85 50 86 58 87
REMARK SMILES IDX 51 88 57 89 59 90 56 91 52 92 53 93 54 94 55 95
REMARK H PARENT 13 7 20 29 79 48 47 59
REMARK Flexibility Score: inf
ROOT
ATOM      1  C   UNL     1      -6.775   3.615   3.436  1.00  0.00     0.002 C 
ENDROOT
BRANCH   1   2
ATOM      2  C   UNL     1      -6.067   2.355   3.935  1.00  0.00     0.021 C 
BRANCH   2   3
ATOM      3  C   UNL     1      -5.185   1.678   2.888  1.00  0.00     0.116 C 
BRANCH   3   4
ATOM      4  N   UNL     1      -3.945   2.408   2.708  1.00  0.00    -0.356 N 
ATOM      5  C   UNL     1      -2.658   2.053   2.946  1.00  0.00     0.220 C 
ATOM      6  O   UNL     1      -1.779   2.857   2.627  1.00  0.00    -0.275 OA
ATOM      7  H   UNL     1      -4.057   3.319   2.351  1.00  0.00     0.163 HD
BRANCH   5   8
ATOM      8  C   UNL     1      -2.301   0.693   3.517  1.00  0.00     0.117 C 
BRANCH   8   9
ATOM      9  C   UNL     1      -2.224   0.505   5.044  1.00  0.00     0.134 C 
BRANCH   9  10
ATOM     10  C   UNL     1      -1.017   1.101   5.758  1.00  0.00    -0.035 A 
ATOM     11  C   UNL     1       0.879   2.276   7.482  1.00  0.00    -0.048 A 
ATOM     12  C   UNL     1       0.347   3.001   6.414  1.00  0.00     0.004 A 
ATOM     13  C   UNL     1       0.502   0.941   7.652  1.00  0.00     0.004 A 
ATOM     14  C   UNL     1      -0.596   2.421   5.566  1.00  0.00     0.004 A 
ATOM     15  C   UNL     1      -0.433   0.360   6.799  1.00  0.00     0.004 A 
BRANCH  11  16
ATOM     16  C   UNL     1       1.771   2.949   8.492  1.00  0.00     0.038 C 
BRANCH  16  17
ATOM     17  C   UNL     1       0.989   3.752   9.553  1.00  0.00    -0.013 C 
ATOM     18  C   UNL     1       0.048   2.876  10.388  1.00  0.00     0.008 C 
ATOM     19  C   UNL     1       1.976   4.469  10.476  1.00  0.00     0.008 C 
ENDBRANCH  16  17
ENDBRANCH  11  16
ENDBRANCH   9  10
BRANCH   9  20
ATOM     20  C   UNL     1      -3.471   0.917   5.817  1.00  0.00     0.396 C 
ATOM     21  F   UNL     1      -4.574   0.319   5.315  1.00  0.00    -0.170 F 
ATOM     22  F   UNL     1      -3.403   0.539   7.116  1.00  0.00    -0.170 F 
ATOM     23  F   UNL     1      -3.661   2.252   5.798  1.00  0.00    -0.170 F 
ENDBRANCH   9  20
ENDBRANCH   8   9
ENDBRANCH   5   8
ENDBRANCH   3   4
ENDBRANCH   2   3
ENDBRANCH   1   2
BRANCH   1  24
ATOM     24  C   UNL     1      -7.867   3.350   2.399  1.00  0.00     0.002 C 
BRANCH  24  25
ATOM     25  C   UNL     1      -8.905   2.305   2.817  1.00  0.00     0.021 C 
BRANCH  25  26
ATOM     26  C   UNL     1      -9.550   2.564   4.177  1.00  0.00     0.116 C 
BRANCH  26  27
ATOM     27  N   UNL     1     -10.287   3.818   4.187  1.00  0.00    -0.352 N 
ATOM     28  C   UNL     1     -11.642   4.017   4.290  1.00  0.00     0.251 C 
ATOM     29  H   UNL     1      -9.741   4.633   4.109  1.00  0.00     0.163 HD
ATOM     30  O   UNL     1     -12.130   5.105   4.013  1.00  0.00    -0.269 OA
BRANCH  28  31
ATOM     31  C   UNL     1     -12.499   2.892   4.719  1.00  0.00     0.039 A 
ATOM     32  C   UNL     1     -13.626   2.569   3.962  1.00  0.00     0.014 A 
ATOM     33  C   UNL     1     -12.161   2.139   5.848  1.00  0.00     0.014 A 
ATOM     34  C   UNL     1     -14.372   1.436   4.293  1.00  0.00     0.010 A 
ATOM     35  C   UNL     1     -12.866   0.975   6.135  1.00  0.00     0.010 A 
ATOM     36  C   UNL     1     -13.969   0.603   5.351  1.00  0.00    -0.014 A 
BRANCH  36  37
ATOM     37  C   UNL     1     -14.656  -0.686   5.620  1.00  0.00     0.031 A 
ATOM     38  C   UNL     1     -15.380  -0.905   6.918  1.00  0.00     0.074 A 
ATOM     39  C   UNL     1     -14.556  -1.685   4.720  1.00  0.00     0.049 A 
ATOM     40  N   UNL     1     -15.954  -1.990   7.371  1.00  0.00    -0.248 NA
ATOM     41  C   UNL     1     -15.448   0.242   7.835  1.00  0.00     0.031 C 
ATOM     42  C   UNL     1     -13.853  -1.597   3.437  1.00  0.00     0.029 A 
ATOM     43  N   UNL     1     -15.031  -2.972   4.747  1.00  0.00    -0.354 N 
ATOM     44  C   UNL     1     -16.448  -1.661   8.628  1.00  0.00     0.074 A 
ATOM     45  C   UNL     1     -16.056  -0.290   8.885  1.00  0.00     0.031 C 
ATOM     46  C   UNL     1     -13.960  -2.770   2.795  1.00  0.00     0.029 A 
ATOM     47  C   UNL     1     -14.684  -3.713   3.640  1.00  0.00     0.049 A 
ATOM     48  H   UNL     1     -15.570  -3.332   5.488  1.00  0.00     0.167 HD
ATOM     49  C   UNL     1     -17.176  -2.427   9.478  1.00  0.00     0.034 A 
ATOM     50  C   UNL     1     -14.899  -5.012   3.350  1.00  0.00     0.034 A 
ATOM     51  C   UNL     1     -17.552  -3.794   9.203  1.00  0.00     0.049 A 
ATOM     52  C   UNL     1     -15.650  -5.862   4.343  1.00  0.00     0.074 A 
ATOM     53  C   UNL     1     -18.336  -4.641   9.967  1.00  0.00     0.029 A 
ATOM     54  N   UNL     1     -17.155  -4.521   8.087  1.00  0.00    -0.354 N 
ATOM     55  N   UNL     1     -16.163  -5.519   5.503  1.00  0.00    -0.248 NA
ATOM     56  C   UNL     1     -15.850  -7.273   3.990  1.00  0.00     0.031 C 
ATOM     57  C   UNL     1     -18.342  -5.901   9.359  1.00  0.00     0.029 A 
ATOM     58  C   UNL     1     -17.635  -5.821   8.170  1.00  0.00     0.049 A 
ATOM     59  H   UNL     1     -16.613  -4.166   7.346  1.00  0.00     0.167 HD
ATOM     60  C   UNL     1     -16.762  -6.670   6.007  1.00  0.00     0.074 A 
ATOM     61  C   UNL     1     -16.570  -7.707   5.014  1.00  0.00     0.031 C 
ATOM     62  C   UNL     1     -17.412  -6.853   7.185  1.00  0.00     0.034 A 
BRANCH  49  63
ATOM     63  C   UNL     1     -17.583  -1.815  10.797  1.00  0.00     0.023 A 
ATOM     64  C   UNL     1     -18.429  -0.694  10.863  1.00  0.00     0.031 A 
ATOM     65  C   UNL     1     -17.110  -2.353  12.008  1.00  0.00     0.131 A 
ATOM     66  C   UNL     1     -18.719  -0.106  12.104  1.00  0.00     0.055 A 
ATOM     67  C   UNL     1     -17.470  -1.813  13.244  1.00  0.00     0.041 A 
ATOM     68  F   UNL     1     -16.282  -3.409  12.009  1.00  0.00    -0.206 F 
ATOM     69  C   UNL     1     -18.268  -0.674  13.297  1.00  0.00     0.022 A 
BRANCH  66  70
ATOM     70  S   UNL     1     -19.576   1.492  12.125  1.00  0.00     0.124 S 
ATOM     71  O   UNL     1     -18.676   2.321  11.327  1.00  0.00    -0.237 OA
ATOM     72  O   UNL     1     -20.860   1.169  11.513  1.00  0.00    -0.237 OA
ATOM     73  O   UNL     1     -19.630   1.833  13.545  1.00  0.00    -0.744 OA
ENDBRANCH  66  70
ENDBRANCH  49  63
BRANCH  50  74
ATOM     74  C   UNL     1     -14.371  -5.603   2.086  1.00  0.00     0.023 A 
ATOM     75  C   UNL     1     -15.237  -6.128   1.115  1.00  0.00     0.031 A 
ATOM     76  C   UNL     1     -12.986  -5.694   1.851  1.00  0.00     0.131 A 
ATOM     77  C   UNL     1     -14.712  -6.763  -0.022  1.00  0.00     0.055 A 
ATOM     78  C   UNL     1     -12.470  -6.271   0.689  1.00  0.00     0.041 A 
ATOM     79  F   UNL     1     -12.111  -5.209   2.746  1.00  0.00    -0.206 F 
ATOM     80  C   UNL     1     -13.336  -6.823  -0.249  1.00  0.00     0.022 A 
BRANCH  77  81
ATOM     81  S   UNL     1     -15.856  -7.597  -1.155  1.00  0.00     0.124 S 
ATOM     82  O   UNL     1     -16.512  -8.549  -0.266  1.00  0.00    -0.237 OA
ATOM     83  O   UNL     1     -16.678  -6.488  -1.627  1.00  0.00    -0.237 OA
ATOM     84  O   UNL     1     -14.971  -8.186  -2.158  1.00  0.00    -0.744 OA
ENDBRANCH  77  81
ENDBRANCH  50  74
BRANCH  62  85
ATOM     85  C   UNL     1     -17.976  -8.229   7.449  1.00  0.00     0.023 A 
ATOM     86  C   UNL     1     -17.138  -9.344   7.629  1.00  0.00     0.031 A 
ATOM     87  C   UNL     1     -19.366  -8.429   7.515  1.00  0.00     0.131 A 
ATOM     88  C   UNL     1     -17.698 -10.617   7.813  1.00  0.00     0.055 A 
ATOM     89  C   UNL     1     -19.916  -9.687   7.765  1.00  0.00     0.041 A 
ATOM     90  F   UNL     1     -20.214  -7.402   7.345  1.00  0.00    -0.206 F 
ATOM     91  C   UNL     1     -19.081 -10.792   7.902  1.00  0.00     0.022 A 
BRANCH  88  92
ATOM     92  S   UNL     1     -16.596 -12.056   7.843  1.00  0.00     0.124 S 
ATOM     93  O   UNL     1     -15.962 -11.980   6.530  1.00  0.00    -0.237 OA
ATOM     94  O   UNL     1     -15.734 -11.768   8.984  1.00  0.00    -0.237 OA
ATOM     95  O   UNL     1     -17.508 -13.184   8.026  1.00  0.00    -0.744 OA
ENDBRANCH  88  92
ENDBRANCH  62  85
ENDBRANCH  36  37
ENDBRANCH  28  31
ENDBRANCH  26  27
ENDBRANCH  25  26
ENDBRANCH  24  25
ENDBRANCH   1  24
TORSDOF 21
