REMARK SMILES Cc1c(CC(=O)N[C@@H](C)C(=O)NCCCCCCNC(=O)c2ccc(-c3c4nc(c(-c5cc(S(=O)(=O)[O-])ccc5F)c5ccc([nH]5)c(-c5cc(S(=O)(=O)[O-])ccc5F)c5nc(c(-c6cc(S(=O)(=O)[O-])ccc6F)c6ccc3[nH]6)C=C5)C=C4)cc2)c(=O)oc2cc3oc4c(c3cc12)CCCC4
REMARK SMILES IDX 15 1 14 2 13 3 12 4 10 5 11 6 8 8 9 9 7 10 5 11 6 12 4 14
REMARK SMILES IDX 3 15 1 16 2 17 96 18 85 19 88 20 95 21 86 22 87 23 89 24
REMARK SMILES IDX 94 25 90 26 93 27 91 28 92 29 97 30 100 31 98 32 99 33 16 34
REMARK SMILES IDX 17 35 18 36 19 37 20 38 21 40 22 41 23 42 84 43 24 44 83 45
REMARK SMILES IDX 25 46 26 47 27 48 77 49 28 50 82 51 76 52 78 53 29 54 81 55
REMARK SMILES IDX 75 56 74 57 30 59 62 60 42 61 61 62 43 63 46 64 60 65 79 66
REMARK SMILES IDX 44 67 45 68 59 70 80 71 47 72 31 73 32 74 40 75 33 76 39 77
REMARK SMILES IDX 41 78 38 79 34 80 35 81 36 82 37 83 63 84 64 85 72 86 65 87
REMARK SMILES IDX 71 88 73 89 70 90 66 91 67 92 68 93 69 94 48 95 49 96 57 97
REMARK SMILES IDX 50 98 56 99 58 100 55 101 51 102 52 103 53 104 54 105
REMARK H PARENT 12 7 7 13 19 39 78 58 46 69
REMARK Flexibility Score: inf
ROOT
ATOM      1  C   UNL     1       5.466   6.254   4.082  1.00  0.00     0.002 C 
ENDROOT
BRANCH   1   2
ATOM      2  C   UNL     1       4.995   5.088   3.202  1.00  0.00     0.021 C 
BRANCH   2   3
ATOM      3  C   UNL     1       4.749   3.799   3.980  1.00  0.00     0.116 C 
BRANCH   3   4
ATOM      4  N   UNL     1       3.658   3.976   4.920  1.00  0.00    -0.354 N 
ATOM      5  C   UNL     1       2.396   3.473   4.939  1.00  0.00     0.242 C 
ATOM      6  O   UNL     1       1.620   3.885   5.806  1.00  0.00    -0.273 OA
ATOM      7  H   UNL     1       3.870   4.566   5.679  1.00  0.00     0.163 HD
BRANCH   5   8
ATOM      8  C   UNL     1       1.953   2.392   3.945  1.00  0.00     0.168 C 
ATOM      9  C   UNL     1       2.742   1.099   4.141  1.00  0.00     0.041 C 
BRANCH   8  10
ATOM     10  N   UNL     1       1.982   2.890   2.568  1.00  0.00    -0.344 N 
ATOM     11  C   UNL     1       0.977   2.931   1.649  1.00  0.00     0.225 C 
ATOM     12  O   UNL     1       1.170   3.545   0.597  1.00  0.00    -0.275 OA
ATOM     13  H   UNL     1       2.849   3.244   2.265  1.00  0.00     0.164 HD
BRANCH  11  14
ATOM     14  C   UNL     1      -0.343   2.212   1.909  1.00  0.00     0.143 C 
BRANCH  14  15
ATOM     15  C   UNL     1      -0.129   0.734   2.136  1.00  0.00     0.051 A 
ATOM     16  C   UNL     1       1.039   0.357  -0.069  1.00  0.00     0.046 C 
ATOM     17  C   UNL     1       0.584  -0.061   1.311  1.00  0.00    -0.029 A 
ATOM     18  C   UNL     1       0.886  -1.435   1.738  1.00  0.00     0.022 A 
ATOM     19  C   UNL     1      -0.734   0.209   3.391  1.00  0.00     0.340 A 
ATOM     20  C   UNL     1       0.272  -1.946   2.884  1.00  0.00     0.142 A 
ATOM     21  C   UNL     1       1.680  -2.283   0.957  1.00  0.00     0.024 A 
ATOM     22  O   UNL     1      -1.446   0.908   4.104  1.00  0.00    -0.246 OA
ATOM     23  O   UNL     1      -0.484  -1.109   3.723  1.00  0.00    -0.422 OA
ATOM     24  C   UNL     1       0.262  -3.304   3.219  1.00  0.00     0.095 A 
ATOM     25  C   UNL     1       1.522  -3.661   1.144  1.00  0.00     0.025 A 
ATOM     26  C   UNL     1       0.778  -4.123   2.227  1.00  0.00     0.138 A 
ATOM     27  C   UNL     1       1.702  -4.765   0.280  1.00  0.00     0.001 A 
ATOM     28  O   UNL     1       0.453  -5.438   2.050  1.00  0.00    -0.461 OA
ATOM     29  C   UNL     1       0.866  -5.734   0.793  1.00  0.00     0.108 A 
ATOM     30  C   UNL     1       2.050  -4.783  -1.163  1.00  0.00     0.040 C 
ATOM     31  C   UNL     1       0.004  -6.569  -0.086  1.00  0.00     0.076 C 
ATOM     32  C   UNL     1       0.749  -4.922  -1.985  1.00  0.00     0.005 C 
ATOM     33  C   UNL     1      -0.429  -5.629  -1.248  1.00  0.00     0.008 C 
ENDBRANCH  14  15
ENDBRANCH  11  14
ENDBRANCH   8  10
ENDBRANCH   5   8
ENDBRANCH   3   4
ENDBRANCH   2   3
ENDBRANCH   1   2
BRANCH   1  34
ATOM     34  C   UNL     1       6.790   6.015   4.821  1.00  0.00     0.002 C 
BRANCH  34  35
ATOM     35  C   UNL     1       7.928   5.481   3.949  1.00  0.00     0.021 C 
BRANCH  35  36
ATOM     36  C   UNL     1       8.217   6.351   2.727  1.00  0.00     0.116 C 
BRANCH  36  37
ATOM     37  N   UNL     1       9.182   7.400   2.992  1.00  0.00    -0.352 N 
ATOM     38  C   UNL     1      10.559   7.297   3.022  1.00  0.00     0.251 C 
ATOM     39  H   UNL     1       8.811   8.294   3.172  1.00  0.00     0.163 HD
ATOM     40  O   UNL     1      11.255   8.249   3.305  1.00  0.00    -0.269 OA
BRANCH  38  41
ATOM     41  C   UNL     1      11.146   5.975   2.721  1.00  0.00     0.039 A 
ATOM     42  C   UNL     1      10.947   5.398   1.462  1.00  0.00     0.014 A 
ATOM     43  C   UNL     1      11.798   5.280   3.739  1.00  0.00     0.014 A 
ATOM     44  C   UNL     1      11.302   4.073   1.253  1.00  0.00     0.010 A 
ATOM     45  C   UNL     1      12.190   3.963   3.514  1.00  0.00     0.010 A 
ATOM     46  C   UNL     1      11.916   3.351   2.282  1.00  0.00    -0.014 A 
BRANCH  46  47
ATOM     47  C   UNL     1      12.366   1.986   1.982  1.00  0.00     0.031 A 
ATOM     48  C   UNL     1      13.843   1.856   1.883  1.00  0.00     0.074 A 
ATOM     49  C   UNL     1      11.620   0.892   2.233  1.00  0.00     0.049 A 
ATOM     50  N   UNL     1      14.589   1.794   2.944  1.00  0.00    -0.248 NA
ATOM     51  C   UNL     1      14.579   2.054   0.638  1.00  0.00     0.031 C 
ATOM     52  C   UNL     1      10.494   0.855   3.174  1.00  0.00     0.029 A 
ATOM     53  N   UNL     1      11.828  -0.425   1.899  1.00  0.00    -0.354 N 
ATOM     54  C   UNL     1      15.887   2.008   2.535  1.00  0.00     0.074 A 
ATOM     55  C   UNL     1      15.839   2.141   1.093  1.00  0.00     0.031 C 
ATOM     56  C   UNL     1      10.246  -0.432   3.494  1.00  0.00     0.029 A 
ATOM     57  C   UNL     1      11.071  -1.308   2.666  1.00  0.00     0.049 A 
ATOM     58  H   UNL     1      12.447  -0.714   1.190  1.00  0.00     0.167 HD
ATOM     59  C   UNL     1      16.928   2.085   3.403  1.00  0.00     0.034 A 
ATOM     60  C   UNL     1      11.464  -2.554   3.049  1.00  0.00     0.034 A 
ATOM     61  C   UNL     1      16.599   1.899   4.786  1.00  0.00     0.049 A 
ATOM     62  C   UNL     1      12.719  -2.266   3.840  1.00  0.00     0.074 A 
ATOM     63  C   UNL     1      16.350   2.685   5.889  1.00  0.00     0.029 A 
ATOM     64  N   UNL     1      16.374   0.614   5.220  1.00  0.00    -0.354 N 
ATOM     65  N   UNL     1      12.774  -1.856   5.080  1.00  0.00    -0.248 NA
ATOM     66  C   UNL     1      13.985  -2.166   3.114  1.00  0.00     0.031 C 
ATOM     67  C   UNL     1      15.591   1.866   6.787  1.00  0.00     0.029 A 
ATOM     68  C   UNL     1      15.360   0.649   6.145  1.00  0.00     0.049 A 
ATOM     69  H   UNL     1      16.856  -0.190   4.920  1.00  0.00     0.167 HD
ATOM     70  C   UNL     1      14.012  -1.215   5.213  1.00  0.00     0.074 A 
ATOM     71  C   UNL     1      14.721  -1.485   3.980  1.00  0.00     0.031 C 
ATOM     72  C   UNL     1      14.325  -0.368   6.240  1.00  0.00     0.034 A 
BRANCH  59  73
ATOM     73  C   UNL     1      18.332   2.135   2.954  1.00  0.00     0.023 A 
ATOM     74  C   UNL     1      19.000   3.329   2.655  1.00  0.00     0.031 A 
ATOM     75  C   UNL     1      19.048   0.925   2.927  1.00  0.00     0.131 A 
ATOM     76  C   UNL     1      20.370   3.281   2.357  1.00  0.00     0.055 A 
ATOM     77  C   UNL     1      20.407   0.885   2.637  1.00  0.00     0.041 A 
ATOM     78  F   UNL     1      18.425  -0.233   3.209  1.00  0.00    -0.206 F 
ATOM     79  C   UNL     1      21.076   2.070   2.356  1.00  0.00     0.022 A 
BRANCH  76  80
ATOM     80  S   UNL     1      21.309   4.786   1.976  1.00  0.00     0.124 S 
ATOM     81  O   UNL     1      22.305   4.806   3.043  1.00  0.00    -0.237 OA
ATOM     82  O   UNL     1      21.827   4.488   0.642  1.00  0.00    -0.237 OA
ATOM     83  O   UNL     1      20.308   5.846   2.030  1.00  0.00    -0.744 OA
ENDBRANCH  76  80
ENDBRANCH  59  73
BRANCH  60  84
ATOM     84  C   UNL     1      11.413  -3.590   1.960  1.00  0.00     0.023 A 
ATOM     85  C   UNL     1      12.484  -4.431   1.620  1.00  0.00     0.031 A 
ATOM     86  C   UNL     1      10.233  -3.735   1.198  1.00  0.00     0.131 A 
ATOM     87  C   UNL     1      12.430  -5.220   0.460  1.00  0.00     0.055 A 
ATOM     88  C   UNL     1      10.154  -4.579   0.084  1.00  0.00     0.041 A 
ATOM     89  F   UNL     1       9.125  -3.045   1.518  1.00  0.00    -0.206 F 
ATOM     90  C   UNL     1      11.271  -5.302  -0.310  1.00  0.00     0.022 A 
BRANCH  87  91
ATOM     91  S   UNL     1      13.910  -6.092  -0.124  1.00  0.00     0.124 S 
ATOM     92  O   UNL     1      13.385  -7.415  -0.449  1.00  0.00    -0.237 OA
ATOM     93  O   UNL     1      14.296  -5.267  -1.265  1.00  0.00    -0.237 OA
ATOM     94  O   UNL     1      14.809  -6.039   1.024  1.00  0.00    -0.744 OA
ENDBRANCH  87  91
ENDBRANCH  60  84
BRANCH  72  95
ATOM     95  C   UNL     1      13.383  -0.372   7.410  1.00  0.00     0.023 A 
ATOM     96  C   UNL     1      12.699   0.791   7.813  1.00  0.00     0.031 A 
ATOM     97  C   UNL     1      13.234  -1.529   8.193  1.00  0.00     0.131 A 
ATOM     98  C   UNL     1      11.952   0.790   8.998  1.00  0.00     0.055 A 
ATOM     99  C   UNL     1      12.441  -1.542   9.342  1.00  0.00     0.041 A 
ATOM    100  F   UNL     1      13.894  -2.657   7.880  1.00  0.00    -0.206 F 
ATOM    101  C   UNL     1      11.806  -0.375   9.758  1.00  0.00     0.022 A 
BRANCH  98 102
ATOM    102  S   UNL     1      11.191   2.313   9.625  1.00  0.00     0.124 S 
ATOM    103  O   UNL     1       9.835   1.879   9.954  1.00  0.00    -0.237 OA
ATOM    104  O   UNL     1      12.040   2.622  10.773  1.00  0.00    -0.237 OA
ATOM    105  O   UNL     1      11.285   3.244   8.505  1.00  0.00    -0.744 OA
ENDBRANCH  98 102
ENDBRANCH  72  95
ENDBRANCH  46  47
ENDBRANCH  38  41
ENDBRANCH  36  37
ENDBRANCH  35  36
ENDBRANCH  34  35
ENDBRANCH   1  34
TORSDOF 19
