REMARK SMILES CC1(CNS(=O)(=O)Cc2ccc(C(=O)NCCCCCCNC(=O)c3ccc(-c4c5nc(c(-c6cc(S(=O)(=O)[O-])ccc6F)c6ccc([nH]6)c(-c6cc(S(=O)(=O)[O-])ccc6F)c6nc(c(-c7cc(S(=O)(=O)[O-])ccc7F)c7ccc4[nH]7)C=C6)C=C5)cc3)cc2)COC1
REMARK SMILES IDX 17 1 16 2 15 3 13 4 14 5 12 7 9 8 10 9 89 10 11 11 88 12
REMARK SMILES IDX 8 13 5 14 6 15 7 16 4 17 3 19 2 20 1 21 90 22 92 23 91 24
REMARK SMILES IDX 18 25 19 26 20 27 21 28 22 29 23 30 24 32 25 33 26 34 87 35
REMARK SMILES IDX 27 36 86 37 28 38 29 39 30 40 80 41 31 42 85 43 79 44 81 45
REMARK SMILES IDX 32 46 84 47 78 48 77 49 33 51 65 52 45 53 64 54 46 55 49 56
REMARK SMILES IDX 63 57 82 58 47 59 48 60 62 62 83 63 50 64 34 65 35 66 43 67
REMARK SMILES IDX 36 68 42 69 44 70 41 71 37 72 38 73 39 74 40 75 66 76 67 77
REMARK SMILES IDX 75 78 68 79 74 80 76 81 73 82 69 83 70 84 71 85 72 86 51 87
REMARK SMILES IDX 52 88 60 89 53 90 59 91 61 92 58 93 54 94 55 95 56 96 57 97
REMARK H PARENT 15 6 4 18 22 31 81 50 49 61
REMARK Flexibility Score: inf
ROOT
ATOM      1  C   UNL     1       2.943  -2.182   3.992  1.00  0.00     0.021 C 
ENDROOT
BRANCH   1   2
ATOM      2  C   UNL     1       4.121  -2.927   3.353  1.00  0.00     0.116 C 
BRANCH   2   3
ATOM      3  N   UNL     1       3.789  -4.331   3.163  1.00  0.00    -0.352 N 
ATOM      4  C   UNL     1       3.412  -5.056   2.058  1.00  0.00     0.251 C 
ATOM      5  O   UNL     1       3.225  -6.265   2.193  1.00  0.00    -0.269 OA
ATOM      6  H   UNL     1       3.846  -4.867   3.988  1.00  0.00     0.163 HD
BRANCH   4   7
ATOM      7  C   UNL     1       3.260  -4.450   0.708  1.00  0.00     0.039 A 
ATOM      8  C   UNL     1       3.076  -3.351  -1.916  1.00  0.00    -0.032 A 
ATOM      9  C   UNL     1       3.297  -4.724  -1.718  1.00  0.00     0.005 A 
ATOM     10  C   UNL     1       2.920  -2.577  -0.773  1.00  0.00     0.005 A 
ATOM     11  C   UNL     1       3.409  -5.262  -0.423  1.00  0.00     0.014 A 
ATOM     12  C   UNL     1       2.944  -3.117   0.509  1.00  0.00     0.014 A 
BRANCH   8  13
ATOM     13  C   UNL     1       2.835  -2.822  -3.310  1.00  0.00     0.189 C 
BRANCH  13  14
ATOM     14  S   UNL     1       3.362  -1.127  -3.650  1.00  0.00     0.215 S 
ATOM     15  O   UNL     1       2.837  -0.754  -4.942  1.00  0.00    -0.212 OA
ATOM     16  O   UNL     1       4.784  -1.012  -3.380  1.00  0.00    -0.212 OA
BRANCH  14  17
ATOM     17  N   UNL     1       2.611  -0.115  -2.532  1.00  0.00    -0.214 NA
ATOM     18  H   UNL     1       2.869  -0.452  -1.605  1.00  0.00     0.141 HD
BRANCH  17  19
ATOM     19  C   UNL     1       1.139   0.018  -2.546  1.00  0.00     0.110 C 
BRANCH  19  20
ATOM     20  C   UNL     1       0.605   0.763  -1.309  1.00  0.00     0.028 C 
ATOM     21  C   UNL     1       0.955   0.150   0.041  1.00  0.00     0.018 C 
ATOM     22  C   UNL     1      -0.898   1.077  -1.437  1.00  0.00     0.170 C 
ATOM     23  C   UNL     1       0.756   2.295  -1.368  1.00  0.00     0.170 C 
ATOM     24  O   UNL     1      -0.601   2.429  -1.867  1.00  0.00    -0.380 OA
ENDBRANCH  19  20
ENDBRANCH  17  19
ENDBRANCH  14  17
ENDBRANCH  13  14
ENDBRANCH   8  13
ENDBRANCH   4   7
ENDBRANCH   2   3
ENDBRANCH   1   2
BRANCH   1  25
ATOM     25  C   UNL     1       2.910  -2.318   5.518  1.00  0.00     0.002 C 
BRANCH  25  26
ATOM     26  C   UNL     1       4.103  -1.675   6.236  1.00  0.00     0.002 C 
BRANCH  26  27
ATOM     27  C   UNL     1       4.282  -0.177   5.973  1.00  0.00     0.021 C 
BRANCH  27  28
ATOM     28  C   UNL     1       3.119   0.684   6.454  1.00  0.00     0.116 C 
BRANCH  28  29
ATOM     29  N   UNL     1       2.961   0.602   7.897  1.00  0.00    -0.352 N 
ATOM     30  C   UNL     1       3.044   1.598   8.838  1.00  0.00     0.251 C 
ATOM     31  H   UNL     1       2.767  -0.296   8.250  1.00  0.00     0.163 HD
ATOM     32  O   UNL     1       3.166   1.307  10.024  1.00  0.00    -0.269 OA
BRANCH  30  33
ATOM     33  C   UNL     1       2.997   3.013   8.413  1.00  0.00     0.039 A 
ATOM     34  C   UNL     1       3.878   3.928   8.993  1.00  0.00     0.014 A 
ATOM     35  C   UNL     1       2.073   3.436   7.452  1.00  0.00     0.014 A 
ATOM     36  C   UNL     1       3.869   5.258   8.569  1.00  0.00     0.010 A 
ATOM     37  C   UNL     1       2.117   4.744   6.978  1.00  0.00     0.010 A 
ATOM     38  C   UNL     1       3.012   5.670   7.534  1.00  0.00    -0.014 A 
BRANCH  38  39
ATOM     39  C   UNL     1       3.037   7.064   7.023  1.00  0.00     0.031 A 
ATOM     40  C   UNL     1       1.823   7.942   7.167  1.00  0.00     0.074 A 
ATOM     41  C   UNL     1       4.130   7.516   6.378  1.00  0.00     0.049 A 
ATOM     42  N   UNL     1       1.622   9.156   6.721  1.00  0.00    -0.248 NA
ATOM     43  C   UNL     1       0.675   7.367   7.883  1.00  0.00     0.031 C 
ATOM     44  C   UNL     1       5.353   6.744   6.147  1.00  0.00     0.029 A 
ATOM     45  N   UNL     1       4.390   8.729   5.790  1.00  0.00    -0.354 N 
ATOM     46  C   UNL     1       0.323   9.486   7.093  1.00  0.00     0.074 A 
ATOM     47  C   UNL     1      -0.235   8.319   7.743  1.00  0.00     0.031 C 
ATOM     48  C   UNL     1       6.240   7.510   5.493  1.00  0.00     0.029 A 
ATOM     49  C   UNL     1       5.635   8.807   5.209  1.00  0.00     0.049 A 
ATOM     50  H   UNL     1       3.745   9.473   5.785  1.00  0.00     0.167 HD
ATOM     51  C   UNL     1      -0.333  10.662   6.929  1.00  0.00     0.034 A 
ATOM     52  C   UNL     1       6.216   9.804   4.513  1.00  0.00     0.034 A 
ATOM     53  C   UNL     1       0.244  11.816   6.283  1.00  0.00     0.049 A 
ATOM     54  C   UNL     1       5.451  11.088   4.307  1.00  0.00     0.074 A 
ATOM     55  C   UNL     1      -0.311  13.072   6.106  1.00  0.00     0.029 A 
ATOM     56  N   UNL     1       1.503  11.855   5.696  1.00  0.00    -0.354 N 
ATOM     57  N   UNL     1       4.241  11.402   4.709  1.00  0.00    -0.248 NA
ATOM     58  C   UNL     1       6.135  12.153   3.564  1.00  0.00     0.031 C 
ATOM     59  C   UNL     1       0.577  13.842   5.348  1.00  0.00     0.029 A 
ATOM     60  C   UNL     1       1.725  13.100   5.126  1.00  0.00     0.049 A 
ATOM     61  H   UNL     1       2.144  11.108   5.687  1.00  0.00     0.167 HD
ATOM     62  C   UNL     1       4.032  12.714   4.293  1.00  0.00     0.074 A 
ATOM     63  C   UNL     1       5.248  13.135   3.626  1.00  0.00     0.031 C 
ATOM     64  C   UNL     1       2.938  13.502   4.451  1.00  0.00     0.034 A 
BRANCH  51  65
ATOM     65  C   UNL     1      -1.757  10.741   7.431  1.00  0.00     0.023 A 
ATOM     66  C   UNL     1      -2.072  10.578   8.791  1.00  0.00     0.031 A 
ATOM     67  C   UNL     1      -2.818  10.960   6.534  1.00  0.00     0.131 A 
ATOM     68  C   UNL     1      -3.413  10.556   9.204  1.00  0.00     0.055 A 
ATOM     69  C   UNL     1      -4.145  11.025   6.964  1.00  0.00     0.041 A 
ATOM     70  F   UNL     1      -2.585  11.101   5.220  1.00  0.00    -0.206 F 
ATOM     71  C   UNL     1      -4.450  10.806   8.304  1.00  0.00     0.022 A 
BRANCH  68  72
ATOM     72  S   UNL     1      -3.787  10.044  10.903  1.00  0.00     0.124 S 
ATOM     73  O   UNL     1      -3.189   8.711  10.947  1.00  0.00    -0.237 OA
ATOM     74  O   UNL     1      -3.122  11.070  11.696  1.00  0.00    -0.237 OA
ATOM     75  O   UNL     1      -5.248  10.064  10.953  1.00  0.00    -0.744 OA
ENDBRANCH  68  72
ENDBRANCH  51  65
BRANCH  52  76
ATOM     76  C   UNL     1       7.585   9.633   3.946  1.00  0.00     0.023 A 
ATOM     77  C   UNL     1       8.651  10.440   4.372  1.00  0.00     0.031 A 
ATOM     78  C   UNL     1       7.838   8.687   2.935  1.00  0.00     0.131 A 
ATOM     79  C   UNL     1       9.908  10.323   3.757  1.00  0.00     0.055 A 
ATOM     80  C   UNL     1       9.104   8.534   2.368  1.00  0.00     0.041 A 
ATOM     81  F   UNL     1       6.856   7.886   2.492  1.00  0.00    -0.206 F 
ATOM     82  C   UNL     1      10.145   9.366   2.768  1.00  0.00     0.022 A 
BRANCH  79  83
ATOM     83  S   UNL     1      11.206  11.509   4.203  1.00  0.00     0.124 S 
ATOM     84  O   UNL     1      10.568  12.780   3.883  1.00  0.00    -0.237 OA
ATOM     85  O   UNL     1      11.399  11.226   5.621  1.00  0.00    -0.237 OA
ATOM     86  O   UNL     1      12.321  11.133   3.337  1.00  0.00    -0.744 OA
ENDBRANCH  79  83
ENDBRANCH  52  76
BRANCH  64  87
ATOM     87  C   UNL     1       3.029  14.916   3.928  1.00  0.00     0.023 A 
ATOM     88  C   UNL     1       3.149  15.194   2.555  1.00  0.00     0.031 A 
ATOM     89  C   UNL     1       3.007  16.003   4.821  1.00  0.00     0.131 A 
ATOM     90  C   UNL     1       3.303  16.519   2.120  1.00  0.00     0.055 A 
ATOM     91  C   UNL     1       3.093  17.323   4.377  1.00  0.00     0.041 A 
ATOM     92  F   UNL     1       2.899  15.798   6.144  1.00  0.00    -0.206 F 
ATOM     93  C   UNL     1       3.256  17.586   3.021  1.00  0.00     0.022 A 
BRANCH  90  94
ATOM     94  S   UNL     1       3.669  16.824   0.370  1.00  0.00     0.124 S 
ATOM     95  O   UNL     1       4.899  16.062   0.180  1.00  0.00    -0.237 OA
ATOM     96  O   UNL     1       2.482  16.294  -0.294  1.00  0.00    -0.237 OA
ATOM     97  O   UNL     1       3.822  18.276   0.299  1.00  0.00    -0.744 OA
ENDBRANCH  90  94
ENDBRANCH  64  87
ENDBRANCH  38  39
ENDBRANCH  30  33
ENDBRANCH  28  29
ENDBRANCH  27  28
ENDBRANCH  26  27
ENDBRANCH  25  26
ENDBRANCH   1  25
TORSDOF 21
