REMARK SMILES CCc1ccc(C[NH+]2CCC(Oc3ccccc3OC)(C(=O)NCCCCCCNC(=O)c3ccc(-c4c5nc(c(-c6cc(S(=O)(=O)[O-])ccc6F)c6ccc([nH]6)c(-c6cc(S(=O)(=O)[O-])ccc6F)c6nc(c(-c7cc(S(=O)(=O)[O-])ccc7F)c7ccc4[nH]7)C=C6)C=C5)cc3)CC2)nc1
REMARK SMILES IDX 26 1 25 2 24 3 23 4 21 5 22 6 11 8 8 9 9 10 97 11 10 13
REMARK SMILES IDX 96 14 7 15 6 16 3 17 4 18 99 19 5 20 98 21 2 22 1 23 12 24
REMARK SMILES IDX 13 25 14 26 18 27 15 28 17 29 16 30 19 31 20 32 27 33 28 34
REMARK SMILES IDX 29 35 30 36 31 37 32 39 33 40 34 41 95 42 35 43 94 44 36 45
REMARK SMILES IDX 37 46 38 47 88 48 39 49 93 50 87 51 89 52 40 53 92 54 86 55
REMARK SMILES IDX 85 56 41 58 73 59 53 60 72 61 54 62 57 63 71 64 90 65 55 66
REMARK SMILES IDX 56 67 70 69 91 70 58 71 42 72 43 73 51 74 44 75 50 76 52 77
REMARK SMILES IDX 49 78 45 79 46 80 47 81 48 82 74 83 75 84 83 85 76 86 82 87
REMARK SMILES IDX 84 88 81 89 77 90 78 91 79 92 80 93 59 94 60 95 68 96 61 97
REMARK SMILES IDX 67 98 69 99 66 100 62 101 63 102 64 103 65 104
REMARK H PARENT 23 7 8 12 30 38 89 57 57 68
REMARK Flexibility Score: inf
ROOT
ATOM      1  C   UNL     1       1.772   3.018   7.728  1.00  0.00     0.002 C 
ENDROOT
BRANCH   1   2
ATOM      2  C   UNL     1       2.332   4.348   7.217  1.00  0.00     0.021 C 
BRANCH   2   3
ATOM      3  C   UNL     1       3.839   4.340   6.978  1.00  0.00     0.116 C 
BRANCH   3   4
ATOM      4  N   UNL     1       4.197   3.694   5.732  1.00  0.00    -0.353 N 
ATOM      5  C   UNL     1       4.742   4.207   4.587  1.00  0.00     0.264 C 
ATOM      6  O   UNL     1       5.149   3.362   3.781  1.00  0.00    -0.270 OA
ATOM      7  H   UNL     1       4.019   2.726   5.705  1.00  0.00     0.163 HD
BRANCH   5   8
ATOM      8  C   UNL     1       4.841   5.750   4.310  1.00  0.00     0.197 C 
ATOM      9  N   UNL     1       3.406   6.234   1.783  1.00  0.00    -0.330 N 
ATOM     10  C   UNL     1       2.670   5.907   3.009  1.00  0.00     0.267 C 
ATOM     11  C   UNL     1       4.714   5.564   1.755  1.00  0.00     0.267 C 
ATOM     12  H   UNL     1       3.578   7.239   1.787  1.00  0.00     0.348 HD
ATOM     13  C   UNL     1       3.447   6.381   4.224  1.00  0.00     0.120 C 
ATOM     14  C   UNL     1       5.573   5.969   2.964  1.00  0.00     0.120 C 
BRANCH   9  15
ATOM     15  C   UNL     1       2.608   5.950   0.564  1.00  0.00     0.319 C 
BRANCH  15  16
ATOM     16  C   UNL     1       1.939   4.585   0.512  1.00  0.00     0.095 A 
ATOM     17  C   UNL     1       0.874   2.059   0.847  1.00  0.00    -0.030 A 
ATOM     18  C   UNL     1       0.060   3.179   1.022  1.00  0.00     0.007 A 
ATOM     19  C   UNL     1       2.195   2.288   0.477  1.00  0.00     0.115 A 
ATOM     20  C   UNL     1       0.593   4.455   0.853  1.00  0.00     0.030 A 
ATOM     21  N   UNL     1       2.731   3.511   0.281  1.00  0.00    -0.255 NA
BRANCH  17  22
ATOM     22  C   UNL     1       0.357   0.677   1.136  1.00  0.00     0.034 C 
ATOM     23  C   UNL     1       0.687  -0.340   0.052  1.00  0.00     0.009 C 
ENDBRANCH  17  22
ENDBRANCH  15  16
ENDBRANCH   9  15
BRANCH   8  24
ATOM     24  O   UNL     1       5.559   6.234   5.471  1.00  0.00    -0.473 OA
BRANCH  24  25
ATOM     25  C   UNL     1       6.240   7.411   5.413  1.00  0.00     0.162 A 
ATOM     26  C   UNL     1       7.628   7.311   5.269  1.00  0.00     0.050 A 
ATOM     27  C   UNL     1       5.663   8.662   5.658  1.00  0.00     0.160 A 
ATOM     28  C   UNL     1       8.428   8.453   5.310  1.00  0.00     0.004 A 
ATOM     29  C   UNL     1       6.465   9.806   5.675  1.00  0.00     0.050 A 
ATOM     30  C   UNL     1       7.846   9.703   5.510  1.00  0.00     0.004 A 
BRANCH  27  31
ATOM     31  O   UNL     1       4.322   8.880   5.816  1.00  0.00    -0.493 OA
ATOM     32  C   UNL     1       3.838   8.418   7.072  1.00  0.00     0.278 C 
ENDBRANCH  27  31
ENDBRANCH  24  25
ENDBRANCH   8  24
ENDBRANCH   5   8
ENDBRANCH   3   4
ENDBRANCH   2   3
ENDBRANCH   1   2
BRANCH   1  33
ATOM     33  C   UNL     1       2.349   2.537   9.064  1.00  0.00     0.002 C 
BRANCH  33  34
ATOM     34  C   UNL     1       2.266   3.542  10.218  1.00  0.00     0.021 C 
BRANCH  34  35
ATOM     35  C   UNL     1       0.852   3.991  10.577  1.00  0.00     0.116 C 
BRANCH  35  36
ATOM     36  N   UNL     1       0.025   2.881  11.017  1.00  0.00    -0.352 N 
ATOM     37  C   UNL     1      -0.708   2.735  12.169  1.00  0.00     0.251 C 
ATOM     38  H   UNL     1      -0.016   2.118  10.396  1.00  0.00     0.163 HD
ATOM     39  O   UNL     1      -1.161   1.632  12.459  1.00  0.00    -0.269 OA
BRANCH  37  40
ATOM     40  C   UNL     1      -0.936   3.894  13.062  1.00  0.00     0.039 A 
ATOM     41  C   UNL     1      -0.852   3.705  14.443  1.00  0.00     0.014 A 
ATOM     42  C   UNL     1      -1.263   5.153  12.547  1.00  0.00     0.014 A 
ATOM     43  C   UNL     1      -1.049   4.787  15.305  1.00  0.00     0.010 A 
ATOM     44  C   UNL     1      -1.389   6.245  13.405  1.00  0.00     0.010 A 
ATOM     45  C   UNL     1      -1.292   6.072  14.793  1.00  0.00    -0.014 A 
BRANCH  45  46
ATOM     46  C   UNL     1      -1.452   7.236  15.706  1.00  0.00     0.031 A 
ATOM     47  C   UNL     1      -2.764   7.970  15.781  1.00  0.00     0.074 A 
ATOM     48  C   UNL     1      -0.400   7.652  16.439  1.00  0.00     0.049 A 
ATOM     49  N   UNL     1      -3.090   9.011  16.505  1.00  0.00    -0.248 NA
ATOM     50  C   UNL     1      -3.841   7.488  14.905  1.00  0.00     0.031 C 
ATOM     51  C   UNL     1       0.937   7.054  16.411  1.00  0.00     0.029 A 
ATOM     52  N   UNL     1      -0.286   8.672  17.349  1.00  0.00    -0.354 N 
ATOM     53  C   UNL     1      -4.405   9.313  16.167  1.00  0.00     0.074 A 
ATOM     54  C   UNL     1      -4.790   8.386  15.123  1.00  0.00     0.031 C 
ATOM     55  C   UNL     1       1.724   7.696  17.289  1.00  0.00     0.029 A 
ATOM     56  C   UNL     1       0.964   8.773  17.915  1.00  0.00     0.049 A 
ATOM     57  H   UNL     1      -1.030   9.276  17.577  1.00  0.00     0.167 HD
ATOM     58  C   UNL     1      -5.224  10.258  16.695  1.00  0.00     0.034 A 
ATOM     59  C   UNL     1       1.444   9.633  18.834  1.00  0.00     0.034 A 
ATOM     60  C   UNL     1      -4.825  11.169  17.741  1.00  0.00     0.049 A 
ATOM     61  C   UNL     1       0.514  10.671  19.411  1.00  0.00     0.074 A 
ATOM     62  C   UNL     1      -5.583  12.136  18.381  1.00  0.00     0.029 A 
ATOM     63  N   UNL     1      -3.555  11.231  18.302  1.00  0.00    -0.354 N 
ATOM     64  N   UNL     1      -0.744  10.908  19.120  1.00  0.00    -0.248 NA
ATOM     65  C   UNL     1       1.066  11.541  20.457  1.00  0.00     0.031 C 
ATOM     66  C   UNL     1      -4.757  12.822  19.278  1.00  0.00     0.029 A 
ATOM     67  C   UNL     1      -3.503  12.233  19.261  1.00  0.00     0.049 A 
ATOM     68  H   UNL     1      -2.801  10.649  18.055  1.00  0.00     0.167 HD
ATOM     69  C   UNL     1      -1.144  11.931  19.976  1.00  0.00     0.074 A 
ATOM     70  C   UNL     1       0.002  12.250  20.802  1.00  0.00     0.031 C 
ATOM     71  C   UNL     1      -2.350  12.548  20.073  1.00  0.00     0.034 A 
BRANCH  58  72
ATOM     72  C   UNL     1      -6.622  10.362  16.127  1.00  0.00     0.023 A 
ATOM     73  C   UNL     1      -7.535   9.296  16.211  1.00  0.00     0.031 A 
ATOM     74  C   UNL     1      -7.040  11.531  15.466  1.00  0.00     0.131 A 
ATOM     75  C   UNL     1      -8.784   9.387  15.577  1.00  0.00     0.055 A 
ATOM     76  C   UNL     1      -8.317  11.648  14.912  1.00  0.00     0.041 A 
ATOM     77  F   UNL     1      -6.209  12.577  15.334  1.00  0.00    -0.206 F 
ATOM     78  C   UNL     1      -9.192  10.567  14.951  1.00  0.00     0.022 A 
BRANCH  75  79
ATOM     79  S   UNL     1      -9.803   7.892  15.451  1.00  0.00     0.124 S 
ATOM     80  O   UNL     1      -8.911   6.988  14.728  1.00  0.00    -0.237 OA
ATOM     81  O   UNL     1     -10.053   7.561  16.849  1.00  0.00    -0.237 OA
ATOM     82  O   UNL     1     -10.972   8.337  14.695  1.00  0.00    -0.744 OA
ENDBRANCH  75  79
ENDBRANCH  58  72
BRANCH  59  83
ATOM     83  C   UNL     1       2.864   9.548  19.280  1.00  0.00     0.023 A 
ATOM     84  C   UNL     1       3.188   9.220  20.606  1.00  0.00     0.031 A 
ATOM     85  C   UNL     1       3.919   9.835  18.396  1.00  0.00     0.131 A 
ATOM     86  C   UNL     1       4.528   9.236  21.024  1.00  0.00     0.055 A 
ATOM     87  C   UNL     1       5.254   9.796  18.802  1.00  0.00     0.041 A 
ATOM     88  F   UNL     1       3.665  10.146  17.115  1.00  0.00    -0.206 F 
ATOM     89  C   UNL     1       5.564   9.509  20.128  1.00  0.00     0.022 A 
BRANCH  86  90
ATOM     90  S   UNL     1       4.893   8.978  22.782  1.00  0.00     0.124 S 
ATOM     91  O   UNL     1       4.123  10.048  23.405  1.00  0.00    -0.237 OA
ATOM     92  O   UNL     1       4.399   7.622  22.997  1.00  0.00    -0.237 OA
ATOM     93  O   UNL     1       6.345   9.129  22.854  1.00  0.00    -0.744 OA
ENDBRANCH  86  90
ENDBRANCH  59  83
BRANCH  71  94
ATOM     94  C   UNL     1      -2.496  13.595  21.153  1.00  0.00     0.023 A 
ATOM     95  C   UNL     1      -1.757  14.791  21.133  1.00  0.00     0.031 A 
ATOM     96  C   UNL     1      -3.362  13.372  22.238  1.00  0.00     0.131 A 
ATOM     97  C   UNL     1      -1.840  15.682  22.214  1.00  0.00     0.055 A 
ATOM     98  C   UNL     1      -3.493  14.295  23.277  1.00  0.00     0.041 A 
ATOM     99  F   UNL     1      -4.092  12.247  22.311  1.00  0.00    -0.206 F 
ATOM    100  C   UNL     1      -2.716  15.449  23.278  1.00  0.00     0.022 A 
BRANCH  97 101
ATOM    101  S   UNL     1      -0.696  17.089  22.271  1.00  0.00     0.124 S 
ATOM    102  O   UNL     1       0.602  16.430  22.166  1.00  0.00    -0.237 OA
ATOM    103  O   UNL     1      -1.109  17.872  21.111  1.00  0.00    -0.237 OA
ATOM    104  O   UNL     1      -0.976  17.706  23.567  1.00  0.00    -0.744 OA
ENDBRANCH  97 101
ENDBRANCH  71  94
ENDBRANCH  45  46
ENDBRANCH  37  40
ENDBRANCH  35  36
ENDBRANCH  34  35
ENDBRANCH  33  34
ENDBRANCH   1  33
TORSDOF 22
