REMARK SMILES Cc1cc(C)cc([S@@](=O)Cc2ccc(C(=O)NCCCCCCNC(=O)c3ccc(-c4c5nc(c(-c6cc(S(=O)(=O)[O-])ccc6F)c6ccc([nH]6)c(-c6cc(S(=O)(=O)[O-])ccc6F)c6nc(c(-c7cc(S(=O)(=O)[O-])ccc7F)c7ccc4[nH]7)C=C6)C=C5)cc3)o2)c1
REMARK SMILES IDX 20 1 19 2 18 3 17 4 15 5 16 6 14 8 11 9 12 10 90 11 13 12
REMARK SMILES IDX 10 13 8 14 9 15 7 16 1 17 2 18 3 19 91 20 4 21 5 22 6 23
REMARK SMILES IDX 21 24 22 25 23 26 24 27 25 28 26 30 27 31 28 32 89 33 29 34
REMARK SMILES IDX 88 35 30 36 31 37 32 38 82 39 33 40 87 41 81 42 83 43 34 44
REMARK SMILES IDX 86 45 80 46 79 47 35 49 67 50 47 51 66 52 48 53 51 54 65 55
REMARK SMILES IDX 84 56 49 57 50 58 64 60 85 61 52 62 36 63 37 64 45 65 38 66
REMARK SMILES IDX 44 67 46 68 43 69 39 70 40 71 41 72 42 73 68 74 69 75 77 76
REMARK SMILES IDX 70 77 76 78 78 79 75 80 71 81 72 82 73 83 74 84 53 85 54 86
REMARK SMILES IDX 62 87 55 88 61 89 63 90 60 91 56 92 57 93 58 94 59 95
REMARK H PARENT 17 7 24 29 83 48 51 59
REMARK Flexibility Score: inf
ROOT
ATOM      1  C   UNL     1       6.229  -1.152  -6.810  1.00  0.00     0.002 C 
ENDROOT
BRANCH   1   2
ATOM      2  C   UNL     1       5.303  -1.221  -5.591  1.00  0.00     0.021 C 
BRANCH   2   3
ATOM      3  C   UNL     1       4.137  -2.193  -5.791  1.00  0.00     0.116 C 
BRANCH   3   4
ATOM      4  N   UNL     1       4.490  -3.527  -5.341  1.00  0.00    -0.349 N 
ATOM      5  C   UNL     1       4.200  -4.182  -4.160  1.00  0.00     0.286 C 
ATOM      6  O   UNL     1       4.570  -5.349  -4.075  1.00  0.00    -0.266 OA
ATOM      7  H   UNL     1       5.023  -4.050  -5.982  1.00  0.00     0.163 HD
BRANCH   5   8
ATOM      8  C   UNL     1       3.473  -3.492  -3.110  1.00  0.00     0.191 A 
ATOM      9  C   UNL     1       2.167  -3.407  -1.307  1.00  0.00     0.117 A 
ATOM     10  C   UNL     1       2.329  -2.118  -1.761  1.00  0.00     0.047 A 
ATOM     11  O   UNL     1       2.854  -4.252  -2.142  1.00  0.00    -0.455 OA
ATOM     12  C   UNL     1       3.259  -2.163  -2.814  1.00  0.00     0.056 A 
BRANCH   9  13
ATOM     13  C   UNL     1       1.579  -4.038  -0.093  1.00  0.00     0.185 C 
BRANCH  13  14
ATOM     14  S   UNL     1      -0.093  -3.590   0.437  1.00  0.00     0.061 S 
ATOM     15  O   UNL     1      -1.072  -3.945  -0.643  1.00  0.00    -0.254 OA
BRANCH  14  16
ATOM     16  C   UNL     1      -0.087  -1.788   0.547  1.00  0.00     0.040 A 
ATOM     17  C   UNL     1       2.362   1.104   0.775  1.00  0.00     0.044 C 
ATOM     18  C   UNL     1       1.069   0.341   0.723  1.00  0.00    -0.050 A 
ATOM     19  C   UNL     1      -0.116   1.010   0.397  1.00  0.00     0.007 A 
ATOM     20  C   UNL     1       1.048  -1.051   0.900  1.00  0.00     0.021 A 
ATOM     21  C   UNL     1      -1.302   0.299   0.192  1.00  0.00    -0.050 A 
ATOM     22  C   UNL     1      -2.570   1.032  -0.135  1.00  0.00     0.044 C 
ATOM     23  C   UNL     1      -1.268  -1.100   0.234  1.00  0.00     0.021 A 
ENDBRANCH  14  16
ENDBRANCH  13  14
ENDBRANCH   9  13
ENDBRANCH   5   8
ENDBRANCH   3   4
ENDBRANCH   2   3
ENDBRANCH   1   2
BRANCH   1  24
ATOM     24  C   UNL     1       5.571  -0.576  -8.071  1.00  0.00     0.002 C 
BRANCH  24  25
ATOM     25  C   UNL     1       5.028   0.850  -7.929  1.00  0.00     0.021 C 
BRANCH  25  26
ATOM     26  C   UNL     1       6.088   1.901  -7.609  1.00  0.00     0.116 C 
BRANCH  26  27
ATOM     27  N   UNL     1       7.099   1.971  -8.651  1.00  0.00    -0.352 N 
ATOM     28  C   UNL     1       7.482   3.031  -9.433  1.00  0.00     0.251 C 
ATOM     29  H   UNL     1       7.582   1.131  -8.821  1.00  0.00     0.163 HD
ATOM     30  O   UNL     1       8.159   2.823 -10.437  1.00  0.00    -0.269 OA
BRANCH  28  31
ATOM     31  C   UNL     1       7.080   4.409  -9.076  1.00  0.00     0.039 A 
ATOM     32  C   UNL     1       6.705   5.285 -10.097  1.00  0.00     0.014 A 
ATOM     33  C   UNL     1       7.114   4.852  -7.750  1.00  0.00     0.014 A 
ATOM     34  C   UNL     1       6.318   6.589  -9.784  1.00  0.00     0.010 A 
ATOM     35  C   UNL     1       6.663   6.132  -7.432  1.00  0.00     0.010 A 
ATOM     36  C   UNL     1       6.266   7.016  -8.446  1.00  0.00    -0.014 A 
BRANCH  36  37
ATOM     37  C   UNL     1       5.791   8.381  -8.104  1.00  0.00     0.031 A 
ATOM     38  C   UNL     1       6.725   9.381  -7.478  1.00  0.00     0.074 A 
ATOM     39  C   UNL     1       4.501   8.703  -8.324  1.00  0.00     0.049 A 
ATOM     40  N   UNL     1       6.488  10.612  -7.103  1.00  0.00    -0.248 NA
ATOM     41  C   UNL     1       8.099   8.928  -7.216  1.00  0.00     0.031 C 
ATOM     42  C   UNL     1       3.490   7.798  -8.877  1.00  0.00     0.029 A 
ATOM     43  N   UNL     1       3.817   9.873  -8.111  1.00  0.00    -0.354 N 
ATOM     44  C   UNL     1       7.678  11.080  -6.555  1.00  0.00     0.074 A 
ATOM     45  C   UNL     1       8.614   9.976  -6.590  1.00  0.00     0.031 C 
ATOM     46  C   UNL     1       2.326   8.457  -8.991  1.00  0.00     0.029 A 
ATOM     47  C   UNL     1       2.494   9.814  -8.482  1.00  0.00     0.049 A 
ATOM     48  H   UNL     1       4.234  10.679  -7.730  1.00  0.00     0.167 HD
ATOM     49  C   UNL     1       7.969  12.321  -6.090  1.00  0.00     0.034 A 
ATOM     50  C   UNL     1       1.523  10.746  -8.417  1.00  0.00     0.034 A 
ATOM     51  C   UNL     1       7.022  13.411  -6.071  1.00  0.00     0.049 A 
ATOM     52  C   UNL     1       1.867  12.114  -7.887  1.00  0.00     0.074 A 
ATOM     53  C   UNL     1       7.225  14.723  -5.678  1.00  0.00     0.029 A 
ATOM     54  N   UNL     1       5.689  13.315  -6.451  1.00  0.00    -0.354 N 
ATOM     55  N   UNL     1       3.016  12.560  -7.433  1.00  0.00    -0.248 NA
ATOM     56  C   UNL     1       0.787  13.108  -7.875  1.00  0.00     0.031 C 
ATOM     57  C   UNL     1       6.002  15.399  -5.754  1.00  0.00     0.029 A 
ATOM     58  C   UNL     1       5.051  14.533  -6.268  1.00  0.00     0.049 A 
ATOM     59  H   UNL     1       5.259  12.500  -6.799  1.00  0.00     0.167 HD
ATOM     60  C   UNL     1       2.801  13.896  -7.105  1.00  0.00     0.074 A 
ATOM     61  C   UNL     1       1.420  14.185  -7.435  1.00  0.00     0.031 C 
ATOM     62  C   UNL     1       3.666  14.802  -6.581  1.00  0.00     0.034 A 
BRANCH  49  63
ATOM     63  C   UNL     1       9.359  12.551  -5.542  1.00  0.00     0.023 A 
ATOM     64  C   UNL     1      10.503  12.423  -6.350  1.00  0.00     0.031 A 
ATOM     65  C   UNL     1       9.547  12.882  -4.188  1.00  0.00     0.131 A 
ATOM     66  C   UNL     1      11.781  12.546  -5.783  1.00  0.00     0.055 A 
ATOM     67  C   UNL     1      10.819  13.085  -3.648  1.00  0.00     0.041 A 
ATOM     68  F   UNL     1       8.496  12.998  -3.361  1.00  0.00    -0.206 F 
ATOM     69  C   UNL     1      11.946  12.902  -4.443  1.00  0.00     0.022 A 
BRANCH  66  70
ATOM     70  S   UNL     1      13.222  12.088  -6.786  1.00  0.00     0.124 S 
ATOM     71  O   UNL     1      12.918  10.698  -7.120  1.00  0.00    -0.237 OA
ATOM     72  O   UNL     1      13.154  13.040  -7.888  1.00  0.00    -0.237 OA
ATOM     73  O   UNL     1      14.347  12.269  -5.872  1.00  0.00    -0.744 OA
ENDBRANCH  66  70
ENDBRANCH  49  63
BRANCH  50  74
ATOM     74  C   UNL     1       0.138  10.424  -8.863  1.00  0.00     0.023 A 
ATOM     75  C   UNL     1      -0.438  11.072  -9.967  1.00  0.00     0.031 A 
ATOM     76  C   UNL     1      -0.644   9.484  -8.169  1.00  0.00     0.131 A 
ATOM     77  C   UNL     1      -1.770  10.806 -10.318  1.00  0.00     0.055 A 
ATOM     78  C   UNL     1      -1.952   9.183  -8.554  1.00  0.00     0.041 A 
ATOM     79  F   UNL     1      -0.140   8.830  -7.110  1.00  0.00    -0.206 F 
ATOM     80  C   UNL     1      -2.527   9.857  -9.627  1.00  0.00     0.022 A 
BRANCH  77  81
ATOM     81  S   UNL     1      -2.530  11.783 -11.644  1.00  0.00     0.124 S 
ATOM     82  O   UNL     1      -2.372  13.142 -11.141  1.00  0.00    -0.237 OA
ATOM     83  O   UNL     1      -1.706  11.424 -12.793  1.00  0.00    -0.237 OA
ATOM     84  O   UNL     1      -3.904  11.287 -11.686  1.00  0.00    -0.744 OA
ENDBRANCH  77  81
ENDBRANCH  50  74
BRANCH  62  85
ATOM     85  C   UNL     1       3.139  16.200  -6.365  1.00  0.00     0.023 A 
ATOM     86  C   UNL     1       2.128  16.471  -5.426  1.00  0.00     0.031 A 
ATOM     87  C   UNL     1       3.635  17.271  -7.129  1.00  0.00     0.131 A 
ATOM     88  C   UNL     1       1.601  17.767  -5.320  1.00  0.00     0.055 A 
ATOM     89  C   UNL     1       3.153  18.571  -6.973  1.00  0.00     0.041 A 
ATOM     90  F   UNL     1       4.598  17.070  -8.043  1.00  0.00    -0.206 F 
ATOM     91  C   UNL     1       2.119  18.822  -6.075  1.00  0.00     0.022 A 
BRANCH  88  92
ATOM     92  S   UNL     1       0.157  18.034  -4.255  1.00  0.00     0.124 S 
ATOM     93  O   UNL     1      -0.816  17.108  -4.827  1.00  0.00    -0.237 OA
ATOM     94  O   UNL     1       0.672  17.683  -2.936  1.00  0.00    -0.237 OA
ATOM     95  O   UNL     1      -0.150  19.451  -4.443  1.00  0.00    -0.744 OA
ENDBRANCH  88  92
ENDBRANCH  62  85
ENDBRANCH  36  37
ENDBRANCH  28  31
ENDBRANCH  26  27
ENDBRANCH  25  26
ENDBRANCH  24  25
ENDBRANCH   1  24
TORSDOF 19
