REMARK SMILES Cc1cccc(C(=O)Nc2cnc(N3CCN(c4cccc(C)c4)[C@H](C)C3)c(C(=O)NCCCCCCNC(=O)c3ccc(-c4c5nc(c(-c6cc(S(=O)(=O)[O-])ccc6F)c6ccc([nH]6)c(-c6cc(S(=O)(=O)[O-])ccc6F)c6nc(c(-c7cc(S(=O)(=O)[O-])ccc7F)c7ccc4[nH]7)C=C6)C=C5)cc3)c2)c1
REMARK SMILES IDX 35 1 34 2 33 3 32 4 31 5 29 6 30 7 28 9 10 10 11 11 104 12
REMARK SMILES IDX 12 13 13 14 9 15 7 16 8 17 6 19 1 20 2 21 3 22 105 23 4 24
REMARK SMILES IDX 5 25 14 26 15 27 27 28 16 29 25 30 17 31 26 32 18 33 19 34
REMARK SMILES IDX 24 35 20 36 22 37 21 38 23 39 36 40 37 41 38 42 39 43 40 45
REMARK SMILES IDX 41 46 42 47 103 48 43 49 102 50 44 51 45 52 46 53 96 54
REMARK SMILES IDX 47 55 101 56 95 57 97 58 48 59 100 60 94 61 93 62 49 64
REMARK SMILES IDX 81 65 61 66 80 67 62 68 65 69 79 70 98 71 63 72 64 73 78 75
REMARK SMILES IDX 99 76 66 77 50 78 51 79 59 80 52 81 58 82 60 83 57 84 53 85
REMARK SMILES IDX 54 86 55 87 56 88 82 89 83 90 91 91 84 92 90 93 92 94 89 95
REMARK SMILES IDX 85 96 86 97 87 98 88 99 67 100 68 101 76 102 69 103 75 104
REMARK SMILES IDX 77 105 74 106 70 107 71 108 72 109 73 110
REMARK H PARENT 31 8 9 18 38 44 97 63 65 74
REMARK Flexibility Score: inf
ROOT
ATOM      1  C   UNL     1       1.256  -1.401  -4.936  1.00  0.00     0.002 C 
ENDROOT
BRANCH   1   2
ATOM      2  C   UNL     1       1.218   0.091  -5.309  1.00  0.00     0.002 C 
BRANCH   2   3
ATOM      3  C   UNL     1       0.504   1.007  -4.305  1.00  0.00     0.021 C 
BRANCH   3   4
ATOM      4  C   UNL     1       1.005   0.849  -2.871  1.00  0.00     0.116 C 
BRANCH   4   5
ATOM      5  N   UNL     1       2.364   1.334  -2.762  1.00  0.00    -0.352 N 
ATOM      6  C   UNL     1       3.044   2.329  -2.121  1.00  0.00     0.255 C 
ATOM      7  O   UNL     1       4.234   2.355  -2.434  1.00  0.00    -0.269 OA
ATOM      8  H   UNL     1       2.975   0.788  -3.308  1.00  0.00     0.163 HD
BRANCH   6   9
ATOM      9  C   UNL     1       2.465   3.274  -1.104  1.00  0.00     0.084 A 
ATOM     10  C   UNL     1       0.535   4.078   0.120  1.00  0.00     0.060 A 
ATOM     11  C   UNL     1       1.391   4.734   0.980  1.00  0.00     0.139 A 
ATOM     12  C   UNL     1       1.083   3.467  -1.003  1.00  0.00     0.045 A 
ATOM     13  N   UNL     1       2.732   4.650   0.882  1.00  0.00    -0.236 NA
ATOM     14  C   UNL     1       3.276   3.898  -0.120  1.00  0.00     0.141 A 
BRANCH  10  15
ATOM     15  N   UNL     1      -0.811   3.922   0.479  1.00  0.00    -0.321 N 
ATOM     16  C   UNL     1      -1.577   2.765   0.501  1.00  0.00     0.255 C 
ATOM     17  O   UNL     1      -2.786   2.866   0.716  1.00  0.00    -0.269 OA
ATOM     18  H   UNL     1      -1.276   4.745   0.753  1.00  0.00     0.170 HD
BRANCH  16  19
ATOM     19  C   UNL     1      -0.986   1.391   0.385  1.00  0.00     0.040 A 
ATOM     20  C   UNL     1       2.315  -0.478   0.795  1.00  0.00     0.044 C 
ATOM     21  C   UNL     1       0.857  -0.206   0.558  1.00  0.00    -0.050 A 
ATOM     22  C   UNL     1       0.027  -1.214   0.060  1.00  0.00     0.003 A 
ATOM     23  C   UNL     1       0.320   1.070   0.787  1.00  0.00     0.017 A 
ATOM     24  C   UNL     1      -1.305  -0.936  -0.248  1.00  0.00     0.001 A 
ATOM     25  C   UNL     1      -1.804   0.362  -0.103  1.00  0.00     0.014 A 
ENDBRANCH  16  19
ENDBRANCH  10  15
BRANCH  14  26
ATOM     26  N   UNL     1       4.640   3.732  -0.038  1.00  0.00    -0.352 N 
ATOM     27  C   UNL     1       5.290   3.688   1.278  1.00  0.00     0.139 C 
ATOM     28  C   UNL     1       5.487   4.325  -1.091  1.00  0.00     0.142 C 
ATOM     29  C   UNL     1       6.648   2.942   1.183  1.00  0.00     0.138 C 
ATOM     30  C   UNL     1       6.771   3.458  -1.237  1.00  0.00     0.098 C 
ATOM     31  N   UNL     1       7.483   3.481   0.082  1.00  0.00    -0.365 N 
ATOM     32  C   UNL     1       7.582   3.929  -2.439  1.00  0.00     0.033 C 
BRANCH  31  33
ATOM     33  C   UNL     1       8.850   3.277   0.139  1.00  0.00     0.037 A 
ATOM     34  C   UNL     1       9.706   4.354  -0.125  1.00  0.00     0.026 A 
ATOM     35  C   UNL     1       9.428   2.041   0.453  1.00  0.00     0.029 A 
ATOM     36  C   UNL     1      11.091   4.206  -0.095  1.00  0.00     0.002 A 
ATOM     37  C   UNL     1      10.823   1.878   0.499  1.00  0.00    -0.049 A 
ATOM     38  C   UNL     1      11.649   2.970   0.216  1.00  0.00     0.003 A 
ATOM     39  C   UNL     1      11.411   0.537   0.824  1.00  0.00     0.044 C 
ENDBRANCH  31  33
ENDBRANCH  14  26
ENDBRANCH   6   9
ENDBRANCH   4   5
ENDBRANCH   3   4
ENDBRANCH   2   3
ENDBRANCH   1   2
BRANCH   1  40
ATOM     40  C   UNL     1      -0.083  -2.021  -4.535  1.00  0.00     0.021 C 
BRANCH  40  41
ATOM     41  C   UNL     1      -1.133  -1.968  -5.638  1.00  0.00     0.116 C 
BRANCH  41  42
ATOM     42  N   UNL     1      -1.483  -3.273  -6.178  1.00  0.00    -0.352 N 
ATOM     43  C   UNL     1      -2.447  -3.576  -7.131  1.00  0.00     0.251 C 
ATOM     44  H   UNL     1      -0.972  -4.037  -5.824  1.00  0.00     0.163 HD
ATOM     45  O   UNL     1      -2.686  -4.706  -7.476  1.00  0.00    -0.269 OA
BRANCH  43  46
ATOM     46  C   UNL     1      -3.090  -2.429  -7.825  1.00  0.00     0.039 A 
ATOM     47  C   UNL     1      -2.848  -2.313  -9.197  1.00  0.00     0.014 A 
ATOM     48  C   UNL     1      -3.657  -1.381  -7.105  1.00  0.00     0.014 A 
ATOM     49  C   UNL     1      -2.972  -1.067  -9.805  1.00  0.00     0.010 A 
ATOM     50  C   UNL     1      -3.699  -0.126  -7.688  1.00  0.00     0.010 A 
ATOM     51  C   UNL     1      -3.294   0.041  -9.019  1.00  0.00    -0.014 A 
BRANCH  51  52
ATOM     52  C   UNL     1      -3.070   1.410  -9.475  1.00  0.00     0.031 A 
ATOM     53  C   UNL     1      -4.196   2.287  -9.851  1.00  0.00     0.074 A 
ATOM     54  C   UNL     1      -1.812   1.894  -9.579  1.00  0.00     0.049 A 
ATOM     55  N   UNL     1      -4.110   3.241 -10.716  1.00  0.00    -0.248 NA
ATOM     56  C   UNL     1      -5.536   2.124  -9.303  1.00  0.00     0.031 C 
ATOM     57  C   UNL     1      -1.411   3.279  -9.812  1.00  0.00     0.029 A 
ATOM     58  N   UNL     1      -0.646   1.158  -9.767  1.00  0.00    -0.354 N 
ATOM     59  C   UNL     1      -5.260   3.988 -10.629  1.00  0.00     0.074 A 
ATOM     60  C   UNL     1      -6.144   3.211  -9.787  1.00  0.00     0.031 C 
ATOM     61  C   UNL     1      -0.186   3.287 -10.360  1.00  0.00     0.029 A 
ATOM     62  C   UNL     1       0.186   1.908 -10.613  1.00  0.00     0.049 A 
ATOM     63  H   UNL     1      -0.443   0.277  -9.379  1.00  0.00     0.167 HD
ATOM     64  C   UNL     1      -5.294   5.246 -11.154  1.00  0.00     0.034 A 
ATOM     65  C   UNL     1       0.622   1.411 -11.806  1.00  0.00     0.034 A 
ATOM     66  C   UNL     1      -4.041   5.606 -11.820  1.00  0.00     0.049 A 
ATOM     67  C   UNL     1       0.242   2.255 -13.000  1.00  0.00     0.074 A 
ATOM     68  C   UNL     1      -2.968   6.403 -11.455  1.00  0.00     0.029 A 
ATOM     69  N   UNL     1      -3.640   4.915 -12.957  1.00  0.00    -0.354 N 
ATOM     70  N   UNL     1      -0.647   3.209 -12.985  1.00  0.00    -0.248 NA
ATOM     71  C   UNL     1       0.812   2.050 -14.325  1.00  0.00     0.031 C 
ATOM     72  C   UNL     1      -1.916   6.186 -12.384  1.00  0.00     0.029 A 
ATOM     73  C   UNL     1      -2.353   5.267 -13.322  1.00  0.00     0.049 A 
ATOM     74  H   UNL     1      -4.197   4.261 -13.439  1.00  0.00     0.167 HD
ATOM     75  C   UNL     1      -0.810   3.718 -14.254  1.00  0.00     0.074 A 
ATOM     76  C   UNL     1       0.146   2.965 -15.049  1.00  0.00     0.031 C 
ATOM     77  C   UNL     1      -1.737   4.694 -14.517  1.00  0.00     0.034 A 
BRANCH  64  78
ATOM     78  C   UNL     1      -6.359   6.257 -10.789  1.00  0.00     0.023 A 
ATOM     79  C   UNL     1      -6.022   7.622 -10.689  1.00  0.00     0.031 A 
ATOM     80  C   UNL     1      -7.697   5.942 -10.484  1.00  0.00     0.131 A 
ATOM     81  C   UNL     1      -6.934   8.571 -10.192  1.00  0.00     0.055 A 
ATOM     82  C   UNL     1      -8.587   6.871  -9.926  1.00  0.00     0.041 A 
ATOM     83  F   UNL     1      -8.210   4.733 -10.756  1.00  0.00    -0.206 F 
ATOM     84  C   UNL     1      -8.201   8.192  -9.759  1.00  0.00     0.022 A 
BRANCH  81  85
ATOM     85  S   UNL     1      -6.441  10.316 -10.121  1.00  0.00     0.124 S 
ATOM     86  O   UNL     1      -5.236  10.268  -9.299  1.00  0.00    -0.237 OA
ATOM     87  O   UNL     1      -6.249  10.638 -11.531  1.00  0.00    -0.237 OA
ATOM     88  O   UNL     1      -7.590  10.968  -9.492  1.00  0.00    -0.744 OA
ENDBRANCH  81  85
ENDBRANCH  64  78
BRANCH  65  89
ATOM     89  C   UNL     1       0.783  -0.071 -11.810  1.00  0.00     0.023 A 
ATOM     90  C   UNL     1       1.639  -0.629 -10.837  1.00  0.00     0.031 A 
ATOM     91  C   UNL     1      -0.129  -0.922 -12.447  1.00  0.00     0.131 A 
ATOM     92  C   UNL     1       1.449  -1.946 -10.399  1.00  0.00     0.055 A 
ATOM     93  C   UNL     1      -0.264  -2.262 -12.060  1.00  0.00     0.041 A 
ATOM     94  F   UNL     1      -0.986  -0.446 -13.362  1.00  0.00    -0.206 F 
ATOM     95  C   UNL     1       0.493  -2.766 -11.000  1.00  0.00     0.022 A 
BRANCH  92  96
ATOM     96  S   UNL     1       2.249  -2.483  -8.858  1.00  0.00     0.124 S 
ATOM     97  O   UNL     1       3.413  -3.208  -9.353  1.00  0.00    -0.237 OA
ATOM     98  O   UNL     1       2.529  -1.220  -8.178  1.00  0.00    -0.237 OA
ATOM     99  O   UNL     1       1.221  -3.297  -8.213  1.00  0.00    -0.744 OA
ENDBRANCH  92  96
ENDBRANCH  65  89
BRANCH  77 100
ATOM    100  C   UNL     1      -2.138   5.259 -15.879  1.00  0.00     0.023 A 
ATOM    101  C   UNL     1      -1.563   4.879 -17.100  1.00  0.00     0.031 A 
ATOM    102  C   UNL     1      -3.173   6.228 -15.992  1.00  0.00     0.131 A 
ATOM    103  C   UNL     1      -1.983   5.432 -18.328  1.00  0.00     0.055 A 
ATOM    104  C   UNL     1      -3.608   6.761 -17.212  1.00  0.00     0.041 A 
ATOM    105  F   UNL     1      -3.827   6.701 -14.922  1.00  0.00    -0.206 F 
ATOM    106  C   UNL     1      -3.011   6.365 -18.395  1.00  0.00     0.022 A 
BRANCH 103 107
ATOM    107  S   UNL     1      -1.130   4.909 -19.840  1.00  0.00     0.124 S 
ATOM    108  O   UNL     1       0.242   5.333 -19.578  1.00  0.00    -0.237 OA
ATOM    109  O   UNL     1      -1.357   3.467 -19.840  1.00  0.00    -0.237 OA
ATOM    110  O   UNL     1      -1.817   5.646 -20.899  1.00  0.00    -0.744 OA
ENDBRANCH 103 107
ENDBRANCH  77 100
ENDBRANCH  51  52
ENDBRANCH  43  46
ENDBRANCH  41  42
ENDBRANCH  40  41
ENDBRANCH   1  40
TORSDOF 20
