REMARK SMILES CCOC(=O)c1c(NC(=O)[C@H]2[C@@H]3CC[C@@H](C3)[C@@H]2C(=O)NCCCCCCNC(=O)c2ccc(-c3c4nc(c(-c5cc(S(=O)(=O)[O-])ccc5F)c5ccc([nH]5)c(-c5cc(S(=O)(=O)[O-])ccc5F)c5nc(c(-c6cc(S(=O)(=O)[O-])ccc6F)c6ccc3[nH]6)C=C5)C=C4)cc2)sc2c1CCCC2
REMARK SMILES IDX 22 1 21 2 20 3 18 4 19 5 17 7 11 8 12 9 13 10 16 11 15 12
REMARK SMILES IDX 14 13 9 14 8 15 10 17 7 18 6 19 95 20 93 21 94 22 96 23
REMARK SMILES IDX 99 24 97 25 98 26 4 27 5 28 3 29 2 30 1 31 23 32 24 33 25 34
REMARK SMILES IDX 26 35 27 36 28 37 29 39 30 40 31 41 92 42 32 43 91 44 33 45
REMARK SMILES IDX 34 46 35 47 85 48 36 49 90 50 84 51 86 52 37 53 89 54 83 55
REMARK SMILES IDX 82 56 38 58 70 59 50 60 69 61 51 62 54 63 68 64 87 65 52 66
REMARK SMILES IDX 53 67 67 69 88 70 55 71 39 72 40 73 48 74 41 75 47 76 49 77
REMARK SMILES IDX 46 78 42 79 43 80 44 81 45 82 71 83 72 84 80 85 73 86 79 87
REMARK SMILES IDX 81 88 78 89 74 90 75 91 76 92 77 93 56 94 57 95 65 96 58 97
REMARK SMILES IDX 64 98 66 99 63 100 59 101 60 102 61 103 62 104
REMARK H PARENT 20 6 8 16 27 38 86 57 54 68
REMARK Flexibility Score: inf
ROOT
ATOM      1  C   UNL     1       6.019   1.741   2.356  1.00  0.00     0.021 C 
ENDROOT
BRANCH   1   2
ATOM      2  C   UNL     1       6.247   0.594   1.375  1.00  0.00     0.116 C 
BRANCH   2   3
ATOM      3  N   UNL     1       5.403  -0.540   1.677  1.00  0.00    -0.356 N 
ATOM      4  C   UNL     1       4.438  -1.125   0.914  1.00  0.00     0.224 C 
ATOM      5  O   UNL     1       3.994  -2.207   1.297  1.00  0.00    -0.275 OA
ATOM      6  H   UNL     1       5.546  -0.949   2.561  1.00  0.00     0.163 HD
BRANCH   4   7
ATOM      7  C   UNL     1       4.009  -0.460  -0.390  1.00  0.00     0.094 C 
ATOM      8  C   UNL     1       3.300   0.918  -0.221  1.00  0.00     0.094 C 
ATOM      9  C   UNL     1       2.043   0.755  -1.110  1.00  0.00     0.002 C 
ATOM     10  C   UNL     1       1.029  -0.121  -0.376  1.00  0.00     0.005 C 
ATOM     11  C   UNL     1       2.511  -0.213  -2.205  1.00  0.00     0.009 C 
ATOM     12  C   UNL     1       2.967  -1.274  -1.202  1.00  0.00     0.002 C 
ATOM     13  C   UNL     1       1.659  -1.510  -0.423  1.00  0.00     0.005 C 
BRANCH   8  14
ATOM     14  C   UNL     1       4.093   2.086  -0.761  1.00  0.00     0.229 C 
ATOM     15  N   UNL     1       3.920   3.365  -0.354  1.00  0.00    -0.317 N 
ATOM     16  H   UNL     1       4.517   3.979  -0.839  1.00  0.00     0.170 HD
ATOM     17  O   UNL     1       4.946   1.913  -1.640  1.00  0.00    -0.274 OA
BRANCH  15  18
ATOM     18  C   UNL     1       3.137   4.039   0.552  1.00  0.00     0.110 A 
ATOM     19  C   UNL     1       2.099   3.857   1.450  1.00  0.00     0.098 A 
ATOM     20  C   UNL     1       1.798   5.098   2.152  1.00  0.00    -0.017 A 
ATOM     21  S   UNL     1       3.674   5.681   0.534  1.00  0.00    -0.122 S 
ATOM     22  C   UNL     1       2.614   6.136   1.764  1.00  0.00     0.011 A 
ATOM     23  C   UNL     1       0.776   5.274   3.243  1.00  0.00     0.038 C 
ATOM     24  C   UNL     1       2.581   7.528   2.317  1.00  0.00     0.047 C 
ATOM     25  C   UNL     1       0.482   6.754   3.521  1.00  0.00     0.005 C 
ATOM     26  C   UNL     1       1.775   7.572   3.625  1.00  0.00     0.006 C 
BRANCH  19  27
ATOM     27  C   UNL     1       1.366   2.653   1.793  1.00  0.00     0.341 C 
ATOM     28  O   UNL     1       1.766   1.855   2.634  1.00  0.00    -0.246 OA
BRANCH  27  29
ATOM     29  O   UNL     1       0.108   2.655   1.258  1.00  0.00    -0.462 OA
BRANCH  29  30
ATOM     30  C   UNL     1      -0.863   1.852   1.951  1.00  0.00     0.230 C 
ATOM     31  C   UNL     1      -1.931   1.377   0.982  1.00  0.00     0.049 C 
ENDBRANCH  29  30
ENDBRANCH  27  29
ENDBRANCH  19  27
ENDBRANCH  15  18
ENDBRANCH   8  14
ENDBRANCH   4   7
ENDBRANCH   2   3
ENDBRANCH   1   2
BRANCH   1  32
ATOM     32  C   UNL     1       6.553   1.470   3.767  1.00  0.00     0.002 C 
BRANCH  32  33
ATOM     33  C   UNL     1       8.021   1.030   3.837  1.00  0.00     0.002 C 
BRANCH  33  34
ATOM     34  C   UNL     1       9.006   1.927   3.081  1.00  0.00     0.021 C 
BRANCH  34  35
ATOM     35  C   UNL     1       9.045   3.370   3.568  1.00  0.00     0.116 C 
BRANCH  35  36
ATOM     36  N   UNL     1       9.548   3.459   4.928  1.00  0.00    -0.352 N 
ATOM     37  C   UNL     1      10.630   4.157   5.403  1.00  0.00     0.251 C 
ATOM     38  H   UNL     1       9.043   2.949   5.602  1.00  0.00     0.163 HD
ATOM     39  O   UNL     1      11.062   3.922   6.527  1.00  0.00    -0.269 OA
BRANCH  37  40
ATOM     40  C   UNL     1      11.274   5.180   4.551  1.00  0.00     0.039 A 
ATOM     41  C   UNL     1      12.669   5.224   4.479  1.00  0.00     0.014 A 
ATOM     42  C   UNL     1      10.503   6.102   3.837  1.00  0.00     0.014 A 
ATOM     43  C   UNL     1      13.289   6.165   3.654  1.00  0.00     0.010 A 
ATOM     44  C   UNL     1      11.120   6.995   2.965  1.00  0.00     0.010 A 
ATOM     45  C   UNL     1      12.519   7.041   2.871  1.00  0.00    -0.014 A 
BRANCH  45  46
ATOM     46  C   UNL     1      13.160   8.028   1.965  1.00  0.00     0.031 A 
ATOM     47  C   UNL     1      13.005   9.501   2.230  1.00  0.00     0.074 A 
ATOM     48  C   UNL     1      13.825   7.599   0.875  1.00  0.00     0.049 A 
ATOM     49  N   UNL     1      13.416  10.519   1.519  1.00  0.00    -0.248 NA
ATOM     50  C   UNL     1      12.260   9.876   3.441  1.00  0.00     0.031 C 
ATOM     51  C   UNL     1      14.008   6.197   0.495  1.00  0.00     0.029 A 
ATOM     52  N   UNL     1      14.464   8.297  -0.119  1.00  0.00    -0.354 N 
ATOM     53  C   UNL     1      12.969  11.654   2.187  1.00  0.00     0.074 A 
ATOM     54  C   UNL     1      12.204  11.194   3.327  1.00  0.00     0.031 C 
ATOM     55  C   UNL     1      14.727   6.138  -0.638  1.00  0.00     0.029 A 
ATOM     56  C   UNL     1      15.020   7.495  -1.088  1.00  0.00     0.049 A 
ATOM     57  H   UNL     1      14.518   9.280  -0.137  1.00  0.00     0.167 HD
ATOM     58  C   UNL     1      13.195  12.958   1.890  1.00  0.00     0.034 A 
ATOM     59  C   UNL     1      15.682   7.818  -2.217  1.00  0.00     0.034 A 
ATOM     60  C   UNL     1      13.973  13.397   0.757  1.00  0.00     0.049 A 
ATOM     61  C   UNL     1      15.909   9.274  -2.535  1.00  0.00     0.074 A 
ATOM     62  C   UNL     1      14.313  14.688   0.391  1.00  0.00     0.029 A 
ATOM     63  N   UNL     1      14.529  12.556  -0.200  1.00  0.00    -0.354 N 
ATOM     64  N   UNL     1      15.521  10.336  -1.867  1.00  0.00    -0.248 NA
ATOM     65  C   UNL     1      16.672   9.574  -3.753  1.00  0.00     0.031 C 
ATOM     66  C   UNL     1      15.018  14.632  -0.817  1.00  0.00     0.029 A 
ATOM     67  C   UNL     1      15.183  13.302  -1.169  1.00  0.00     0.049 A 
ATOM     68  H   UNL     1      14.467  11.574  -0.190  1.00  0.00     0.167 HD
ATOM     69  C   UNL     1      16.020  11.429  -2.569  1.00  0.00     0.074 A 
ATOM     70  C   UNL     1      16.748  10.896  -3.703  1.00  0.00     0.031 C 
ATOM     71  C   UNL     1      15.894  12.754  -2.300  1.00  0.00     0.034 A 
BRANCH  58  72
ATOM     72  C   UNL     1      12.568  13.995   2.793  1.00  0.00     0.023 A 
ATOM     73  C   UNL     1      12.910  14.093   4.154  1.00  0.00     0.031 A 
ATOM     74  C   UNL     1      11.593  14.877   2.296  1.00  0.00     0.131 A 
ATOM     75  C   UNL     1      12.226  14.993   4.986  1.00  0.00     0.055 A 
ATOM     76  C   UNL     1      10.976  15.829   3.112  1.00  0.00     0.041 A 
ATOM     77  F   UNL     1      11.209  14.819   1.012  1.00  0.00    -0.206 F 
ATOM     78  C   UNL     1      11.279  15.879   4.469  1.00  0.00     0.022 A 
BRANCH  75  79
ATOM     79  S   UNL     1      12.486  14.884   6.778  1.00  0.00     0.124 S 
ATOM     80  O   UNL     1      12.076  13.508   7.051  1.00  0.00    -0.237 OA
ATOM     81  O   UNL     1      13.910  15.165   6.908  1.00  0.00    -0.237 OA
ATOM     82  O   UNL     1      11.594  15.909   7.316  1.00  0.00    -0.744 OA
ENDBRANCH  75  79
ENDBRANCH  58  72
BRANCH  59  83
ATOM     83  C   UNL     1      16.173   6.752  -3.135  1.00  0.00     0.023 A 
ATOM     84  C   UNL     1      17.546   6.554  -3.344  1.00  0.00     0.031 A 
ATOM     85  C   UNL     1      15.273   5.938  -3.847  1.00  0.00     0.131 A 
ATOM     86  C   UNL     1      17.982   5.598  -4.276  1.00  0.00     0.055 A 
ATOM     87  C   UNL     1      15.712   4.954  -4.734  1.00  0.00     0.041 A 
ATOM     88  F   UNL     1      13.949   6.082  -3.679  1.00  0.00    -0.206 F 
ATOM     89  C   UNL     1      17.075   4.789  -4.963  1.00  0.00     0.022 A 
BRANCH  86  90
ATOM     90  S   UNL     1      19.756   5.484  -4.636  1.00  0.00     0.124 S 
ATOM     91  O   UNL     1      20.056   6.839  -5.084  1.00  0.00    -0.237 OA
ATOM     92  O   UNL     1      20.304   5.101  -3.340  1.00  0.00    -0.237 OA
ATOM     93  O   UNL     1      19.827   4.454  -5.670  1.00  0.00    -0.744 OA
ENDBRANCH  86  90
ENDBRANCH  59  83
BRANCH  71  94
ATOM     94  C   UNL     1      16.600  13.710  -3.230  1.00  0.00     0.023 A 
ATOM     95  C   UNL     1      16.198  13.875  -4.566  1.00  0.00     0.031 A 
ATOM     96  C   UNL     1      17.701  14.455  -2.772  1.00  0.00     0.131 A 
ATOM     97  C   UNL     1      16.925  14.723  -5.415  1.00  0.00     0.055 A 
ATOM     98  C   UNL     1      18.385  15.342  -3.604  1.00  0.00     0.041 A 
ATOM     99  F   UNL     1      18.128  14.335  -1.505  1.00  0.00    -0.206 F 
ATOM    100  C   UNL     1      18.006  15.470  -4.938  1.00  0.00     0.022 A 
BRANCH  97 101
ATOM    101  S   UNL     1      16.494  14.773  -7.176  1.00  0.00     0.124 S 
ATOM    102  O   UNL     1      16.672  13.380  -7.572  1.00  0.00    -0.237 OA
ATOM    103  O   UNL     1      15.117  15.257  -7.147  1.00  0.00    -0.237 OA
ATOM    104  O   UNL     1      17.466  15.707  -7.741  1.00  0.00    -0.744 OA
ENDBRANCH  97 101
ENDBRANCH  71  94
ENDBRANCH  45  46
ENDBRANCH  37  40
ENDBRANCH  35  36
ENDBRANCH  34  35
ENDBRANCH  33  34
ENDBRANCH  32  33
ENDBRANCH   1  32
TORSDOF 21
