REMARK SMILES O=C(Cc1ccccc1F)NC[C@@H]1CC[C@@H](C(=O)NCCCCCCNC(=O)c2ccc(-c3c4nc(c(-c5cc(S(=O)(=O)[O-])ccc5F)c5ccc([nH]5)c(-c5cc(S(=O)(=O)[O-])ccc5F)c5nc(c(-c6cc(S(=O)(=O)[O-])ccc6F)c6ccc3[nH]6)C=C5)C=C4)cc2)O1
REMARK SMILES IDX 22 1 21 2 20 3 19 4 17 5 18 6 16 8 13 9 14 10 92 11 15 12
REMARK SMILES IDX 12 13 11 14 1 15 2 16 3 18 4 19 5 20 9 21 6 22 8 23 10 24
REMARK SMILES IDX 7 25 23 26 24 27 25 28 26 29 27 30 28 32 29 33 30 34 91 35
REMARK SMILES IDX 31 36 90 37 32 38 33 39 34 40 84 41 35 42 89 43 83 44 85 45
REMARK SMILES IDX 36 46 88 47 82 48 81 49 37 51 69 52 49 53 68 54 50 55 53 56
REMARK SMILES IDX 67 57 86 58 51 59 52 60 66 62 87 63 54 64 38 65 39 66 47 67
REMARK SMILES IDX 40 68 46 69 48 70 45 71 41 72 42 73 43 74 44 75 70 76 71 77
REMARK SMILES IDX 79 78 72 79 78 80 80 81 77 82 73 83 74 84 75 85 76 86 55 87
REMARK SMILES IDX 56 88 64 89 57 90 63 91 65 92 62 93 58 94 59 95 60 96 61 97
REMARK H PARENT 19 7 11 17 26 31 85 50 53 61
REMARK Flexibility Score: inf
ROOT
ATOM      1  C   UNL     1       7.196   6.061  -0.007  1.00  0.00     0.002 C 
ENDROOT
BRANCH   1   2
ATOM      2  C   UNL     1       5.779   5.489  -0.097  1.00  0.00     0.021 C 
BRANCH   2   3
ATOM      3  C   UNL     1       4.866   6.139  -1.130  1.00  0.00     0.116 C 
BRANCH   3   4
ATOM      4  N   UNL     1       5.325   5.972  -2.494  1.00  0.00    -0.354 N 
ATOM      5  C   UNL     1       4.770   5.267  -3.522  1.00  0.00     0.249 C 
ATOM      6  O   UNL     1       5.296   5.360  -4.636  1.00  0.00    -0.272 OA
ATOM      7  H   UNL     1       6.164   6.438  -2.712  1.00  0.00     0.163 HD
BRANCH   5   8
ATOM      8  C   UNL     1       3.522   4.394  -3.314  1.00  0.00     0.207 C 
ATOM      9  C   UNL     1       2.410   3.231  -1.618  1.00  0.00     0.138 C 
ATOM     10  C   UNL     1       1.404   4.161  -2.283  1.00  0.00     0.037 C 
ATOM     11  O   UNL     1       3.680   3.429  -2.267  1.00  0.00    -0.363 OA
ATOM     12  C   UNL     1       2.248   5.168  -3.026  1.00  0.00     0.045 C 
BRANCH   9  13
ATOM     13  C   UNL     1       1.995   1.758  -1.730  1.00  0.00     0.147 C 
BRANCH  13  14
ATOM     14  N   UNL     1       2.794   0.914  -0.858  1.00  0.00    -0.353 N 
ATOM     15  O   UNL     1       1.037  -0.340  -0.085  1.00  0.00    -0.275 OA
ATOM     16  C   UNL     1       2.238  -0.082  -0.082  1.00  0.00     0.224 C 
ATOM     17  H   UNL     1       3.767   1.058  -0.819  1.00  0.00     0.163 HD
BRANCH  16  18
ATOM     18  C   UNL     1       3.228  -0.816   0.804  1.00  0.00     0.138 C 
BRANCH  18  19
ATOM     19  C   UNL     1       3.979  -1.901   0.079  1.00  0.00    -0.003 A 
ATOM     20  C   UNL     1       5.127  -1.607  -0.672  1.00  0.00     0.007 A 
ATOM     21  C   UNL     1       3.539  -3.227   0.130  1.00  0.00     0.126 A 
ATOM     22  C   UNL     1       5.808  -2.620  -1.352  1.00  0.00     0.001 A 
ATOM     23  C   UNL     1       4.220  -4.242  -0.538  1.00  0.00     0.039 A 
ATOM     24  F   UNL     1       2.453  -3.547   0.847  1.00  0.00    -0.207 F 
ATOM     25  C   UNL     1       5.356  -3.937  -1.284  1.00  0.00     0.003 A 
ENDBRANCH  18  19
ENDBRANCH  16  18
ENDBRANCH  13  14
ENDBRANCH   9  13
ENDBRANCH   5   8
ENDBRANCH   3   4
ENDBRANCH   2   3
ENDBRANCH   1   2
BRANCH   1  26
ATOM     26  C   UNL     1       7.307   7.579   0.161  1.00  0.00     0.002 C 
BRANCH  26  27
ATOM     27  C   UNL     1       6.487   8.198   1.296  1.00  0.00     0.021 C 
BRANCH  27  28
ATOM     28  C   UNL     1       6.740   7.623   2.686  1.00  0.00     0.116 C 
BRANCH  28  29
ATOM     29  N   UNL     1       8.107   7.819   3.127  1.00  0.00    -0.352 N 
ATOM     30  C   UNL     1       8.582   8.353   4.301  1.00  0.00     0.251 C 
ATOM     31  H   UNL     1       8.799   7.526   2.491  1.00  0.00     0.163 HD
ATOM     32  O   UNL     1       9.781   8.596   4.406  1.00  0.00    -0.269 OA
BRANCH  30  33
ATOM     33  C   UNL     1       7.661   8.654   5.423  1.00  0.00     0.039 A 
ATOM     34  C   UNL     1       7.852   9.835   6.146  1.00  0.00     0.014 A 
ATOM     35  C   UNL     1       6.644   7.769   5.794  1.00  0.00     0.014 A 
ATOM     36  C   UNL     1       6.999  10.148   7.209  1.00  0.00     0.010 A 
ATOM     37  C   UNL     1       5.753   8.114   6.810  1.00  0.00     0.010 A 
ATOM     38  C   UNL     1       5.927   9.302   7.535  1.00  0.00    -0.014 A 
BRANCH  38  39
ATOM     39  C   UNL     1       5.001   9.636   8.650  1.00  0.00     0.031 A 
ATOM     40  C   UNL     1       4.945   8.761   9.874  1.00  0.00     0.074 A 
ATOM     41  C   UNL     1       4.195  10.712   8.552  1.00  0.00     0.049 A 
ATOM     42  N   UNL     1       4.173   8.860  10.925  1.00  0.00    -0.248 NA
ATOM     43  C   UNL     1       5.862   7.611   9.912  1.00  0.00     0.031 C 
ATOM     44  C   UNL     1       4.141  11.624   7.407  1.00  0.00     0.029 A 
ATOM     45  N   UNL     1       3.271  11.226   9.428  1.00  0.00    -0.354 N 
ATOM     46  C   UNL     1       4.503   7.785  11.743  1.00  0.00     0.074 A 
ATOM     47  C   UNL     1       5.508   7.016  11.042  1.00  0.00     0.031 C 
ATOM     48  C   UNL     1       3.261  12.605   7.668  1.00  0.00     0.029 A 
ATOM     49  C   UNL     1       2.656  12.371   8.975  1.00  0.00     0.049 A 
ATOM     50  H   UNL     1       3.067  10.815  10.299  1.00  0.00     0.167 HD
ATOM     51  C   UNL     1       4.029   7.482  12.976  1.00  0.00     0.034 A 
ATOM     52  C   UNL     1       1.707  13.143   9.544  1.00  0.00     0.034 A 
ATOM     53  C   UNL     1       3.053   8.272  13.679  1.00  0.00     0.049 A 
ATOM     54  C   UNL     1       1.176  12.769  10.902  1.00  0.00     0.074 A 
ATOM     55  C   UNL     1       2.551   8.081  14.955  1.00  0.00     0.029 A 
ATOM     56  N   UNL     1       2.430   9.403  13.171  1.00  0.00    -0.354 N 
ATOM     57  N   UNL     1       1.509  11.754  11.664  1.00  0.00    -0.248 NA
ATOM     58  C   UNL     1       0.140  13.639  11.476  1.00  0.00     0.031 C 
ATOM     59  C   UNL     1       1.583   9.060  15.196  1.00  0.00     0.029 A 
ATOM     60  C   UNL     1       1.527   9.902  14.096  1.00  0.00     0.049 A 
ATOM     61  H   UNL     1       2.604   9.794  12.285  1.00  0.00     0.167 HD
ATOM     62  C   UNL     1       0.737  11.874  12.815  1.00  0.00     0.074 A 
ATOM     63  C   UNL     1      -0.077  13.061  12.650  1.00  0.00     0.031 C 
ATOM     64  C   UNL     1       0.711  11.076  13.911  1.00  0.00     0.034 A 
BRANCH  51  65
ATOM     65  C   UNL     1       4.555   6.237  13.643  1.00  0.00     0.023 A 
ATOM     66  C   UNL     1       5.889   6.142  14.073  1.00  0.00     0.031 A 
ATOM     67  C   UNL     1       3.703   5.143  13.876  1.00  0.00     0.131 A 
ATOM     68  C   UNL     1       6.346   4.961  14.675  1.00  0.00     0.055 A 
ATOM     69  C   UNL     1       4.147   3.995  14.534  1.00  0.00     0.041 A 
ATOM     70  F   UNL     1       2.424   5.175  13.470  1.00  0.00    -0.206 F 
ATOM     71  C   UNL     1       5.478   3.896  14.931  1.00  0.00     0.022 A 
BRANCH  68  72
ATOM     72  S   UNL     1       8.112   4.803  15.051  1.00  0.00     0.124 S 
ATOM     73  O   UNL     1       8.698   4.819  13.713  1.00  0.00    -0.237 OA
ATOM     74  O   UNL     1       8.368   5.979  15.874  1.00  0.00    -0.237 OA
ATOM     75  O   UNL     1       8.201   3.523  15.749  1.00  0.00    -0.744 OA
ENDBRANCH  68  72
ENDBRANCH  51  65
BRANCH  52  76
ATOM     76  C   UNL     1       1.196  14.341   8.824  1.00  0.00     0.023 A 
ATOM     77  C   UNL     1       1.495  15.636   9.274  1.00  0.00     0.031 A 
ATOM     78  C   UNL     1       0.412  14.206   7.664  1.00  0.00     0.131 A 
ATOM     79  C   UNL     1       0.996  16.749   8.578  1.00  0.00     0.055 A 
ATOM     80  C   UNL     1      -0.051  15.315   6.955  1.00  0.00     0.041 A 
ATOM     81  F   UNL     1       0.109  12.988   7.189  1.00  0.00    -0.206 F 
ATOM     82  C   UNL     1       0.237  16.597   7.414  1.00  0.00     0.022 A 
BRANCH  79  83
ATOM     83  S   UNL     1       1.338  18.409   9.225  1.00  0.00     0.124 S 
ATOM     84  O   UNL     1       0.622  18.384  10.495  1.00  0.00    -0.237 OA
ATOM     85  O   UNL     1       2.795  18.410   9.308  1.00  0.00    -0.237 OA
ATOM     86  O   UNL     1       0.776  19.293   8.206  1.00  0.00    -0.744 OA
ENDBRANCH  79  83
ENDBRANCH  52  76
BRANCH  64  87
ATOM     87  C   UNL     1      -0.212  11.463  15.034  1.00  0.00     0.023 A 
ATOM     88  C   UNL     1      -1.601  11.285  14.933  1.00  0.00     0.031 A 
ATOM     89  C   UNL     1       0.315  11.947  16.244  1.00  0.00     0.131 A 
ATOM     90  C   UNL     1      -2.423  11.606  16.024  1.00  0.00     0.055 A 
ATOM     91  C   UNL     1      -0.503  12.225  17.339  1.00  0.00     0.041 A 
ATOM     92  F   UNL     1       1.638  12.129  16.389  1.00  0.00    -0.206 F 
ATOM     93  C   UNL     1      -1.881  12.057  17.231  1.00  0.00     0.022 A 
BRANCH  90  94
ATOM     94  S   UNL     1      -4.219  11.437  15.843  1.00  0.00     0.124 S 
ATOM     95  O   UNL     1      -4.521  12.469  14.857  1.00  0.00    -0.237 OA
ATOM     96  O   UNL     1      -4.364  10.058  15.387  1.00  0.00    -0.237 OA
ATOM     97  O   UNL     1      -4.725  11.697  17.190  1.00  0.00    -0.744 OA
ENDBRANCH  90  94
ENDBRANCH  64  87
ENDBRANCH  38  39
ENDBRANCH  30  33
ENDBRANCH  28  29
ENDBRANCH  27  28
ENDBRANCH  26  27
ENDBRANCH   1  26
TORSDOF 20
