REMARK SMILES COc1ccc(C(=O)NCCCCCCNC(=O)c2ccc(-c3c4nc(c(-c5cc(S(=O)(=O)[O-])ccc5F)c5ccc([nH]5)c(-c5cc(S(=O)(=O)[O-])ccc5F)c5nc(c(-c6cc(S(=O)(=O)[O-])ccc6F)c6ccc3[nH]6)C=C5)C=C4)cc2)cc1NC(=O)c1ccccc1[N+](=O)[O-]
REMARK SMILES IDX 12 1 11 2 10 3 9 4 7 5 8 6 6 8 3 9 4 10 83 11 5 12 82 13
REMARK SMILES IDX 2 14 1 15 84 16 85 17 86 19 87 20 88 21 92 22 89 23 91 24
REMARK SMILES IDX 90 25 93 26 94 27 95 28 13 29 14 30 15 31 16 32 17 33 18 35
REMARK SMILES IDX 19 36 20 37 81 38 21 39 80 40 22 41 23 42 24 43 74 44 25 45
REMARK SMILES IDX 79 46 73 47 75 48 26 49 78 50 72 51 71 52 27 54 59 55 39 56
REMARK SMILES IDX 58 57 40 58 43 59 57 60 76 61 41 62 42 63 56 65 77 66 44 67
REMARK SMILES IDX 28 68 29 69 37 70 30 71 36 72 38 73 35 74 31 75 32 76 33 77
REMARK SMILES IDX 34 78 60 79 61 80 69 81 62 82 68 83 70 84 67 85 63 86 64 87
REMARK SMILES IDX 65 88 66 89 45 90 46 91 54 92 47 93 53 94 55 95 52 96 48 97
REMARK SMILES IDX 49 98 50 99 51 100
REMARK H PARENT 9 7 84 18 16 34 75 53 43 64
REMARK Flexibility Score: inf
ROOT
ATOM      1  C   UNL     1       6.179   7.803  -2.693  1.00  0.00     0.002 C 
ENDROOT
BRANCH   1   2
ATOM      2  C   UNL     1       5.505   6.433  -2.515  1.00  0.00     0.021 C 
BRANCH   2   3
ATOM      3  C   UNL     1       4.232   6.457  -1.662  1.00  0.00     0.116 C 
BRANCH   3   4
ATOM      4  N   UNL     1       3.059   6.719  -2.478  1.00  0.00    -0.352 N 
ATOM      5  C   UNL     1       1.892   6.038  -2.714  1.00  0.00     0.251 C 
ATOM      6  O   UNL     1       1.029   6.636  -3.362  1.00  0.00    -0.269 OA
ATOM      7  H   UNL     1       3.113   7.571  -2.967  1.00  0.00     0.163 HD
BRANCH   5   8
ATOM      8  C   UNL     1       1.589   4.652  -2.245  1.00  0.00     0.042 A 
ATOM      9  C   UNL     1       0.775   2.032  -1.623  1.00  0.00     0.142 A 
ATOM     10  C   UNL     1      -0.183   3.003  -1.879  1.00  0.00     0.049 A 
ATOM     11  C   UNL     1       2.140   2.358  -1.644  1.00  0.00     0.084 A 
ATOM     12  C   UNL     1       0.224   4.309  -2.162  1.00  0.00     0.018 A 
ATOM     13  C   UNL     1       2.544   3.654  -2.005  1.00  0.00     0.044 A 
BRANCH   9  14
ATOM     14  O   UNL     1       0.344   0.743  -1.428  1.00  0.00    -0.495 OA
ATOM     15  C   UNL     1       0.317   0.391  -0.042  1.00  0.00     0.278 C 
ENDBRANCH   9  14
BRANCH  11  16
ATOM     16  N   UNL     1       3.044   1.334  -1.325  1.00  0.00    -0.319 N 
ATOM     17  C   UNL     1       4.271   1.345  -0.714  1.00  0.00     0.262 C 
ATOM     18  H   UNL     1       2.740   0.436  -1.590  1.00  0.00     0.170 HD
ATOM     19  O   UNL     1       4.946   0.320  -0.685  1.00  0.00    -0.269 OA
BRANCH  17  20
ATOM     20  C   UNL     1       4.804   2.542  -0.032  1.00  0.00     0.117 A 
ATOM     21  C   UNL     1       6.127   2.889  -0.340  1.00  0.00     0.021 A 
ATOM     22  C   UNL     1       4.129   3.288   0.942  1.00  0.00     0.282 A 
ATOM     23  C   UNL     1       6.737   3.979   0.285  1.00  0.00     0.001 A 
ATOM     24  C   UNL     1       4.722   4.408   1.546  1.00  0.00     0.086 A 
ATOM     25  C   UNL     1       6.031   4.747   1.213  1.00  0.00     0.007 A 
BRANCH  22  26
ATOM     26  N   UNL     1       2.814   2.908   1.415  1.00  0.00     0.063 N 
ATOM     27  O   UNL     1       1.948   3.795   1.437  1.00  0.00    -0.258 OA
ATOM     28  O   UNL     1       2.655   1.745   1.801  1.00  0.00    -0.258 OA
ENDBRANCH  22  26
ENDBRANCH  17  20
ENDBRANCH  11  16
ENDBRANCH   5   8
ENDBRANCH   3   4
ENDBRANCH   2   3
ENDBRANCH   1   2
BRANCH   1  29
ATOM     29  C   UNL     1       6.867   8.390  -1.450  1.00  0.00     0.002 C 
BRANCH  29  30
ATOM     30  C   UNL     1       7.896   7.496  -0.750  1.00  0.00     0.021 C 
BRANCH  30  31
ATOM     31  C   UNL     1       9.056   6.986  -1.605  1.00  0.00     0.116 C 
BRANCH  31  32
ATOM     32  N   UNL     1      10.030   8.024  -1.875  1.00  0.00    -0.352 N 
ATOM     33  C   UNL     1      11.362   8.106  -1.539  1.00  0.00     0.251 C 
ATOM     34  H   UNL     1       9.684   8.795  -2.380  1.00  0.00     0.163 HD
ATOM     35  O   UNL     1      11.935   9.184  -1.675  1.00  0.00    -0.269 OA
BRANCH  33  36
ATOM     36  C   UNL     1      12.112   6.938  -1.006  1.00  0.00     0.039 A 
ATOM     37  C   UNL     1      13.070   7.162  -0.010  1.00  0.00     0.014 A 
ATOM     38  C   UNL     1      11.958   5.649  -1.526  1.00  0.00     0.014 A 
ATOM     39  C   UNL     1      13.841   6.102   0.484  1.00  0.00     0.010 A 
ATOM     40  C   UNL     1      12.691   4.580  -0.994  1.00  0.00     0.010 A 
ATOM     41  C   UNL     1      13.650   4.795   0.008  1.00  0.00    -0.014 A 
BRANCH  41  42
ATOM     42  C   UNL     1      14.470   3.665   0.532  1.00  0.00     0.031 A 
ATOM     43  C   UNL     1      15.461   2.961  -0.360  1.00  0.00     0.074 A 
ATOM     44  C   UNL     1      14.310   3.249   1.804  1.00  0.00     0.049 A 
ATOM     45  N   UNL     1      16.242   1.944  -0.094  1.00  0.00    -0.248 NA
ATOM     46  C   UNL     1      15.569   3.453  -1.741  1.00  0.00     0.031 C 
ATOM     47  C   UNL     1      13.365   3.820   2.766  1.00  0.00     0.029 A 
ATOM     48  N   UNL     1      14.933   2.248   2.508  1.00  0.00    -0.354 N 
ATOM     49  C   UNL     1      16.927   1.667  -1.273  1.00  0.00     0.074 A 
ATOM     50  C   UNL     1      16.425   2.591  -2.269  1.00  0.00     0.031 C 
ATOM     51  C   UNL     1      13.483   3.172   3.936  1.00  0.00     0.029 A 
ATOM     52  C   UNL     1      14.487   2.119   3.803  1.00  0.00     0.049 A 
ATOM     53  H   UNL     1      15.635   1.675   2.122  1.00  0.00     0.167 HD
ATOM     54  C   UNL     1      17.897   0.744  -1.502  1.00  0.00     0.034 A 
ATOM     55  C   UNL     1      14.838   1.251   4.773  1.00  0.00     0.034 A 
ATOM     56  C   UNL     1      18.402  -0.165  -0.500  1.00  0.00     0.049 A 
ATOM     57  C   UNL     1      15.909   0.227   4.494  1.00  0.00     0.074 A 
ATOM     58  C   UNL     1      19.423  -1.095  -0.615  1.00  0.00     0.029 A 
ATOM     59  N   UNL     1      17.922  -0.267   0.799  1.00  0.00    -0.354 N 
ATOM     60  N   UNL     1      16.580   0.015   3.386  1.00  0.00    -0.248 NA
ATOM     61  C   UNL     1      16.277  -0.664   5.602  1.00  0.00     0.031 C 
ATOM     62  C   UNL     1      19.518  -1.798   0.593  1.00  0.00     0.029 A 
ATOM     63  C   UNL     1      18.603  -1.263   1.484  1.00  0.00     0.049 A 
ATOM     64  H   UNL     1      17.202   0.287   1.178  1.00  0.00     0.167 HD
ATOM     65  C   UNL     1      17.465  -1.021   3.674  1.00  0.00     0.074 A 
ATOM     66  C   UNL     1      17.256  -1.374   5.063  1.00  0.00     0.031 C 
ATOM     67  C   UNL     1      18.372  -1.624   2.863  1.00  0.00     0.034 A 
BRANCH  54  68
ATOM     68  C   UNL     1      18.455   0.659  -2.904  1.00  0.00     0.023 A 
ATOM     69  C   UNL     1      19.158   1.728  -3.485  1.00  0.00     0.031 A 
ATOM     70  C   UNL     1      18.261  -0.498  -3.679  1.00  0.00     0.131 A 
ATOM     71  C   UNL     1      19.573   1.651  -4.823  1.00  0.00     0.055 A 
ATOM     72  C   UNL     1      18.746  -0.600  -4.985  1.00  0.00     0.041 A 
ATOM     73  F   UNL     1      17.583  -1.546  -3.185  1.00  0.00    -0.206 F 
ATOM     74  C   UNL     1      19.393   0.484  -5.570  1.00  0.00     0.022 A 
BRANCH  71  75
ATOM     75  S   UNL     1      20.224   3.146  -5.616  1.00  0.00     0.124 S 
ATOM     76  O   UNL     1      19.099   4.068  -5.474  1.00  0.00    -0.237 OA
ATOM     77  O   UNL     1      21.401   3.444  -4.810  1.00  0.00    -0.237 OA
ATOM     78  O   UNL     1      20.498   2.716  -6.986  1.00  0.00    -0.744 OA
ENDBRANCH  71  75
ENDBRANCH  54  68
BRANCH  55  79
ATOM     79  C   UNL     1      14.167   1.296   6.103  1.00  0.00     0.023 A 
ATOM     80  C   UNL     1      14.876   1.655   7.261  1.00  0.00     0.031 A 
ATOM     81  C   UNL     1      12.815   0.936   6.240  1.00  0.00     0.131 A 
ATOM     82  C   UNL     1      14.241   1.606   8.511  1.00  0.00     0.055 A 
ATOM     83  C   UNL     1      12.176   0.933   7.481  1.00  0.00     0.041 A 
ATOM     84  F   UNL     1      12.091   0.593   5.163  1.00  0.00    -0.206 F 
ATOM     85  C   UNL     1      12.894   1.257   8.628  1.00  0.00     0.022 A 
BRANCH  82  86
ATOM     86  S   UNL     1      15.226   1.937   9.998  1.00  0.00     0.124 S 
ATOM     87  O   UNL     1      16.266   0.919   9.900  1.00  0.00    -0.237 OA
ATOM     88  O   UNL     1      15.653   3.315   9.776  1.00  0.00    -0.237 OA
ATOM     89  O   UNL     1      14.270   1.752  11.088  1.00  0.00    -0.744 OA
ENDBRANCH  82  86
ENDBRANCH  55  79
BRANCH  67  90
ATOM     90  C   UNL     1      19.222  -2.708   3.479  1.00  0.00     0.023 A 
ATOM     91  C   UNL     1      18.668  -3.931   3.897  1.00  0.00     0.031 A 
ATOM     92  C   UNL     1      20.598  -2.503   3.681  1.00  0.00     0.131 A 
ATOM     93  C   UNL     1      19.473  -4.877   4.551  1.00  0.00     0.055 A 
ATOM     94  C   UNL     1      21.406  -3.471   4.281  1.00  0.00     0.041 A 
ATOM     95  F   UNL     1      21.180  -1.353   3.304  1.00  0.00    -0.206 F 
ATOM     96  C   UNL     1      20.841  -4.660   4.732  1.00  0.00     0.022 A 
BRANCH  93  97
ATOM     97  S   UNL     1      18.688  -6.356   5.249  1.00  0.00     0.124 S 
ATOM     98  O   UNL     1      17.702  -5.778   6.157  1.00  0.00    -0.237 OA
ATOM     99  O   UNL     1      18.151  -7.014   4.062  1.00  0.00    -0.237 OA
ATOM    100  O   UNL     1      19.793  -7.058   5.899  1.00  0.00    -0.744 OA
ENDBRANCH  93  97
ENDBRANCH  67  90
ENDBRANCH  41  42
ENDBRANCH  33  36
ENDBRANCH  31  32
ENDBRANCH  30  31
ENDBRANCH  29  30
ENDBRANCH   1  29
TORSDOF 20
