REMARK SMILES N#Cc1cccc(CSc2ccnc(C(=O)NCCCCCCNC(=O)c3ccc(-c4c5nc(c(-c6cc(S(=O)(=O)[O-])ccc6F)c6ccc([nH]6)c(-c6cc(S(=O)(=O)[O-])ccc6F)c6nc(c(-c7cc(S(=O)(=O)[O-])ccc7F)c7ccc4[nH]7)C=C6)C=C5)cc3)c2)c1
REMARK SMILES IDX 20 1 19 2 18 3 17 4 15 5 16 6 14 8 10 9 11 10 90 11 12 12
REMARK SMILES IDX 13 13 9 14 8 15 7 16 3 17 4 18 91 19 5 20 6 21 2 22 1 23
REMARK SMILES IDX 21 24 22 25 23 26 24 27 25 28 26 30 27 31 28 32 89 33 29 34
REMARK SMILES IDX 88 35 30 36 31 37 32 38 82 39 33 40 87 41 81 42 83 43 34 44
REMARK SMILES IDX 86 45 80 46 79 47 35 49 67 50 47 51 66 52 48 53 51 54 65 55
REMARK SMILES IDX 84 56 49 57 50 58 64 60 85 61 52 62 36 63 37 64 45 65 38 66
REMARK SMILES IDX 44 67 46 68 43 69 39 70 40 71 41 72 42 73 68 74 69 75 77 76
REMARK SMILES IDX 70 77 76 78 78 79 75 80 71 81 72 82 73 83 74 84 53 85 54 86
REMARK SMILES IDX 62 87 55 88 61 89 63 90 60 91 56 92 57 93 58 94 59 95
REMARK H PARENT 17 7 24 29 83 48 51 59
REMARK Flexibility Score: inf
ROOT
ATOM      1  C   UNL     1       0.435  -8.563  -3.306  1.00  0.00     0.002 C 
ENDROOT
BRANCH   1   2
ATOM      2  C   UNL     1       0.725  -7.149  -2.808  1.00  0.00     0.021 C 
BRANCH   2   3
ATOM      3  C   UNL     1       1.750  -6.389  -3.639  1.00  0.00     0.116 C 
BRANCH   3   4
ATOM      4  N   UNL     1       1.176  -5.804  -4.835  1.00  0.00    -0.351 N 
ATOM      5  C   UNL     1       1.021  -4.520  -5.310  1.00  0.00     0.269 C 
ATOM      6  O   UNL     1       0.418  -4.421  -6.383  1.00  0.00    -0.268 OA
ATOM      7  H   UNL     1       0.814  -6.481  -5.451  1.00  0.00     0.163 HD
BRANCH   5   8
ATOM      8  C   UNL     1       1.505  -3.272  -4.613  1.00  0.00     0.129 A 
ATOM      9  C   UNL     1       2.721  -2.056  -2.943  1.00  0.00     0.011 A 
ATOM     10  C   UNL     1       2.186  -0.873  -3.429  1.00  0.00     0.035 A 
ATOM     11  C   UNL     1       2.442  -3.253  -3.596  1.00  0.00     0.049 A 
ATOM     12  C   UNL     1       1.332  -0.953  -4.510  1.00  0.00     0.113 A 
ATOM     13  N   UNL     1       0.956  -2.117  -5.080  1.00  0.00    -0.251 NA
BRANCH   9  14
ATOM     14  S   UNL     1       3.772  -2.102  -1.504  1.00  0.00    -0.121 SA
BRANCH  14  15
ATOM     15  C   UNL     1       2.493  -2.281  -0.188  1.00  0.00     0.110 C 
BRANCH  15  16
ATOM     16  C   UNL     1       1.649  -1.036  -0.031  1.00  0.00    -0.036 A 
ATOM     17  C   UNL     1      -0.521   0.069  -0.008  1.00  0.00     0.052 A 
ATOM     18  C   UNL     1       0.113   1.311   0.102  1.00  0.00     0.019 A 
ATOM     19  C   UNL     1       0.246  -1.103  -0.075  1.00  0.00     0.024 A 
ATOM     20  C   UNL     1       1.501   1.382   0.190  1.00  0.00     0.002 A 
ATOM     21  C   UNL     1       2.260   0.215   0.149  1.00  0.00     0.004 A 
BRANCH  17  22
ATOM     22  C   UNL     1      -1.951   0.007  -0.062  1.00  0.00     0.099 C 
ATOM     23  N   UNL     1      -3.113  -0.022  -0.105  1.00  0.00    -0.192 NA
ENDBRANCH  17  22
ENDBRANCH  15  16
ENDBRANCH  14  15
ENDBRANCH   9  14
ENDBRANCH   5   8
ENDBRANCH   3   4
ENDBRANCH   2   3
ENDBRANCH   1   2
BRANCH   1  24
ATOM     24  C   UNL     1       1.671  -9.453  -3.481  1.00  0.00     0.002 C 
BRANCH  24  25
ATOM     25  C   UNL     1       2.606  -9.514  -2.268  1.00  0.00     0.021 C 
BRANCH  25  26
ATOM     26  C   UNL     1       1.940 -10.017  -0.993  1.00  0.00     0.116 C 
BRANCH  26  27
ATOM     27  N   UNL     1       1.409 -11.358  -1.167  1.00  0.00    -0.352 N 
ATOM     28  C   UNL     1       1.721 -12.508  -0.490  1.00  0.00     0.251 C 
ATOM     29  H   UNL     1       0.729 -11.454  -1.872  1.00  0.00     0.163 HD
ATOM     30  O   UNL     1       1.396 -13.596  -0.955  1.00  0.00    -0.269 OA
BRANCH  28  31
ATOM     31  C   UNL     1       2.458 -12.425   0.788  1.00  0.00     0.039 A 
ATOM     32  C   UNL     1       3.475 -13.345   1.045  1.00  0.00     0.014 A 
ATOM     33  C   UNL     1       2.139 -11.444   1.732  1.00  0.00     0.014 A 
ATOM     34  C   UNL     1       4.206 -13.248   2.230  1.00  0.00     0.010 A 
ATOM     35  C   UNL     1       2.926 -11.294   2.868  1.00  0.00     0.010 A 
ATOM     36  C   UNL     1       3.962 -12.200   3.135  1.00  0.00    -0.014 A 
BRANCH  36  37
ATOM     37  C   UNL     1       4.780 -12.047   4.365  1.00  0.00     0.031 A 
ATOM     38  C   UNL     1       4.132 -12.144   5.720  1.00  0.00     0.074 A 
ATOM     39  C   UNL     1       6.097 -11.782   4.259  1.00  0.00     0.049 A 
ATOM     40  N   UNL     1       4.668 -11.995   6.904  1.00  0.00    -0.248 NA
ATOM     41  C   UNL     1       2.687 -12.417   5.746  1.00  0.00     0.031 C 
ATOM     42  C   UNL     1       6.828 -11.635   2.998  1.00  0.00     0.029 A 
ATOM     43  N   UNL     1       7.057 -11.591   5.221  1.00  0.00    -0.354 N 
ATOM     44  C   UNL     1       3.629 -12.152   7.814  1.00  0.00     0.074 A 
ATOM     45  C   UNL     1       2.420 -12.335   7.040  1.00  0.00     0.031 C 
ATOM     46  C   UNL     1       8.125 -11.418   3.264  1.00  0.00     0.029 A 
ATOM     47  C   UNL     1       8.311 -11.347   4.710  1.00  0.00     0.049 A 
ATOM     48  H   UNL     1       6.866 -11.626   6.186  1.00  0.00     0.167 HD
ATOM     49  C   UNL     1       3.683 -12.166   9.169  1.00  0.00     0.034 A 
ATOM     50  C   UNL     1       9.475 -11.078   5.333  1.00  0.00     0.034 A 
ATOM     51  C   UNL     1       4.900 -11.980   9.921  1.00  0.00     0.049 A 
ATOM     52  C   UNL     1       9.498 -11.040   6.841  1.00  0.00     0.074 A 
ATOM     53  C   UNL     1       5.076 -12.019  11.293  1.00  0.00     0.029 A 
ATOM     54  N   UNL     1       6.145 -11.703   9.371  1.00  0.00    -0.354 N 
ATOM     55  N   UNL     1       8.514 -11.237   7.688  1.00  0.00    -0.248 NA
ATOM     56  C   UNL     1      10.790 -10.752   7.476  1.00  0.00     0.031 C 
ATOM     57  C   UNL     1       6.400 -11.672  11.575  1.00  0.00     0.029 A 
ATOM     58  C   UNL     1       7.082 -11.524  10.378  1.00  0.00     0.049 A 
ATOM     59  H   UNL     1       6.335 -11.644   8.406  1.00  0.00     0.167 HD
ATOM     60  C   UNL     1       9.079 -11.134   8.957  1.00  0.00     0.074 A 
ATOM     61  C   UNL     1      10.490 -10.872   8.761  1.00  0.00     0.031 C 
ATOM     62  C   UNL     1       8.486 -11.251  10.172  1.00  0.00     0.034 A 
BRANCH  49  63
ATOM     63  C   UNL     1       2.385 -12.355   9.918  1.00  0.00     0.023 A 
ATOM     64  C   UNL     1       1.609 -13.519   9.775  1.00  0.00     0.031 A 
ATOM     65  C   UNL     1       1.905 -11.349  10.776  1.00  0.00     0.131 A 
ATOM     66  C   UNL     1       0.363 -13.613  10.412  1.00  0.00     0.055 A 
ATOM     67  C   UNL     1       0.709 -11.490  11.482  1.00  0.00     0.041 A 
ATOM     68  F   UNL     1       2.587 -10.203  10.935  1.00  0.00    -0.206 F 
ATOM     69  C   UNL     1      -0.078 -12.621  11.290  1.00  0.00     0.022 A 
BRANCH  66  70
ATOM     70  S   UNL     1      -0.745 -14.972   9.947  1.00  0.00     0.124 S 
ATOM     71  O   UNL     1      -0.871 -14.768   8.506  1.00  0.00    -0.237 OA
ATOM     72  O   UNL     1       0.009 -16.149  10.362  1.00  0.00    -0.237 OA
ATOM     73  O   UNL     1      -1.959 -14.703  10.715  1.00  0.00    -0.744 OA
ENDBRANCH  66  70
ENDBRANCH  49  63
BRANCH  50  74
ATOM     74  C   UNL     1      10.711 -10.803   4.543  1.00  0.00     0.023 A 
ATOM     75  C   UNL     1      11.844 -11.623   4.656  1.00  0.00     0.031 A 
ATOM     76  C   UNL     1      10.794  -9.681   3.697  1.00  0.00     0.131 A 
ATOM     77  C   UNL     1      13.027 -11.280   3.983  1.00  0.00     0.055 A 
ATOM     78  C   UNL     1      11.950  -9.383   2.975  1.00  0.00     0.041 A 
ATOM     79  F   UNL     1       9.742  -8.859   3.553  1.00  0.00    -0.206 F 
ATOM     80  C   UNL     1      13.082 -10.177   3.128  1.00  0.00     0.022 A 
BRANCH  77  81
ATOM     81  S   UNL     1      14.531 -12.233   4.331  1.00  0.00     0.124 S 
ATOM     82  O   UNL     1      14.658 -12.065   5.774  1.00  0.00    -0.237 OA
ATOM     83  O   UNL     1      14.159 -13.566   3.869  1.00  0.00    -0.237 OA
ATOM     84  O   UNL     1      15.551 -11.559   3.531  1.00  0.00    -0.744 OA
ENDBRANCH  77  81
ENDBRANCH  50  74
BRANCH  62  85
ATOM     85  C   UNL     1       9.376 -11.150  11.389  1.00  0.00     0.023 A 
ATOM     86  C   UNL     1      10.069  -9.970  11.710  1.00  0.00     0.031 A 
ATOM     87  C   UNL     1       9.540 -12.261  12.238  1.00  0.00     0.131 A 
ATOM     88  C   UNL     1      10.941  -9.948  12.808  1.00  0.00     0.055 A 
ATOM     89  C   UNL     1      10.347 -12.208  13.374  1.00  0.00     0.041 A 
ATOM     90  F   UNL     1       8.910 -13.418  11.978  1.00  0.00    -0.206 F 
ATOM     91  C   UNL     1      11.066 -11.051  13.656  1.00  0.00     0.022 A 
BRANCH  88  92
ATOM     92  S   UNL     1      12.005  -8.498  13.045  1.00  0.00     0.124 S 
ATOM     93  O   UNL     1      12.723  -8.441  11.776  1.00  0.00    -0.237 OA
ATOM     94  O   UNL     1      11.034  -7.433  13.276  1.00  0.00    -0.237 OA
ATOM     95  O   UNL     1      12.820  -8.856  14.204  1.00  0.00    -0.744 OA
ENDBRANCH  88  92
ENDBRANCH  62  85
ENDBRANCH  36  37
ENDBRANCH  28  31
ENDBRANCH  26  27
ENDBRANCH  25  26
ENDBRANCH  24  25
ENDBRANCH   1  24
TORSDOF 20
