REMARK SMILES CS(=O)(=O)c1ccc(-n2nc(C(F)(F)F)cc2-c2ccc(CC(=O)NCCCCCCNC(=O)c3ccc(-c4c5nc(c(-c6cc(S(=O)(=O)[O-])ccc6F)c6ccc([nH]6)c(-c6cc(S(=O)(=O)[O-])ccc6F)c6nc(c(-c7cc(S(=O)(=O)[O-])ccc7F)c7ccc4[nH]7)C=C6)C=C5)cc3)cc2)cc1
REMARK SMILES IDX 28 1 27 2 26 3 25 4 23 5 24 6 22 8 21 9 18 10 19 11 99 12
REMARK SMILES IDX 20 13 98 14 17 15 9 16 10 17 11 18 16 19 8 20 5 21 6 22
REMARK SMILES IDX 101 23 7 24 100 25 2 26 1 27 3 28 4 29 12 30 13 31 14 32
REMARK SMILES IDX 15 33 29 34 30 35 31 36 32 37 33 38 34 40 35 41 36 42 97 43
REMARK SMILES IDX 37 44 96 45 38 46 39 47 40 48 90 49 41 50 95 51 89 52 91 53
REMARK SMILES IDX 42 54 94 55 88 56 87 57 43 59 75 60 55 61 74 62 56 63 59 64
REMARK SMILES IDX 73 65 92 66 57 67 58 68 72 70 93 71 60 72 44 73 45 74 53 75
REMARK SMILES IDX 46 76 52 77 54 78 51 79 47 80 48 81 49 82 50 83 76 84 77 85
REMARK SMILES IDX 85 86 78 87 84 88 86 89 83 90 79 91 80 92 81 93 82 94 61 95
REMARK SMILES IDX 62 96 70 97 63 98 69 99 71 100 68 101 64 102 65 103 66 104
REMARK SMILES IDX 67 105
REMARK H PARENT 25 7 32 39 91 58 59 69
REMARK Flexibility Score: inf
ROOT
ATOM      1  C   UNL     1       2.885  -3.009   1.340  1.00  0.00     0.002 C 
ENDROOT
BRANCH   1   2
ATOM      2  C   UNL     1       3.609  -2.760   2.670  1.00  0.00     0.021 C 
BRANCH   2   3
ATOM      3  C   UNL     1       5.018  -3.348   2.741  1.00  0.00     0.116 C 
BRANCH   3   4
ATOM      4  N   UNL     1       5.923  -2.676   1.827  1.00  0.00    -0.356 N 
ATOM      5  C   UNL     1       7.034  -1.929   2.090  1.00  0.00     0.224 C 
ATOM      6  O   UNL     1       7.614  -1.393   1.143  1.00  0.00    -0.275 OA
ATOM      7  H   UNL     1       5.702  -2.774   0.873  1.00  0.00     0.163 HD
BRANCH   5   8
ATOM      8  C   UNL     1       7.577  -1.824   3.504  1.00  0.00     0.135 C 
BRANCH   8   9
ATOM      9  C   UNL     1       6.709  -1.037   4.449  1.00  0.00    -0.039 A 
ATOM     10  C   UNL     1       4.944   0.336   6.115  1.00  0.00     0.000 A 
ATOM     11  C   UNL     1       5.487   0.977   5.003  1.00  0.00     0.010 A 
ATOM     12  C   UNL     1       5.338  -0.965   6.439  1.00  0.00     0.010 A 
ATOM     13  C   UNL     1       6.356   0.287   4.162  1.00  0.00     0.005 A 
ATOM     14  C   UNL     1       6.233  -1.640   5.621  1.00  0.00     0.005 A 
BRANCH  10  15
ATOM     15  C   UNL     1       3.851   0.912   6.868  1.00  0.00     0.075 A 
ATOM     16  N   UNL     1       2.555   0.928   6.387  1.00  0.00    -0.233 N 
ATOM     17  N   UNL     1       1.662   1.029   7.403  1.00  0.00    -0.163 NA
ATOM     18  C   UNL     1       2.389   1.457   8.457  1.00  0.00     0.167 A 
ATOM     19  C   UNL     1       3.773   1.308   8.185  1.00  0.00     0.064 A 
BRANCH  16  20
ATOM     20  C   UNL     1       2.165   0.958   5.020  1.00  0.00     0.065 A 
ATOM     21  C   UNL     1       1.214   1.201   2.404  1.00  0.00     0.067 A 
ATOM     22  C   UNL     1       0.975   0.033   3.138  1.00  0.00     0.022 A 
ATOM     23  C   UNL     1       1.935   2.248   2.968  1.00  0.00     0.022 A 
ATOM     24  C   UNL     1       1.411  -0.077   4.468  1.00  0.00     0.030 A 
ATOM     25  C   UNL     1       2.447   2.109   4.258  1.00  0.00     0.030 A 
BRANCH  21  26
ATOM     26  S   UNL     1       0.578   1.381   0.751  1.00  0.00     0.175 S 
ATOM     27  C   UNL     1       1.109  -0.072  -0.102  1.00  0.00     0.163 C 
ATOM     28  O   UNL     1       1.286   2.493   0.131  1.00  0.00    -0.224 OA
ATOM     29  O   UNL     1      -0.860   1.338   0.821  1.00  0.00    -0.224 OA
ENDBRANCH  21  26
ENDBRANCH  16  20
BRANCH  18  30
ATOM     30  C   UNL     1       1.801   1.986   9.745  1.00  0.00     0.435 C 
ATOM     31  F   UNL     1       1.746   3.343   9.748  1.00  0.00    -0.164 F 
ATOM     32  F   UNL     1       0.558   1.522  10.021  1.00  0.00    -0.164 F 
ATOM     33  F   UNL     1       2.587   1.643  10.809  1.00  0.00    -0.164 F 
ENDBRANCH  18  30
ENDBRANCH  10  15
ENDBRANCH   8   9
ENDBRANCH   5   8
ENDBRANCH   3   4
ENDBRANCH   2   3
ENDBRANCH   1   2
BRANCH   1  34
ATOM     34  C   UNL     1       2.829  -4.465   0.853  1.00  0.00     0.002 C 
BRANCH  34  35
ATOM     35  C   UNL     1       2.253  -5.499   1.832  1.00  0.00     0.021 C 
BRANCH  35  36
ATOM     36  C   UNL     1       0.778  -5.309   2.154  1.00  0.00     0.116 C 
BRANCH  36  37
ATOM     37  N   UNL     1      -0.101  -5.541   1.001  1.00  0.00    -0.352 N 
ATOM     38  C   UNL     1      -1.476  -5.361   0.916  1.00  0.00     0.251 C 
ATOM     39  H   UNL     1       0.341  -5.865   0.183  1.00  0.00     0.163 HD
ATOM     40  O   UNL     1      -2.129  -5.974   0.078  1.00  0.00    -0.269 OA
BRANCH  38  41
ATOM     41  C   UNL     1      -2.123  -4.413   1.846  1.00  0.00     0.039 A 
ATOM     42  C   UNL     1      -3.398  -4.597   2.389  1.00  0.00     0.014 A 
ATOM     43  C   UNL     1      -1.369  -3.308   2.211  1.00  0.00     0.014 A 
ATOM     44  C   UNL     1      -3.861  -3.678   3.339  1.00  0.00     0.010 A 
ATOM     45  C   UNL     1      -1.705  -2.600   3.326  1.00  0.00     0.010 A 
ATOM     46  C   UNL     1      -2.997  -2.674   3.804  1.00  0.00    -0.014 A 
BRANCH  46  47
ATOM     47  C   UNL     1      -3.330  -1.720   4.860  1.00  0.00     0.031 A 
ATOM     48  C   UNL     1      -3.703  -2.364   6.139  1.00  0.00     0.074 A 
ATOM     49  C   UNL     1      -3.068  -0.390   4.772  1.00  0.00     0.049 A 
ATOM     50  N   UNL     1      -4.884  -2.465   6.647  1.00  0.00    -0.248 NA
ATOM     51  C   UNL     1      -2.687  -3.163   6.843  1.00  0.00     0.031 C 
ATOM     52  C   UNL     1      -2.429   0.343   3.674  1.00  0.00     0.029 A 
ATOM     53  N   UNL     1      -3.245   0.594   5.700  1.00  0.00    -0.354 N 
ATOM     54  C   UNL     1      -4.712  -3.086   7.877  1.00  0.00     0.074 A 
ATOM     55  C   UNL     1      -3.420  -3.710   7.815  1.00  0.00     0.031 C 
ATOM     56  C   UNL     1      -2.100   1.594   4.075  1.00  0.00     0.029 A 
ATOM     57  C   UNL     1      -2.641   1.826   5.404  1.00  0.00     0.049 A 
ATOM     58  H   UNL     1      -3.764   0.450   6.524  1.00  0.00     0.167 HD
ATOM     59  C   UNL     1      -5.527  -2.784   8.928  1.00  0.00     0.034 A 
ATOM     60  C   UNL     1      -2.586   2.951   6.189  1.00  0.00     0.034 A 
ATOM     61  C   UNL     1      -6.701  -2.064   8.471  1.00  0.00     0.049 A 
ATOM     62  C   UNL     1      -3.687   2.812   7.165  1.00  0.00     0.074 A 
ATOM     63  C   UNL     1      -7.710  -2.331   7.563  1.00  0.00     0.029 A 
ATOM     64  N   UNL     1      -6.725  -0.695   8.643  1.00  0.00    -0.354 N 
ATOM     65  N   UNL     1      -4.939   2.858   6.806  1.00  0.00    -0.248 NA
ATOM     66  C   UNL     1      -3.420   2.095   8.406  1.00  0.00     0.031 C 
ATOM     67  C   UNL     1      -7.907  -1.103   6.862  1.00  0.00     0.029 A 
ATOM     68  C   UNL     1      -7.084  -0.135   7.440  1.00  0.00     0.049 A 
ATOM     69  H   UNL     1      -6.522  -0.209   9.475  1.00  0.00     0.167 HD
ATOM     70  C   UNL     1      -5.542   1.822   7.498  1.00  0.00     0.074 A 
ATOM     71  C   UNL     1      -4.589   1.460   8.551  1.00  0.00     0.031 C 
ATOM     72  C   UNL     1      -6.608   1.151   6.971  1.00  0.00     0.034 A 
BRANCH  59  73
ATOM     73  C   UNL     1      -5.099  -2.768  10.383  1.00  0.00     0.023 A 
ATOM     74  C   UNL     1      -6.069  -2.365  11.320  1.00  0.00     0.031 A 
ATOM     75  C   UNL     1      -3.774  -2.838  10.871  1.00  0.00     0.131 A 
ATOM     76  C   UNL     1      -5.701  -1.931  12.605  1.00  0.00     0.055 A 
ATOM     77  C   UNL     1      -3.421  -2.466  12.172  1.00  0.00     0.041 A 
ATOM     78  F   UNL     1      -2.730  -3.188  10.114  1.00  0.00    -0.206 F 
ATOM     79  C   UNL     1      -4.380  -1.971  13.036  1.00  0.00     0.022 A 
BRANCH  76  80
ATOM     80  S   UNL     1      -6.962  -1.134  13.630  1.00  0.00     0.124 S 
ATOM     81  O   UNL     1      -7.486  -0.123  12.718  1.00  0.00    -0.237 OA
ATOM     82  O   UNL     1      -7.849  -2.252  13.932  1.00  0.00    -0.237 OA
ATOM     83  O   UNL     1      -6.199  -0.618  14.763  1.00  0.00    -0.744 OA
ENDBRANCH  76  80
ENDBRANCH  59  73
BRANCH  60  84
ATOM     84  C   UNL     1      -1.475   3.950   6.354  1.00  0.00     0.023 A 
ATOM     85  C   UNL     1      -1.555   5.246   6.919  1.00  0.00     0.031 A 
ATOM     86  C   UNL     1      -0.177   3.458   6.179  1.00  0.00     0.131 A 
ATOM     87  C   UNL     1      -0.368   5.965   7.261  1.00  0.00     0.055 A 
ATOM     88  C   UNL     1       0.980   4.149   6.547  1.00  0.00     0.041 A 
ATOM     89  F   UNL     1      -0.018   2.218   5.718  1.00  0.00    -0.206 F 
ATOM     90  C   UNL     1       0.894   5.407   7.092  1.00  0.00     0.022 A 
BRANCH  87  91
ATOM     91  S   UNL     1      -0.408   7.622   8.026  1.00  0.00     0.124 S 
ATOM     92  O   UNL     1      -0.813   8.467   6.909  1.00  0.00    -0.237 OA
ATOM     93  O   UNL     1      -1.374   7.456   9.104  1.00  0.00    -0.237 OA
ATOM     94  O   UNL     1       0.972   7.830   8.473  1.00  0.00    -0.744 OA
ENDBRANCH  87  91
ENDBRANCH  60  84
BRANCH  72  95
ATOM     95  C   UNL     1      -7.218   1.692   5.689  1.00  0.00     0.023 A 
ATOM     96  C   UNL     1      -6.550   1.770   4.441  1.00  0.00     0.031 A 
ATOM     97  C   UNL     1      -8.579   2.031   5.719  1.00  0.00     0.131 A 
ATOM     98  C   UNL     1      -7.250   2.184   3.288  1.00  0.00     0.055 A 
ATOM     99  C   UNL     1      -9.270   2.426   4.574  1.00  0.00     0.041 A 
ATOM    100  F   UNL     1      -9.274   1.948   6.865  1.00  0.00    -0.206 F 
ATOM    101  C   UNL     1      -8.607   2.507   3.354  1.00  0.00     0.022 A 
BRANCH  98 102
ATOM    102  S   UNL     1      -6.407   2.314   1.673  1.00  0.00     0.124 S 
ATOM    103  O   UNL     1      -5.237   3.131   1.969  1.00  0.00    -0.237 OA
ATOM    104  O   UNL     1      -6.152   0.916   1.336  1.00  0.00    -0.237 OA
ATOM    105  O   UNL     1      -7.404   2.966   0.821  1.00  0.00    -0.744 OA
ENDBRANCH  98 102
ENDBRANCH  72  95
ENDBRANCH  46  47
ENDBRANCH  38  41
ENDBRANCH  36  37
ENDBRANCH  35  36
ENDBRANCH  34  35
ENDBRANCH   1  34
TORSDOF 21
