REMARK SMILES Cc1nn([C@H]2CCS(=O)(=O)C2)c(C)c1/C=C(\CC(=O)NCCCCCCNC(=O)c1ccc(-c2c3nc(c(-c4cc(S(=O)(=O)[O-])ccc4F)c4ccc([nH]4)c(-c4cc(S(=O)(=O)[O-])ccc4F)c4nc(c(-c5cc(S(=O)(=O)[O-])ccc5F)c5ccc2[nH]5)C=C4)C=C3)cc1)c1nc2ccccc2s1
REMARK SMILES IDX 23 1 22 2 21 3 20 4 18 5 19 6 17 8 16 9 15 10 14 11 1 12
REMARK SMILES IDX 2 13 3 14 4 15 12 16 13 17 5 18 6 19 11 20 7 21 8 22 9 23
REMARK SMILES IDX 10 24 93 25 94 26 101 27 95 28 100 29 96 30 99 31 97 32
REMARK SMILES IDX 98 33 24 34 25 35 26 36 27 37 28 38 29 40 30 41 31 42 92 43
REMARK SMILES IDX 32 44 91 45 33 46 34 47 35 48 85 49 36 50 90 51 84 52 86 53
REMARK SMILES IDX 37 54 89 55 83 56 82 57 38 59 70 60 50 61 69 62 51 63 54 64
REMARK SMILES IDX 68 65 87 66 52 67 53 68 67 70 88 71 55 72 39 73 40 74 48 75
REMARK SMILES IDX 41 76 47 77 49 78 46 79 42 80 43 81 44 82 45 83 71 84 72 85
REMARK SMILES IDX 80 86 73 87 79 88 81 89 78 90 74 91 75 92 76 93 77 94 56 95
REMARK SMILES IDX 57 96 65 97 58 98 64 99 66 100 63 101 59 102 60 103 61 104
REMARK SMILES IDX 62 105
REMARK H PARENT 20 7 27 39 86 58 54 69
REMARK Flexibility Score: inf
ROOT
ATOM      1  C   UNL     1      -5.346   7.447  -8.008  1.00  0.00     0.002 C 
ENDROOT
BRANCH   1   2
ATOM      2  C   UNL     1      -5.235   6.065  -7.357  1.00  0.00     0.021 C 
BRANCH   2   3
ATOM      3  C   UNL     1      -4.651   6.121  -5.951  1.00  0.00     0.116 C 
BRANCH   3   4
ATOM      4  N   UNL     1      -5.566   6.798  -5.058  1.00  0.00    -0.356 N 
ATOM      5  C   UNL     1      -6.406   6.239  -4.138  1.00  0.00     0.224 C 
ATOM      6  O   UNL     1      -7.289   6.936  -3.636  1.00  0.00    -0.275 OA
ATOM      7  H   UNL     1      -5.585   7.780  -5.121  1.00  0.00     0.163 HD
BRANCH   5   8
ATOM      8  C   UNL     1      -6.068   4.860  -3.594  1.00  0.00     0.138 C 
BRANCH   8   9
ATOM      9  C   UNL     1      -6.315   3.629  -4.451  1.00  0.00    -0.002 C 
ATOM     10  C   UNL     1      -5.364   2.708  -4.758  1.00  0.00     0.019 C 
BRANCH  10  11
ATOM     11  C   UNL     1      -3.959   2.765  -4.447  1.00  0.00     0.019 A 
ATOM     12  C   UNL     1      -2.933   1.520  -6.515  1.00  0.00     0.069 C 
ATOM     13  C   UNL     1      -2.886   2.332  -5.271  1.00  0.00     0.067 A 
ATOM     14  N   UNL     1      -1.708   2.746  -4.787  1.00  0.00    -0.177 NA
ATOM     15  N   UNL     1      -2.023   3.397  -3.650  1.00  0.00    -0.265 N 
ATOM     16  C   UNL     1      -3.330   3.167  -3.276  1.00  0.00     0.043 A 
ATOM     17  C   UNL     1      -3.847   3.330  -1.891  1.00  0.00     0.067 C 
BRANCH  15  18
ATOM     18  C   UNL     1      -0.971   4.158  -2.987  1.00  0.00     0.123 C 
ATOM     19  C   UNL     1      -0.059   4.918  -3.984  1.00  0.00     0.044 C 
ATOM     20  C   UNL     1      -1.459   5.253  -2.041  1.00  0.00     0.164 C 
ATOM     21  C   UNL     1       0.886   5.790  -3.166  1.00  0.00     0.139 C 
ATOM     22  S   UNL     1      -0.021   6.231  -1.700  1.00  0.00     0.152 S 
ATOM     23  O   UNL     1       0.648   5.665  -0.555  1.00  0.00    -0.229 OA
ATOM     24  O   UNL     1      -0.389   7.636  -1.767  1.00  0.00    -0.229 OA
ENDBRANCH  15  18
ENDBRANCH  10  11
BRANCH   9  25
ATOM     25  C   UNL     1      -7.654   3.427  -4.931  1.00  0.00     0.121 A 
ATOM     26  N   UNL     1      -8.341   4.345  -5.577  1.00  0.00    -0.236 NA
ATOM     27  S   UNL     1      -8.597   2.081  -4.398  1.00  0.00    -0.114 S 
ATOM     28  C   UNL     1      -9.692   4.173  -5.340  1.00  0.00     0.082 A 
ATOM     29  C   UNL     1     -10.029   3.004  -4.657  1.00  0.00     0.055 A 
ATOM     30  C   UNL     1     -10.707   5.100  -5.647  1.00  0.00     0.030 A 
ATOM     31  C   UNL     1     -11.344   2.735  -4.249  1.00  0.00     0.021 A 
ATOM     32  C   UNL     1     -12.008   4.873  -5.188  1.00  0.00     0.002 A 
ATOM     33  C   UNL     1     -12.318   3.708  -4.491  1.00  0.00     0.002 A 
ENDBRANCH   9  25
ENDBRANCH   8   9
ENDBRANCH   5   8
ENDBRANCH   3   4
ENDBRANCH   2   3
ENDBRANCH   1   2
BRANCH   1  34
ATOM     34  C   UNL     1      -4.041   8.257  -8.050  1.00  0.00     0.002 C 
BRANCH  34  35
ATOM     35  C   UNL     1      -2.834   7.558  -8.693  1.00  0.00     0.021 C 
BRANCH  35  36
ATOM     36  C   UNL     1      -3.000   7.298 -10.182  1.00  0.00     0.116 C 
BRANCH  36  37
ATOM     37  N   UNL     1      -3.099   8.540 -10.950  1.00  0.00    -0.352 N 
ATOM     38  C   UNL     1      -3.469   8.711 -12.273  1.00  0.00     0.251 C 
ATOM     39  H   UNL     1      -2.873   9.364 -10.461  1.00  0.00     0.163 HD
ATOM     40  O   UNL     1      -3.157   9.721 -12.883  1.00  0.00    -0.269 OA
BRANCH  38  41
ATOM     41  C   UNL     1      -4.250   7.639 -12.916  1.00  0.00     0.039 A 
ATOM     42  C   UNL     1      -3.989   7.198 -14.214  1.00  0.00     0.014 A 
ATOM     43  C   UNL     1      -5.234   7.036 -12.143  1.00  0.00     0.014 A 
ATOM     44  C   UNL     1      -4.677   6.083 -14.692  1.00  0.00     0.010 A 
ATOM     45  C   UNL     1      -5.754   5.834 -12.533  1.00  0.00     0.010 A 
ATOM     46  C   UNL     1      -5.550   5.396 -13.835  1.00  0.00    -0.014 A 
BRANCH  46  47
ATOM     47  C   UNL     1      -6.236   4.174 -14.244  1.00  0.00     0.031 A 
ATOM     48  C   UNL     1      -5.350   3.052 -14.655  1.00  0.00     0.074 A 
ATOM     49  C   UNL     1      -7.551   3.981 -13.996  1.00  0.00     0.049 A 
ATOM     50  N   UNL     1      -5.222   2.515 -15.823  1.00  0.00    -0.248 NA
ATOM     51  C   UNL     1      -4.386   2.542 -13.666  1.00  0.00     0.031 C 
ATOM     52  C   UNL     1      -8.476   4.858 -13.259  1.00  0.00     0.029 A 
ATOM     53  N   UNL     1      -8.317   2.886 -14.235  1.00  0.00    -0.354 N 
ATOM     54  C   UNL     1      -4.336   1.450 -15.666  1.00  0.00     0.074 A 
ATOM     55  C   UNL     1      -3.706   1.651 -14.390  1.00  0.00     0.031 C 
ATOM     56  C   UNL     1      -9.577   4.164 -12.901  1.00  0.00     0.029 A 
ATOM     57  C   UNL     1      -9.533   2.874 -13.559  1.00  0.00     0.049 A 
ATOM     58  H   UNL     1      -8.036   2.160 -14.837  1.00  0.00     0.167 HD
ATOM     59  C   UNL     1      -4.371   0.368 -16.497  1.00  0.00     0.034 A 
ATOM     60  C   UNL     1     -10.445   1.869 -13.526  1.00  0.00     0.034 A 
ATOM     61  C   UNL     1      -5.157   0.658 -17.677  1.00  0.00     0.049 A 
ATOM     62  C   UNL     1     -10.173   1.025 -14.714  1.00  0.00     0.074 A 
ATOM     63  C   UNL     1      -5.058   1.556 -18.721  1.00  0.00     0.029 A 
ATOM     64  N   UNL     1      -6.461   0.220 -17.685  1.00  0.00    -0.354 N 
ATOM     65  N   UNL     1     -10.267   1.458 -15.943  1.00  0.00    -0.248 NA
ATOM     66  C   UNL     1      -9.352  -0.161 -14.540  1.00  0.00     0.031 C 
ATOM     67  C   UNL     1      -6.401   1.968 -18.978  1.00  0.00     0.029 A 
ATOM     68  C   UNL     1      -7.253   1.247 -18.136  1.00  0.00     0.049 A 
ATOM     69  H   UNL     1      -6.772  -0.674 -17.415  1.00  0.00     0.167 HD
ATOM     70  C   UNL     1      -9.200   0.879 -16.613  1.00  0.00     0.074 A 
ATOM     71  C   UNL     1      -8.750  -0.197 -15.733  1.00  0.00     0.031 C 
ATOM     72  C   UNL     1      -8.611   1.499 -17.680  1.00  0.00     0.034 A 
BRANCH  59  73
ATOM     73  C   UNL     1      -4.016  -1.057 -16.112  1.00  0.00     0.023 A 
ATOM     74  C   UNL     1      -4.135  -2.049 -17.110  1.00  0.00     0.031 A 
ATOM     75  C   UNL     1      -3.837  -1.542 -14.797  1.00  0.00     0.131 A 
ATOM     76  C   UNL     1      -4.167  -3.417 -16.780  1.00  0.00     0.055 A 
ATOM     77  C   UNL     1      -3.804  -2.905 -14.482  1.00  0.00     0.041 A 
ATOM     78  F   UNL     1      -3.776  -0.740 -13.729  1.00  0.00    -0.206 F 
ATOM     79  C   UNL     1      -4.000  -3.852 -15.470  1.00  0.00     0.022 A 
BRANCH  76  80
ATOM     80  S   UNL     1      -4.607  -4.611 -18.071  1.00  0.00     0.124 S 
ATOM     81  O   UNL     1      -5.851  -4.049 -18.584  1.00  0.00    -0.237 OA
ATOM     82  O   UNL     1      -3.450  -4.535 -18.956  1.00  0.00    -0.237 OA
ATOM     83  O   UNL     1      -4.747  -5.866 -17.335  1.00  0.00    -0.744 OA
ENDBRANCH  76  80
ENDBRANCH  59  73
BRANCH  60  84
ATOM     84  C   UNL     1     -11.215   1.418 -12.335  1.00  0.00     0.023 A 
ATOM     85  C   UNL     1     -12.421   0.696 -12.431  1.00  0.00     0.031 A 
ATOM     86  C   UNL     1     -10.621   1.498 -11.054  1.00  0.00     0.131 A 
ATOM     87  C   UNL     1     -12.979   0.089 -11.281  1.00  0.00     0.055 A 
ATOM     88  C   UNL     1     -11.177   0.898  -9.922  1.00  0.00     0.041 A 
ATOM     89  F   UNL     1      -9.430   2.094 -10.879  1.00  0.00    -0.206 F 
ATOM     90  C   UNL     1     -12.356   0.180 -10.034  1.00  0.00     0.022 A 
BRANCH  87  91
ATOM     91  S   UNL     1     -14.499  -0.909 -11.412  1.00  0.00     0.124 S 
ATOM     92  O   UNL     1     -15.496   0.092 -11.774  1.00  0.00    -0.237 OA
ATOM     93  O   UNL     1     -14.147  -1.878 -12.444  1.00  0.00    -0.237 OA
ATOM     94  O   UNL     1     -14.655  -1.473 -10.071  1.00  0.00    -0.744 OA
ENDBRANCH  87  91
ENDBRANCH  60  84
BRANCH  72  95
ATOM     95  C   UNL     1      -9.344   2.658 -18.335  1.00  0.00     0.023 A 
ATOM     96  C   UNL     1      -9.662   3.888 -17.712  1.00  0.00     0.031 A 
ATOM     97  C   UNL     1      -9.613   2.538 -19.710  1.00  0.00     0.131 A 
ATOM     98  C   UNL     1     -10.226   4.937 -18.470  1.00  0.00     0.055 A 
ATOM     99  C   UNL     1     -10.150   3.583 -20.459  1.00  0.00     0.041 A 
ATOM    100  F   UNL     1      -9.312   1.403 -20.364  1.00  0.00    -0.206 F 
ATOM    101  C   UNL     1     -10.461   4.787 -19.841  1.00  0.00     0.022 A 
BRANCH  98 102
ATOM    102  S   UNL     1     -10.674   6.526 -17.690  1.00  0.00     0.124 S 
ATOM    103  O   UNL     1     -11.465   6.125 -16.533  1.00  0.00    -0.237 OA
ATOM    104  O   UNL     1      -9.370   7.118 -17.402  1.00  0.00    -0.237 OA
ATOM    105  O   UNL     1     -11.434   7.216 -18.735  1.00  0.00    -0.744 OA
ENDBRANCH  98 102
ENDBRANCH  72  95
ENDBRANCH  46  47
ENDBRANCH  38  41
ENDBRANCH  36  37
ENDBRANCH  35  36
ENDBRANCH  34  35
ENDBRANCH   1  34
TORSDOF 20
