REMARK SMILES CC(C)NS(=O)(=O)c1cc(C(=O)NCCCCCCNC(=O)c2ccc(-c3c4nc(c(-c5cc(S(=O)(=O)[O-])ccc5F)c5ccc([nH]5)c(-c5cc(S(=O)(=O)[O-])ccc5F)c5nc(c(-c6cc(S(=O)(=O)[O-])ccc6F)c6ccc3[nH]6)C=C5)C=C4)cc2)cc(-c2ccc(CO)cc2)c1
REMARK SMILES IDX 16 1 15 2 14 3 13 4 11 5 12 6 10 8 8 9 9 10 96 11 87 12
REMARK SMILES IDX 86 13 5 14 6 15 7 16 4 17 2 19 1 20 3 21 88 22 89 23 95 24
REMARK SMILES IDX 90 25 94 26 91 27 92 28 93 29 17 31 18 32 19 33 20 34 21 35
REMARK SMILES IDX 22 37 23 38 24 39 85 40 25 41 84 42 26 43 27 44 28 45 78 46
REMARK SMILES IDX 29 47 83 48 77 49 79 50 30 51 82 52 76 53 75 54 31 56 63 57
REMARK SMILES IDX 43 58 62 59 44 60 47 61 61 62 80 63 45 64 46 65 60 67 81 68
REMARK SMILES IDX 48 69 32 70 33 71 41 72 34 73 40 74 42 75 39 76 35 77 36 78
REMARK SMILES IDX 37 79 38 80 64 81 65 82 73 83 66 84 72 85 74 86 71 87 67 88
REMARK SMILES IDX 68 89 69 90 70 91 49 92 50 93 58 94 51 95 57 96 59 97 56 98
REMARK SMILES IDX 52 99 53 100 54 101 55 102
REMARK H PARENT 13 7 4 18 93 30 20 36 79 55 47 66
REMARK Flexibility Score: inf
ROOT
ATOM      1  C   UNL     1       4.007  -2.763  -9.166  1.00  0.00     0.002 C 
ENDROOT
BRANCH   1   2
ATOM      2  C   UNL     1       3.465  -1.886  -8.039  1.00  0.00     0.021 C 
BRANCH   2   3
ATOM      3  C   UNL     1       1.971  -1.966  -7.752  1.00  0.00     0.116 C 
BRANCH   3   4
ATOM      4  N   UNL     1       1.490  -3.277  -7.349  1.00  0.00    -0.352 N 
ATOM      5  C   UNL     1       0.506  -3.641  -6.454  1.00  0.00     0.251 C 
ATOM      6  O   UNL     1       0.276  -4.837  -6.281  1.00  0.00    -0.269 OA
ATOM      7  H   UNL     1       1.942  -4.032  -7.790  1.00  0.00     0.163 HD
BRANCH   5   8
ATOM      8  C   UNL     1      -0.237  -2.640  -5.638  1.00  0.00     0.041 A 
ATOM      9  C   UNL     1      -1.205  -2.027  -3.509  1.00  0.00     0.083 A 
ATOM     10  C   UNL     1      -0.620  -2.989  -4.338  1.00  0.00     0.035 A 
ATOM     11  C   UNL     1      -1.357  -0.705  -3.939  1.00  0.00     0.030 A 
ATOM     12  C   UNL     1      -0.976  -0.343  -5.238  1.00  0.00    -0.016 A 
ATOM     13  C   UNL     1      -0.522  -1.353  -6.102  1.00  0.00     0.022 A 
BRANCH   9  14
ATOM     14  S   UNL     1      -1.693  -2.465  -1.863  1.00  0.00     0.240 S 
ATOM     15  O   UNL     1      -1.188  -3.788  -1.562  1.00  0.00    -0.207 OA
ATOM     16  O   UNL     1      -3.096  -2.148  -1.730  1.00  0.00    -0.207 OA
BRANCH  14  17
ATOM     17  N   UNL     1      -0.881  -1.366  -0.904  1.00  0.00    -0.209 NA
ATOM     18  H   UNL     1      -1.202  -0.446  -1.206  1.00  0.00     0.141 HD
BRANCH  17  19
ATOM     19  C   UNL     1       0.577  -1.267  -0.819  1.00  0.00     0.063 C 
ATOM     20  C   UNL     1       0.913  -0.006  -0.022  1.00  0.00     0.025 C 
ATOM     21  C   UNL     1       1.192  -2.486  -0.145  1.00  0.00     0.025 C 
ENDBRANCH  17  19
ENDBRANCH  14  17
ENDBRANCH   9  14
BRANCH  12  22
ATOM     22  C   UNL     1      -0.861   1.062  -5.663  1.00  0.00    -0.018 A 
ATOM     23  C   UNL     1      -1.375   1.514  -6.886  1.00  0.00     0.009 A 
ATOM     24  C   UNL     1      -0.080   1.955  -4.906  1.00  0.00     0.009 A 
ATOM     25  C   UNL     1      -1.094   2.805  -7.349  1.00  0.00     0.007 A 
ATOM     26  C   UNL     1       0.201   3.245  -5.366  1.00  0.00     0.007 A 
ATOM     27  C   UNL     1      -0.297   3.678  -6.598  1.00  0.00    -0.023 A 
BRANCH  27  28
ATOM     28  C   UNL     1       0.022   5.054  -7.120  1.00  0.00     0.191 C 
BRANCH  28  29
ATOM     29  O   UNL     1       0.759   4.958  -8.329  1.00  0.00    -0.392 OA
ATOM     30  H   UNL     1       1.589   4.484  -8.165  1.00  0.00     0.211 HD
ENDBRANCH  28  29
ENDBRANCH  27  28
ENDBRANCH  12  22
ENDBRANCH   5   8
ENDBRANCH   3   4
ENDBRANCH   2   3
ENDBRANCH   1   2
BRANCH   1  31
ATOM     31  C   UNL     1       3.311  -2.661 -10.524  1.00  0.00     0.002 C 
BRANCH  31  32
ATOM     32  C   UNL     1       3.136  -1.260 -11.115  1.00  0.00     0.021 C 
BRANCH  32  33
ATOM     33  C   UNL     1       4.389  -0.391 -11.205  1.00  0.00     0.116 C 
BRANCH  33  34
ATOM     34  N   UNL     1       5.443  -0.981 -12.009  1.00  0.00    -0.352 N 
ATOM     35  C   UNL     1       6.161  -0.450 -13.055  1.00  0.00     0.251 C 
ATOM     36  H   UNL     1       5.681  -1.906 -11.769  1.00  0.00     0.163 HD
ATOM     37  O   UNL     1       6.942  -1.169 -13.673  1.00  0.00    -0.269 OA
BRANCH  35  38
ATOM     38  C   UNL     1       5.974   0.963 -13.466  1.00  0.00     0.039 A 
ATOM     39  C   UNL     1       5.859   1.251 -14.830  1.00  0.00     0.014 A 
ATOM     40  C   UNL     1       5.925   2.001 -12.531  1.00  0.00     0.014 A 
ATOM     41  C   UNL     1       5.612   2.562 -15.250  1.00  0.00     0.010 A 
ATOM     42  C   UNL     1       5.620   3.299 -12.947  1.00  0.00     0.010 A 
ATOM     43  C   UNL     1       5.447   3.591 -14.309  1.00  0.00    -0.014 A 
BRANCH  43  44
ATOM     44  C   UNL     1       5.055   4.963 -14.729  1.00  0.00     0.031 A 
ATOM     45  C   UNL     1       5.992   6.122 -14.524  1.00  0.00     0.074 A 
ATOM     46  C   UNL     1       3.821   5.176 -15.229  1.00  0.00     0.049 A 
ATOM     47  N   UNL     1       5.790   7.398 -14.737  1.00  0.00    -0.248 NA
ATOM     48  C   UNL     1       7.322   5.804 -13.986  1.00  0.00     0.031 C 
ATOM     49  C   UNL     1       2.808   4.140 -15.444  1.00  0.00     0.029 A 
ATOM     50  N   UNL     1       3.200   6.333 -15.630  1.00  0.00    -0.354 N 
ATOM     51  C   UNL     1       6.962   8.039 -14.348  1.00  0.00     0.074 A 
ATOM     52  C   UNL     1       7.849   7.011 -13.842  1.00  0.00     0.031 C 
ATOM     53  C   UNL     1       1.699   4.706 -15.945  1.00  0.00     0.029 A 
ATOM     54  C   UNL     1       1.901   6.147 -16.045  1.00  0.00     0.049 A 
ATOM     55  H   UNL     1       3.643   7.212 -15.623  1.00  0.00     0.167 HD
ATOM     56  C   UNL     1       7.273   9.358 -14.422  1.00  0.00     0.034 A 
ATOM     57  C   UNL     1       0.969   7.037 -16.440  1.00  0.00     0.034 A 
ATOM     58  C   UNL     1       6.380  10.370 -14.937  1.00  0.00     0.049 A 
ATOM     59  C   UNL     1       1.326   8.500 -16.481  1.00  0.00     0.074 A 
ATOM     60  C   UNL     1       6.621  11.721 -15.120  1.00  0.00     0.029 A 
ATOM     61  N   UNL     1       5.069  10.146 -15.340  1.00  0.00    -0.354 N 
ATOM     62  N   UNL     1       2.457   9.084 -16.158  1.00  0.00    -0.248 NA
ATOM     63  C   UNL     1       0.282   9.423 -16.946  1.00  0.00     0.031 C 
ATOM     64  C   UNL     1       5.440  12.324 -15.568  1.00  0.00     0.029 A 
ATOM     65  C   UNL     1       4.479  11.339 -15.733  1.00  0.00     0.049 A 
ATOM     66  H   UNL     1       4.623   9.268 -15.345  1.00  0.00     0.167 HD
ATOM     67  C   UNL     1       2.264  10.441 -16.400  1.00  0.00     0.074 A 
ATOM     68  C   UNL     1       0.917  10.585 -16.913  1.00  0.00     0.031 C 
ATOM     69  C   UNL     1       3.126  11.475 -16.218  1.00  0.00     0.034 A 
BRANCH  56  70
ATOM     70  C   UNL     1       8.627   9.782 -13.904  1.00  0.00     0.023 A 
ATOM     71  C   UNL     1       9.820   9.335 -14.500  1.00  0.00     0.031 A 
ATOM     72  C   UNL     1       8.728  10.629 -12.786  1.00  0.00     0.131 A 
ATOM     73  C   UNL     1      11.057   9.673 -13.931  1.00  0.00     0.055 A 
ATOM     74  C   UNL     1       9.964  11.026 -12.272  1.00  0.00     0.041 A 
ATOM     75  F   UNL     1       7.625  11.073 -12.163  1.00  0.00    -0.206 F 
ATOM     76  C   UNL     1      11.139  10.536 -12.835  1.00  0.00     0.022 A 
BRANCH  73  77
ATOM     77  S   UNL     1      12.551   8.857 -14.557  1.00  0.00     0.124 S 
ATOM     78  O   UNL     1      12.231   7.448 -14.335  1.00  0.00    -0.237 OA
ATOM     79  O   UNL     1      12.589   9.292 -15.948  1.00  0.00    -0.237 OA
ATOM     80  O   UNL     1      13.614   9.387 -13.706  1.00  0.00    -0.744 OA
ENDBRANCH  73  77
ENDBRANCH  56  70
BRANCH  57  81
ATOM     81  C   UNL     1      -0.402   6.580 -16.802  1.00  0.00     0.023 A 
ATOM     82  C   UNL     1      -0.880   6.697 -18.116  1.00  0.00     0.031 A 
ATOM     83  C   UNL     1      -1.267   6.049 -15.829  1.00  0.00     0.131 A 
ATOM     84  C   UNL     1      -2.201   6.327 -18.415  1.00  0.00     0.055 A 
ATOM     85  C   UNL     1      -2.564   5.638 -16.140  1.00  0.00     0.041 A 
ATOM     86  F   UNL     1      -0.855   5.910 -14.558  1.00  0.00    -0.206 F 
ATOM     87  C   UNL     1      -3.042   5.787 -17.438  1.00  0.00     0.022 A 
BRANCH  84  88
ATOM     88  S   UNL     1      -2.831   6.629 -20.088  1.00  0.00     0.124 S 
ATOM     89  O   UNL     1      -2.657   8.072 -20.216  1.00  0.00    -0.237 OA
ATOM     90  O   UNL     1      -1.943   5.801 -20.899  1.00  0.00    -0.237 OA
ATOM     91  O   UNL     1      -4.216   6.170 -20.019  1.00  0.00    -0.744 OA
ENDBRANCH  84  88
ENDBRANCH  57  81
BRANCH  69  92
ATOM     92  C   UNL     1       2.633  12.847 -16.605  1.00  0.00     0.023 A 
ATOM     93  C   UNL     1       1.605  13.489 -15.892  1.00  0.00     0.031 A 
ATOM     94  C   UNL     1       3.182  13.510 -17.716  1.00  0.00     0.131 A 
ATOM     95  C   UNL     1       1.122  14.732 -16.330  1.00  0.00     0.055 A 
ATOM     96  C   UNL     1       2.736  14.771 -18.114  1.00  0.00     0.041 A 
ATOM     97  F   UNL     1       4.163  12.941 -18.435  1.00  0.00    -0.206 F 
ATOM     98  C   UNL     1       1.691  15.384 -17.427  1.00  0.00     0.022 A 
BRANCH  95  99
ATOM     99  S   UNL     1      -0.322  15.448 -15.498  1.00  0.00     0.124 S 
ATOM    100  O   UNL     1      -1.335  14.419 -15.707  1.00  0.00    -0.237 OA
ATOM    101  O   UNL     1       0.153  15.607 -14.127  1.00  0.00    -0.237 OA
ATOM    102  O   UNL     1      -0.550  16.698 -16.221  1.00  0.00    -0.744 OA
ENDBRANCH  95  99
ENDBRANCH  69  92
ENDBRANCH  43  44
ENDBRANCH  35  38
ENDBRANCH  33  34
ENDBRANCH  32  33
ENDBRANCH  31  32
ENDBRANCH   1  31
TORSDOF 22
