REMARK SMILES O=C(NCCCCCCNC(=O)c1cc(OC[C@@H]2Cc3cc(F)ccc3O2)cs1)c1ccc(-c2c3nc(c(-c4cc(S(=O)(=O)[O-])ccc4F)c4ccc([nH]4)c(-c4cc(S(=O)(=O)[O-])ccc4F)c4nc(c(-c5cc(S(=O)(=O)[O-])ccc5F)c5ccc2[nH]5)C=C4)C=C3)cc1
REMARK SMILES IDX 6 1 5 2 4 3 3 4 1 5 2 6 30 8 31 9 92 10 32 11 91 12 33 13
REMARK SMILES IDX 34 14 35 15 85 16 36 17 90 18 84 19 86 20 37 21 89 22 83 23
REMARK SMILES IDX 82 24 38 26 70 27 50 28 69 29 51 30 54 31 68 32 87 33 52 34
REMARK SMILES IDX 53 35 67 37 88 38 55 39 39 40 40 41 48 42 41 43 47 44 49 45
REMARK SMILES IDX 46 46 42 47 43 48 44 49 45 50 71 51 72 52 80 53 73 54 79 55
REMARK SMILES IDX 81 56 78 57 74 58 75 59 76 60 77 61 56 62 57 63 65 64 58 65
REMARK SMILES IDX 64 66 66 67 63 68 59 69 60 70 61 71 62 72 7 73 8 74 9 75
REMARK SMILES IDX 10 76 11 77 12 79 13 80 14 81 29 82 15 83 28 84 16 85 17 86
REMARK SMILES IDX 18 87 19 88 27 89 20 90 26 91 21 92 25 93 22 94 24 95 23 96
REMARK H PARENT 3 7 86 25 54 36 10 78
REMARK Flexibility Score: inf
ROOT
ATOM      1  C   UNL     1       4.229   0.528  -3.743  1.00  0.00     0.002 C 
ENDROOT
BRANCH   1   2
ATOM      2  C   UNL     1       4.737  -0.315  -2.572  1.00  0.00     0.021 C 
BRANCH   2   3
ATOM      3  C   UNL     1       4.482   0.287  -1.196  1.00  0.00     0.116 C 
BRANCH   3   4
ATOM      4  N   UNL     1       3.064   0.447  -0.920  1.00  0.00    -0.352 N 
ATOM      5  O   UNL     1       1.102   0.063   0.109  1.00  0.00    -0.269 OA
ATOM      6  C   UNL     1       2.328  -0.002   0.148  1.00  0.00     0.251 C 
ATOM      7  H   UNL     1       2.558   0.951  -1.597  1.00  0.00     0.163 HD
BRANCH   6   8
ATOM      8  C   UNL     1       3.006  -0.568   1.336  1.00  0.00     0.039 A 
ATOM      9  C   UNL     1       2.440  -1.673   1.975  1.00  0.00     0.014 A 
ATOM     10  C   UNL     1       4.175   0.007   1.842  1.00  0.00     0.014 A 
ATOM     11  C   UNL     1       3.058  -2.209   3.107  1.00  0.00     0.010 A 
ATOM     12  C   UNL     1       4.843  -0.590   2.905  1.00  0.00     0.010 A 
ATOM     13  C   UNL     1       4.272  -1.680   3.576  1.00  0.00    -0.014 A 
BRANCH  13  14
ATOM     14  C   UNL     1       4.921  -2.212   4.802  1.00  0.00     0.031 A 
ATOM     15  C   UNL     1       5.112  -1.321   6.001  1.00  0.00     0.074 A 
ATOM     16  C   UNL     1       5.359  -3.485   4.834  1.00  0.00     0.049 A 
ATOM     17  N   UNL     1       5.667  -1.595   7.153  1.00  0.00    -0.248 NA
ATOM     18  C   UNL     1       4.646   0.071   5.880  1.00  0.00     0.031 C 
ATOM     19  C   UNL     1       5.279  -4.426   3.717  1.00  0.00     0.029 A 
ATOM     20  N   UNL     1       5.956  -4.207   5.838  1.00  0.00    -0.354 N 
ATOM     21  C   UNL     1       5.613  -0.416   7.888  1.00  0.00     0.074 A 
ATOM     22  C   UNL     1       5.064   0.598   7.019  1.00  0.00     0.031 C 
ATOM     23  C   UNL     1       5.770  -5.610   4.108  1.00  0.00     0.029 A 
ATOM     24  C   UNL     1       6.244  -5.505   5.488  1.00  0.00     0.049 A 
ATOM     25  H   UNL     1       6.158  -3.830   6.725  1.00  0.00     0.167 HD
ATOM     26  C   UNL     1       5.942  -0.208   9.185  1.00  0.00     0.034 A 
ATOM     27  C   UNL     1       6.822  -6.500   6.193  1.00  0.00     0.034 A 
ATOM     28  C   UNL     1       6.475  -1.233  10.045  1.00  0.00     0.049 A 
ATOM     29  C   UNL     1       7.192  -6.251   7.633  1.00  0.00     0.074 A 
ATOM     30  C   UNL     1       6.816  -1.135  11.382  1.00  0.00     0.029 A 
ATOM     31  N   UNL     1       6.739  -2.541   9.661  1.00  0.00    -0.354 N 
ATOM     32  N   UNL     1       7.063  -5.152   8.340  1.00  0.00    -0.248 NA
ATOM     33  C   UNL     1       7.767  -7.377   8.382  1.00  0.00     0.031 C 
ATOM     34  C   UNL     1       7.346  -2.361  11.787  1.00  0.00     0.029 A 
ATOM     35  C   UNL     1       7.259  -3.253  10.730  1.00  0.00     0.049 A 
ATOM     36  H   UNL     1       6.580  -2.909   8.761  1.00  0.00     0.167 HD
ATOM     37  C   UNL     1       7.523  -5.457   9.618  1.00  0.00     0.074 A 
ATOM     38  C   UNL     1       7.899  -6.856   9.595  1.00  0.00     0.031 C 
ATOM     39  C   UNL     1       7.631  -4.650  10.705  1.00  0.00     0.034 A 
BRANCH  26  40
ATOM     40  C   UNL     1       5.699   1.163   9.774  1.00  0.00     0.023 A 
ATOM     41  C   UNL     1       6.765   1.906  10.313  1.00  0.00     0.031 A 
ATOM     42  C   UNL     1       4.398   1.688   9.896  1.00  0.00     0.131 A 
ATOM     43  C   UNL     1       6.508   3.113  10.975  1.00  0.00     0.055 A 
ATOM     44  C   UNL     1       4.154   2.919  10.505  1.00  0.00     0.041 A 
ATOM     45  F   UNL     1       3.342   1.019   9.403  1.00  0.00    -0.206 F 
ATOM     46  C   UNL     1       5.211   3.631  11.062  1.00  0.00     0.022 A 
BRANCH  43  47
ATOM     47  S   UNL     1       7.831   4.025  11.816  1.00  0.00     0.124 S 
ATOM     48  O   UNL     1       7.788   5.315  11.132  1.00  0.00    -0.237 OA
ATOM     49  O   UNL     1       7.361   4.036  13.198  1.00  0.00    -0.237 OA
ATOM     50  O   UNL     1       9.024   3.226  11.561  1.00  0.00    -0.744 OA
ENDBRANCH  43  47
ENDBRANCH  26  40
BRANCH  27  51
ATOM     51  C   UNL     1       6.999  -7.830   5.540  1.00  0.00     0.023 A 
ATOM     52  C   UNL     1       7.798  -7.963   4.389  1.00  0.00     0.031 A 
ATOM     53  C   UNL     1       6.262  -8.949   5.963  1.00  0.00     0.131 A 
ATOM     54  C   UNL     1       7.768  -9.154   3.652  1.00  0.00     0.055 A 
ATOM     55  C   UNL     1       6.300 -10.161   5.272  1.00  0.00     0.041 A 
ATOM     56  F   UNL     1       5.474  -8.869   7.047  1.00  0.00    -0.206 F 
ATOM     57  C   UNL     1       7.038 -10.261   4.096  1.00  0.00     0.022 A 
BRANCH  54  58
ATOM     58  S   UNL     1       8.543  -9.249   2.014  1.00  0.00     0.124 S 
ATOM     59  O   UNL     1       9.457 -10.376   2.171  1.00  0.00    -0.237 OA
ATOM     60  O   UNL     1       7.387  -9.488   1.153  1.00  0.00    -0.237 OA
ATOM     61  O   UNL     1       9.175  -7.943   1.854  1.00  0.00    -0.744 OA
ENDBRANCH  54  58
ENDBRANCH  27  51
BRANCH  39  62
ATOM     62  C   UNL     1       8.187  -5.232  11.987  1.00  0.00     0.023 A 
ATOM     63  C   UNL     1       7.409  -5.223  13.162  1.00  0.00     0.031 A 
ATOM     64  C   UNL     1       9.525  -5.650  12.084  1.00  0.00     0.131 A 
ATOM     65  C   UNL     1       7.988  -5.581  14.386  1.00  0.00     0.055 A 
ATOM     66  C   UNL     1      10.080  -6.064  13.296  1.00  0.00     0.041 A 
ATOM     67  F   UNL     1      10.317  -5.661  10.999  1.00  0.00    -0.206 F 
ATOM     68  C   UNL     1       9.315  -6.014  14.457  1.00  0.00     0.022 A 
BRANCH  65  69
ATOM     69  S   UNL     1       7.076  -5.398  15.945  1.00  0.00     0.124 S 
ATOM     70  O   UNL     1       7.028  -6.775  16.429  1.00  0.00    -0.237 OA
ATOM     71  O   UNL     1       7.943  -4.500  16.703  1.00  0.00    -0.237 OA
ATOM     72  O   UNL     1       5.792  -4.836  15.538  1.00  0.00    -0.744 OA
ENDBRANCH  65  69
ENDBRANCH  39  62
ENDBRANCH  13  14
ENDBRANCH   6   8
ENDBRANCH   3   4
ENDBRANCH   2   3
ENDBRANCH   1   2
BRANCH   1  73
ATOM     73  C   UNL     1       4.793   1.950  -3.815  1.00  0.00     0.002 C 
BRANCH  73  74
ATOM     74  C   UNL     1       6.321   2.042  -3.835  1.00  0.00     0.021 C 
BRANCH  74  75
ATOM     75  C   UNL     1       6.987   1.260  -4.963  1.00  0.00     0.116 C 
BRANCH  75  76
ATOM     76  N   UNL     1       6.696   1.822  -6.270  1.00  0.00    -0.351 N 
ATOM     77  C   UNL     1       7.573   2.254  -7.239  1.00  0.00     0.261 C 
ATOM     78  H   UNL     1       5.741   1.907  -6.493  1.00  0.00     0.163 HD
ATOM     79  O   UNL     1       7.110   2.880  -8.195  1.00  0.00    -0.268 OA
BRANCH  77  80
ATOM     80  C   UNL     1       8.980   1.954  -7.075  1.00  0.00     0.096 A 
ATOM     81  C   UNL     1       9.588   0.749  -6.765  1.00  0.00     0.072 A 
ATOM     82  S   UNL     1      10.129   3.207  -7.276  1.00  0.00    -0.135 S 
ATOM     83  C   UNL     1      10.977   0.908  -6.517  1.00  0.00     0.131 A 
ATOM     84  C   UNL     1      11.411   2.182  -6.801  1.00  0.00     0.112 A 
BRANCH  83  85
ATOM     85  O   UNL     1      11.868   0.012  -6.029  1.00  0.00    -0.489 OA
BRANCH  85  86
ATOM     86  C   UNL     1      11.330  -1.066  -5.257  1.00  0.00     0.275 C 
BRANCH  86  87
ATOM     87  C   UNL     1      10.582  -0.685  -3.961  1.00  0.00     0.215 C 
ATOM     88  C   UNL     1      10.793   0.750  -3.455  1.00  0.00     0.088 C 
ATOM     89  O   UNL     1      10.954  -1.620  -2.903  1.00  0.00    -0.486 OA
ATOM     90  C   UNL     1      10.929   0.505  -2.009  1.00  0.00     0.001 A 
ATOM     91  C   UNL     1      11.050  -0.853  -1.773  1.00  0.00     0.123 A 
ATOM     92  C   UNL     1      11.025   1.428  -0.983  1.00  0.00     0.047 A 
ATOM     93  C   UNL     1      11.282  -1.347  -0.504  1.00  0.00     0.050 A 
ATOM     94  C   UNL     1      11.258   0.943   0.299  1.00  0.00     0.123 A 
ATOM     95  C   UNL     1      11.389  -0.429   0.546  1.00  0.00     0.043 A 
ATOM     96  F   UNL     1      11.379   1.812   1.310  1.00  0.00    -0.207 F 
ENDBRANCH  86  87
ENDBRANCH  85  86
ENDBRANCH  83  85
ENDBRANCH  77  80
ENDBRANCH  75  76
ENDBRANCH  74  75
ENDBRANCH  73  74
ENDBRANCH   1  73
TORSDOF 19
