REMARK SMILES CCCC[C@@](CC)(C[C@H]1CCOC1)C(=O)NCCCCCCNC(=O)c1ccc(-c2c3nc(c(-c4cc(S(=O)(=O)[O-])ccc4F)c4ccc([nH]4)c(-c4cc(S(=O)(=O)[O-])ccc4F)c4nc(c(-c5cc(S(=O)(=O)[O-])ccc5F)c5ccc2[nH]5)C=C4)C=C3)cc1
REMARK SMILES IDX 19 1 18 2 17 3 16 4 14 5 15 6 5 8 4 9 3 10 2 11 1 12 6 13
REMARK SMILES IDX 7 14 8 15 9 16 10 17 13 18 11 19 12 20 20 21 21 22 22 23
REMARK SMILES IDX 23 24 24 25 25 27 26 28 27 29 88 30 28 31 87 32 29 33 30 34
REMARK SMILES IDX 31 35 81 36 32 37 86 38 80 39 82 40 33 41 85 42 79 43 78 44
REMARK SMILES IDX 34 46 66 47 46 48 65 49 47 50 50 51 64 52 83 53 48 54 49 55
REMARK SMILES IDX 63 57 84 58 51 59 35 60 36 61 44 62 37 63 43 64 45 65 42 66
REMARK SMILES IDX 38 67 39 68 40 69 41 70 67 71 68 72 76 73 69 74 75 75 77 76
REMARK SMILES IDX 74 77 70 78 71 79 72 80 73 81 52 82 53 83 61 84 54 85 60 86
REMARK SMILES IDX 62 87 59 88 55 89 56 90 57 91 58 92
REMARK H PARENT 16 7 23 26 82 45 50 56
REMARK Flexibility Score: inf
ROOT
ATOM      1  C   UNL     1       1.583   6.088  -0.180  1.00  0.00     0.002 C 
ENDROOT
BRANCH   1   2
ATOM      2  C   UNL     1       0.166   5.530  -0.006  1.00  0.00     0.021 C 
BRANCH   2   3
ATOM      3  C   UNL     1      -0.131   4.316  -0.885  1.00  0.00     0.116 C 
BRANCH   3   4
ATOM      4  N   UNL     1       0.741   3.215  -0.526  1.00  0.00    -0.356 N 
ATOM      5  C   UNL     1       0.546   2.083   0.194  1.00  0.00     0.226 C 
ATOM      6  O   UNL     1       1.578   1.592   0.655  1.00  0.00    -0.274 OA
ATOM      7  H   UNL     1       1.657   3.307  -0.875  1.00  0.00     0.163 HD
BRANCH   5   8
ATOM      8  C   UNL     1      -0.854   1.477   0.454  1.00  0.00     0.049 C 
BRANCH   8   9
ATOM      9  C   UNL     1      -0.768   0.071   1.153  1.00  0.00     0.017 C 
BRANCH   9  10
ATOM     10  C   UNL     1      -0.186  -1.143   0.397  1.00  0.00     0.001 C 
BRANCH  10  11
ATOM     11  C   UNL     1       1.333  -1.220   0.220  1.00  0.00    -0.003 C 
ATOM     12  C   UNL     1       2.118  -1.202   1.527  1.00  0.00     0.004 C 
ENDBRANCH  10  11
ENDBRANCH   9  10
ENDBRANCH   8   9
BRANCH   8  13
ATOM     13  C   UNL     1      -1.558   1.322  -0.939  1.00  0.00     0.013 C 
ATOM     14  C   UNL     1      -3.013   0.873  -0.933  1.00  0.00     0.005 C 
ENDBRANCH   8  13
BRANCH   8  15
ATOM     15  C   UNL     1      -1.648   2.429   1.418  1.00  0.00     0.023 C 
BRANCH  15  16
ATOM     16  C   UNL     1      -1.165   2.600   2.876  1.00  0.00     0.018 C 
ATOM     17  C   UNL     1       0.314   2.748   3.170  1.00  0.00     0.034 C 
ATOM     18  C   UNL     1      -1.694   3.885   3.514  1.00  0.00     0.163 C 
ATOM     19  C   UNL     1       0.308   3.342   4.563  1.00  0.00     0.160 C 
ATOM     20  O   UNL     1      -0.874   4.146   4.662  1.00  0.00    -0.381 OA
ENDBRANCH  15  16
ENDBRANCH   8  15
ENDBRANCH   5   8
ENDBRANCH   3   4
ENDBRANCH   2   3
ENDBRANCH   1   2
BRANCH   1  21
ATOM     21  C   UNL     1       1.974   6.397  -1.629  1.00  0.00     0.002 C 
BRANCH  21  22
ATOM     22  C   UNL     1       0.981   7.284  -2.381  1.00  0.00     0.021 C 
BRANCH  22  23
ATOM     23  C   UNL     1       0.700   8.619  -1.705  1.00  0.00     0.116 C 
BRANCH  23  24
ATOM     24  N   UNL     1       1.893   9.444  -1.633  1.00  0.00    -0.352 N 
ATOM     25  C   UNL     1       2.082  10.718  -2.102  1.00  0.00     0.251 C 
ATOM     26  H   UNL     1       2.669   9.034  -1.187  1.00  0.00     0.163 HD
ATOM     27  O   UNL     1       3.218  11.183  -2.174  1.00  0.00    -0.269 OA
BRANCH  25  28
ATOM     28  C   UNL     1       0.915  11.511  -2.544  1.00  0.00     0.039 A 
ATOM     29  C   UNL     1       0.994  12.223  -3.741  1.00  0.00     0.014 A 
ATOM     30  C   UNL     1      -0.258  11.536  -1.783  1.00  0.00     0.014 A 
ATOM     31  C   UNL     1      -0.126  12.918  -4.202  1.00  0.00     0.010 A 
ATOM     32  C   UNL     1      -1.395  12.159  -2.285  1.00  0.00     0.010 A 
ATOM     33  C   UNL     1      -1.340  12.864  -3.497  1.00  0.00    -0.014 A 
BRANCH  33  34
ATOM     34  C   UNL     1      -2.555  13.550  -4.007  1.00  0.00     0.031 A 
ATOM     35  C   UNL     1      -3.181  14.665  -3.212  1.00  0.00     0.074 A 
ATOM     36  C   UNL     1      -3.120  13.140  -5.160  1.00  0.00     0.049 A 
ATOM     37  N   UNL     1      -4.271  15.345  -3.456  1.00  0.00    -0.248 NA
ATOM     38  C   UNL     1      -2.504  15.044  -1.963  1.00  0.00     0.031 C 
ATOM     39  C   UNL     1      -2.624  12.048  -6.001  1.00  0.00     0.029 A 
ATOM     40  N   UNL     1      -4.235  13.587  -5.824  1.00  0.00    -0.354 N 
ATOM     41  C   UNL     1      -4.414  16.228  -2.391  1.00  0.00     0.074 A 
ATOM     42  C   UNL     1      -3.338  15.944  -1.466  1.00  0.00     0.031 C 
ATOM     43  C   UNL     1      -3.411  11.933  -7.083  1.00  0.00     0.029 A 
ATOM     44  C   UNL     1      -4.498  12.902  -6.989  1.00  0.00     0.049 A 
ATOM     45  H   UNL     1      -4.794  14.328  -5.498  1.00  0.00     0.167 HD
ATOM     46  C   UNL     1      -5.340  17.203  -2.215  1.00  0.00     0.034 A 
ATOM     47  C   UNL     1      -5.508  13.030  -7.872  1.00  0.00     0.034 A 
ATOM     48  C   UNL     1      -6.405  17.473  -3.150  1.00  0.00     0.049 A 
ATOM     49  C   UNL     1      -6.555  14.089  -7.629  1.00  0.00     0.074 A 
ATOM     50  C   UNL     1      -7.373  18.460  -3.091  1.00  0.00     0.029 A 
ATOM     51  N   UNL     1      -6.650  16.748  -4.310  1.00  0.00    -0.354 N 
ATOM     52  N   UNL     1      -6.649  14.947  -6.639  1.00  0.00    -0.248 NA
ATOM     53  C   UNL     1      -7.626  14.203  -8.627  1.00  0.00     0.031 C 
ATOM     54  C   UNL     1      -8.247  18.283  -4.169  1.00  0.00     0.029 A 
ATOM     55  C   UNL     1      -7.774  17.244  -4.954  1.00  0.00     0.049 A 
ATOM     56  H   UNL     1      -6.106  15.992  -4.628  1.00  0.00     0.167 HD
ATOM     57  C   UNL     1      -7.770  15.726  -6.918  1.00  0.00     0.074 A 
ATOM     58  C   UNL     1      -8.306  15.245  -8.175  1.00  0.00     0.031 C 
ATOM     59  C   UNL     1      -8.305  16.749  -6.203  1.00  0.00     0.034 A 
BRANCH  46  60
ATOM     60  C   UNL     1      -5.252  18.027  -0.951  1.00  0.00     0.023 A 
ATOM     61  C   UNL     1      -4.127  18.821  -0.665  1.00  0.00     0.031 A 
ATOM     62  C   UNL     1      -6.293  18.002  -0.007  1.00  0.00     0.131 A 
ATOM     63  C   UNL     1      -4.035  19.492   0.564  1.00  0.00     0.055 A 
ATOM     64  C   UNL     1      -6.234  18.743   1.175  1.00  0.00     0.041 A 
ATOM     65  F   UNL     1      -7.383  17.245  -0.210  1.00  0.00    -0.206 F 
ATOM     66  C   UNL     1      -5.093  19.481   1.474  1.00  0.00     0.022 A 
BRANCH  63  67
ATOM     67  S   UNL     1      -2.451  20.248   1.019  1.00  0.00     0.124 S 
ATOM     68  O   UNL     1      -1.550  19.100   0.965  1.00  0.00    -0.237 OA
ATOM     69  O   UNL     1      -2.270  21.253  -0.022  1.00  0.00    -0.237 OA
ATOM     70  O   UNL     1      -2.696  20.775   2.361  1.00  0.00    -0.744 OA
ENDBRANCH  63  67
ENDBRANCH  46  60
BRANCH  47  71
ATOM     71  C   UNL     1      -5.596  12.131  -9.061  1.00  0.00     0.023 A 
ATOM     72  C   UNL     1      -5.532  12.647 -10.365  1.00  0.00     0.031 A 
ATOM     73  C   UNL     1      -5.801  10.747  -8.910  1.00  0.00     0.131 A 
ATOM     74  C   UNL     1      -5.729  11.797 -11.465  1.00  0.00     0.055 A 
ATOM     75  C   UNL     1      -5.932   9.896 -10.009  1.00  0.00     0.041 A 
ATOM     76  F   UNL     1      -5.869  10.199  -7.686  1.00  0.00    -0.206 F 
ATOM     77  C   UNL     1      -5.912  10.423 -11.296  1.00  0.00     0.022 A 
BRANCH  74  78
ATOM     78  S   UNL     1      -5.850  12.532 -13.119  1.00  0.00     0.124 S 
ATOM     79  O   UNL     1      -6.954  13.468 -12.945  1.00  0.00    -0.237 OA
ATOM     80  O   UNL     1      -4.526  13.123 -13.284  1.00  0.00    -0.237 OA
ATOM     81  O   UNL     1      -6.132  11.385 -13.980  1.00  0.00    -0.744 OA
ENDBRANCH  74  78
ENDBRANCH  47  71
BRANCH  59  82
ATOM     82  C   UNL     1      -9.505  17.450  -6.796  1.00  0.00     0.023 A 
ATOM     83  C   UNL     1     -10.737  16.796  -6.970  1.00  0.00     0.031 A 
ATOM     84  C   UNL     1      -9.408  18.793  -7.202  1.00  0.00     0.131 A 
ATOM     85  C   UNL     1     -11.802  17.466  -7.591  1.00  0.00     0.055 A 
ATOM     86  C   UNL     1     -10.492  19.476  -7.754  1.00  0.00     0.041 A 
ATOM     87  F   UNL     1      -8.255  19.468  -7.064  1.00  0.00    -0.206 F 
ATOM     88  C   UNL     1     -11.694  18.808  -7.965  1.00  0.00     0.022 A 
BRANCH  85  89
ATOM     89  S   UNL     1     -13.301  16.529  -7.998  1.00  0.00     0.124 S 
ATOM     90  O   UNL     1     -12.773  15.468  -8.851  1.00  0.00    -0.237 OA
ATOM     91  O   UNL     1     -13.776  16.111  -6.683  1.00  0.00    -0.237 OA
ATOM     92  O   UNL     1     -14.145  17.509  -8.679  1.00  0.00    -0.744 OA
ENDBRANCH  85  89
ENDBRANCH  59  82
ENDBRANCH  33  34
ENDBRANCH  25  28
ENDBRANCH  23  24
ENDBRANCH  22  23
ENDBRANCH  21  22
ENDBRANCH   1  21
TORSDOF 22
