REMARK SMILES CCC(CC)(NC(=O)N(C)C1CC[NH2+]CC1)C(=O)NCCCCCCNC(=O)c1ccc(-c2c3nc(c(-c4cc(S(=O)(=O)[O-])ccc4F)c4ccc([nH]4)c(-c4cc(S(=O)(=O)[O-])ccc4F)c4nc(c(-c5cc(S(=O)(=O)[O-])ccc5F)c5ccc2[nH]5)C=C4)C=C3)cc1
REMARK SMILES IDX 22 1 21 2 20 3 19 4 17 5 18 6 3 8 2 9 1 10 4 11 5 12 6 13
REMARK SMILES IDX 7 14 8 16 9 17 10 18 11 19 12 20 16 21 13 22 15 23 14 24
REMARK SMILES IDX 23 27 24 28 25 29 26 30 27 31 28 33 29 34 30 35 91 36 31 37
REMARK SMILES IDX 90 38 32 39 33 40 34 41 84 42 35 43 89 44 83 45 85 46 36 47
REMARK SMILES IDX 88 48 82 49 81 50 37 52 69 53 49 54 68 55 50 56 53 57 67 58
REMARK SMILES IDX 86 59 51 60 52 61 66 63 87 64 54 65 38 66 39 67 47 68 40 69
REMARK SMILES IDX 46 70 48 71 45 72 41 73 42 74 43 75 44 76 70 77 71 78 79 79
REMARK SMILES IDX 72 80 78 81 80 82 77 83 73 84 74 85 75 86 76 87 55 88 56 89
REMARK SMILES IDX 64 90 57 91 63 92 65 93 62 94 58 95 59 96 60 97 61 98
REMARK H PARENT 19 7 6 15 14 25 14 26 26 32 85 51 53 62
REMARK Flexibility Score: inf
ROOT
ATOM      1  C   UNL     1       4.594   3.431  -4.998  1.00  0.00     0.002 C 
ENDROOT
BRANCH   1   2
ATOM      2  C   UNL     1       3.073   3.436  -4.879  1.00  0.00     0.021 C 
BRANCH   2   3
ATOM      3  C   UNL     1       2.413   2.079  -4.727  1.00  0.00     0.116 C 
BRANCH   3   4
ATOM      4  N   UNL     1       2.966   1.287  -3.639  1.00  0.00    -0.354 N 
ATOM      5  C   UNL     1       2.510   1.010  -2.379  1.00  0.00     0.245 C 
ATOM      6  O   UNL     1       3.179   0.197  -1.732  1.00  0.00    -0.272 OA
ATOM      7  H   UNL     1       3.833   0.871  -3.849  1.00  0.00     0.163 HD
BRANCH   5   8
ATOM      8  C   UNL     1       1.152   1.577  -1.845  1.00  0.00     0.120 C 
BRANCH   8   9
ATOM      9  C   UNL     1       0.817   1.314  -0.343  1.00  0.00     0.035 C 
ATOM     10  C   UNL     1       0.962  -0.114   0.174  1.00  0.00     0.007 C 
ENDBRANCH   8   9
BRANCH   8  11
ATOM     11  C   UNL     1       0.097   0.782  -2.716  1.00  0.00     0.035 C 
ATOM     12  C   UNL     1      -1.383   1.047  -2.485  1.00  0.00     0.007 C 
ENDBRANCH   8  11
BRANCH   8  13
ATOM     13  N   UNL     1       1.081   3.059  -2.071  1.00  0.00    -0.323 N 
ATOM     14  C   UNL     1       1.802   4.179  -1.780  1.00  0.00     0.318 C 
ATOM     15  H   UNL     1       0.272   3.292  -2.582  1.00  0.00     0.166 HD
ATOM     16  O   UNL     1       1.201   5.236  -1.994  1.00  0.00    -0.249 OA
BRANCH  14  17
ATOM     17  N   UNL     1       3.130   4.171  -1.426  1.00  0.00    -0.324 N 
ATOM     18  C   UNL     1       3.829   3.065  -0.785  1.00  0.00     0.149 C 
BRANCH  17  19
ATOM     19  C   UNL     1       4.039   5.341  -1.705  1.00  0.00     0.097 C 
ATOM     20  C   UNL     1       4.520   6.074  -0.440  1.00  0.00     0.086 C 
ATOM     21  C   UNL     1       3.720   6.343  -2.842  1.00  0.00     0.086 C 
ATOM     22  C   UNL     1       3.710   7.320  -0.131  1.00  0.00     0.262 C 
ATOM     23  C   UNL     1       3.099   7.668  -2.408  1.00  0.00     0.262 C 
ATOM     24  N   UNL     1       3.784   8.246  -1.254  1.00  0.00    -0.346 N 
ATOM     25  H   UNL     1       4.762   8.418  -1.490  1.00  0.00     0.346 HD
ATOM     26  H   UNL     1       3.337   9.127  -0.999  1.00  0.00     0.346 HD
ENDBRANCH  17  19
ENDBRANCH  14  17
ENDBRANCH   8  13
ENDBRANCH   5   8
ENDBRANCH   3   4
ENDBRANCH   2   3
ENDBRANCH   1   2
BRANCH   1  27
ATOM     27  C   UNL     1       5.114   2.712  -6.239  1.00  0.00     0.002 C 
BRANCH  27  28
ATOM     28  C   UNL     1       4.464   3.162  -7.548  1.00  0.00     0.021 C 
BRANCH  28  29
ATOM     29  C   UNL     1       4.512   4.667  -7.791  1.00  0.00     0.116 C 
BRANCH  29  30
ATOM     30  N   UNL     1       5.871   5.133  -8.004  1.00  0.00    -0.352 N 
ATOM     31  C   UNL     1       6.420   5.663  -9.145  1.00  0.00     0.251 C 
ATOM     32  H   UNL     1       6.477   5.057  -7.232  1.00  0.00     0.163 HD
ATOM     33  O   UNL     1       7.640   5.773  -9.251  1.00  0.00    -0.269 OA
BRANCH  31  34
ATOM     34  C   UNL     1       5.528   6.073 -10.249  1.00  0.00     0.039 A 
ATOM     35  C   UNL     1       5.811   5.647 -11.547  1.00  0.00     0.014 A 
ATOM     36  C   UNL     1       4.392   6.847  -9.989  1.00  0.00     0.014 A 
ATOM     37  C   UNL     1       4.917   5.945 -12.578  1.00  0.00     0.010 A 
ATOM     38  C   UNL     1       3.464   7.072 -11.002  1.00  0.00     0.010 A 
ATOM     39  C   UNL     1       3.717   6.625 -12.308  1.00  0.00    -0.014 A 
BRANCH  39  40
ATOM     40  C   UNL     1       2.717   6.879 -13.380  1.00  0.00     0.031 A 
ATOM     41  C   UNL     1       2.370   8.290 -13.768  1.00  0.00     0.074 A 
ATOM     42  C   UNL     1       2.084   5.841 -13.963  1.00  0.00     0.049 A 
ATOM     43  N   UNL     1       1.480   8.718 -14.625  1.00  0.00    -0.248 NA
ATOM     44  C   UNL     1       3.104   9.363 -13.079  1.00  0.00     0.031 C 
ATOM     45  C   UNL     1       2.310   4.428 -13.647  1.00  0.00     0.029 A 
ATOM     46  N   UNL     1       1.118   5.809 -14.938  1.00  0.00    -0.354 N 
ATOM     47  C   UNL     1       1.539  10.107 -14.574  1.00  0.00     0.074 A 
ATOM     48  C   UNL     1       2.507  10.446 -13.553  1.00  0.00     0.031 C 
ATOM     49  C   UNL     1       1.529   3.671 -14.433  1.00  0.00     0.029 A 
ATOM     50  C   UNL     1       0.705   4.539 -15.269  1.00  0.00     0.049 A 
ATOM     51  H   UNL     1       0.754   6.620 -15.361  1.00  0.00     0.167 HD
ATOM     52  C   UNL     1       0.867  11.013 -15.326  1.00  0.00     0.034 A 
ATOM     53  C   UNL     1      -0.241   4.120 -16.134  1.00  0.00     0.034 A 
ATOM     54  C   UNL     1      -0.091  10.656 -16.344  1.00  0.00     0.049 A 
ATOM     55  C   UNL     1      -1.010   5.149 -16.925  1.00  0.00     0.074 A 
ATOM     56  C   UNL     1      -0.791  11.491 -17.198  1.00  0.00     0.029 A 
ATOM     57  N   UNL     1      -0.496   9.360 -16.639  1.00  0.00    -0.354 N 
ATOM     58  N   UNL     1      -0.905   6.458 -16.900  1.00  0.00    -0.248 NA
ATOM     59  C   UNL     1      -2.018   4.644 -17.865  1.00  0.00     0.031 C 
ATOM     60  C   UNL     1      -1.675  10.710 -17.948  1.00  0.00     0.029 A 
ATOM     61  C   UNL     1      -1.464   9.377 -17.633  1.00  0.00     0.049 A 
ATOM     62  H   UNL     1      -0.146   8.548 -16.206  1.00  0.00     0.167 HD
ATOM     63  C   UNL     1      -1.811   6.929 -17.847  1.00  0.00     0.074 A 
ATOM     64  C   UNL     1      -2.440   5.764 -18.433  1.00  0.00     0.031 C 
ATOM     65  C   UNL     1      -2.093   8.209 -18.203  1.00  0.00     0.034 A 
BRANCH  52  66
ATOM     66  C   UNL     1       1.127  12.476 -15.053  1.00  0.00     0.023 A 
ATOM     67  C   UNL     1       2.401  13.047 -15.227  1.00  0.00     0.031 A 
ATOM     68  C   UNL     1       0.093  13.310 -14.592  1.00  0.00     0.131 A 
ATOM     69  C   UNL     1       2.625  14.385 -14.872  1.00  0.00     0.055 A 
ATOM     70  C   UNL     1       0.302  14.664 -14.323  1.00  0.00     0.041 A 
ATOM     71  F   UNL     1      -1.139  12.820 -14.383  1.00  0.00    -0.206 F 
ATOM     72  C   UNL     1       1.578  15.206 -14.447  1.00  0.00     0.022 A 
BRANCH  69  73
ATOM     73  S   UNL     1       4.332  14.995 -14.828  1.00  0.00     0.124 S 
ATOM     74  O   UNL     1       4.950  14.074 -13.877  1.00  0.00    -0.237 OA
ATOM     75  O   UNL     1       4.752  14.856 -16.218  1.00  0.00    -0.237 OA
ATOM     76  O   UNL     1       4.193  16.370 -14.352  1.00  0.00    -0.744 OA
ENDBRANCH  69  73
ENDBRANCH  52  66
BRANCH  53  77
ATOM     77  C   UNL     1      -0.534   2.664 -16.290  1.00  0.00     0.023 A 
ATOM     78  C   UNL     1      -0.334   2.012 -17.517  1.00  0.00     0.031 A 
ATOM     79  C   UNL     1      -1.066   1.914 -15.226  1.00  0.00     0.131 A 
ATOM     80  C   UNL     1      -0.712   0.668 -17.666  1.00  0.00     0.055 A 
ATOM     81  C   UNL     1      -1.383   0.561 -15.361  1.00  0.00     0.041 A 
ATOM     82  F   UNL     1      -1.278   2.486 -14.030  1.00  0.00    -0.206 F 
ATOM     83  C   UNL     1      -1.219  -0.066 -16.592  1.00  0.00     0.022 A 
BRANCH  80  84
ATOM     84  S   UNL     1      -0.624  -0.081 -19.316  1.00  0.00     0.124 S 
ATOM     85  O   UNL     1      -1.481   0.808 -20.090  1.00  0.00    -0.237 OA
ATOM     86  O   UNL     1       0.805  -0.010 -19.605  1.00  0.00    -0.237 OA
ATOM     87  O   UNL     1      -1.148  -1.429 -19.105  1.00  0.00    -0.744 OA
ENDBRANCH  80  84
ENDBRANCH  53  77
BRANCH  65  88
ATOM     88  C   UNL     1      -3.096   8.411 -19.314  1.00  0.00     0.023 A 
ATOM     89  C   UNL     1      -4.449   8.057 -19.168  1.00  0.00     0.031 A 
ATOM     90  C   UNL     1      -2.688   8.965 -20.541  1.00  0.00     0.131 A 
ATOM     91  C   UNL     1      -5.332   8.209 -20.248  1.00  0.00     0.055 A 
ATOM     92  C   UNL     1      -3.585   9.177 -21.588  1.00  0.00     0.041 A 
ATOM     93  F   UNL     1      -1.407   9.317 -20.739  1.00  0.00    -0.206 F 
ATOM     94  C   UNL     1      -4.913   8.786 -21.450  1.00  0.00     0.022 A 
BRANCH  91  95
ATOM     95  S   UNL     1      -7.016   7.553 -20.096  1.00  0.00     0.124 S 
ATOM     96  O   UNL     1      -6.768   6.141 -19.823  1.00  0.00    -0.237 OA
ATOM     97  O   UNL     1      -7.556   8.331 -18.986  1.00  0.00    -0.237 OA
ATOM     98  O   UNL     1      -7.614   7.836 -21.400  1.00  0.00    -0.744 OA
ENDBRANCH  91  95
ENDBRANCH  65  88
ENDBRANCH  39  40
ENDBRANCH  31  34
ENDBRANCH  29  30
ENDBRANCH  28  29
ENDBRANCH  27  28
ENDBRANCH   1  27
TORSDOF 21
