REMARK SMILES CNC(=O)NC1=[NH+]N=CN[C@@H]1C(=O)NCCCCCCNC(=O)c1ccc(-c2c3nc(c(-c4cc(S(=O)(=O)[O-])ccc4F)c4ccc([nH]4)c(-c4cc(S(=O)(=O)[O-])ccc4F)c4nc(c(-c5cc(S(=O)(=O)[O-])ccc5F)c5ccc2[nH]5)C=C4)C=C3)cc1
REMARK SMILES IDX 19 1 18 2 17 3 16 4 15 5 14 6 12 7 13 8 11 10 1 11 2 12 3 13
REMARK SMILES IDX 4 15 5 16 6 17 7 19 8 20 10 22 9 23 20 25 21 26 22 27 23 29
REMARK SMILES IDX 24 30 25 31 86 32 26 33 85 34 27 35 28 36 29 37 79 38 30 39
REMARK SMILES IDX 84 40 78 41 80 42 31 43 83 44 77 45 76 46 32 48 64 49 44 50
REMARK SMILES IDX 63 51 45 52 48 53 62 54 81 55 46 56 47 57 61 59 82 60 49 61
REMARK SMILES IDX 33 62 34 63 42 64 35 65 41 66 43 67 40 68 36 69 37 70 38 71
REMARK SMILES IDX 39 72 65 73 66 74 74 75 67 76 73 77 75 78 72 79 68 80 69 81
REMARK SMILES IDX 70 82 71 83 50 84 51 85 59 86 52 87 58 88 60 89 57 90 53 91
REMARK SMILES IDX 54 92 55 93 56 94
REMARK H PARENT 14 9 2 14 5 18 7 21 10 24 21 28 80 47 48 58
REMARK Flexibility Score: inf
ROOT
ATOM      1  C   UNL     1      -4.602   6.453  -1.893  1.00  0.00     0.021 C 
ENDROOT
BRANCH   1   2
ATOM      2  C   UNL     1      -5.099   5.008  -1.981  1.00  0.00     0.002 C 
BRANCH   2   3
ATOM      3  C   UNL     1      -4.312   4.119  -2.950  1.00  0.00     0.002 C 
BRANCH   3   4
ATOM      4  C   UNL     1      -2.799   4.094  -2.703  1.00  0.00     0.021 C 
BRANCH   4   5
ATOM      5  C   UNL     1      -2.426   3.692  -1.278  1.00  0.00     0.116 C 
BRANCH   5   6
ATOM      6  N   UNL     1      -2.697   2.287  -1.052  1.00  0.00    -0.354 N 
ATOM      7  C   UNL     1      -1.833   1.235  -0.990  1.00  0.00     0.255 C 
ATOM      8  O   UNL     1      -2.325   0.100  -0.959  1.00  0.00    -0.272 OA
ATOM      9  H   UNL     1      -3.646   2.058  -0.924  1.00  0.00     0.163 HD
BRANCH   7  10
ATOM     10  C   UNL     1      -0.308   1.421  -0.991  1.00  0.00     0.287 C 
ATOM     11  C   UNL     1       1.873  -0.453   0.694  1.00  0.00     0.147 C 
ATOM     12  N   UNL     1       0.609  -0.546   1.400  1.00  0.00    -0.321 N 
ATOM     13  C   UNL     1      -0.159   0.453   1.911  1.00  0.00     0.406 C 
ATOM     14  H   UNL     1       0.260  -1.458   1.526  1.00  0.00     0.167 HD
ATOM     15  O   UNL     1      -0.999   0.206   2.770  1.00  0.00    -0.221 OA
ATOM     16  N   UNL     1       0.075   1.725   1.480  1.00  0.00    -0.191 N 
ATOM     17  C   UNL     1       0.207   2.218   0.205  1.00  0.00     0.309 C 
ATOM     18  H   UNL     1       0.164   2.396   2.196  1.00  0.00     0.317 HD
ATOM     19  N   UNL     1       0.817   3.362   0.124  1.00  0.00    -0.148 N 
ATOM     20  N   UNL     1       1.159   3.869  -1.143  1.00  0.00    -0.077 NA
ATOM     21  H   UNL     1       1.036   3.868   0.940  1.00  0.00     0.342 HD
ATOM     22  N   UNL     1       0.153   2.018  -2.235  1.00  0.00    -0.352 N 
ATOM     23  C   UNL     1       0.844   3.185  -2.192  1.00  0.00     0.241 C 
ATOM     24  H   UNL     1      -0.033   1.580  -3.096  1.00  0.00     0.163 HD
ENDBRANCH   7  10
ENDBRANCH   5   6
ENDBRANCH   4   5
ENDBRANCH   3   4
ENDBRANCH   2   3
ENDBRANCH   1   2
BRANCH   1  25
ATOM     25  C   UNL     1      -4.617   7.198  -3.223  1.00  0.00     0.116 C 
BRANCH  25  26
ATOM     26  N   UNL     1      -5.961   7.281  -3.770  1.00  0.00    -0.352 N 
ATOM     27  C   UNL     1      -6.682   8.394  -4.122  1.00  0.00     0.251 C 
ATOM     28  H   UNL     1      -6.417   6.420  -3.906  1.00  0.00     0.163 HD
ATOM     29  O   UNL     1      -7.888   8.305  -4.317  1.00  0.00    -0.269 OA
BRANCH  27  30
ATOM     30  C   UNL     1      -5.991   9.694  -4.247  1.00  0.00     0.039 A 
ATOM     31  C   UNL     1      -6.584  10.834  -3.703  1.00  0.00     0.014 A 
ATOM     32  C   UNL     1      -4.759   9.782  -4.903  1.00  0.00     0.014 A 
ATOM     33  C   UNL     1      -5.915  12.057  -3.774  1.00  0.00     0.010 A 
ATOM     34  C   UNL     1      -4.060  10.984  -4.903  1.00  0.00     0.010 A 
ATOM     35  C   UNL     1      -4.635  12.136  -4.346  1.00  0.00    -0.014 A 
BRANCH  35  36
ATOM     36  C   UNL     1      -3.888  13.420  -4.383  1.00  0.00     0.031 A 
ATOM     37  C   UNL     1      -3.543  14.051  -5.704  1.00  0.00     0.074 A 
ATOM     38  C   UNL     1      -3.478  13.985  -3.230  1.00  0.00     0.049 A 
ATOM     39  N   UNL     1      -2.845  15.130  -5.949  1.00  0.00    -0.248 NA
ATOM     40  C   UNL     1      -4.022  13.360  -6.911  1.00  0.00     0.031 C 
ATOM     41  C   UNL     1      -3.724  13.443  -1.891  1.00  0.00     0.029 A 
ATOM     42  N   UNL     1      -2.767  15.134  -2.996  1.00  0.00    -0.354 N 
ATOM     43  C   UNL     1      -2.794  15.243  -7.334  1.00  0.00     0.074 A 
ATOM     44  C   UNL     1      -3.473  14.084  -7.873  1.00  0.00     0.031 C 
ATOM     45  C   UNL     1      -3.197  14.274  -0.978  1.00  0.00     0.029 A 
ATOM     46  C   UNL     1      -2.532  15.378  -1.662  1.00  0.00     0.049 A 
ATOM     47  H   UNL     1      -2.453  15.728  -3.715  1.00  0.00     0.167 HD
ATOM     48  C   UNL     1      -2.251  16.233  -8.085  1.00  0.00     0.034 A 
ATOM     49  C   UNL     1      -1.847  16.370  -1.060  1.00  0.00     0.034 A 
ATOM     50  C   UNL     1      -1.583  17.384  -7.526  1.00  0.00     0.049 A 
ATOM     51  C   UNL     1      -1.217  17.439  -1.918  1.00  0.00     0.074 A 
ATOM     52  C   UNL     1      -1.042  18.471  -8.188  1.00  0.00     0.029 A 
ATOM     53  N   UNL     1      -1.354  17.592  -6.171  1.00  0.00    -0.354 N 
ATOM     54  N   UNL     1      -1.223  17.559  -3.226  1.00  0.00    -0.248 NA
ATOM     55  C   UNL     1      -0.500  18.511  -1.218  1.00  0.00     0.031 C 
ATOM     56  C   UNL     1      -0.418  19.294  -7.244  1.00  0.00     0.029 A 
ATOM     57  C   UNL     1      -0.647  18.770  -5.982  1.00  0.00     0.049 A 
ATOM     58  H   UNL     1      -1.650  16.990  -5.450  1.00  0.00     0.167 HD
ATOM     59  C   UNL     1      -0.537  18.740  -3.501  1.00  0.00     0.074 A 
ATOM     60  C   UNL     1      -0.149  19.300  -2.223  1.00  0.00     0.031 C 
ATOM     61  C   UNL     1      -0.256  19.311  -4.701  1.00  0.00     0.034 A 
BRANCH  48  62
ATOM     62  C   UNL     1      -2.337  16.096  -9.587  1.00  0.00     0.023 A 
ATOM     63  C   UNL     1      -3.572  16.051 -10.258  1.00  0.00     0.031 A 
ATOM     64  C   UNL     1      -1.167  15.985 -10.360  1.00  0.00     0.131 A 
ATOM     65  C   UNL     1      -3.612  15.821 -11.641  1.00  0.00     0.055 A 
ATOM     66  C   UNL     1      -1.212  15.845 -11.749  1.00  0.00     0.041 A 
ATOM     67  F   UNL     1       0.042  15.997  -9.777  1.00  0.00    -0.206 F 
ATOM     68  C   UNL     1      -2.440  15.746 -12.396  1.00  0.00     0.022 A 
BRANCH  65  69
ATOM     69  S   UNL     1      -5.215  15.470 -12.414  1.00  0.00     0.124 S 
ATOM     70  O   UNL     1      -5.653  14.295 -11.663  1.00  0.00    -0.237 OA
ATOM     71  O   UNL     1      -5.960  16.699 -12.171  1.00  0.00    -0.237 OA
ATOM     72  O   UNL     1      -4.872  15.213 -13.812  1.00  0.00    -0.744 OA
ENDBRANCH  65  69
ENDBRANCH  48  62
BRANCH  49  73
ATOM     73  C   UNL     1      -1.703  16.399   0.424  1.00  0.00     0.023 A 
ATOM     74  C   UNL     1      -2.235  17.454   1.183  1.00  0.00     0.031 A 
ATOM     75  C   UNL     1      -0.988  15.396   1.104  1.00  0.00     0.131 A 
ATOM     76  C   UNL     1      -2.001  17.509   2.566  1.00  0.00     0.055 A 
ATOM     77  C   UNL     1      -0.810  15.424   2.488  1.00  0.00     0.041 A 
ATOM     78  F   UNL     1      -0.459  14.363   0.428  1.00  0.00    -0.206 F 
ATOM     79  C   UNL     1      -1.306  16.494   3.225  1.00  0.00     0.022 A 
BRANCH  76  80
ATOM     80  S   UNL     1      -2.536  18.984   3.477  1.00  0.00     0.124 S 
ATOM     81  O   UNL     1      -1.830  20.044   2.766  1.00  0.00    -0.237 OA
ATOM     82  O   UNL     1      -3.983  18.944   3.297  1.00  0.00    -0.237 OA
ATOM     83  O   UNL     1      -2.071  18.729   4.839  1.00  0.00    -0.744 OA
ENDBRANCH  76  80
ENDBRANCH  49  73
BRANCH  61  84
ATOM     84  C   UNL     1       0.467  20.637  -4.678  1.00  0.00     0.023 A 
ATOM     85  C   UNL     1       1.785  20.756  -4.203  1.00  0.00     0.031 A 
ATOM     86  C   UNL     1      -0.179  21.802  -5.130  1.00  0.00     0.131 A 
ATOM     87  C   UNL     1       2.392  22.019  -4.135  1.00  0.00     0.055 A 
ATOM     88  C   UNL     1       0.455  23.045  -5.125  1.00  0.00     0.041 A 
ATOM     89  F   UNL     1      -1.440  21.749  -5.590  1.00  0.00    -0.206 F 
ATOM     90  C   UNL     1       1.743  23.161  -4.611  1.00  0.00     0.022 A 
BRANCH  87  91
ATOM     91  S   UNL     1       4.006  22.168  -3.320  1.00  0.00     0.124 S 
ATOM     92  O   UNL     1       3.721  21.648  -1.986  1.00  0.00    -0.237 OA
ATOM     93  O   UNL     1       4.858  21.333  -4.161  1.00  0.00    -0.237 OA
ATOM     94  O   UNL     1       4.290  23.600  -3.380  1.00  0.00    -0.744 OA
ENDBRANCH  87  91
ENDBRANCH  61  84
ENDBRANCH  35  36
ENDBRANCH  27  30
ENDBRANCH  25  26
ENDBRANCH   1  25
TORSDOF 16
