REMARK SMILES C[C@H]1[C@H](C(=O)NCCCCCCNC(=O)c2ccc(-c3c4nc(c(-c5cc(S(=O)(=O)[O-])ccc5F)c5ccc([nH]5)c(-c5cc(S(=O)(=O)[O-])ccc5F)c5nc(c(-c6cc(S(=O)(=O)[O-])ccc6F)c6ccc3[nH]6)C=C5)C=C4)cc2)CCN1C(=O)COc1ccccc1F
REMARK SMILES IDX 9 1 8 2 7 3 6 4 4 5 5 6 3 8 1 9 2 10 81 11 79 12 80 13 82 14
REMARK SMILES IDX 83 15 84 16 85 17 86 18 87 19 91 20 88 21 90 22 92 23 89 24
REMARK SMILES IDX 10 25 11 26 12 27 13 28 14 29 15 31 16 32 17 33 78 34 18 35
REMARK SMILES IDX 77 36 19 37 20 38 21 39 71 40 22 41 76 42 70 43 72 44 23 45
REMARK SMILES IDX 75 46 69 47 68 48 24 50 56 51 36 52 55 53 37 54 40 55 54 56
REMARK SMILES IDX 73 57 38 58 39 59 53 61 74 62 41 63 25 64 26 65 34 66 27 67
REMARK SMILES IDX 33 68 35 69 32 70 28 71 29 72 30 73 31 74 57 75 58 76 66 77
REMARK SMILES IDX 59 78 65 79 67 80 64 81 60 82 61 83 62 84 63 85 42 86 43 87
REMARK SMILES IDX 51 88 44 89 50 90 52 91 49 92 45 93 46 94 47 95 48 96
REMARK H PARENT 6 7 13 30 72 49 40 60
REMARK Flexibility Score: inf
ROOT
ATOM      1  C   UNL     1      -0.120   1.026   5.343  1.00  0.00     0.002 C 
ENDROOT
BRANCH   1   2
ATOM      2  C   UNL     1      -0.004   0.208   4.053  1.00  0.00     0.021 C 
BRANCH   2   3
ATOM      3  C   UNL     1      -0.948   0.678   2.951  1.00  0.00     0.116 C 
BRANCH   3   4
ATOM      4  N   UNL     1      -0.526   1.961   2.417  1.00  0.00    -0.356 N 
ATOM      5  C   UNL     1      -0.096   2.308   1.177  1.00  0.00     0.225 C 
ATOM      6  O   UNL     1       0.276   3.472   1.003  1.00  0.00    -0.275 OA
ATOM      7  H   UNL     1      -0.558   2.703   3.063  1.00  0.00     0.163 HD
BRANCH   5   8
ATOM      8  C   UNL     1      -0.079   1.324   0.022  1.00  0.00     0.102 C 
ATOM      9  C   UNL     1       2.007   0.188  -0.755  1.00  0.00     0.032 C 
ATOM     10  C   UNL     1       0.862   0.123   0.255  1.00  0.00     0.094 C 
ATOM     11  N   UNL     1      -0.007  -1.049   0.110  1.00  0.00    -0.336 N 
ATOM     12  C   UNL     1      -1.465   0.766  -0.307  1.00  0.00     0.037 C 
ATOM     13  C   UNL     1      -1.246  -0.709  -0.561  1.00  0.00     0.121 C 
BRANCH  11  14
ATOM     14  C   UNL     1       0.121  -2.302   0.680  1.00  0.00     0.260 C 
ATOM     15  O   UNL     1      -0.868  -3.017   0.876  1.00  0.00    -0.271 OA
BRANCH  14  16
ATOM     16  C   UNL     1       1.503  -2.816   1.097  1.00  0.00     0.329 C 
BRANCH  16  17
ATOM     17  O   UNL     1       2.656  -2.659   0.298  1.00  0.00    -0.481 OA
BRANCH  17  18
ATOM     18  C   UNL     1       2.749  -3.289  -0.911  1.00  0.00     0.155 A 
ATOM     19  C   UNL     1       4.064  -3.570  -1.301  1.00  0.00     0.049 A 
ATOM     20  C   UNL     1       1.726  -3.556  -1.822  1.00  0.00     0.165 A 
ATOM     21  C   UNL     1       4.345  -4.095  -2.567  1.00  0.00     0.004 A 
ATOM     22  C   UNL     1       2.001  -4.065  -3.091  1.00  0.00     0.043 A 
ATOM     23  F   UNL     1       0.445  -3.286  -1.562  1.00  0.00    -0.203 F 
ATOM     24  C   UNL     1       3.312  -4.333  -3.468  1.00  0.00     0.003 A 
ENDBRANCH  17  18
ENDBRANCH  16  17
ENDBRANCH  14  16
ENDBRANCH  11  14
ENDBRANCH   5   8
ENDBRANCH   3   4
ENDBRANCH   2   3
ENDBRANCH   1   2
BRANCH   1  25
ATOM     25  C   UNL     1      -1.527   1.067   5.948  1.00  0.00     0.002 C 
BRANCH  25  26
ATOM     26  C   UNL     1      -2.157  -0.306   6.200  1.00  0.00     0.021 C 
BRANCH  26  27
ATOM     27  C   UNL     1      -1.342  -1.210   7.118  1.00  0.00     0.116 C 
BRANCH  27  28
ATOM     28  N   UNL     1      -1.174  -0.623   8.438  1.00  0.00    -0.352 N 
ATOM     29  C   UNL     1      -1.511  -1.138   9.663  1.00  0.00     0.251 C 
ATOM     30  H   UNL     1      -0.759   0.270   8.454  1.00  0.00     0.163 HD
ATOM     31  O   UNL     1      -1.520  -0.405  10.651  1.00  0.00    -0.269 OA
BRANCH  29  32
ATOM     32  C   UNL     1      -1.881  -2.563   9.782  1.00  0.00     0.039 A 
ATOM     33  C   UNL     1      -2.986  -2.914  10.560  1.00  0.00     0.014 A 
ATOM     34  C   UNL     1      -1.138  -3.550   9.127  1.00  0.00     0.014 A 
ATOM     35  C   UNL     1      -3.380  -4.252  10.632  1.00  0.00     0.010 A 
ATOM     36  C   UNL     1      -1.579  -4.870   9.137  1.00  0.00     0.010 A 
ATOM     37  C   UNL     1      -2.702  -5.236   9.894  1.00  0.00    -0.014 A 
BRANCH  37  38
ATOM     38  C   UNL     1      -3.154  -6.652   9.905  1.00  0.00     0.031 A 
ATOM     39  C   UNL     1      -2.257  -7.726  10.457  1.00  0.00     0.074 A 
ATOM     40  C   UNL     1      -4.350  -6.973   9.374  1.00  0.00     0.049 A 
ATOM     41  N   UNL     1      -2.446  -9.020  10.503  1.00  0.00    -0.248 NA
ATOM     42  C   UNL     1      -0.964  -7.290  11.005  1.00  0.00     0.031 C 
ATOM     43  C   UNL     1      -5.290  -6.022   8.777  1.00  0.00     0.029 A 
ATOM     44  N   UNL     1      -4.979  -8.185   9.244  1.00  0.00    -0.354 N 
ATOM     45  C   UNL     1      -1.297  -9.553  11.076  1.00  0.00     0.074 A 
ATOM     46  C   UNL     1      -0.390  -8.446  11.296  1.00  0.00     0.031 C 
ATOM     47  C   UNL     1      -6.388  -6.682   8.375  1.00  0.00     0.029 A 
ATOM     48  C   UNL     1      -6.210  -8.107   8.633  1.00  0.00     0.049 A 
ATOM     49  H   UNL     1      -4.587  -9.032   9.558  1.00  0.00     0.167 HD
ATOM     50  C   UNL     1      -1.033 -10.841  11.410  1.00  0.00     0.034 A 
ATOM     51  C   UNL     1      -7.089  -9.075   8.305  1.00  0.00     0.034 A 
ATOM     52  C   UNL     1      -1.952 -11.930  11.184  1.00  0.00     0.049 A 
ATOM     53  C   UNL     1      -6.752 -10.506   8.642  1.00  0.00     0.074 A 
ATOM     54  C   UNL     1      -1.809 -13.263  11.526  1.00  0.00     0.029 A 
ATOM     55  N   UNL     1      -3.181 -11.817  10.544  1.00  0.00    -0.354 N 
ATOM     56  N   UNL     1      -5.683 -10.988   9.232  1.00  0.00    -0.248 NA
ATOM     57  C   UNL     1      -7.746 -11.523   8.274  1.00  0.00     0.031 C 
ATOM     58  C   UNL     1      -2.908 -13.967  11.024  1.00  0.00     0.029 A 
ATOM     59  C   UNL     1      -3.785 -13.062  10.447  1.00  0.00     0.049 A 
ATOM     60  H   UNL     1      -3.566 -10.975  10.208  1.00  0.00     0.167 HD
ATOM     61  C   UNL     1      -5.891 -12.361   9.335  1.00  0.00     0.074 A 
ATOM     62  C   UNL     1      -7.195 -12.625   8.762  1.00  0.00     0.031 C 
ATOM     63  C   UNL     1      -5.080 -13.316   9.859  1.00  0.00     0.034 A 
BRANCH  50  64
ATOM     64  C   UNL     1       0.314 -11.137  12.028  1.00  0.00     0.023 A 
ATOM     65  C   UNL     1       0.708 -10.568  13.252  1.00  0.00     0.031 A 
ATOM     66  C   UNL     1       1.230 -11.979  11.373  1.00  0.00     0.131 A 
ATOM     67  C   UNL     1       2.006 -10.780  13.740  1.00  0.00     0.055 A 
ATOM     68  C   UNL     1       2.489 -12.259  11.909  1.00  0.00     0.041 A 
ATOM     69  F   UNL     1       0.923 -12.536  10.190  1.00  0.00    -0.206 F 
ATOM     70  C   UNL     1       2.890 -11.645  13.091  1.00  0.00     0.022 A 
BRANCH  67  71
ATOM     71  S   UNL     1       2.575  -9.786  15.146  1.00  0.00     0.124 S 
ATOM     72  O   UNL     1       2.400  -8.427  14.637  1.00  0.00    -0.237 OA
ATOM     73  O   UNL     1       1.665 -10.192  16.210  1.00  0.00    -0.237 OA
ATOM     74  O   UNL     1       3.966 -10.202  15.320  1.00  0.00    -0.744 OA
ENDBRANCH  67  71
ENDBRANCH  50  64
BRANCH  51  75
ATOM     75  C   UNL     1      -8.364  -8.735   7.608  1.00  0.00     0.023 A 
ATOM     76  C   UNL     1      -9.607  -8.984   8.211  1.00  0.00     0.031 A 
ATOM     77  C   UNL     1      -8.359  -8.198   6.308  1.00  0.00     0.131 A 
ATOM     78  C   UNL     1     -10.792  -8.743   7.498  1.00  0.00     0.055 A 
ATOM     79  C   UNL     1      -9.541  -7.903   5.626  1.00  0.00     0.041 A 
ATOM     80  F   UNL     1      -7.199  -7.939   5.684  1.00  0.00    -0.206 F 
ATOM     81  C   UNL     1     -10.767  -8.189   6.216  1.00  0.00     0.022 A 
BRANCH  78  82
ATOM     82  S   UNL     1     -12.368  -9.254   8.236  1.00  0.00     0.124 S 
ATOM     83  O   UNL     1     -12.151 -10.681   8.440  1.00  0.00    -0.237 OA
ATOM     84  O   UNL     1     -12.419  -8.434   9.441  1.00  0.00    -0.237 OA
ATOM     85  O   UNL     1     -13.351  -8.911   7.210  1.00  0.00    -0.744 OA
ENDBRANCH  78  82
ENDBRANCH  51  75
BRANCH  63  86
ATOM     86  C   UNL     1      -5.606 -14.732   9.873  1.00  0.00     0.023 A 
ATOM     87  C   UNL     1      -5.848 -15.446   8.687  1.00  0.00     0.031 A 
ATOM     88  C   UNL     1      -5.879 -15.372  11.096  1.00  0.00     0.131 A 
ATOM     89  C   UNL     1      -6.402 -16.734   8.746  1.00  0.00     0.055 A 
ATOM     90  C   UNL     1      -6.365 -16.679  11.150  1.00  0.00     0.041 A 
ATOM     91  F   UNL     1      -5.673 -14.737  12.261  1.00  0.00    -0.206 F 
ATOM     92  C   UNL     1      -6.643 -17.363   9.971  1.00  0.00     0.022 A 
BRANCH  89  93
ATOM     93  S   UNL     1      -6.900 -17.540   7.200  1.00  0.00     0.124 S 
ATOM     94  O   UNL     1      -7.857 -16.583   6.654  1.00  0.00    -0.237 OA
ATOM     95  O   UNL     1      -5.633 -17.655   6.484  1.00  0.00    -0.237 OA
ATOM     96  O   UNL     1      -7.477 -18.808   7.644  1.00  0.00    -0.744 OA
ENDBRANCH  89  93
ENDBRANCH  63  86
ENDBRANCH  37  38
ENDBRANCH  29  32
ENDBRANCH  27  28
ENDBRANCH  26  27
ENDBRANCH  25  26
ENDBRANCH   1  25
TORSDOF 20
