REMARK SMILES CCCN1CCC[C@@]2(CCN(c3ccc(C(=O)NCCCCCCNC(=O)c4ccc(-c5c6nc(c(-c7cc(S(=O)(=O)[O-])ccc7F)c7ccc([nH]7)c(-c7cc(S(=O)(=O)[O-])ccc7F)c7nc(c(-c8cc(S(=O)(=O)[O-])ccc8F)c8ccc5[nH]8)C=C7)C=C6)cc4)cn3)C2)C1=O
REMARK SMILES IDX 21 1 20 2 19 3 18 4 16 5 17 6 15 8 12 9 13 10 92 11 14 12
REMARK SMILES IDX 91 13 11 14 4 15 5 16 94 17 6 18 8 19 95 20 7 21 9 22 93 23
REMARK SMILES IDX 10 24 3 25 2 26 1 27 22 28 23 29 24 30 25 31 26 32 27 34
REMARK SMILES IDX 28 35 29 36 90 37 30 38 89 39 31 40 32 41 33 42 83 43 34 44
REMARK SMILES IDX 88 45 82 46 84 47 35 48 87 49 81 50 80 51 36 53 68 54 48 55
REMARK SMILES IDX 67 56 49 57 52 58 66 59 85 60 50 61 51 62 65 64 86 65 53 66
REMARK SMILES IDX 37 67 38 68 46 69 39 70 45 71 47 72 44 73 40 74 41 75 42 76
REMARK SMILES IDX 43 77 69 78 70 79 78 80 71 81 77 82 79 83 76 84 72 85 73 86
REMARK SMILES IDX 74 87 75 88 54 89 55 90 63 91 56 92 62 93 64 94 61 95 57 96
REMARK SMILES IDX 58 97 59 98 60 99
REMARK H PARENT 18 7 25 33 84 52 52 63
REMARK Flexibility Score: inf
ROOT
ATOM      1  C   UNL     1       6.206  13.211   2.185  1.00  0.00     0.002 C 
ENDROOT
BRANCH   1   2
ATOM      2  C   UNL     1       5.373  12.054   1.616  1.00  0.00     0.021 C 
BRANCH   2   3
ATOM      3  C   UNL     1       5.351  10.833   2.540  1.00  0.00     0.116 C 
BRANCH   3   4
ATOM      4  N   UNL     1       4.331  10.993   3.560  1.00  0.00    -0.352 N 
ATOM      5  C   UNL     1       3.043  10.538   3.679  1.00  0.00     0.252 C 
ATOM      6  O   UNL     1       2.423  10.865   4.693  1.00  0.00    -0.269 OA
ATOM      7  H   UNL     1       4.624  11.542   4.323  1.00  0.00     0.163 HD
BRANCH   5   8
ATOM      8  C   UNL     1       2.380   9.653   2.690  1.00  0.00     0.058 A 
ATOM      9  C   UNL     1       1.020   7.828   1.086  1.00  0.00     0.128 A 
ATOM     10  C   UNL     1       2.144   8.488   0.605  1.00  0.00     0.048 A 
ATOM     11  N   UNL     1       0.529   8.102   2.308  1.00  0.00    -0.239 NA
ATOM     12  C   UNL     1       2.789   9.442   1.384  1.00  0.00     0.019 A 
ATOM     13  C   UNL     1       1.229   8.975   3.087  1.00  0.00     0.127 A 
BRANCH   9  14
ATOM     14  N   UNL     1       0.399   6.922   0.279  1.00  0.00    -0.356 N 
ATOM     15  N   UNL     1       0.587   2.788  -0.365  1.00  0.00    -0.342 N 
ATOM     16  C   UNL     1       1.211   2.421  -1.629  1.00  0.00     0.119 C 
ATOM     17  C   UNL     1      -0.362   3.805  -0.319  1.00  0.00     0.230 C 
ATOM     18  C   UNL     1       1.696   3.635  -2.400  1.00  0.00     0.023 C 
ATOM     19  C   UNL     1       0.028   5.047  -1.131  1.00  0.00     0.069 C 
ATOM     20  O   UNL     1      -1.325   3.779   0.443  1.00  0.00    -0.274 OA
ATOM     21  C   UNL     1       0.567   4.657  -2.516  1.00  0.00     0.021 C 
ATOM     22  C   UNL     1      -1.122   6.068  -1.226  1.00  0.00     0.040 C 
ATOM     23  C   UNL     1       1.104   5.800  -0.311  1.00  0.00     0.135 C 
ATOM     24  C   UNL     1      -1.028   6.872   0.076  1.00  0.00     0.119 C 
BRANCH  15  25
ATOM     25  C   UNL     1       0.879   2.032   0.846  1.00  0.00     0.119 C 
BRANCH  25  26
ATOM     26  C   UNL     1       0.234   0.655   0.965  1.00  0.00     0.018 C 
ATOM     27  C   UNL     1       0.807  -0.378   0.010  1.00  0.00     0.006 C 
ENDBRANCH  25  26
ENDBRANCH  15  25
ENDBRANCH   9  14
ENDBRANCH   5   8
ENDBRANCH   3   4
ENDBRANCH   2   3
ENDBRANCH   1   2
BRANCH   1  28
ATOM     28  C   UNL     1       7.692  12.886   2.390  1.00  0.00     0.002 C 
BRANCH  28  29
ATOM     29  C   UNL     1       8.413  12.372   1.141  1.00  0.00     0.021 C 
BRANCH  29  30
ATOM     30  C   UNL     1       8.450  13.376  -0.007  1.00  0.00     0.116 C 
BRANCH  30  31
ATOM     31  N   UNL     1       9.205  14.566   0.356  1.00  0.00    -0.352 N 
ATOM     32  C   UNL     1      10.364  15.059  -0.195  1.00  0.00     0.251 C 
ATOM     33  H   UNL     1       8.834  15.092   1.101  1.00  0.00     0.163 HD
ATOM     34  O   UNL     1      11.015  15.908   0.399  1.00  0.00    -0.269 OA
BRANCH  32  35
ATOM     35  C   UNL     1      10.817  14.538  -1.502  1.00  0.00     0.039 A 
ATOM     36  C   UNL     1      12.154  14.170  -1.664  1.00  0.00     0.014 A 
ATOM     37  C   UNL     1       9.910  14.397  -2.556  1.00  0.00     0.014 A 
ATOM     38  C   UNL     1      12.564  13.583  -2.863  1.00  0.00     0.010 A 
ATOM     39  C   UNL     1      10.305  13.751  -3.723  1.00  0.00     0.010 A 
ATOM     40  C   UNL     1      11.632  13.325  -3.883  1.00  0.00    -0.014 A 
BRANCH  40  41
ATOM     41  C   UNL     1      12.012  12.586  -5.115  1.00  0.00     0.031 A 
ATOM     42  C   UNL     1      11.917  13.261  -6.454  1.00  0.00     0.074 A 
ATOM     43  C   UNL     1      12.362  11.287  -5.030  1.00  0.00     0.049 A 
ATOM     44  N   UNL     1      12.062  12.750  -7.649  1.00  0.00    -0.248 NA
ATOM     45  C   UNL     1      11.593  14.697  -6.447  1.00  0.00     0.031 C 
ATOM     46  C   UNL     1      12.469  10.520  -3.786  1.00  0.00     0.029 A 
ATOM     47  N   UNL     1      12.674  10.373  -6.007  1.00  0.00    -0.354 N 
ATOM     48  C   UNL     1      11.853  13.799  -8.537  1.00  0.00     0.074 A 
ATOM     49  C   UNL     1      11.505  14.959  -7.743  1.00  0.00     0.031 C 
ATOM     50  C   UNL     1      12.828   9.259  -4.075  1.00  0.00     0.029 A 
ATOM     51  C   UNL     1      12.917   9.107  -5.523  1.00  0.00     0.049 A 
ATOM     52  H   UNL     1      12.720  10.602  -6.963  1.00  0.00     0.167 HD
ATOM     53  C   UNL     1      11.968  13.800  -9.888  1.00  0.00     0.034 A 
ATOM     54  C   UNL     1      13.149   7.948  -6.173  1.00  0.00     0.034 A 
ATOM     55  C   UNL     1      12.312  12.635 -10.665  1.00  0.00     0.049 A 
ATOM     56  C   UNL     1      13.187   7.959  -7.683  1.00  0.00     0.074 A 
ATOM     57  C   UNL     1      12.476  12.531 -12.035  1.00  0.00     0.029 A 
ATOM     58  N   UNL     1      12.537  11.368 -10.142  1.00  0.00    -0.354 N 
ATOM     59  N   UNL     1      13.022   8.970  -8.505  1.00  0.00    -0.248 NA
ATOM     60  C   UNL     1      13.446   6.677  -8.353  1.00  0.00     0.031 C 
ATOM     61  C   UNL     1      12.730  11.193 -12.346  1.00  0.00     0.029 A 
ATOM     62  C   UNL     1      12.804  10.473 -11.165  1.00  0.00     0.049 A 
ATOM     63  H   UNL     1      12.511  11.140  -9.184  1.00  0.00     0.167 HD
ATOM     64  C   UNL     1      13.186   8.447  -9.786  1.00  0.00     0.074 A 
ATOM     65  C   UNL     1      13.485   7.040  -9.626  1.00  0.00     0.031 C 
ATOM     66  C   UNL     1      13.096   9.071 -10.987  1.00  0.00     0.034 A 
BRANCH  53  67
ATOM     67  C   UNL     1      11.709  15.100 -10.609  1.00  0.00     0.023 A 
ATOM     68  C   UNL     1      12.532  16.222 -10.410  1.00  0.00     0.031 A 
ATOM     69  C   UNL     1      10.636  15.221 -11.509  1.00  0.00     0.131 A 
ATOM     70  C   UNL     1      12.233  17.432 -11.052  1.00  0.00     0.055 A 
ATOM     71  C   UNL     1      10.391  16.405 -12.207  1.00  0.00     0.041 A 
ATOM     72  F   UNL     1       9.804  14.190 -11.723  1.00  0.00    -0.206 F 
ATOM     73  C   UNL     1      11.185  17.524 -11.971  1.00  0.00     0.022 A 
BRANCH  70  74
ATOM     74  S   UNL     1      13.159  18.915 -10.573  1.00  0.00     0.124 S 
ATOM     75  O   UNL     1      12.851  19.006  -9.148  1.00  0.00    -0.237 OA
ATOM     76  O   UNL     1      14.531  18.553 -10.908  1.00  0.00    -0.237 OA
ATOM     77  O   UNL     1      12.570  19.968 -11.399  1.00  0.00    -0.744 OA
ENDBRANCH  70  74
ENDBRANCH  53  67
BRANCH  54  78
ATOM     78  C   UNL     1      13.312   6.669  -5.420  1.00  0.00     0.023 A 
ATOM     79  C   UNL     1      14.491   5.915  -5.523  1.00  0.00     0.031 A 
ATOM     80  C   UNL     1      12.259   6.139  -4.651  1.00  0.00     0.131 A 
ATOM     81  C   UNL     1      14.563   4.644  -4.931  1.00  0.00     0.055 A 
ATOM     82  C   UNL     1      12.364   4.907  -4.002  1.00  0.00     0.041 A 
ATOM     83  F   UNL     1      11.106   6.814  -4.518  1.00  0.00    -0.206 F 
ATOM     84  C   UNL     1      13.514   4.142  -4.158  1.00  0.00     0.022 A 
BRANCH  81  85
ATOM     85  S   UNL     1      15.995   3.595  -5.308  1.00  0.00     0.124 S 
ATOM     86  O   UNL     1      15.964   3.569  -6.766  1.00  0.00    -0.237 OA
ATOM     87  O   UNL     1      17.087   4.347  -4.701  1.00  0.00    -0.237 OA
ATOM     88  O   UNL     1      15.669   2.330  -4.653  1.00  0.00    -0.744 OA
ENDBRANCH  81  85
ENDBRANCH  54  78
BRANCH  66  89
ATOM     89  C   UNL     1      13.362   8.240 -12.218  1.00  0.00     0.023 A 
ATOM     90  C   UNL     1      12.491   7.211 -12.615  1.00  0.00     0.031 A 
ATOM     91  C   UNL     1      14.495   8.492 -13.011  1.00  0.00     0.131 A 
ATOM     92  C   UNL     1      12.790   6.443 -13.749  1.00  0.00     0.055 A 
ATOM     93  C   UNL     1      14.755   7.765 -14.173  1.00  0.00     0.041 A 
ATOM     94  F   UNL     1      15.362   9.462 -12.677  1.00  0.00    -0.206 F 
ATOM     95  C   UNL     1      13.905   6.726 -14.542  1.00  0.00     0.022 A 
BRANCH  92  96
ATOM     96  S   UNL     1      11.737   5.018 -14.137  1.00  0.00     0.124 S 
ATOM     97  O   UNL     1      11.896   4.190 -12.946  1.00  0.00    -0.237 OA
ATOM     98  O   UNL     1      10.426   5.635 -14.312  1.00  0.00    -0.237 OA
ATOM     99  O   UNL     1      12.332   4.473 -15.356  1.00  0.00    -0.744 OA
ENDBRANCH  92  96
ENDBRANCH  66  89
ENDBRANCH  40  41
ENDBRANCH  32  35
ENDBRANCH  30  31
ENDBRANCH  29  30
ENDBRANCH  28  29
ENDBRANCH   1  28
TORSDOF 19
