REMARK SMILES COc1c(N)cc(-c2ccccc2)cc1C(=O)NCCCCCCNC(=O)c1ccc(-c2c3nc(c(-c4cc(S(=O)(=O)[O-])ccc4F)c4ccc([nH]4)c(-c4cc(S(=O)(=O)[O-])ccc4F)c4nc(c(-c5cc(S(=O)(=O)[O-])ccc5F)c5ccc2[nH]5)C=C4)C=C3)cc1
REMARK SMILES IDX 22 1 21 2 20 3 19 4 18 5 16 6 17 7 15 9 3 10 4 11 6 12 14 13
REMARK SMILES IDX 7 14 2 15 1 16 5 17 8 20 9 21 13 22 10 23 12 24 11 25 23 26
REMARK SMILES IDX 24 27 25 28 26 29 27 31 28 32 29 33 90 34 30 35 89 36 31 37
REMARK SMILES IDX 32 38 33 39 83 40 34 41 88 42 82 43 84 44 35 45 87 46 81 47
REMARK SMILES IDX 80 48 36 50 68 51 48 52 67 53 49 54 52 55 66 56 85 57 50 58
REMARK SMILES IDX 51 59 65 61 86 62 53 63 37 64 38 65 46 66 39 67 45 68 47 69
REMARK SMILES IDX 44 70 40 71 41 72 42 73 43 74 69 75 70 76 78 77 71 78 77 79
REMARK SMILES IDX 79 80 76 81 72 82 73 83 74 84 75 85 54 86 55 87 63 88 56 89
REMARK SMILES IDX 62 90 64 91 61 92 57 93 58 94 59 95 60 96
REMARK H PARENT 18 8 5 18 5 19 25 30 84 49 52 60
REMARK Flexibility Score: inf
ROOT
ATOM      1  C   UNL     1      -2.715  -0.416   3.397  1.00  0.00     0.002 C 
ENDROOT
BRANCH   1   2
ATOM      2  C   UNL     1      -2.662  -0.030   1.914  1.00  0.00     0.002 C 
BRANCH   2   3
ATOM      3  C   UNL     1      -1.348  -0.393   1.213  1.00  0.00     0.021 C 
BRANCH   3   4
ATOM      4  C   UNL     1      -1.171  -1.899   0.990  1.00  0.00     0.116 C 
BRANCH   4   5
ATOM      5  N   UNL     1      -1.772  -2.258  -0.276  1.00  0.00    -0.352 N 
ATOM      6  C   UNL     1      -1.275  -2.371  -1.545  1.00  0.00     0.255 C 
ATOM      7  O   UNL     1      -2.121  -2.508  -2.437  1.00  0.00    -0.269 OA
ATOM      8  H   UNL     1      -2.733  -2.462  -0.211  1.00  0.00     0.163 HD
BRANCH   6   9
ATOM      9  C   UNL     1       0.169  -2.450  -1.925  1.00  0.00     0.084 A 
ATOM     10  C   UNL     1       1.276  -1.815  -1.345  1.00  0.00     0.154 A 
ATOM     11  C   UNL     1       2.589  -2.122  -1.780  1.00  0.00     0.076 A 
ATOM     12  C   UNL     1       2.766  -2.878  -2.941  1.00  0.00     0.038 A 
ATOM     13  C   UNL     1       0.400  -3.244  -3.071  1.00  0.00     0.026 A 
ATOM     14  C   UNL     1       1.677  -3.436  -3.617  1.00  0.00    -0.015 A 
BRANCH  10  15
ATOM     15  O   UNL     1       1.147  -0.908  -0.324  1.00  0.00    -0.494 OA
ATOM     16  C   UNL     1       1.322   0.433  -0.790  1.00  0.00     0.278 C 
ENDBRANCH  10  15
BRANCH  11  17
ATOM     17  N   UNL     1       3.709  -1.563  -1.161  1.00  0.00    -0.396 N 
ATOM     18  H   UNL     1       3.602  -1.027  -0.342  1.00  0.00     0.156 HD
ATOM     19  H   UNL     1       4.605  -1.705  -1.543  1.00  0.00     0.156 HD
ENDBRANCH  11  17
BRANCH  14  20
ATOM     20  C   UNL     1       1.859  -4.181  -4.871  1.00  0.00    -0.018 A 
ATOM     21  C   UNL     1       2.708  -5.296  -4.937  1.00  0.00     0.009 A 
ATOM     22  C   UNL     1       1.198  -3.780  -6.044  1.00  0.00     0.009 A 
ATOM     23  C   UNL     1       2.893  -5.986  -6.138  1.00  0.00     0.001 A 
ATOM     24  C   UNL     1       1.386  -4.465  -7.247  1.00  0.00     0.001 A 
ATOM     25  C   UNL     1       2.235  -5.568  -7.293  1.00  0.00     0.000 A 
ENDBRANCH  14  20
ENDBRANCH   6   9
ENDBRANCH   4   5
ENDBRANCH   3   4
ENDBRANCH   2   3
ENDBRANCH   1   2
BRANCH   1  26
ATOM     26  C   UNL     1      -1.571   0.136   4.254  1.00  0.00     0.021 C 
BRANCH  26  27
ATOM     27  C   UNL     1      -1.442   1.657   4.239  1.00  0.00     0.116 C 
BRANCH  27  28
ATOM     28  N   UNL     1      -2.596   2.293   4.853  1.00  0.00    -0.352 N 
ATOM     29  C   UNL     1      -2.650   3.092   5.966  1.00  0.00     0.251 C 
ATOM     30  H   UNL     1      -3.458   2.126   4.408  1.00  0.00     0.163 HD
ATOM     31  O   UNL     1      -3.735   3.313   6.504  1.00  0.00    -0.269 OA
BRANCH  29  32
ATOM     32  C   UNL     1      -1.411   3.680   6.519  1.00  0.00     0.039 A 
ATOM     33  C   UNL     1      -1.217   3.683   7.903  1.00  0.00     0.014 A 
ATOM     34  C   UNL     1      -0.459   4.262   5.676  1.00  0.00     0.014 A 
ATOM     35  C   UNL     1      -0.048   4.230   8.438  1.00  0.00     0.010 A 
ATOM     36  C   UNL     1       0.733   4.752   6.207  1.00  0.00     0.010 A 
ATOM     37  C   UNL     1       0.946   4.751   7.594  1.00  0.00    -0.014 A 
BRANCH  37  38
ATOM     38  C   UNL     1       2.199   5.333   8.143  1.00  0.00     0.031 A 
ATOM     39  C   UNL     1       2.476   6.803   7.976  1.00  0.00     0.074 A 
ATOM     40  C   UNL     1       3.103   4.535   8.745  1.00  0.00     0.049 A 
ATOM     41  N   UNL     1       3.543   7.488   8.298  1.00  0.00    -0.248 NA
ATOM     42  C   UNL     1       1.420   7.601   7.336  1.00  0.00     0.031 C 
ATOM     43  C   UNL     1       2.956   3.092   8.946  1.00  0.00     0.029 A 
ATOM     44  N   UNL     1       4.329   4.822   9.291  1.00  0.00    -0.354 N 
ATOM     45  C   UNL     1       3.290   8.796   7.896  1.00  0.00     0.074 A 
ATOM     46  C   UNL     1       1.996   8.790   7.247  1.00  0.00     0.031 C 
ATOM     47  C   UNL     1       4.041   2.625   9.586  1.00  0.00     0.029 A 
ATOM     48  C   UNL     1       4.978   3.722   9.803  1.00  0.00     0.049 A 
ATOM     49  H   UNL     1       4.708   5.730   9.315  1.00  0.00     0.167 HD
ATOM     50  C   UNL     1       4.053   9.903   8.075  1.00  0.00     0.034 A 
ATOM     51  C   UNL     1       6.196   3.611  10.371  1.00  0.00     0.034 A 
ATOM     52  C   UNL     1       5.339   9.894   8.729  1.00  0.00     0.049 A 
ATOM     53  C   UNL     1       7.042   4.851  10.527  1.00  0.00     0.074 A 
ATOM     54  C   UNL     1       6.191  10.957   8.977  1.00  0.00     0.029 A 
ATOM     55  N   UNL     1       5.960   8.762   9.243  1.00  0.00    -0.354 N 
ATOM     56  N   UNL     1       6.777   6.085  10.161  1.00  0.00    -0.248 NA
ATOM     57  C   UNL     1       8.344   4.686  11.185  1.00  0.00     0.031 C 
ATOM     58  C   UNL     1       7.346  10.461   9.592  1.00  0.00     0.029 A 
ATOM     59  C   UNL     1       7.188   9.099   9.791  1.00  0.00     0.049 A 
ATOM     60  H   UNL     1       5.582   7.853   9.221  1.00  0.00     0.167 HD
ATOM     61  C   UNL     1       7.864   6.846  10.582  1.00  0.00     0.074 A 
ATOM     62  C   UNL     1       8.779   5.936  11.239  1.00  0.00     0.031 C 
ATOM     63  C   UNL     1       8.086   8.178  10.444  1.00  0.00     0.034 A 
BRANCH  50  64
ATOM     64  C   UNL     1       3.514  11.207   7.536  1.00  0.00     0.023 A 
ATOM     65  C   UNL     1       2.324  11.769   8.032  1.00  0.00     0.031 A 
ATOM     66  C   UNL     1       4.176  11.883   6.496  1.00  0.00     0.131 A 
ATOM     67  C   UNL     1       1.792  12.922   7.437  1.00  0.00     0.055 A 
ATOM     68  C   UNL     1       3.684  13.077   5.963  1.00  0.00     0.041 A 
ATOM     69  F   UNL     1       5.305  11.386   5.967  1.00  0.00    -0.206 F 
ATOM     70  C   UNL     1       2.476  13.595   6.423  1.00  0.00     0.022 A 
BRANCH  67  71
ATOM     71  S   UNL     1       0.122  13.448   7.912  1.00  0.00     0.124 S 
ATOM     72  O   UNL     1      -0.672  12.283   7.530  1.00  0.00    -0.237 OA
ATOM     73  O   UNL     1       0.261  13.686   9.344  1.00  0.00    -0.237 OA
ATOM     74  O   UNL     1      -0.105  14.642   7.100  1.00  0.00    -0.744 OA
ENDBRANCH  67  71
ENDBRANCH  50  64
BRANCH  51  75
ATOM     75  C   UNL     1       6.704   2.286  10.831  1.00  0.00     0.023 A 
ATOM     76  C   UNL     1       6.975   2.050  12.188  1.00  0.00     0.031 A 
ATOM     77  C   UNL     1       6.987   1.258   9.914  1.00  0.00     0.131 A 
ATOM     78  C   UNL     1       7.569   0.842  12.583  1.00  0.00     0.055 A 
ATOM     79  C   UNL     1       7.524   0.035  10.320  1.00  0.00     0.041 A 
ATOM     80  F   UNL     1       6.742   1.429   8.605  1.00  0.00    -0.206 F 
ATOM     81  C   UNL     1       7.834  -0.172  11.660  1.00  0.00     0.022 A 
BRANCH  78  82
ATOM     82  S   UNL     1       8.092   0.658  14.310  1.00  0.00     0.124 S 
ATOM     83  O   UNL     1       8.963   1.815  14.482  1.00  0.00    -0.237 OA
ATOM     84  O   UNL     1       6.816   0.705  15.018  1.00  0.00    -0.237 OA
ATOM     85  O   UNL     1       8.764  -0.638  14.325  1.00  0.00    -0.744 OA
ENDBRANCH  78  82
ENDBRANCH  51  75
BRANCH  63  86
ATOM     86  C   UNL     1       9.342   8.729  11.072  1.00  0.00     0.023 A 
ATOM     87  C   UNL     1      10.620   8.401  10.587  1.00  0.00     0.031 A 
ATOM     88  C   UNL     1       9.255   9.582  12.187  1.00  0.00     0.131 A 
ATOM     89  C   UNL     1      11.761   8.875  11.251  1.00  0.00     0.055 A 
ATOM     90  C   UNL     1      10.393  10.097  12.808  1.00  0.00     0.041 A 
ATOM     91  F   UNL     1       8.059   9.927  12.691  1.00  0.00    -0.206 F 
ATOM     92  C   UNL     1      11.655   9.733  12.349  1.00  0.00     0.022 A 
BRANCH  89  93
ATOM     93  S   UNL     1      13.389   8.284  10.713  1.00  0.00     0.124 S 
ATOM     94  O   UNL     1      13.258   6.840  10.877  1.00  0.00    -0.237 OA
ATOM     95  O   UNL     1      13.458   8.765   9.338  1.00  0.00    -0.237 OA
ATOM     96  O   UNL     1      14.314   8.932  11.642  1.00  0.00    -0.744 OA
ENDBRANCH  89  93
ENDBRANCH  63  86
ENDBRANCH  37  38
ENDBRANCH  29  32
ENDBRANCH  27  28
ENDBRANCH  26  27
ENDBRANCH   1  26
TORSDOF 19
