REMARK SMILES O=C(C[C@@H]([NH2+]Cc1ccccc1)C(=O)NCCCCCCNC(=O)c1ccc(-c2c3nc(c(-c4cc(S(=O)(=O)[O-])ccc4F)c4ccc([nH]4)c(-c4cc(S(=O)(=O)[O-])ccc4F)c4nc(c(-c5cc(S(=O)(=O)[O-])ccc5F)c5ccc2[nH]5)C=C4)C=C3)cc1)Nc1cccc(Cl)c1Cl
REMARK SMILES IDX 18 1 17 2 16 3 15 4 13 5 14 6 4 8 3 9 2 10 1 11 88 12 89 14
REMARK SMILES IDX 90 15 95 16 91 17 93 18 96 19 92 20 94 21 5 22 6 25 7 26
REMARK SMILES IDX 8 27 12 28 9 29 11 30 10 31 19 32 20 33 21 34 22 35 23 36
REMARK SMILES IDX 24 38 25 39 26 40 87 41 27 42 86 43 28 44 29 45 30 46 80 47
REMARK SMILES IDX 31 48 85 49 79 50 81 51 32 52 84 53 78 54 77 55 33 57 65 58
REMARK SMILES IDX 45 59 64 60 46 61 49 62 63 63 82 64 47 65 48 66 62 68 83 69
REMARK SMILES IDX 50 70 34 71 35 72 43 73 36 74 42 75 44 76 41 77 37 78 38 79
REMARK SMILES IDX 39 80 40 81 66 82 67 83 75 84 68 85 74 86 76 87 73 88 69 89
REMARK SMILES IDX 70 90 71 91 72 92 51 93 52 94 60 95 53 96 59 97 61 98 58 99
REMARK SMILES IDX 54 100 55 101 56 102 57 103
REMARK H PARENT 15 7 88 13 5 23 5 24 22 37 81 56 49 67
REMARK Flexibility Score: inf
ROOT
ATOM      1  C   UNL     1       6.347   3.994  -2.434  1.00  0.00     0.002 C 
ENDROOT
BRANCH   1   2
ATOM      2  C   UNL     1       5.510   2.735  -2.174  1.00  0.00     0.021 C 
BRANCH   2   3
ATOM      3  C   UNL     1       5.907   2.001  -0.893  1.00  0.00     0.116 C 
BRANCH   3   4
ATOM      4  N   UNL     1       5.533   2.796   0.260  1.00  0.00    -0.351 N 
ATOM      5  C   UNL     1       4.566   2.584   1.194  1.00  0.00     0.278 C 
ATOM      6  O   UNL     1       4.353   3.485   2.011  1.00  0.00    -0.268 OA
ATOM      7  H   UNL     1       6.062   3.616   0.388  1.00  0.00     0.163 HD
BRANCH   5   8
ATOM      8  C   UNL     1       3.798   1.250   1.267  1.00  0.00     0.282 C 
BRANCH   8   9
ATOM      9  C   UNL     1       2.858   1.121   0.060  1.00  0.00     0.175 C 
BRANCH   9  10
ATOM     10  C   UNL     1       2.005  -0.122   0.128  1.00  0.00     0.230 C 
ATOM     11  O   UNL     1       0.834  -0.084   0.491  1.00  0.00    -0.274 OA
ATOM     12  N   UNL     1       2.712  -1.273  -0.186  1.00  0.00    -0.325 N 
ATOM     13  H   UNL     1       3.677  -1.194  -0.360  1.00  0.00     0.169 HD
BRANCH  12  14
ATOM     14  C   UNL     1       2.120  -2.551  -0.267  1.00  0.00     0.061 A 
ATOM     15  C   UNL     1       2.750  -3.575   0.455  1.00  0.00     0.028 A 
ATOM     16  C   UNL     1       0.978  -2.837  -1.044  1.00  0.00     0.083 A 
ATOM     17  C   UNL     1       2.206  -4.858   0.479  1.00  0.00     0.004 A 
ATOM     18  C   UNL     1       0.452  -4.139  -1.028  1.00  0.00     0.061 A 
ATOM     19  Cl  UNL     1       0.343  -1.658  -2.153  1.00  0.00    -0.080 Cl
ATOM     20  C   UNL     1       1.056  -5.137  -0.256  1.00  0.00     0.022 A 
ATOM     21  Cl  UNL     1      -0.929  -4.599  -1.965  1.00  0.00    -0.083 Cl
ENDBRANCH  12  14
ENDBRANCH   9  10
ENDBRANCH   8   9
BRANCH   8  22
ATOM     22  N   UNL     1       4.727   0.085   1.436  1.00  0.00    -0.332 N 
ATOM     23  H   UNL     1       5.260  -0.033   0.575  1.00  0.00     0.347 HD
ATOM     24  H   UNL     1       4.154  -0.732   1.646  1.00  0.00     0.347 HD
BRANCH  22  25
ATOM     25  C   UNL     1       5.676   0.258   2.557  1.00  0.00     0.297 C 
BRANCH  25  26
ATOM     26  C   UNL     1       4.992   0.132   3.897  1.00  0.00     0.006 A 
ATOM     27  C   UNL     1       4.614   1.274   4.616  1.00  0.00     0.009 A 
ATOM     28  C   UNL     1       4.639  -1.132   4.393  1.00  0.00     0.009 A 
ATOM     29  C   UNL     1       3.866   1.157   5.787  1.00  0.00     0.001 A 
ATOM     30  C   UNL     1       3.897  -1.247   5.568  1.00  0.00     0.001 A 
ATOM     31  C   UNL     1       3.503  -0.102   6.259  1.00  0.00     0.000 A 
ENDBRANCH  25  26
ENDBRANCH  22  25
ENDBRANCH   8  22
ENDBRANCH   5   8
ENDBRANCH   3   4
ENDBRANCH   2   3
ENDBRANCH   1   2
BRANCH   1  32
ATOM     32  C   UNL     1       7.854   3.743  -2.555  1.00  0.00     0.002 C 
BRANCH  32  33
ATOM     33  C   UNL     1       8.242   2.705  -3.611  1.00  0.00     0.021 C 
BRANCH  33  34
ATOM     34  C   UNL     1       7.782   3.051  -5.023  1.00  0.00     0.116 C 
BRANCH  34  35
ATOM     35  N   UNL     1       8.403   4.275  -5.504  1.00  0.00    -0.352 N 
ATOM     36  C   UNL     1       9.139   4.478  -6.643  1.00  0.00     0.251 C 
ATOM     37  H   UNL     1       8.278   5.067  -4.933  1.00  0.00     0.163 HD
ATOM     38  O   UNL     1       9.791   5.512  -6.774  1.00  0.00    -0.269 OA
BRANCH  36  39
ATOM     39  C   UNL     1       9.159   3.439  -7.695  1.00  0.00     0.039 A 
ATOM     40  C   UNL     1      10.376   3.095  -8.285  1.00  0.00     0.014 A 
ATOM     41  C   UNL     1       7.979   2.803  -8.091  1.00  0.00     0.014 A 
ATOM     42  C   UNL     1      10.417   2.069  -9.232  1.00  0.00     0.010 A 
ATOM     43  C   UNL     1       8.033   1.730  -8.976  1.00  0.00     0.010 A 
ATOM     44  C   UNL     1       9.253   1.353  -9.559  1.00  0.00    -0.014 A 
BRANCH  44  45
ATOM     45  C   UNL     1       9.293   0.214 -10.513  1.00  0.00     0.031 A 
ATOM     46  C   UNL     1       8.529   0.289 -11.808  1.00  0.00     0.074 A 
ATOM     47  C   UNL     1       9.979  -0.902 -10.193  1.00  0.00     0.049 A 
ATOM     48  N   UNL     1       8.381  -0.623 -12.735  1.00  0.00    -0.248 NA
ATOM     49  C   UNL     1       7.820   1.547 -12.086  1.00  0.00     0.031 C 
ATOM     50  C   UNL     1      10.738  -1.102  -8.957  1.00  0.00     0.029 A 
ATOM     51  N   UNL     1      10.150  -2.080 -10.878  1.00  0.00    -0.354 N 
ATOM     52  C   UNL     1       7.566  -0.050 -13.705  1.00  0.00     0.074 A 
ATOM     53  C   UNL     1       7.194   1.261 -13.217  1.00  0.00     0.031 C 
ATOM     54  C   UNL     1      11.319  -2.312  -8.987  1.00  0.00     0.029 A 
ATOM     55  C   UNL     1      10.931  -2.999 -10.214  1.00  0.00     0.049 A 
ATOM     56  H   UNL     1       9.752  -2.251 -11.762  1.00  0.00     0.167 HD
ATOM     57  C   UNL     1       7.188  -0.557 -14.904  1.00  0.00     0.034 A 
ATOM     58  C   UNL     1      11.280  -4.257 -10.550  1.00  0.00     0.034 A 
ATOM     59  C   UNL     1       7.569  -1.864 -15.379  1.00  0.00     0.049 A 
ATOM     60  C   UNL     1      10.788  -4.822 -11.862  1.00  0.00     0.074 A 
ATOM     61  C   UNL     1       7.259  -2.466 -16.586  1.00  0.00     0.029 A 
ATOM     62  N   UNL     1       8.340  -2.776 -14.669  1.00  0.00    -0.354 N 
ATOM     63  N   UNL     1      10.045  -4.251 -12.782  1.00  0.00    -0.248 NA
ATOM     64  C   UNL     1      11.190  -6.197 -12.184  1.00  0.00     0.031 C 
ATOM     65  C   UNL     1       7.781  -3.763 -16.578  1.00  0.00     0.029 A 
ATOM     66  C   UNL     1       8.491  -3.943 -15.402  1.00  0.00     0.049 A 
ATOM     67  H   UNL     1       8.723  -2.616 -13.777  1.00  0.00     0.167 HD
ATOM     68  C   UNL     1       9.930  -5.185 -13.809  1.00  0.00     0.074 A 
ATOM     69  C   UNL     1      10.693  -6.346 -13.402  1.00  0.00     0.031 C 
ATOM     70  C   UNL     1       9.257  -5.093 -14.984  1.00  0.00     0.034 A 
BRANCH  57  71
ATOM     71  C   UNL     1       6.307   0.303 -15.778  1.00  0.00     0.023 A 
ATOM     72  C   UNL     1       6.757   1.534 -16.288  1.00  0.00     0.031 A 
ATOM     73  C   UNL     1       5.003  -0.108 -16.106  1.00  0.00     0.131 A 
ATOM     74  C   UNL     1       5.891   2.338 -17.044  1.00  0.00     0.055 A 
ATOM     75  C   UNL     1       4.174   0.660 -16.927  1.00  0.00     0.041 A 
ATOM     76  F   UNL     1       4.510  -1.262 -15.631  1.00  0.00    -0.206 F 
ATOM     77  C   UNL     1       4.612   1.897 -17.391  1.00  0.00     0.022 A 
BRANCH  74  78
ATOM     78  S   UNL     1       6.415   4.024 -17.456  1.00  0.00     0.124 S 
ATOM     79  O   UNL     1       6.615   4.603 -16.129  1.00  0.00    -0.237 OA
ATOM     80  O   UNL     1       7.622   3.797 -18.242  1.00  0.00    -0.237 OA
ATOM     81  O   UNL     1       5.279   4.564 -18.199  1.00  0.00    -0.744 OA
ENDBRANCH  74  78
ENDBRANCH  57  71
BRANCH  58  82
ATOM     82  C   UNL     1      12.124  -5.089  -9.640  1.00  0.00     0.023 A 
ATOM     83  C   UNL     1      13.367  -5.584 -10.065  1.00  0.00     0.031 A 
ATOM     84  C   UNL     1      11.664  -5.474  -8.368  1.00  0.00     0.131 A 
ATOM     85  C   UNL     1      14.072  -6.492  -9.260  1.00  0.00     0.055 A 
ATOM     86  C   UNL     1      12.404  -6.322  -7.541  1.00  0.00     0.041 A 
ATOM     87  F   UNL     1      10.482  -5.032  -7.908  1.00  0.00    -0.206 F 
ATOM     88  C   UNL     1      13.607  -6.853  -7.995  1.00  0.00     0.022 A 
BRANCH  85  89
ATOM     89  S   UNL     1      15.540  -7.303  -9.953  1.00  0.00     0.124 S 
ATOM     90  O   UNL     1      14.998  -7.905 -11.166  1.00  0.00    -0.237 OA
ATOM     91  O   UNL     1      16.445  -6.176 -10.144  1.00  0.00    -0.237 OA
ATOM     92  O   UNL     1      15.931  -8.246  -8.908  1.00  0.00    -0.744 OA
ENDBRANCH  85  89
ENDBRANCH  58  82
BRANCH  70  93
ATOM     93  C   UNL     1       9.369  -6.261 -15.935  1.00  0.00     0.023 A 
ATOM     94  C   UNL     1       8.847  -7.528 -15.621  1.00  0.00     0.031 A 
ATOM     95  C   UNL     1      10.021  -6.103 -17.172  1.00  0.00     0.131 A 
ATOM     96  C   UNL     1       9.041  -8.601 -16.503  1.00  0.00     0.055 A 
ATOM     97  C   UNL     1      10.149  -7.158 -18.076  1.00  0.00     0.041 A 
ATOM     98  F   UNL     1      10.541  -4.917 -17.524  1.00  0.00    -0.206 F 
ATOM     99  C   UNL     1       9.671  -8.420 -17.737  1.00  0.00     0.022 A 
BRANCH  96 100
ATOM    100  S   UNL     1       8.549 -10.264 -15.970  1.00  0.00     0.124 S 
ATOM    101  O   UNL     1       9.331 -10.436 -14.751  1.00  0.00    -0.237 OA
ATOM    102  O   UNL     1       7.108 -10.120 -15.787  1.00  0.00    -0.237 OA
ATOM    103  O   UNL     1       8.948 -11.115 -17.090  1.00  0.00    -0.744 OA
ENDBRANCH  96 100
ENDBRANCH  70  93
ENDBRANCH  44  45
ENDBRANCH  36  39
ENDBRANCH  34  35
ENDBRANCH  33  34
ENDBRANCH  32  33
ENDBRANCH   1  32
TORSDOF 22
