REMARK SMILES COc1ccc(-c2noc(C[N@H+]3CCCC[C@@H]3C(=O)NCCCCCCNC(=O)c3ccc(-c4c5nc(c(-c6cc(S(=O)(=O)[O-])ccc6F)c6ccc([nH]6)c(-c6cc(S(=O)(=O)[O-])ccc6F)c6nc(c(-c7cc(S(=O)(=O)[O-])ccc7F)c7ccc4[nH]7)C=C6)C=C5)cc3)n2)cc1OC
REMARK SMILES IDX 23 1 22 2 21 3 20 4 18 5 19 6 17 8 12 9 13 10 14 12 16 13
REMARK SMILES IDX 15 14 11 15 10 16 7 17 8 18 93 19 9 20 6 21 3 22 4 23 95 24
REMARK SMILES IDX 5 25 94 26 2 27 1 28 96 29 97 30 24 31 25 32 26 33 27 34
REMARK SMILES IDX 28 35 29 37 30 38 31 39 92 40 32 41 91 42 33 43 34 44 35 45
REMARK SMILES IDX 85 46 36 47 90 48 84 49 86 50 37 51 89 52 83 53 82 54 38 56
REMARK SMILES IDX 70 57 50 58 69 59 51 60 54 61 68 62 87 63 52 64 53 65 67 67
REMARK SMILES IDX 88 68 55 69 39 70 40 71 48 72 41 73 47 74 49 75 46 76 42 77
REMARK SMILES IDX 43 78 44 79 45 80 71 81 72 82 80 83 73 84 79 85 81 86 78 87
REMARK SMILES IDX 74 88 75 89 76 90 77 91 56 92 57 93 65 94 58 95 64 96 66 97
REMARK SMILES IDX 63 98 59 99 60 100 61 101 62 102
REMARK H PARENT 20 7 12 11 27 36 86 55 54 66
REMARK Flexibility Score: inf
ROOT
ATOM      1  C   UNL     1       6.038  13.695  -5.966  1.00  0.00     0.002 C 
ENDROOT
BRANCH   1   2
ATOM      2  C   UNL     1       4.937  12.788  -6.528  1.00  0.00     0.021 C 
BRANCH   2   3
ATOM      3  C   UNL     1       5.089  11.325  -6.115  1.00  0.00     0.116 C 
BRANCH   3   4
ATOM      4  N   UNL     1       4.817  11.182  -4.696  1.00  0.00    -0.351 N 
ATOM      5  C   UNL     1       3.764  10.583  -4.070  1.00  0.00     0.278 C 
ATOM      6  O   UNL     1       3.704  10.663  -2.840  1.00  0.00    -0.268 OA
ATOM      7  H   UNL     1       5.493  11.575  -4.098  1.00  0.00     0.163 HD
BRANCH   5   8
ATOM      8  C   UNL     1       2.729   9.755  -4.864  1.00  0.00     0.274 C 
ATOM      9  N   UNL     1       3.421   8.655  -5.589  1.00  0.00    -0.317 N 
ATOM     10  C   UNL     1       2.533   7.904  -6.483  1.00  0.00     0.263 C 
ATOM     11  H   UNL     1       4.109   9.121  -6.179  1.00  0.00     0.349 HD
ATOM     12  C   UNL     1       1.788   8.825  -7.446  1.00  0.00     0.062 C 
ATOM     13  C   UNL     1       1.857  10.658  -5.751  1.00  0.00     0.076 C 
ATOM     14  C   UNL     1       0.962   9.847  -6.677  1.00  0.00     0.012 C 
BRANCH   9  15
ATOM     15  C   UNL     1       4.168   7.743  -4.680  1.00  0.00     0.364 C 
BRANCH  15  16
ATOM     16  C   UNL     1       3.342   6.882  -3.780  1.00  0.00     0.282 A 
ATOM     17  C   UNL     1       2.241   5.391  -2.810  1.00  0.00     0.202 A 
ATOM     18  N   UNL     1       1.870   6.507  -2.169  1.00  0.00    -0.057 NA
ATOM     19  N   UNL     1       3.153   5.583  -3.820  1.00  0.00    -0.186 NA
ATOM     20  O   UNL     1       2.635   7.497  -2.787  1.00  0.00    -0.333 OA
BRANCH  17  21
ATOM     21  C   UNL     1       1.821   4.064  -2.422  1.00  0.00     0.027 A 
ATOM     22  C   UNL     1       1.123   1.462  -1.675  1.00  0.00     0.160 A 
ATOM     23  C   UNL     1       0.137   2.367  -2.101  1.00  0.00     0.051 A 
ATOM     24  C   UNL     1       2.467   1.850  -1.640  1.00  0.00     0.161 A 
ATOM     25  C   UNL     1       0.481   3.673  -2.459  1.00  0.00     0.016 A 
ATOM     26  C   UNL     1       2.801   3.150  -2.022  1.00  0.00     0.062 A 
BRANCH  22  27
ATOM     27  O   UNL     1       0.746   0.172  -1.419  1.00  0.00    -0.493 OA
ATOM     28  C   UNL     1       0.052   0.056  -0.176  1.00  0.00     0.278 C 
ENDBRANCH  22  27
BRANCH  24  29
ATOM     29  O   UNL     1       3.565   1.106  -1.307  1.00  0.00    -0.493 OA
ATOM     30  C   UNL     1       3.372  -0.037  -0.493  1.00  0.00     0.278 C 
ENDBRANCH  24  29
ENDBRANCH  17  21
ENDBRANCH  15  16
ENDBRANCH   9  15
ENDBRANCH   5   8
ENDBRANCH   3   4
ENDBRANCH   2   3
ENDBRANCH   1   2
BRANCH   1  31
ATOM     31  C   UNL     1       7.459  13.309  -6.391  1.00  0.00     0.002 C 
BRANCH  31  32
ATOM     32  C   UNL     1       7.665  13.209  -7.904  1.00  0.00     0.021 C 
BRANCH  32  33
ATOM     33  C   UNL     1       7.345  14.492  -8.663  1.00  0.00     0.116 C 
BRANCH  33  34
ATOM     34  N   UNL     1       8.222  15.584  -8.268  1.00  0.00    -0.352 N 
ATOM     35  C   UNL     1       9.034  16.363  -9.052  1.00  0.00     0.251 C 
ATOM     36  H   UNL     1       8.233  15.792  -7.306  1.00  0.00     0.163 HD
ATOM     37  O   UNL     1       9.884  17.082  -8.530  1.00  0.00    -0.269 OA
BRANCH  35  38
ATOM     38  C   UNL     1       8.893  16.310 -10.521  1.00  0.00     0.039 A 
ATOM     39  C   UNL     1      10.039  16.210 -11.312  1.00  0.00     0.014 A 
ATOM     40  C   UNL     1       7.627  16.344 -11.113  1.00  0.00     0.014 A 
ATOM     41  C   UNL     1       9.911  16.079 -12.697  1.00  0.00     0.010 A 
ATOM     42  C   UNL     1       7.500  16.136 -12.483  1.00  0.00     0.010 A 
ATOM     43  C   UNL     1       8.640  16.002 -13.290  1.00  0.00    -0.014 A 
BRANCH  43  44
ATOM     44  C   UNL     1       8.480  15.785 -14.752  1.00  0.00     0.031 A 
ATOM     45  C   UNL     1       7.812  16.833 -15.599  1.00  0.00     0.074 A 
ATOM     46  C   UNL     1       8.876  14.619 -15.301  1.00  0.00     0.049 A 
ATOM     47  N   UNL     1       7.495  16.794 -16.867  1.00  0.00    -0.248 NA
ATOM     48  C   UNL     1       7.424  18.079 -14.921  1.00  0.00     0.031 C 
ATOM     49  C   UNL     1       9.509  13.516 -14.575  1.00  0.00     0.029 A 
ATOM     50  N   UNL     1       8.797  14.161 -16.593  1.00  0.00    -0.354 N 
ATOM     51  C   UNL     1       6.860  18.001 -17.137  1.00  0.00     0.074 A 
ATOM     52  C   UNL     1       6.782  18.722 -15.884  1.00  0.00     0.031 C 
ATOM     53  C   UNL     1       9.782  12.522 -15.435  1.00  0.00     0.029 A 
ATOM     54  C   UNL     1       9.294  12.889 -16.761  1.00  0.00     0.049 A 
ATOM     55  H   UNL     1       8.421  14.694 -17.330  1.00  0.00     0.167 HD
ATOM     56  C   UNL     1       6.404  18.473 -18.324  1.00  0.00     0.034 A 
ATOM     57  C   UNL     1       9.332  12.098 -17.852  1.00  0.00     0.034 A 
ATOM     58  C   UNL     1       6.497  17.741 -19.564  1.00  0.00     0.049 A 
ATOM     59  C   UNL     1       8.775  12.625 -19.152  1.00  0.00     0.074 A 
ATOM     60  C   UNL     1       6.115  18.144 -20.832  1.00  0.00     0.029 A 
ATOM     61  N   UNL     1       6.995  16.450 -19.693  1.00  0.00    -0.354 N 
ATOM     62  N   UNL     1       8.219  13.789 -19.401  1.00  0.00    -0.248 NA
ATOM     63  C   UNL     1       8.857  11.737 -20.318  1.00  0.00     0.031 C 
ATOM     64  C   UNL     1       6.304  17.072 -21.709  1.00  0.00     0.029 A 
ATOM     65  C   UNL     1       6.892  16.029 -21.011  1.00  0.00     0.049 A 
ATOM     66  H   UNL     1       7.366  15.912 -18.957  1.00  0.00     0.167 HD
ATOM     67  C   UNL     1       7.919  13.783 -20.760  1.00  0.00     0.074 A 
ATOM     68  C   UNL     1       8.365  12.507 -21.278  1.00  0.00     0.031 C 
ATOM     69  C   UNL     1       7.334  14.749 -21.514  1.00  0.00     0.034 A 
BRANCH  56  70
ATOM     70  C   UNL     1       5.737  19.828 -18.328  1.00  0.00     0.023 A 
ATOM     71  C   UNL     1       6.429  20.995 -17.957  1.00  0.00     0.031 A 
ATOM     72  C   UNL     1       4.384  19.956 -18.689  1.00  0.00     0.131 A 
ATOM     73  C   UNL     1       5.750  22.220 -17.883  1.00  0.00     0.055 A 
ATOM     74  C   UNL     1       3.736  21.192 -18.698  1.00  0.00     0.041 A 
ATOM     75  F   UNL     1       3.663  18.876 -19.029  1.00  0.00    -0.206 F 
ATOM     76  C   UNL     1       4.415  22.332 -18.277  1.00  0.00     0.022 A 
BRANCH  73  77
ATOM     77  S   UNL     1       6.592  23.632 -17.117  1.00  0.00     0.124 S 
ATOM     78  O   UNL     1       6.905  23.105 -15.791  1.00  0.00    -0.237 OA
ATOM     79  O   UNL     1       7.729  23.840 -18.006  1.00  0.00    -0.237 OA
ATOM     80  O   UNL     1       5.581  24.687 -17.138  1.00  0.00    -0.744 OA
ENDBRANCH  73  77
ENDBRANCH  56  70
BRANCH  57  81
ATOM     81  C   UNL     1       9.896  10.719 -17.768  1.00  0.00     0.023 A 
ATOM     82  C   UNL     1      11.031  10.354 -18.509  1.00  0.00     0.031 A 
ATOM     83  C   UNL     1       9.280   9.730 -16.980  1.00  0.00     0.131 A 
ATOM     84  C   UNL     1      11.485   9.026 -18.488  1.00  0.00     0.055 A 
ATOM     85  C   UNL     1       9.771   8.425 -16.914  1.00  0.00     0.041 A 
ATOM     86  F   UNL     1       8.191  10.023 -16.251  1.00  0.00    -0.206 F 
ATOM     87  C   UNL     1      10.872   8.063 -17.683  1.00  0.00     0.022 A 
BRANCH  84  88
ATOM     88  S   UNL     1      12.829   8.550 -19.608  1.00  0.00     0.124 S 
ATOM     89  O   UNL     1      12.272   8.907 -20.907  1.00  0.00    -0.237 OA
ATOM     90  O   UNL     1      13.930   9.380 -19.130  1.00  0.00    -0.237 OA
ATOM     91  O   UNL     1      12.981   7.116 -19.366  1.00  0.00    -0.744 OA
ENDBRANCH  84  88
ENDBRANCH  57  81
BRANCH  69  92
ATOM     92  C   UNL     1       7.191  14.481 -22.993  1.00  0.00     0.023 A 
ATOM     93  C   UNL     1       6.347  13.473 -23.490  1.00  0.00     0.031 A 
ATOM     94  C   UNL     1       7.911  15.257 -23.921  1.00  0.00     0.131 A 
ATOM     95  C   UNL     1       6.282  13.235 -24.872  1.00  0.00     0.055 A 
ATOM     96  C   UNL     1       7.792  15.058 -25.297  1.00  0.00     0.041 A 
ATOM     97  F   UNL     1       8.737  16.230 -23.503  1.00  0.00    -0.206 F 
ATOM     98  C   UNL     1       6.982  14.034 -25.779  1.00  0.00     0.022 A 
BRANCH  95  99
ATOM     99  S   UNL     1       5.336  11.806 -25.466  1.00  0.00     0.124 S 
ATOM    100  O   UNL     1       6.001  10.699 -24.787  1.00  0.00    -0.237 OA
ATOM    101  O   UNL     1       3.984  12.114 -25.011  1.00  0.00    -0.237 OA
ATOM    102  O   UNL     1       5.525  11.848 -26.915  1.00  0.00    -0.744 OA
ENDBRANCH  95  99
ENDBRANCH  69  92
ENDBRANCH  43  44
ENDBRANCH  35  38
ENDBRANCH  33  34
ENDBRANCH  32  33
ENDBRANCH  31  32
ENDBRANCH   1  31
TORSDOF 21
