REMARK SMILES O=C(NCCCCCCNC(=O)c1ccncc1-c1ccc(F)cc1F)c1ccc(-c2c3nc(c(-c4cc(S(=O)(=O)[O-])ccc4F)c4ccc([nH]4)c(-c4cc(S(=O)(=O)[O-])ccc4F)c4nc(c(-c5cc(S(=O)(=O)[O-])ccc5F)c5ccc2[nH]5)C=C4)C=C3)cc1
REMARK SMILES IDX 5 1 4 2 3 3 1 4 2 5 27 7 28 8 89 9 29 10 88 11 30 12 31 13
REMARK SMILES IDX 32 14 82 15 33 16 87 17 81 18 83 19 34 20 86 21 80 22 79 23
REMARK SMILES IDX 35 25 67 26 47 27 66 28 48 29 51 30 65 31 84 32 49 33 50 34
REMARK SMILES IDX 64 36 85 37 52 38 36 39 37 40 45 41 38 42 44 43 46 44 43 45
REMARK SMILES IDX 39 46 40 47 41 48 42 49 68 50 69 51 77 52 70 53 76 54 78 55
REMARK SMILES IDX 75 56 71 57 72 58 73 59 74 60 53 61 54 62 62 63 55 64 61 65
REMARK SMILES IDX 63 66 60 67 56 68 57 69 58 70 59 71 6 72 7 73 8 74 9 75
REMARK SMILES IDX 10 76 11 77 12 79 13 80 14 81 18 82 15 83 17 84 16 85 19 86
REMARK SMILES IDX 20 87 25 88 21 89 24 90 26 91 22 92 23 93
REMARK H PARENT 3 6 83 24 51 35 10 78
REMARK Flexibility Score: inf
ROOT
ATOM      1  C   UNL     1       4.589  -2.687  -0.300  1.00  0.00     0.021 C 
ENDROOT
BRANCH   1   2
ATOM      2  C   UNL     1       4.374  -1.211  -0.613  1.00  0.00     0.116 C 
BRANCH   2   3
ATOM      3  N   UNL     1       2.972  -0.848  -0.746  1.00  0.00    -0.352 N 
ATOM      4  O   UNL     1       1.060   0.259  -0.293  1.00  0.00    -0.269 OA
ATOM      5  C   UNL     1       2.276   0.174  -0.142  1.00  0.00     0.251 C 
ATOM      6  H   UNL     1       2.446  -1.415  -1.355  1.00  0.00     0.163 HD
BRANCH   5   7
ATOM      7  C   UNL     1       2.987   1.151   0.716  1.00  0.00     0.039 A 
ATOM      8  C   UNL     1       4.196   1.718   0.310  1.00  0.00     0.014 A 
ATOM      9  C   UNL     1       2.439   1.493   1.957  1.00  0.00     0.014 A 
ATOM     10  C   UNL     1       4.933   2.490   1.203  1.00  0.00     0.010 A 
ATOM     11  C   UNL     1       3.143   2.339   2.821  1.00  0.00     0.010 A 
ATOM     12  C   UNL     1       4.419   2.808   2.472  1.00  0.00    -0.014 A 
BRANCH  12  13
ATOM     13  C   UNL     1       5.236   3.633   3.404  1.00  0.00     0.031 A 
ATOM     14  C   UNL     1       5.746   3.061   4.701  1.00  0.00     0.074 A 
ATOM     15  C   UNL     1       5.559   4.892   3.051  1.00  0.00     0.049 A 
ATOM     16  N   UNL     1       6.512   3.618   5.606  1.00  0.00    -0.248 NA
ATOM     17  C   UNL     1       5.333   1.690   5.031  1.00  0.00     0.031 C 
ATOM     18  C   UNL     1       5.115   5.561   1.825  1.00  0.00     0.029 A 
ATOM     19  N   UNL     1       6.351   5.826   3.668  1.00  0.00    -0.354 N 
ATOM     20  C   UNL     1       6.656   2.678   6.621  1.00  0.00     0.074 A 
ATOM     21  C   UNL     1       5.867   1.526   6.233  1.00  0.00     0.031 C 
ATOM     22  C   UNL     1       5.685   6.773   1.755  1.00  0.00     0.029 A 
ATOM     23  C   UNL     1       6.486   6.993   2.954  1.00  0.00     0.049 A 
ATOM     24  H   UNL     1       6.783   5.674   4.540  1.00  0.00     0.167 HD
ATOM     25  C   UNL     1       7.384   2.763   7.764  1.00  0.00     0.034 A 
ATOM     26  C   UNL     1       7.171   8.119   3.232  1.00  0.00     0.034 A 
ATOM     27  C   UNL     1       8.176   3.913   8.132  1.00  0.00     0.049 A 
ATOM     28  C   UNL     1       7.965   8.191   4.509  1.00  0.00     0.074 A 
ATOM     29  C   UNL     1       8.976   4.089   9.249  1.00  0.00     0.029 A 
ATOM     30  N   UNL     1       8.264   5.089   7.397  1.00  0.00    -0.354 N 
ATOM     31  N   UNL     1       8.107   7.282   5.445  1.00  0.00    -0.248 NA
ATOM     32  C   UNL     1       8.696   9.438   4.759  1.00  0.00     0.031 C 
ATOM     33  C   UNL     1       9.499   5.388   9.218  1.00  0.00     0.029 A 
ATOM     34  C   UNL     1       9.084   6.000   8.047  1.00  0.00     0.049 A 
ATOM     35  H   UNL     1       7.811   5.251   6.538  1.00  0.00     0.167 HD
ATOM     36  C   UNL     1       8.966   7.841   6.386  1.00  0.00     0.074 A 
ATOM     37  C   UNL     1       9.322   9.156   5.892  1.00  0.00     0.031 C 
ATOM     38  C   UNL     1       9.421   7.314   7.552  1.00  0.00     0.034 A 
BRANCH  25  39
ATOM     39  C   UNL     1       7.317   1.592   8.719  1.00  0.00     0.023 A 
ATOM     40  C   UNL     1       7.804   0.320   8.370  1.00  0.00     0.031 A 
ATOM     41  C   UNL     1       6.733   1.746   9.989  1.00  0.00     0.131 A 
ATOM     42  C   UNL     1       7.632  -0.762   9.248  1.00  0.00     0.055 A 
ATOM     43  C   UNL     1       6.635   0.683  10.890  1.00  0.00     0.041 A 
ATOM     44  F   UNL     1       6.234   2.932  10.372  1.00  0.00    -0.206 F 
ATOM     45  C   UNL     1       7.072  -0.584  10.516  1.00  0.00     0.022 A 
BRANCH  42  46
ATOM     46  S   UNL     1       8.020  -2.432   8.654  1.00  0.00     0.124 S 
ATOM     47  O   UNL     1       7.163  -2.534   7.474  1.00  0.00    -0.237 OA
ATOM     48  O   UNL     1       9.453  -2.350   8.395  1.00  0.00    -0.237 OA
ATOM     49  O   UNL     1       7.634  -3.292   9.770  1.00  0.00    -0.744 OA
ENDBRANCH  42  46
ENDBRANCH  25  39
BRANCH  26  50
ATOM     50  C   UNL     1       7.131   9.272   2.291  1.00  0.00     0.023 A 
ATOM     51  C   UNL     1       8.286   9.697   1.615  1.00  0.00     0.031 A 
ATOM     52  C   UNL     1       5.938   9.983   2.072  1.00  0.00     0.131 A 
ATOM     53  C   UNL     1       8.232  10.825   0.782  1.00  0.00     0.055 A 
ATOM     54  C   UNL     1       5.878  11.073   1.204  1.00  0.00     0.041 A 
ATOM     55  F   UNL     1       4.804   9.612   2.688  1.00  0.00    -0.206 F 
ATOM     56  C   UNL     1       7.033  11.508   0.562  1.00  0.00     0.022 A 
BRANCH  53  57
ATOM     57  S   UNL     1       9.772  11.431   0.042  1.00  0.00     0.124 S 
ATOM     58  O   UNL     1      10.589  11.688   1.222  1.00  0.00    -0.237 OA
ATOM     59  O   UNL     1      10.176  10.298  -0.784  1.00  0.00    -0.237 OA
ATOM     60  O   UNL     1       9.350  12.618  -0.698  1.00  0.00    -0.744 OA
ENDBRANCH  53  57
ENDBRANCH  26  50
BRANCH  38  61
ATOM     61  C   UNL     1      10.393   8.156   8.341  1.00  0.00     0.023 A 
ATOM     62  C   UNL     1      10.004   9.365   8.945  1.00  0.00     0.031 A 
ATOM     63  C   UNL     1      11.737   7.760   8.457  1.00  0.00     0.131 A 
ATOM     64  C   UNL     1      10.963  10.169   9.580  1.00  0.00     0.055 A 
ATOM     65  C   UNL     1      12.674   8.535   9.142  1.00  0.00     0.041 A 
ATOM     66  F   UNL     1      12.162   6.616   7.899  1.00  0.00    -0.206 F 
ATOM     67  C   UNL     1      12.292   9.755   9.694  1.00  0.00     0.022 A 
BRANCH  64  68
ATOM     68  S   UNL     1      10.472  11.815  10.162  1.00  0.00     0.124 S 
ATOM     69  O   UNL     1       9.952  12.427   8.943  1.00  0.00    -0.237 OA
ATOM     70  O   UNL     1       9.483  11.500  11.188  1.00  0.00    -0.237 OA
ATOM     71  O   UNL     1      11.720  12.390  10.661  1.00  0.00    -0.744 OA
ENDBRANCH  64  68
ENDBRANCH  38  61
ENDBRANCH  12  13
ENDBRANCH   5   7
ENDBRANCH   2   3
ENDBRANCH   1   2
BRANCH   1  72
ATOM     72  C   UNL     1       4.145  -3.669  -1.384  1.00  0.00     0.002 C 
BRANCH  72  73
ATOM     73  C   UNL     1       4.728  -3.440  -2.781  1.00  0.00     0.002 C 
BRANCH  73  74
ATOM     74  C   UNL     1       6.253  -3.326  -2.872  1.00  0.00     0.021 C 
BRANCH  74  75
ATOM     75  C   UNL     1       7.046  -4.482  -2.265  1.00  0.00     0.116 C 
BRANCH  75  76
ATOM     76  N   UNL     1       6.753  -5.754  -2.904  1.00  0.00    -0.352 N 
ATOM     77  C   UNL     1       7.608  -6.673  -3.459  1.00  0.00     0.252 C 
ATOM     78  H   UNL     1       5.799  -5.992  -2.944  1.00  0.00     0.163 HD
ATOM     79  O   UNL     1       7.164  -7.681  -4.001  1.00  0.00    -0.269 OA
BRANCH  77  80
ATOM     80  C   UNL     1       9.069  -6.449  -3.400  1.00  0.00     0.050 A 
ATOM     81  C   UNL     1       9.666  -6.343  -2.138  1.00  0.00     0.034 A 
ATOM     82  C   UNL     1       9.846  -6.420  -4.570  1.00  0.00     0.016 A 
ATOM     83  C   UNL     1      11.030  -6.145  -2.077  1.00  0.00     0.112 A 
ATOM     84  C   UNL     1      11.213  -6.223  -4.373  1.00  0.00     0.120 A 
ATOM     85  N   UNL     1      11.816  -6.072  -3.168  1.00  0.00    -0.264 NA
BRANCH  82  86
ATOM     86  C   UNL     1       9.313  -6.592  -5.930  1.00  0.00     0.020 A 
ATOM     87  C   UNL     1       8.374  -5.698  -6.473  1.00  0.00     0.015 A 
ATOM     88  C   UNL     1       9.740  -7.662  -6.738  1.00  0.00     0.134 A 
ATOM     89  C   UNL     1       7.881  -5.882  -7.770  1.00  0.00     0.040 A 
ATOM     90  C   UNL     1       9.255  -7.852  -8.028  1.00  0.00     0.079 A 
ATOM     91  F   UNL     1      10.647  -8.534  -6.271  1.00  0.00    -0.206 F 
ATOM     92  C   UNL     1       8.326  -6.957  -8.532  1.00  0.00     0.126 A 
ATOM     93  F   UNL     1       7.853  -7.127  -9.774  1.00  0.00    -0.207 F 
ENDBRANCH  82  86
ENDBRANCH  77  80
ENDBRANCH  75  76
ENDBRANCH  74  75
ENDBRANCH  73  74
ENDBRANCH  72  73
ENDBRANCH   1  72
TORSDOF 17
