REMARK SMILES Cc1ccc(Nc2nc3c(c(OCC(=O)NCCCCCCNC(=O)c4ccc(-c5c6nc(c(-c7cc(S(=O)(=O)[O-])ccc7F)c7ccc([nH]7)c(-c7cc(S(=O)(=O)[O-])ccc7F)c7nc(c(-c8cc(S(=O)(=O)[O-])ccc8F)c8ccc5[nH]8)C=C7)C=C6)cc4)n2)C[N@H+](Cc2ccccc2)CC3)cc1F
REMARK SMILES IDX 19 1 18 2 17 3 16 4 14 5 15 6 13 8 12 9 11 10 7 11 8 12
REMARK SMILES IDX 89 13 9 14 10 15 100 16 90 17 99 18 91 19 6 21 5 23 1 24
REMARK SMILES IDX 2 25 3 26 102 27 4 28 101 29 103 30 92 31 93 32 94 33 98 34
REMARK SMILES IDX 95 35 97 36 96 37 20 38 21 39 22 40 23 41 24 42 25 44 26 45
REMARK SMILES IDX 27 46 88 47 28 48 87 49 29 50 30 51 31 52 81 53 32 54 86 55
REMARK SMILES IDX 80 56 82 57 33 58 85 59 79 60 78 61 34 63 66 64 46 65 65 66
REMARK SMILES IDX 47 67 50 68 64 69 83 70 48 71 49 72 63 74 84 75 51 76 35 77
REMARK SMILES IDX 36 78 44 79 37 80 43 81 45 82 42 83 38 84 39 85 40 86 41 87
REMARK SMILES IDX 67 88 68 89 76 90 69 91 75 92 77 93 74 94 70 95 71 96 72 97
REMARK SMILES IDX 73 98 52 99 53 100 61 101 54 102 60 103 62 104 59 105 55 106
REMARK SMILES IDX 56 107 57 108 58 109
REMARK H PARENT 16 7 91 20 6 22 23 43 82 62 50 73
REMARK Flexibility Score: inf
ROOT
ATOM      1  C   UNL     1      -7.636  -6.362   0.360  1.00  0.00     0.002 C 
ENDROOT
BRANCH   1   2
ATOM      2  C   UNL     1      -6.299  -6.919  -0.144  1.00  0.00     0.021 C 
BRANCH   2   3
ATOM      3  C   UNL     1      -6.148  -6.855  -1.662  1.00  0.00     0.116 C 
BRANCH   3   4
ATOM      4  N   UNL     1      -6.297  -5.497  -2.136  1.00  0.00    -0.353 N 
ATOM      5  C   UNL     1      -5.359  -4.683  -2.694  1.00  0.00     0.258 C 
ATOM      6  O   UNL     1      -5.684  -3.538  -3.013  1.00  0.00    -0.271 OA
ATOM      7  H   UNL     1      -7.197  -5.109  -2.044  1.00  0.00     0.163 HD
BRANCH   5   8
ATOM      8  C   UNL     1      -3.978  -5.262  -3.009  1.00  0.00     0.331 C 
BRANCH   8   9
ATOM      9  O   UNL     1      -3.317  -5.990  -1.987  1.00  0.00    -0.467 OA
BRANCH   9  10
ATOM     10  C   UNL     1      -2.889  -5.232  -0.920  1.00  0.00     0.228 A 
ATOM     11  C   UNL     1      -2.657  -3.225   0.110  1.00  0.00     0.230 A 
ATOM     12  N   UNL     1      -1.965  -3.766   1.128  1.00  0.00    -0.217 NA
ATOM     13  N   UNL     1      -3.170  -3.925  -0.903  1.00  0.00    -0.177 NA
ATOM     14  C   UNL     1      -1.762  -5.098   1.111  1.00  0.00     0.064 A 
ATOM     15  C   UNL     1      -2.182  -5.886   0.064  1.00  0.00     0.090 A 
ATOM     16  C   UNL     1      -0.983  -5.702   2.247  1.00  0.00     0.118 C 
ATOM     17  C   UNL     1      -2.008  -7.369   0.071  1.00  0.00     0.307 C 
ATOM     18  C   UNL     1      -1.180  -7.221   2.338  1.00  0.00     0.269 C 
ATOM     19  N   UNL     1      -0.990  -7.848   1.017  1.00  0.00    -0.327 N 
ATOM     20  H   UNL     1      -0.072  -7.561   0.679  1.00  0.00     0.348 HD
BRANCH  11  21
ATOM     21  N   UNL     1      -2.765  -1.842   0.002  1.00  0.00    -0.324 N 
ATOM     22  H   UNL     1      -3.672  -1.472  -0.100  1.00  0.00     0.170 HD
BRANCH  21  23
ATOM     23  C   UNL     1      -1.702  -0.925   0.023  1.00  0.00     0.044 A 
ATOM     24  C   UNL     1       1.541   1.925   0.014  1.00  0.00     0.047 C 
ATOM     25  C   UNL     1       0.400   0.959   0.030  1.00  0.00    -0.015 A 
ATOM     26  C   UNL     1      -0.932   1.385   0.023  1.00  0.00     0.008 A 
ATOM     27  C   UNL     1       0.663  -0.408   0.053  1.00  0.00     0.128 A 
ATOM     28  C   UNL     1      -1.973   0.448   0.022  1.00  0.00     0.026 A 
ATOM     29  C   UNL     1      -0.365  -1.339   0.063  1.00  0.00     0.065 A 
ATOM     30  F   UNL     1       1.932  -0.845   0.052  1.00  0.00    -0.207 F 
ENDBRANCH  21  23
ENDBRANCH  11  21
BRANCH  19  31
ATOM     31  C   UNL     1      -0.950  -9.330   1.077  1.00  0.00     0.299 C 
BRANCH  31  32
ATOM     32  C   UNL     1      -2.126  -9.972   1.781  1.00  0.00     0.006 A 
ATOM     33  C   UNL     1      -1.998 -10.346   3.127  1.00  0.00     0.009 A 
ATOM     34  C   UNL     1      -3.379 -10.074   1.156  1.00  0.00     0.009 A 
ATOM     35  C   UNL     1      -3.123 -10.674   3.867  1.00  0.00     0.001 A 
ATOM     36  C   UNL     1      -4.512 -10.362   1.908  1.00  0.00     0.001 A 
ATOM     37  C   UNL     1      -4.373 -10.626   3.267  1.00  0.00     0.000 A 
ENDBRANCH  31  32
ENDBRANCH  19  31
ENDBRANCH   9  10
ENDBRANCH   8   9
ENDBRANCH   5   8
ENDBRANCH   3   4
ENDBRANCH   2   3
ENDBRANCH   1   2
BRANCH   1  38
ATOM     38  C   UNL     1      -8.879  -6.882  -0.384  1.00  0.00     0.002 C 
BRANCH  38  39
ATOM     39  C   UNL     1      -8.917  -8.394  -0.614  1.00  0.00     0.021 C 
BRANCH  39  40
ATOM     40  C   UNL     1      -8.898  -9.136   0.689  1.00  0.00     0.116 C 
BRANCH  40  41
ATOM     41  N   UNL     1     -10.226  -9.112   1.276  1.00  0.00    -0.352 N 
ATOM     42  C   UNL     1     -10.865 -10.213   1.787  1.00  0.00     0.251 C 
ATOM     43  H   UNL     1     -10.698  -8.249   1.308  1.00  0.00     0.163 HD
ATOM     44  O   UNL     1     -12.089 -10.312   1.650  1.00  0.00    -0.269 OA
BRANCH  42  45
ATOM     45  C   UNL     1     -10.046 -11.178   2.539  1.00  0.00     0.039 A 
ATOM     46  C   UNL     1     -10.470 -12.461   2.887  1.00  0.00     0.014 A 
ATOM     47  C   UNL     1      -8.838 -10.697   3.025  1.00  0.00     0.014 A 
ATOM     48  C   UNL     1      -9.739 -13.180   3.837  1.00  0.00     0.010 A 
ATOM     49  C   UNL     1      -8.014 -11.500   3.720  1.00  0.00     0.010 A 
ATOM     50  C   UNL     1      -8.549 -12.632   4.298  1.00  0.00    -0.014 A 
BRANCH  50  51
ATOM     51  C   UNL     1      -7.737 -13.037   5.427  1.00  0.00     0.031 A 
ATOM     52  C   UNL     1      -7.019 -14.298   5.347  1.00  0.00     0.074 A 
ATOM     53  C   UNL     1      -7.427 -12.054   6.314  1.00  0.00     0.049 A 
ATOM     54  N   UNL     1      -6.642 -14.977   6.366  1.00  0.00    -0.248 NA
ATOM     55  C   UNL     1      -6.663 -14.897   4.065  1.00  0.00     0.031 C 
ATOM     56  C   UNL     1      -6.317 -11.957   7.246  1.00  0.00     0.029 A 
ATOM     57  N   UNL     1      -8.113 -10.848   6.526  1.00  0.00    -0.354 N 
ATOM     58  C   UNL     1      -5.690 -15.853   5.897  1.00  0.00     0.074 A 
ATOM     59  C   UNL     1      -5.896 -15.914   4.467  1.00  0.00     0.031 C 
ATOM     60  C   UNL     1      -6.570 -10.955   8.113  1.00  0.00     0.029 A 
ATOM     61  C   UNL     1      -7.928 -10.497   7.863  1.00  0.00     0.049 A 
ATOM     62  H   UNL     1      -8.628 -10.343   5.856  1.00  0.00     0.167 HD
ATOM     63  C   UNL     1      -4.671 -16.215   6.730  1.00  0.00     0.034 A 
ATOM     64  C   UNL     1      -8.972 -10.546   8.747  1.00  0.00     0.034 A 
ATOM     65  C   UNL     1      -4.818 -15.533   8.037  1.00  0.00     0.049 A 
ATOM     66  C   UNL     1      -8.798 -11.682   9.742  1.00  0.00     0.074 A 
ATOM     67  C   UNL     1      -4.177 -14.441   8.602  1.00  0.00     0.029 A 
ATOM     68  N   UNL     1      -5.987 -15.704   8.785  1.00  0.00    -0.354 N 
ATOM     69  N   UNL     1      -7.844 -12.572   9.700  1.00  0.00    -0.248 NA
ATOM     70  C   UNL     1      -9.718 -11.917  10.843  1.00  0.00     0.031 C 
ATOM     71  C   UNL     1      -4.996 -13.929   9.653  1.00  0.00     0.029 A 
ATOM     72  C   UNL     1      -6.130 -14.718   9.759  1.00  0.00     0.049 A 
ATOM     73  H   UNL     1      -6.631 -16.433   8.640  1.00  0.00     0.167 HD
ATOM     74  C   UNL     1      -8.060 -13.553  10.635  1.00  0.00     0.074 A 
ATOM     75  C   UNL     1      -9.195 -13.033  11.381  1.00  0.00     0.031 C 
ATOM     76  C   UNL     1      -7.308 -14.705  10.657  1.00  0.00     0.034 A 
BRANCH  63  77
ATOM     77  C   UNL     1      -3.396 -16.891   6.233  1.00  0.00     0.023 A 
ATOM     78  C   UNL     1      -3.285 -17.582   5.001  1.00  0.00     0.031 A 
ATOM     79  C   UNL     1      -2.207 -16.845   6.987  1.00  0.00     0.131 A 
ATOM     80  C   UNL     1      -2.056 -18.080   4.521  1.00  0.00     0.055 A 
ATOM     81  C   UNL     1      -0.993 -17.390   6.538  1.00  0.00     0.041 A 
ATOM     82  F   UNL     1      -2.157 -16.250   8.187  1.00  0.00    -0.206 F 
ATOM     83  C   UNL     1      -0.905 -17.991   5.291  1.00  0.00     0.022 A 
BRANCH  80  84
ATOM     84  S   UNL     1      -1.909 -18.791   2.851  1.00  0.00     0.124 S 
ATOM     85  O   UNL     1      -0.795 -18.032   2.284  1.00  0.00    -0.237 OA
ATOM     86  O   UNL     1      -1.624 -20.195   3.131  1.00  0.00    -0.237 OA
ATOM     87  O   UNL     1      -3.207 -18.521   2.239  1.00  0.00    -0.744 OA
ENDBRANCH  80  84
ENDBRANCH  63  77
BRANCH  64  88
ATOM     88  C   UNL     1     -10.281 -10.170   8.114  1.00  0.00     0.023 A 
ATOM     89  C   UNL     1     -11.140 -11.171   7.636  1.00  0.00     0.031 A 
ATOM     90  C   UNL     1     -10.385  -8.880   7.547  1.00  0.00     0.131 A 
ATOM     91  C   UNL     1     -11.912 -10.924   6.488  1.00  0.00     0.055 A 
ATOM     92  C   UNL     1     -11.118  -8.655   6.379  1.00  0.00     0.041 A 
ATOM     93  F   UNL     1      -9.639  -7.869   8.025  1.00  0.00    -0.206 F 
ATOM     94  C   UNL     1     -11.842  -9.700   5.812  1.00  0.00     0.022 A 
BRANCH  91  95
ATOM     95  S   UNL     1     -12.908 -12.277   5.796  1.00  0.00     0.124 S 
ATOM     96  O   UNL     1     -14.126 -12.170   6.591  1.00  0.00    -0.237 OA
ATOM     97  O   UNL     1     -13.050 -11.908   4.393  1.00  0.00    -0.237 OA
ATOM     98  O   UNL     1     -12.079 -13.449   6.048  1.00  0.00    -0.744 OA
ENDBRANCH  91  95
ENDBRANCH  64  88
BRANCH  76  99
ATOM     99  C   UNL     1      -7.543 -15.948  11.525  1.00  0.00     0.023 A 
ATOM    100  C   UNL     1      -6.611 -17.017  11.430  1.00  0.00     0.031 A 
ATOM    101  C   UNL     1      -8.624 -16.200  12.387  1.00  0.00     0.131 A 
ATOM    102  C   UNL     1      -6.785 -18.235  12.102  1.00  0.00     0.055 A 
ATOM    103  C   UNL     1      -8.755 -17.386  13.126  1.00  0.00     0.041 A 
ATOM    104  F   UNL     1      -9.638 -15.350  12.549  1.00  0.00    -0.206 F 
ATOM    105  C   UNL     1      -7.847 -18.418  12.973  1.00  0.00     0.022 A 
BRANCH 102 106
ATOM    106  S   UNL     1      -5.686 -19.641  11.784  1.00  0.00     0.124 S 
ATOM    107  O   UNL     1      -4.947 -19.726  13.041  1.00  0.00    -0.237 OA
ATOM    108  O   UNL     1      -6.638 -20.724  11.545  1.00  0.00    -0.237 OA
ATOM    109  O   UNL     1      -4.913 -19.226  10.621  1.00  0.00    -0.744 OA
ENDBRANCH 102 106
ENDBRANCH  76  99
ENDBRANCH  50  51
ENDBRANCH  42  45
ENDBRANCH  40  41
ENDBRANCH  39  40
ENDBRANCH  38  39
ENDBRANCH   1  38
TORSDOF 22
