REMARK SMILES O=C1CCCC2=C1[C@H](c1ccc([N+](=O)[O-])cc1)CC(=O)N2c1ccccc1C(=O)NCCCCCCNC(=O)c1ccc(-c2c3nc(c(-c4cc(S(=O)(=O)[O-])ccc4F)c4ccc([nH]4)c(-c4cc(S(=O)(=O)[O-])ccc4F)c4nc(c(-c5cc(S(=O)(=O)[O-])ccc5F)c5ccc2[nH]5)C=C4)C=C3)cc1
REMARK SMILES IDX 33 1 32 2 31 3 30 4 28 5 29 6 27 8 22 9 23 10 24 11 26 12
REMARK SMILES IDX 25 13 21 14 1 15 2 16 3 17 7 18 4 19 6 20 8 21 5 22 18 23
REMARK SMILES IDX 19 24 20 25 9 26 10 27 17 28 11 29 16 30 12 31 13 32 14 33
REMARK SMILES IDX 15 34 34 35 35 36 36 37 37 38 38 39 39 41 40 42 41 43 102 44
REMARK SMILES IDX 42 45 101 46 43 47 44 48 45 49 95 50 46 51 100 52 94 53
REMARK SMILES IDX 96 54 47 55 99 56 93 57 92 58 48 60 80 61 60 62 79 63 61 64
REMARK SMILES IDX 64 65 78 66 97 67 62 68 63 69 77 71 98 72 65 73 49 74 50 75
REMARK SMILES IDX 58 76 51 77 57 78 59 79 56 80 52 81 53 82 54 83 55 84 81 85
REMARK SMILES IDX 82 86 90 87 83 88 89 89 91 90 88 91 84 92 85 93 86 94 87 95
REMARK SMILES IDX 66 96 67 97 75 98 68 99 74 100 76 101 73 102 69 103 70 104
REMARK SMILES IDX 71 105 72 106
REMARK H PARENT 30 7 37 40 96 59 64 70
REMARK Flexibility Score: inf
ROOT
ATOM      1  C   UNL     1       2.638   0.013   3.213  1.00  0.00     0.002 C 
ENDROOT
BRANCH   1   2
ATOM      2  C   UNL     1       3.953  -0.812   2.932  1.00  0.00     0.021 C 
BRANCH   2   3
ATOM      3  C   UNL     1       4.773  -0.835   1.631  1.00  0.00     0.116 C 
BRANCH   3   4
ATOM      4  N   UNL     1       6.221  -0.676   1.761  1.00  0.00    -0.352 N 
ATOM      5  C   UNL     1       7.346  -0.932   0.999  1.00  0.00     0.253 C 
ATOM      6  O   UNL     1       8.348  -0.372   1.476  1.00  0.00    -0.269 OA
ATOM      7  H   UNL     1       6.460  -0.278   2.629  1.00  0.00     0.163 HD
BRANCH   5   8
ATOM      8  C   UNL     1       7.572  -1.736  -0.285  1.00  0.00     0.063 A 
ATOM      9  C   UNL     1       6.723  -2.506  -1.108  1.00  0.00     0.061 A 
ATOM     10  C   UNL     1       7.236  -3.157  -2.272  1.00  0.00     0.027 A 
ATOM     11  C   UNL     1       8.569  -3.090  -2.643  1.00  0.00     0.002 A 
ATOM     12  C   UNL     1       8.941  -1.716  -0.702  1.00  0.00     0.016 A 
ATOM     13  C   UNL     1       9.431  -2.370  -1.846  1.00  0.00     0.001 A 
BRANCH   9  14
ATOM     14  N   UNL     1       5.313  -2.658  -0.978  1.00  0.00    -0.284 N 
ATOM     15  O   UNL     1       1.127  -0.867  -1.736  1.00  0.00    -0.294 OA
ATOM     16  C   UNL     1       2.269  -0.655  -1.344  1.00  0.00     0.161 C 
ATOM     17  C   UNL     1       2.840   0.751  -1.250  1.00  0.00     0.081 C 
ATOM     18  C   UNL     1       3.132  -1.777  -0.877  1.00  0.00     0.023 C 
ATOM     19  C   UNL     1       4.083   0.841  -2.094  1.00  0.00     0.015 C 
ATOM     20  C   UNL     1       4.434  -1.599  -1.208  1.00  0.00     0.033 C 
ATOM     21  C   UNL     1       2.551  -3.127  -0.386  1.00  0.00     0.064 C 
ATOM     22  C   UNL     1       5.031  -0.322  -1.820  1.00  0.00     0.055 C 
ATOM     23  C   UNL     1       3.359  -4.179  -1.132  1.00  0.00     0.114 C 
ATOM     24  C   UNL     1       4.840  -3.987  -0.862  1.00  0.00     0.232 C 
ATOM     25  O   UNL     1       5.555  -4.962  -0.624  1.00  0.00    -0.274 OA
BRANCH  21  26
ATOM     26  C   UNL     1       2.438  -3.478   1.144  1.00  0.00    -0.039 A 
ATOM     27  C   UNL     1       3.229  -4.419   1.838  1.00  0.00     0.011 A 
ATOM     28  C   UNL     1       1.376  -2.967   1.901  1.00  0.00     0.011 A 
ATOM     29  C   UNL     1       3.034  -4.724   3.210  1.00  0.00     0.086 A 
ATOM     30  C   UNL     1       1.188  -3.200   3.278  1.00  0.00     0.086 A 
ATOM     31  C   UNL     1       2.041  -4.071   3.939  1.00  0.00     0.269 A 
BRANCH  31  32
ATOM     32  N   UNL     1       1.907  -4.276   5.387  1.00  0.00     0.062 N 
ATOM     33  O   UNL     1       2.489  -5.247   5.890  1.00  0.00    -0.258 OA
ATOM     34  O   UNL     1       1.255  -3.438   6.028  1.00  0.00    -0.258 OA
ENDBRANCH  31  32
ENDBRANCH  21  26
ENDBRANCH   9  14
ENDBRANCH   5   8
ENDBRANCH   3   4
ENDBRANCH   2   3
ENDBRANCH   1   2
BRANCH   1  35
ATOM     35  C   UNL     1       1.549   0.721   2.332  1.00  0.00     0.002 C 
BRANCH  35  36
ATOM     36  C   UNL     1       0.694   0.112   1.205  1.00  0.00     0.021 C 
BRANCH  36  37
ATOM     37  C   UNL     1      -0.774  -0.422   1.225  1.00  0.00     0.116 C 
BRANCH  37  38
ATOM     38  N   UNL     1      -1.365  -0.837   2.474  1.00  0.00    -0.352 N 
ATOM     39  C   UNL     1      -2.505  -1.620   2.634  1.00  0.00     0.251 C 
ATOM     40  H   UNL     1      -0.916  -0.535   3.297  1.00  0.00     0.163 HD
ATOM     41  O   UNL     1      -3.084  -1.629   3.708  1.00  0.00    -0.269 OA
BRANCH  39  42
ATOM     42  C   UNL     1      -3.039  -2.446   1.512  1.00  0.00     0.039 A 
ATOM     43  C   UNL     1      -4.254  -2.105   0.907  1.00  0.00     0.014 A 
ATOM     44  C   UNL     1      -2.402  -3.634   1.140  1.00  0.00     0.014 A 
ATOM     45  C   UNL     1      -4.793  -2.913  -0.112  1.00  0.00     0.010 A 
ATOM     46  C   UNL     1      -2.931  -4.428   0.106  1.00  0.00     0.010 A 
ATOM     47  C   UNL     1      -4.127  -4.074  -0.542  1.00  0.00    -0.014 A 
BRANCH  47  48
ATOM     48  C   UNL     1      -4.665  -4.905  -1.668  1.00  0.00     0.031 A 
ATOM     49  C   UNL     1      -5.188  -6.299  -1.423  1.00  0.00     0.074 A 
ATOM     50  C   UNL     1      -4.639  -4.430  -2.930  1.00  0.00     0.049 A 
ATOM     51  N   UNL     1      -5.624  -7.189  -2.281  1.00  0.00    -0.248 NA
ATOM     52  C   UNL     1      -5.199  -6.752  -0.028  1.00  0.00     0.031 C 
ATOM     53  C   UNL     1      -4.140  -3.110  -3.316  1.00  0.00     0.029 A 
ATOM     54  N   UNL     1      -5.021  -5.000  -4.123  1.00  0.00    -0.354 N 
ATOM     55  C   UNL     1      -5.954  -8.316  -1.531  1.00  0.00     0.074 A 
ATOM     56  C   UNL     1      -5.611  -8.005  -0.157  1.00  0.00     0.031 C 
ATOM     57  C   UNL     1      -4.246  -2.971  -4.647  1.00  0.00     0.029 A 
ATOM     58  C   UNL     1      -4.779  -4.204  -5.221  1.00  0.00     0.049 A 
ATOM     59  H   UNL     1      -5.430  -5.894  -4.186  1.00  0.00     0.167 HD
ATOM     60  C   UNL     1      -6.503  -9.491  -1.943  1.00  0.00     0.034 A 
ATOM     61  C   UNL     1      -4.939  -4.440  -6.542  1.00  0.00     0.034 A 
ATOM     62  C   UNL     1      -6.829  -9.790  -3.320  1.00  0.00     0.049 A 
ATOM     63  C   UNL     1      -5.509  -5.762  -6.991  1.00  0.00     0.074 A 
ATOM     64  C   UNL     1      -7.423 -10.928  -3.841  1.00  0.00     0.029 A 
ATOM     65  N   UNL     1      -6.570  -8.954  -4.400  1.00  0.00    -0.354 N 
ATOM     66  N   UNL     1      -5.856  -6.799  -6.264  1.00  0.00    -0.248 NA
ATOM     67  C   UNL     1      -5.719  -5.946  -8.434  1.00  0.00     0.031 C 
ATOM     68  C   UNL     1      -7.451 -10.813  -5.235  1.00  0.00     0.029 A 
ATOM     69  C   UNL     1      -6.956  -9.566  -5.584  1.00  0.00     0.049 A 
ATOM     70  H   UNL     1      -6.169  -8.057  -4.335  1.00  0.00     0.167 HD
ATOM     71  C   UNL     1      -6.354  -7.744  -7.157  1.00  0.00     0.074 A 
ATOM     72  C   UNL     1      -6.261  -7.156  -8.478  1.00  0.00     0.031 C 
ATOM     73  C   UNL     1      -6.855  -8.979  -6.901  1.00  0.00     0.034 A 
BRANCH  60  74
ATOM     74  C   UNL     1      -6.737 -10.553  -0.888  1.00  0.00     0.023 A 
ATOM     75  C   UNL     1      -7.574 -10.322   0.217  1.00  0.00     0.031 A 
ATOM     76  C   UNL     1      -6.066 -11.788  -0.950  1.00  0.00     0.131 A 
ATOM     77  C   UNL     1      -7.623 -11.250   1.268  1.00  0.00     0.055 A 
ATOM     78  C   UNL     1      -6.201 -12.754   0.051  1.00  0.00     0.041 A 
ATOM     79  F   UNL     1      -5.244 -12.071  -1.973  1.00  0.00    -0.206 F 
ATOM     80  C   UNL     1      -6.962 -12.476   1.183  1.00  0.00     0.022 A 
BRANCH  77  81
ATOM     81  S   UNL     1      -8.391 -10.739   2.832  1.00  0.00     0.124 S 
ATOM     82  O   UNL     1      -7.646  -9.520   3.140  1.00  0.00    -0.237 OA
ATOM     83  O   UNL     1      -9.787 -10.556   2.452  1.00  0.00    -0.237 OA
ATOM     84  O   UNL     1      -8.127 -11.863   3.727  1.00  0.00    -0.744 OA
ENDBRANCH  77  81
ENDBRANCH  60  74
BRANCH  61  85
ATOM     85  C   UNL     1      -4.516  -3.408  -7.534  1.00  0.00     0.023 A 
ATOM     86  C   UNL     1      -5.448  -2.730  -8.337  1.00  0.00     0.031 A 
ATOM     87  C   UNL     1      -3.155  -3.080  -7.686  1.00  0.00     0.131 A 
ATOM     88  C   UNL     1      -5.005  -1.772  -9.266  1.00  0.00     0.055 A 
ATOM     89  C   UNL     1      -2.726  -2.096  -8.577  1.00  0.00     0.041 A 
ATOM     90  F   UNL     1      -2.223  -3.697  -6.943  1.00  0.00    -0.206 F 
ATOM     91  C   UNL     1      -3.653  -1.440  -9.379  1.00  0.00     0.022 A 
BRANCH  88  92
ATOM     92  S   UNL     1      -6.220  -0.992 -10.365  1.00  0.00     0.124 S 
ATOM     93  O   UNL     1      -6.752  -2.142 -11.086  1.00  0.00    -0.237 OA
ATOM     94  O   UNL     1      -7.125  -0.354  -9.415  1.00  0.00    -0.237 OA
ATOM     95  O   UNL     1      -5.413  -0.072 -11.165  1.00  0.00    -0.744 OA
ENDBRANCH  88  92
ENDBRANCH  61  85
BRANCH  73  96
ATOM     96  C   UNL     1      -7.402  -9.769  -8.067  1.00  0.00     0.023 A 
ATOM     97  C   UNL     1      -6.569 -10.311  -9.061  1.00  0.00     0.031 A 
ATOM     98  C   UNL     1      -8.784 -10.019  -8.152  1.00  0.00     0.131 A 
ATOM     99  C   UNL     1      -7.131 -11.056 -10.111  1.00  0.00     0.055 A 
ATOM    100  C   UNL     1      -9.330 -10.802  -9.170  1.00  0.00     0.041 A 
ATOM    101  F   UNL     1      -9.626  -9.521  -7.232  1.00  0.00    -0.206 F 
ATOM    102  C   UNL     1      -8.502 -11.322 -10.160  1.00  0.00     0.022 A 
BRANCH  99 103
ATOM    103  S   UNL     1      -6.051 -11.642 -11.447  1.00  0.00     0.124 S 
ATOM    104  O   UNL     1      -5.546 -10.390 -12.000  1.00  0.00    -0.237 OA
ATOM    105  O   UNL     1      -5.079 -12.461 -10.730  1.00  0.00    -0.237 OA
ATOM    106  O   UNL     1      -6.958 -12.385 -12.322  1.00  0.00    -0.744 OA
ENDBRANCH  99 103
ENDBRANCH  73  96
ENDBRANCH  47  48
ENDBRANCH  39  42
ENDBRANCH  37  38
ENDBRANCH  36  37
ENDBRANCH  35  36
ENDBRANCH   1  35
TORSDOF 19
