REMARK SMILES O=C(NCCCCCCNC(=O)c1cc(SC[C@H]2CCOC2)ccn1)c1ccc(-c2c3nc(c(-c4cc(S(=O)(=O)[O-])ccc4F)c4ccc([nH]4)c(-c4cc(S(=O)(=O)[O-])ccc4F)c4nc(c(-c5cc(S(=O)(=O)[O-])ccc5F)c5ccc2[nH]5)C=C4)C=C3)cc1
REMARK SMILES IDX 6 1 5 2 4 3 3 4 1 5 2 6 26 8 27 9 88 10 28 11 87 12 29 13
REMARK SMILES IDX 30 14 31 15 81 16 32 17 86 18 80 19 82 20 33 21 85 22 79 23
REMARK SMILES IDX 78 24 34 26 66 27 46 28 65 29 47 30 50 31 64 32 83 33 48 34
REMARK SMILES IDX 49 35 63 37 84 38 51 39 35 40 36 41 44 42 37 43 43 44 45 45
REMARK SMILES IDX 42 46 38 47 39 48 40 49 41 50 67 51 68 52 76 53 69 54 75 55
REMARK SMILES IDX 77 56 74 57 70 58 71 59 72 60 73 61 52 62 53 63 61 64 54 65
REMARK SMILES IDX 60 66 62 67 59 68 55 69 56 70 57 71 58 72 7 73 8 74 9 75
REMARK SMILES IDX 10 76 11 77 12 79 13 80 14 81 25 82 15 83 24 84 23 85 16 86
REMARK SMILES IDX 17 87 18 88 19 89 22 90 20 91 21 92
REMARK H PARENT 3 7 82 25 50 36 10 78
REMARK Flexibility Score: inf
ROOT
ATOM      1  C   UNL     1       7.842  -7.558   6.050  1.00  0.00     0.002 C 
ENDROOT
BRANCH   1   2
ATOM      2  C   UNL     1       8.676  -6.311   6.353  1.00  0.00     0.021 C 
BRANCH   2   3
ATOM      3  C   UNL     1       8.331  -5.561   7.635  1.00  0.00     0.116 C 
BRANCH   3   4
ATOM      4  N   UNL     1       8.496  -6.372   8.832  1.00  0.00    -0.352 N 
ATOM      5  O   UNL     1       9.333  -7.009  10.823  1.00  0.00    -0.269 OA
ATOM      6  C   UNL     1       9.225  -6.127   9.972  1.00  0.00     0.251 C 
ATOM      7  H   UNL     1       8.011  -7.228   8.825  1.00  0.00     0.163 HD
BRANCH   6   8
ATOM      8  C   UNL     1       9.898  -4.822  10.174  1.00  0.00     0.039 A 
ATOM      9  C   UNL     1       9.251  -3.622   9.876  1.00  0.00     0.014 A 
ATOM     10  C   UNL     1      11.197  -4.801  10.694  1.00  0.00     0.014 A 
ATOM     11  C   UNL     1       9.949  -2.419   9.953  1.00  0.00     0.010 A 
ATOM     12  C   UNL     1      11.868  -3.583  10.850  1.00  0.00     0.010 A 
ATOM     13  C   UNL     1      11.264  -2.382  10.445  1.00  0.00    -0.014 A 
BRANCH  13  14
ATOM     14  C   UNL     1      11.975  -1.078  10.547  1.00  0.00     0.031 A 
ATOM     15  C   UNL     1      13.206  -0.800   9.727  1.00  0.00     0.074 A 
ATOM     16  C   UNL     1      11.484  -0.126  11.365  1.00  0.00     0.049 A 
ATOM     17  N   UNL     1      13.935   0.287   9.669  1.00  0.00    -0.248 NA
ATOM     18  C   UNL     1      13.688  -1.890   8.868  1.00  0.00     0.031 C 
ATOM     19  C   UNL     1      10.298  -0.278  12.211  1.00  0.00     0.029 A 
ATOM     20  N   UNL     1      11.902   1.157  11.607  1.00  0.00    -0.354 N 
ATOM     21  C   UNL     1      14.972   0.009   8.785  1.00  0.00     0.074 A 
ATOM     22  C   UNL     1      14.797  -1.367   8.364  1.00  0.00     0.031 C 
ATOM     23  C   UNL     1      10.054   0.883  12.837  1.00  0.00     0.029 A 
ATOM     24  C   UNL     1      11.101   1.839  12.493  1.00  0.00     0.049 A 
ATOM     25  H   UNL     1      12.699   1.553  11.186  1.00  0.00     0.167 HD
ATOM     26  C   UNL     1      15.969   0.826   8.356  1.00  0.00     0.034 A 
ATOM     27  C   UNL     1      11.202   3.088  12.988  1.00  0.00     0.034 A 
ATOM     28  C   UNL     1      16.130   2.195   8.791  1.00  0.00     0.049 A 
ATOM     29  C   UNL     1      12.344   3.958  12.537  1.00  0.00     0.074 A 
ATOM     30  C   UNL     1      17.081   3.121   8.395  1.00  0.00     0.029 A 
ATOM     31  N   UNL     1      15.329   2.835   9.731  1.00  0.00    -0.354 N 
ATOM     32  N   UNL     1      13.302   3.688  11.681  1.00  0.00    -0.248 NA
ATOM     33  C   UNL     1      12.413   5.304  13.117  1.00  0.00     0.031 C 
ATOM     34  C   UNL     1      16.904   4.287   9.150  1.00  0.00     0.029 A 
ATOM     35  C   UNL     1      15.787   4.127   9.953  1.00  0.00     0.049 A 
ATOM     36  H   UNL     1      14.549   2.430  10.175  1.00  0.00     0.167 HD
ATOM     37  C   UNL     1      14.070   4.846  11.596  1.00  0.00     0.074 A 
ATOM     38  C   UNL     1      13.454   5.817  12.478  1.00  0.00     0.031 C 
ATOM     39  C   UNL     1      15.178   5.086  10.847  1.00  0.00     0.034 A 
BRANCH  26  40
ATOM     40  C   UNL     1      16.991   0.235   7.409  1.00  0.00     0.023 A 
ATOM     41  C   UNL     1      16.633  -0.257   6.141  1.00  0.00     0.031 A 
ATOM     42  C   UNL     1      18.339   0.122   7.796  1.00  0.00     0.131 A 
ATOM     43  C   UNL     1      17.585  -0.919   5.349  1.00  0.00     0.055 A 
ATOM     44  C   UNL     1      19.301  -0.457   6.965  1.00  0.00     0.041 A 
ATOM     45  F   UNL     1      18.743   0.555   9.001  1.00  0.00    -0.206 F 
ATOM     46  C   UNL     1      18.922  -1.001   5.742  1.00  0.00     0.022 A 
BRANCH  43  47
ATOM     47  S   UNL     1      17.012  -1.824   3.883  1.00  0.00     0.124 S 
ATOM     48  O   UNL     1      16.001  -2.711   4.455  1.00  0.00    -0.237 OA
ATOM     49  O   UNL     1      16.509  -0.755   3.028  1.00  0.00    -0.237 OA
ATOM     50  O   UNL     1      18.216  -2.496   3.401  1.00  0.00    -0.744 OA
ENDBRANCH  43  47
ENDBRANCH  26  40
BRANCH  27  51
ATOM     51  C   UNL     1      10.200   3.585  13.972  1.00  0.00     0.023 A 
ATOM     52  C   UNL     1       9.345   4.652  13.656  1.00  0.00     0.031 A 
ATOM     53  C   UNL     1      10.093   3.008  15.250  1.00  0.00     0.131 A 
ATOM     54  C   UNL     1       8.444   5.133  14.619  1.00  0.00     0.055 A 
ATOM     55  C   UNL     1       9.159   3.455  16.185  1.00  0.00     0.041 A 
ATOM     56  F   UNL     1      10.885   1.982  15.600  1.00  0.00    -0.206 F 
ATOM     57  C   UNL     1       8.335   4.532  15.875  1.00  0.00     0.022 A 
BRANCH  54  58
ATOM     58  S   UNL     1       7.459   6.604  14.227  1.00  0.00     0.124 S 
ATOM     59  O   UNL     1       8.497   7.597  13.974  1.00  0.00    -0.237 OA
ATOM     60  O   UNL     1       6.699   6.160  13.064  1.00  0.00    -0.237 OA
ATOM     61  O   UNL     1       6.671   6.818  15.439  1.00  0.00    -0.744 OA
ENDBRANCH  54  58
ENDBRANCH  27  51
BRANCH  39  62
ATOM     62  C   UNL     1      15.758   6.479  10.914  1.00  0.00     0.023 A 
ATOM     63  C   UNL     1      16.320   6.998  12.095  1.00  0.00     0.031 A 
ATOM     64  C   UNL     1      15.720   7.312   9.781  1.00  0.00     0.131 A 
ATOM     65  C   UNL     1      16.759   8.331  12.134  1.00  0.00     0.055 A 
ATOM     66  C   UNL     1      16.220   8.615   9.807  1.00  0.00     0.041 A 
ATOM     67  F   UNL     1      15.191   6.874   8.628  1.00  0.00    -0.206 F 
ATOM     68  C   UNL     1      16.728   9.137  10.993  1.00  0.00     0.022 A 
BRANCH  65  69
ATOM     69  S   UNL     1      17.266   9.036  13.727  1.00  0.00     0.124 S 
ATOM     70  O   UNL     1      16.075   8.827  14.544  1.00  0.00    -0.237 OA
ATOM     71  O   UNL     1      18.427   8.223  14.072  1.00  0.00    -0.237 OA
ATOM     72  O   UNL     1      17.560  10.432  13.406  1.00  0.00    -0.744 OA
ENDBRANCH  65  69
ENDBRANCH  39  62
ENDBRANCH  13  14
ENDBRANCH   6   8
ENDBRANCH   3   4
ENDBRANCH   2   3
ENDBRANCH   1   2
BRANCH   1  73
ATOM     73  C   UNL     1       6.318  -7.385   6.035  1.00  0.00     0.002 C 
BRANCH  73  74
ATOM     74  C   UNL     1       5.754  -6.294   5.121  1.00  0.00     0.021 C 
BRANCH  74  75
ATOM     75  C   UNL     1       6.146  -6.386   3.651  1.00  0.00     0.116 C 
BRANCH  75  76
ATOM     76  N   UNL     1       5.592  -7.505   2.920  1.00  0.00    -0.351 N 
ATOM     77  C   UNL     1       5.290  -7.545   1.570  1.00  0.00     0.269 C 
ATOM     78  H   UNL     1       5.412  -8.323   3.436  1.00  0.00     0.163 HD
ATOM     79  O   UNL     1       4.978  -8.607   1.038  1.00  0.00    -0.268 OA
BRANCH  77  80
ATOM     80  C   UNL     1       5.318  -6.282   0.771  1.00  0.00     0.129 A 
ATOM     81  C   UNL     1       6.526  -5.689   0.402  1.00  0.00     0.049 A 
ATOM     82  N   UNL     1       4.096  -5.755   0.502  1.00  0.00    -0.251 NA
ATOM     83  C   UNL     1       6.479  -4.439  -0.218  1.00  0.00     0.011 A 
ATOM     84  C   UNL     1       4.080  -4.583  -0.155  1.00  0.00     0.113 A 
ATOM     85  C   UNL     1       5.224  -3.897  -0.520  1.00  0.00     0.035 A 
BRANCH  83  86
ATOM     86  S   UNL     1       7.874  -3.412  -0.677  1.00  0.00    -0.126 SA
BRANCH  86  87
ATOM     87  C   UNL     1       9.319  -3.984   0.298  1.00  0.00     0.081 C 
BRANCH  87  88
ATOM     88  C   UNL     1       9.447  -3.573   1.767  1.00  0.00     0.027 C 
ATOM     89  C   UNL     1       9.306  -2.116   2.155  1.00  0.00     0.035 C 
ATOM     90  C   UNL     1       8.430  -4.203   2.680  1.00  0.00     0.164 C 
ATOM     91  C   UNL     1       9.044  -2.203   3.656  1.00  0.00     0.160 C 
ATOM     92  O   UNL     1       8.487  -3.502   3.921  1.00  0.00    -0.381 OA
ENDBRANCH  87  88
ENDBRANCH  86  87
ENDBRANCH  83  86
ENDBRANCH  77  80
ENDBRANCH  75  76
ENDBRANCH  74  75
ENDBRANCH  73  74
ENDBRANCH   1  73
TORSDOF 19
