REMARK SMILES CCc1cc(OCc2cccc(C)n2)c(C(=O)NCCCCCCNC(=O)c2ccc(-c3c4nc(c(-c5cc(S(=O)(=O)[O-])ccc5F)c5ccc([nH]5)c(-c5cc(S(=O)(=O)[O-])ccc5F)c5nc(c(-c6cc(S(=O)(=O)[O-])ccc6F)c6ccc3[nH]6)C=C5)C=C4)cc2)s1
REMARK SMILES IDX 21 1 20 2 19 3 18 4 16 5 17 6 15 8 3 9 4 10 91 11 5 12 2 13
REMARK SMILES IDX 1 14 6 15 7 16 8 17 9 18 14 19 10 20 12 21 11 22 13 23 22 24
REMARK SMILES IDX 23 25 24 26 25 27 26 28 27 30 28 31 29 32 90 33 30 34 89 35
REMARK SMILES IDX 31 36 32 37 33 38 83 39 34 40 88 41 82 42 84 43 35 44 87 45
REMARK SMILES IDX 81 46 80 47 36 49 68 50 48 51 67 52 49 53 52 54 66 55 85 56
REMARK SMILES IDX 50 57 51 58 65 60 86 61 53 62 37 63 38 64 46 65 39 66 45 67
REMARK SMILES IDX 47 68 44 69 40 70 41 71 42 72 43 73 69 74 70 75 78 76 71 77
REMARK SMILES IDX 77 78 79 79 76 80 72 81 73 82 74 83 75 84 54 85 55 86 63 87
REMARK SMILES IDX 56 88 62 89 64 90 61 91 57 92 58 93 59 94 60 95
REMARK H PARENT 18 7 25 29 84 48 52 59
REMARK Flexibility Score: inf
ROOT
ATOM      1  C   UNL     1       2.841   8.550  -4.009  1.00  0.00     0.002 C 
ENDROOT
BRANCH   1   2
ATOM      2  C   UNL     1       2.281   7.603  -2.939  1.00  0.00     0.021 C 
BRANCH   2   3
ATOM      3  C   UNL     1       1.347   6.533  -3.505  1.00  0.00     0.116 C 
BRANCH   3   4
ATOM      4  N   UNL     1       2.095   5.406  -3.998  1.00  0.00    -0.351 N 
ATOM      5  C   UNL     1       2.336   4.167  -3.465  1.00  0.00     0.265 C 
ATOM      6  O   UNL     1       2.963   3.419  -4.228  1.00  0.00    -0.268 OA
ATOM      7  H   UNL     1       2.508   5.552  -4.880  1.00  0.00     0.163 HD
BRANCH   5   8
ATOM      8  C   UNL     1       1.881   3.730  -2.146  1.00  0.00     0.134 A 
ATOM      9  C   UNL     1       1.317   2.070  -0.349  1.00  0.00     0.009 A 
ATOM     10  C   UNL     1       1.540   3.339   0.133  1.00  0.00     0.062 A 
ATOM     11  S   UNL     1       1.530   2.028  -2.037  1.00  0.00    -0.131 S 
ATOM     12  C   UNL     1       1.648   4.314  -0.908  1.00  0.00     0.143 A 
BRANCH   9  13
ATOM     13  C   UNL     1       0.869   0.877   0.444  1.00  0.00     0.043 C 
ATOM     14  C   UNL     1       1.466  -0.451   0.013  1.00  0.00     0.010 C 
ENDBRANCH   9  13
BRANCH  12  15
ATOM     15  O   UNL     1       1.698   5.641  -0.650  1.00  0.00    -0.486 OA
BRANCH  15  16
ATOM     16  C   UNL     1       0.489   6.231  -0.098  1.00  0.00     0.285 C 
BRANCH  16  17
ATOM     17  C   UNL     1      -0.528   5.465   0.740  1.00  0.00     0.078 A 
ATOM     18  C   UNL     1      -1.329   4.470   0.179  1.00  0.00     0.027 A 
ATOM     19  N   UNL     1      -0.669   5.846   2.035  1.00  0.00    -0.255 NA
ATOM     20  C   UNL     1      -2.232   3.790   0.989  1.00  0.00     0.004 A 
ATOM     21  C   UNL     1      -1.599   5.220   2.796  1.00  0.00     0.038 A 
ATOM     22  C   UNL     1      -2.378   4.174   2.316  1.00  0.00     0.023 A 
ATOM     23  C   UNL     1      -1.841   5.774   4.169  1.00  0.00     0.067 C 
ENDBRANCH  16  17
ENDBRANCH  15  16
ENDBRANCH  12  15
ENDBRANCH   5   8
ENDBRANCH   3   4
ENDBRANCH   2   3
ENDBRANCH   1   2
BRANCH   1  24
ATOM     24  C   UNL     1       1.797   9.446  -4.688  1.00  0.00     0.002 C 
BRANCH  24  25
ATOM     25  C   UNL     1       0.969  10.322  -3.741  1.00  0.00     0.021 C 
BRANCH  25  26
ATOM     26  C   UNL     1       1.782  11.303  -2.899  1.00  0.00     0.116 C 
BRANCH  26  27
ATOM     27  N   UNL     1       2.493  12.261  -3.729  1.00  0.00    -0.352 N 
ATOM     28  C   UNL     1       2.448  13.630  -3.726  1.00  0.00     0.251 C 
ATOM     29  H   UNL     1       3.099  11.866  -4.396  1.00  0.00     0.163 HD
ATOM     30  O   UNL     1       2.934  14.247  -4.677  1.00  0.00    -0.269 OA
BRANCH  28  31
ATOM     31  C   UNL     1       1.819  14.370  -2.610  1.00  0.00     0.039 A 
ATOM     32  C   UNL     1       1.068  15.512  -2.900  1.00  0.00     0.014 A 
ATOM     33  C   UNL     1       2.007  13.980  -1.279  1.00  0.00     0.014 A 
ATOM     34  C   UNL     1       0.477  16.239  -1.865  1.00  0.00     0.010 A 
ATOM     35  C   UNL     1       1.362  14.669  -0.251  1.00  0.00     0.010 A 
ATOM     36  C   UNL     1       0.600  15.812  -0.532  1.00  0.00    -0.014 A 
BRANCH  36  37
ATOM     37  C   UNL     1      -0.065  16.565   0.564  1.00  0.00     0.031 A 
ATOM     38  C   UNL     1       0.752  17.285   1.603  1.00  0.00     0.074 A 
ATOM     39  C   UNL     1      -1.410  16.577   0.633  1.00  0.00     0.049 A 
ATOM     40  N   UNL     1       0.350  18.011   2.616  1.00  0.00    -0.248 NA
ATOM     41  C   UNL     1       2.212  17.147   1.507  1.00  0.00     0.031 C 
ATOM     42  C   UNL     1      -2.307  15.866  -0.281  1.00  0.00     0.029 A 
ATOM     43  N   UNL     1      -2.260  17.209   1.505  1.00  0.00    -0.354 N 
ATOM     44  C   UNL     1       1.505  18.411   3.280  1.00  0.00     0.074 A 
ATOM     45  C   UNL     1       2.617  17.792   2.591  1.00  0.00     0.031 C 
ATOM     46  C   UNL     1      -3.579  16.129   0.057  1.00  0.00     0.029 A 
ATOM     47  C   UNL     1      -3.591  17.001   1.227  1.00  0.00     0.049 A 
ATOM     48  H   UNL     1      -1.946  17.759   2.258  1.00  0.00     0.167 HD
ATOM     49  C   UNL     1       1.627  19.237   4.351  1.00  0.00     0.034 A 
ATOM     50  C   UNL     1      -4.696  17.466   1.841  1.00  0.00     0.034 A 
ATOM     51  C   UNL     1       0.506  19.851   5.023  1.00  0.00     0.049 A 
ATOM     52  C   UNL     1      -4.535  18.398   3.014  1.00  0.00     0.074 A 
ATOM     53  C   UNL     1       0.514  20.744   6.081  1.00  0.00     0.029 A 
ATOM     54  N   UNL     1      -0.830  19.628   4.707  1.00  0.00    -0.354 N 
ATOM     55  N   UNL     1      -3.433  18.822   3.590  1.00  0.00    -0.248 NA
ATOM     56  C   UNL     1      -5.769  18.930   3.603  1.00  0.00     0.031 C 
ATOM     57  C   UNL     1      -0.812  21.012   6.442  1.00  0.00     0.029 A 
ATOM     58  C   UNL     1      -1.652  20.345   5.565  1.00  0.00     0.049 A 
ATOM     59  H   UNL     1      -1.147  19.046   3.979  1.00  0.00     0.167 HD
ATOM     60  C   UNL     1      -3.843  19.689   4.598  1.00  0.00     0.074 A 
ATOM     61  C   UNL     1      -5.290  19.749   4.528  1.00  0.00     0.031 C 
ATOM     62  C   UNL     1      -3.095  20.373   5.502  1.00  0.00     0.034 A 
BRANCH  49  63
ATOM     63  C   UNL     1       3.024  19.498   4.868  1.00  0.00     0.023 A 
ATOM     64  C   UNL     1       3.999  20.131   4.077  1.00  0.00     0.031 A 
ATOM     65  C   UNL     1       3.398  19.080   6.158  1.00  0.00     0.131 A 
ATOM     66  C   UNL     1       5.316  20.254   4.547  1.00  0.00     0.055 A 
ATOM     67  C   UNL     1       4.689  19.280   6.653  1.00  0.00     0.041 A 
ATOM     68  F   UNL     1       2.519  18.454   6.956  1.00  0.00    -0.206 F 
ATOM     69  C   UNL     1       5.662  19.855   5.840  1.00  0.00     0.022 A 
BRANCH  66  70
ATOM     70  S   UNL     1       6.602  20.807   3.393  1.00  0.00     0.124 S 
ATOM     71  O   UNL     1       6.513  19.792   2.346  1.00  0.00    -0.237 OA
ATOM     72  O   UNL     1       6.145  22.143   3.029  1.00  0.00    -0.237 OA
ATOM     73  O   UNL     1       7.824  20.761   4.193  1.00  0.00    -0.744 OA
ENDBRANCH  66  70
ENDBRANCH  49  63
BRANCH  50  74
ATOM     74  C   UNL     1      -6.049  17.074   1.357  1.00  0.00     0.023 A 
ATOM     75  C   UNL     1      -6.921  18.021   0.797  1.00  0.00     0.031 A 
ATOM     76  C   UNL     1      -6.502  15.748   1.477  1.00  0.00     0.131 A 
ATOM     77  C   UNL     1      -8.218  17.640   0.421  1.00  0.00     0.055 A 
ATOM     78  C   UNL     1      -7.776  15.364   1.056  1.00  0.00     0.041 A 
ATOM     79  F   UNL     1      -5.703  14.802   1.995  1.00  0.00    -0.206 F 
ATOM     80  C   UNL     1      -8.647  16.316   0.536  1.00  0.00     0.022 A 
BRANCH  77  81
ATOM     81  S   UNL     1      -9.366  18.921  -0.156  1.00  0.00     0.124 S 
ATOM     82  O   UNL     1      -9.395  19.831   0.982  1.00  0.00    -0.237 OA
ATOM     83  O   UNL     1      -8.694  19.412  -1.355  1.00  0.00    -0.237 OA
ATOM     84  O   UNL     1     -10.604  18.183  -0.398  1.00  0.00    -0.744 OA
ENDBRANCH  77  81
ENDBRANCH  50  74
BRANCH  62  85
ATOM     85  C   UNL     1      -3.847  21.257   6.468  1.00  0.00     0.023 A 
ATOM     86  C   UNL     1      -4.736  20.721   7.417  1.00  0.00     0.031 A 
ATOM     87  C   UNL     1      -3.715  22.655   6.402  1.00  0.00     0.131 A 
ATOM     88  C   UNL     1      -5.518  21.578   8.205  1.00  0.00     0.055 A 
ATOM     89  C   UNL     1      -4.447  23.502   7.237  1.00  0.00     0.041 A 
ATOM     90  F   UNL     1      -2.883  23.224   5.515  1.00  0.00    -0.206 F 
ATOM     91  C   UNL     1      -5.369  22.965   8.132  1.00  0.00     0.022 A 
BRANCH  88  92
ATOM     92  S   UNL     1      -6.829  20.857   9.232  1.00  0.00     0.124 S 
ATOM     93  O   UNL     1      -7.599  20.098   8.252  1.00  0.00    -0.237 OA
ATOM     94  O   UNL     1      -6.070  20.068  10.197  1.00  0.00    -0.237 OA
ATOM     95  O   UNL     1      -7.511  22.025   9.786  1.00  0.00    -0.744 OA
ENDBRANCH  88  92
ENDBRANCH  62  85
ENDBRANCH  36  37
ENDBRANCH  28  31
ENDBRANCH  26  27
ENDBRANCH  25  26
ENDBRANCH  24  25
ENDBRANCH   1  24
TORSDOF 20
