REMARK SMILES COc1ccc(-n2c(SCc3cn(-c4ccc(C(=O)NCCCCCCNC(=O)c5ccc(-c6c7nc(c(-c8cc(S(=O)(=O)[O-])ccc8F)c8ccc([nH]8)c(-c8cc(S(=O)(=O)[O-])ccc8F)c8nc(c(-c9cc(S(=O)(=O)[O-])ccc9F)c9ccc6[nH]9)C=C8)C=C7)cc5)cc4)nn3)nc3ccccc3c2=O)cc1
REMARK SMILES IDX 22 1 21 2 20 3 18 4 19 5 17 7 14 8 15 9 94 10 16 11 93 12
REMARK SMILES IDX 13 13 11 14 12 15 96 16 95 17 10 18 9 19 8 20 7 21 104 22
REMARK SMILES IDX 97 23 103 24 105 25 98 26 102 27 99 28 101 29 100 30 6 31
REMARK SMILES IDX 3 32 4 33 107 34 5 35 106 36 2 37 1 38 23 39 24 40 25 41
REMARK SMILES IDX 26 42 27 43 28 44 29 46 30 47 31 48 92 49 32 50 91 51 33 52
REMARK SMILES IDX 34 53 35 54 85 55 36 56 90 57 84 58 86 59 37 60 89 61 83 62
REMARK SMILES IDX 82 63 38 65 70 66 50 67 69 68 51 69 54 70 68 71 87 72 52 73
REMARK SMILES IDX 53 74 67 76 88 77 55 78 39 79 40 80 48 81 41 82 47 83 49 84
REMARK SMILES IDX 46 85 42 86 43 87 44 88 45 89 71 90 72 91 80 92 73 93 79 94
REMARK SMILES IDX 81 95 78 96 74 97 75 98 76 99 77 100 56 101 57 102 65 103
REMARK SMILES IDX 58 104 64 105 66 106 63 107 59 108 60 109 61 110 62 111
REMARK H PARENT 20 6 27 45 86 64 54 75
REMARK Flexibility Score: inf
ROOT
ATOM      1  C   UNL     1      -2.220   1.051   5.263  1.00  0.00     0.021 C 
ENDROOT
BRANCH   1   2
ATOM      2  C   UNL     1      -2.738   0.594   3.896  1.00  0.00     0.116 C 
BRANCH   2   3
ATOM      3  N   UNL     1      -3.741   1.517   3.398  1.00  0.00    -0.352 N 
ATOM      4  C   UNL     1      -3.679   2.531   2.478  1.00  0.00     0.251 C 
ATOM      5  O   UNL     1      -4.716   3.132   2.203  1.00  0.00    -0.269 OA
ATOM      6  H   UNL     1      -4.633   1.391   3.796  1.00  0.00     0.163 HD
BRANCH   4   7
ATOM      7  C   UNL     1      -2.426   2.875   1.760  1.00  0.00     0.039 A 
ATOM      8  C   UNL     1      -0.159   3.412   0.256  1.00  0.00     0.066 A 
ATOM      9  C   UNL     1      -1.409   3.780  -0.247  1.00  0.00     0.029 A 
ATOM     10  C   UNL     1      -0.021   2.837   1.515  1.00  0.00     0.029 A 
ATOM     11  C   UNL     1      -2.545   3.477   0.497  1.00  0.00     0.016 A 
ATOM     12  C   UNL     1      -1.153   2.643   2.285  1.00  0.00     0.016 A 
BRANCH   8  13
ATOM     13  N   UNL     1       0.996   3.668  -0.480  1.00  0.00    -0.220 N 
ATOM     14  C   UNL     1       2.994   3.669  -1.292  1.00  0.00     0.093 A 
ATOM     15  C   UNL     1       2.172   2.968  -0.450  1.00  0.00     0.141 A 
ATOM     16  N   UNL     1       2.331   4.784  -1.726  1.00  0.00    -0.134 NA
ATOM     17  N   UNL     1       1.079   4.707  -1.325  1.00  0.00    -0.062 NA
BRANCH  14  18
ATOM     18  C   UNL     1       4.332   3.296  -1.775  1.00  0.00     0.138 C 
BRANCH  18  19
ATOM     19  S   UNL     1       4.937   4.313  -3.109  1.00  0.00    -0.081 SA
BRANCH  19  20
ATOM     20  C   UNL     1       3.453   4.635  -4.109  1.00  0.00     0.176 A 
ATOM     21  N   UNL     1       3.170   3.587  -4.962  1.00  0.00    -0.255 N 
ATOM     22  C   UNL     1       3.779   3.649  -6.210  1.00  0.00     0.266 A 
ATOM     23  N   UNL     1       3.347   5.844  -4.577  1.00  0.00    -0.223 NA
ATOM     24  C   UNL     1       4.616   4.885  -6.403  1.00  0.00     0.066 A 
ATOM     25  O   UNL     1       3.727   2.797  -7.090  1.00  0.00    -0.268 OA
ATOM     26  C   UNL     1       4.282   6.006  -5.615  1.00  0.00     0.079 A 
ATOM     27  C   UNL     1       5.837   4.845  -7.067  1.00  0.00     0.016 A 
ATOM     28  C   UNL     1       5.100   7.132  -5.590  1.00  0.00     0.029 A 
ATOM     29  C   UNL     1       6.706   5.936  -6.948  1.00  0.00     0.001 A 
ATOM     30  C   UNL     1       6.329   7.085  -6.240  1.00  0.00     0.002 A 
BRANCH  21  31
ATOM     31  C   UNL     1       2.339   2.526  -4.527  1.00  0.00     0.052 A 
ATOM     32  C   UNL     1       0.863   0.628  -3.086  1.00  0.00     0.119 A 
ATOM     33  C   UNL     1       0.248   1.803  -3.508  1.00  0.00     0.048 A 
ATOM     34  C   UNL     1       2.173   0.348  -3.478  1.00  0.00     0.048 A 
ATOM     35  C   UNL     1       0.996   2.768  -4.197  1.00  0.00     0.030 A 
ATOM     36  C   UNL     1       2.901   1.284  -4.224  1.00  0.00     0.030 A 
BRANCH  32  37
ATOM     37  O   UNL     1       0.129  -0.262  -2.350  1.00  0.00    -0.497 OA
ATOM     38  C   UNL     1       0.649  -0.445  -1.031  1.00  0.00     0.278 C 
ENDBRANCH  32  37
ENDBRANCH  21  31
ENDBRANCH  19  20
ENDBRANCH  18  19
ENDBRANCH  14  18
ENDBRANCH   8  13
ENDBRANCH   4   7
ENDBRANCH   2   3
ENDBRANCH   1   2
BRANCH   1  39
ATOM     39  C   UNL     1      -3.178   0.716   6.409  1.00  0.00     0.002 C 
BRANCH  39  40
ATOM     40  C   UNL     1      -3.510  -0.776   6.557  1.00  0.00     0.002 C 
BRANCH  40  41
ATOM     41  C   UNL     1      -2.302  -1.723   6.618  1.00  0.00     0.021 C 
BRANCH  41  42
ATOM     42  C   UNL     1      -1.445  -1.526   7.861  1.00  0.00     0.116 C 
BRANCH  42  43
ATOM     43  N   UNL     1      -2.159  -1.913   9.071  1.00  0.00    -0.352 N 
ATOM     44  C   UNL     1      -1.722  -1.873  10.380  1.00  0.00     0.251 C 
ATOM     45  H   UNL     1      -3.075  -2.248   8.937  1.00  0.00     0.163 HD
ATOM     46  O   UNL     1      -2.237  -2.599  11.214  1.00  0.00    -0.269 OA
BRANCH  44  47
ATOM     47  C   UNL     1      -0.631  -0.946  10.749  1.00  0.00     0.039 A 
ATOM     48  C   UNL     1       0.316  -1.313  11.707  1.00  0.00     0.014 A 
ATOM     49  C   UNL     1      -0.568   0.309  10.141  1.00  0.00     0.014 A 
ATOM     50  C   UNL     1       1.362  -0.436  11.989  1.00  0.00     0.010 A 
ATOM     51  C   UNL     1       0.529   1.121  10.327  1.00  0.00     0.010 A 
ATOM     52  C   UNL     1       1.481   0.773  11.275  1.00  0.00    -0.014 A 
BRANCH  52  53
ATOM     53  C   UNL     1       2.715   1.559  11.352  1.00  0.00     0.031 A 
ATOM     54  C   UNL     1       3.919   0.732  11.087  1.00  0.00     0.074 A 
ATOM     55  C   UNL     1       2.786   2.907  11.449  1.00  0.00     0.049 A 
ATOM     56  N   UNL     1       4.750   0.281  11.965  1.00  0.00    -0.248 NA
ATOM     57  C   UNL     1       4.095   0.134   9.751  1.00  0.00     0.031 C 
ATOM     58  C   UNL     1       1.679   3.866  11.461  1.00  0.00     0.029 A 
ATOM     59  N   UNL     1       3.881   3.726  11.475  1.00  0.00    -0.354 N 
ATOM     60  C   UNL     1       5.736  -0.370  11.239  1.00  0.00     0.074 A 
ATOM     61  C   UNL     1       5.142  -0.667   9.964  1.00  0.00     0.031 C 
ATOM     62  C   UNL     1       2.155   5.118  11.267  1.00  0.00     0.029 A 
ATOM     63  C   UNL     1       3.609   5.082  11.258  1.00  0.00     0.049 A 
ATOM     64  H   UNL     1       4.792   3.388  11.633  1.00  0.00     0.167 HD
ATOM     65  C   UNL     1       7.036  -0.284  11.633  1.00  0.00     0.034 A 
ATOM     66  C   UNL     1       4.501   6.103  11.080  1.00  0.00     0.034 A 
ATOM     67  C   UNL     1       7.122   0.164  13.014  1.00  0.00     0.049 A 
ATOM     68  C   UNL     1       5.768   5.666  11.716  1.00  0.00     0.074 A 
ATOM     69  C   UNL     1       6.546  -0.253  14.203  1.00  0.00     0.029 A 
ATOM     70  N   UNL     1       7.554   1.451  13.257  1.00  0.00    -0.354 N 
ATOM     71  N   UNL     1       5.888   5.477  13.001  1.00  0.00    -0.248 NA
ATOM     72  C   UNL     1       6.728   4.951  10.891  1.00  0.00     0.031 C 
ATOM     73  C   UNL     1       6.196   0.952  14.884  1.00  0.00     0.029 A 
ATOM     74  C   UNL     1       6.682   2.030  14.145  1.00  0.00     0.049 A 
ATOM     75  H   UNL     1       8.348   1.879  12.862  1.00  0.00     0.167 HD
ATOM     76  C   UNL     1       6.590   4.287  13.116  1.00  0.00     0.074 A 
ATOM     77  C   UNL     1       7.161   4.059  11.787  1.00  0.00     0.031 C 
ATOM     78  C   UNL     1       6.396   3.454  14.181  1.00  0.00     0.034 A 
BRANCH  65  79
ATOM     79  C   UNL     1       8.205  -0.150  10.674  1.00  0.00     0.023 A 
ATOM     80  C   UNL     1       9.476   0.008  11.256  1.00  0.00     0.031 A 
ATOM     81  C   UNL     1       8.127   0.150   9.293  1.00  0.00     0.131 A 
ATOM     82  C   UNL     1      10.532   0.589  10.537  1.00  0.00     0.055 A 
ATOM     83  C   UNL     1       9.204   0.658   8.562  1.00  0.00     0.041 A 
ATOM     84  F   UNL     1       6.999   0.053   8.582  1.00  0.00    -0.206 F 
ATOM     85  C   UNL     1      10.405   0.922   9.193  1.00  0.00     0.022 A 
BRANCH  82  86
ATOM     86  S   UNL     1      12.005   1.090  11.459  1.00  0.00     0.124 S 
ATOM     87  O   UNL     1      11.422   1.992  12.447  1.00  0.00    -0.237 OA
ATOM     88  O   UNL     1      12.492  -0.190  11.960  1.00  0.00    -0.237 OA
ATOM     89  O   UNL     1      12.839   1.722  10.441  1.00  0.00    -0.744 OA
ENDBRANCH  82  86
ENDBRANCH  65  79
BRANCH  66  90
ATOM     90  C   UNL     1       4.421   7.279  10.152  1.00  0.00     0.023 A 
ATOM     91  C   UNL     1       5.329   8.372  10.194  1.00  0.00     0.031 A 
ATOM     92  C   UNL     1       3.593   7.208   9.010  1.00  0.00     0.131 A 
ATOM     93  C   UNL     1       5.383   9.309   9.128  1.00  0.00     0.055 A 
ATOM     94  C   UNL     1       3.656   8.131   7.962  1.00  0.00     0.041 A 
ATOM     95  F   UNL     1       2.749   6.182   8.824  1.00  0.00    -0.206 F 
ATOM     96  C   UNL     1       4.561   9.178   8.009  1.00  0.00     0.022 A 
BRANCH  93  97
ATOM     97  S   UNL     1       6.600  10.676   9.118  1.00  0.00     0.124 S 
ATOM     98  O   UNL     1       6.070  11.572  10.138  1.00  0.00    -0.237 OA
ATOM     99  O   UNL     1       7.849   9.994   9.435  1.00  0.00    -0.237 OA
ATOM    100  O   UNL     1       6.521  11.193   7.750  1.00  0.00    -0.744 OA
ENDBRANCH  93  97
ENDBRANCH  66  90
BRANCH  78 101
ATOM    101  C   UNL     1       5.690   3.990  15.414  1.00  0.00     0.023 A 
ATOM    102  C   UNL     1       4.419   4.612  15.437  1.00  0.00     0.031 A 
ATOM    103  C   UNL     1       6.327   3.776  16.651  1.00  0.00     0.131 A 
ATOM    104  C   UNL     1       3.848   5.006  16.666  1.00  0.00     0.055 A 
ATOM    105  C   UNL     1       5.748   4.142  17.863  1.00  0.00     0.041 A 
ATOM    106  F   UNL     1       7.528   3.175  16.704  1.00  0.00    -0.206 F 
ATOM    107  C   UNL     1       4.509   4.768  17.875  1.00  0.00     0.022 A 
BRANCH 104 108
ATOM    108  S   UNL     1       2.247   5.877  16.722  1.00  0.00     0.124 S 
ATOM    109  O   UNL     1       2.362   6.878  15.668  1.00  0.00    -0.237 OA
ATOM    110  O   UNL     1       1.293   4.798  16.477  1.00  0.00    -0.237 OA
ATOM    111  O   UNL     1       2.206   6.425  18.080  1.00  0.00    -0.744 OA
ENDBRANCH 104 108
ENDBRANCH  78 101
ENDBRANCH  52  53
ENDBRANCH  44  47
ENDBRANCH  42  43
ENDBRANCH  41  42
ENDBRANCH  40  41
ENDBRANCH  39  40
ENDBRANCH   1  39
TORSDOF 22
