REMARK SMILES CC[C@@](C)(NC(=O)Nc1cccc(C[NH2+]C)c1)C(=O)NCCCCCCNC(=O)c1ccc(-c2c3nc(c(-c4cc(S(=O)(=O)[O-])ccc4F)c4ccc([nH]4)c(-c4cc(S(=O)(=O)[O-])ccc4F)c4nc(c(-c5cc(S(=O)(=O)[O-])ccc5F)c5ccc2[nH]5)C=C4)C=C3)cc1
REMARK SMILES IDX 23 1 22 2 21 3 20 4 18 5 19 6 3 8 4 9 2 10 1 11 5 12 6 13
REMARK SMILES IDX 7 15 8 16 9 18 10 19 17 20 11 21 13 22 12 23 14 24 15 25
REMARK SMILES IDX 16 26 24 29 25 30 26 31 27 32 28 33 29 35 30 36 31 37 92 38
REMARK SMILES IDX 32 39 91 40 33 41 34 42 35 43 85 44 36 45 90 46 84 47 86 48
REMARK SMILES IDX 37 49 89 50 83 51 82 52 38 54 70 55 50 56 69 57 51 58 54 59
REMARK SMILES IDX 68 60 87 61 52 62 53 63 67 65 88 66 55 67 39 68 40 69 48 70
REMARK SMILES IDX 41 71 47 72 49 73 46 74 42 75 43 76 44 77 45 78 71 79 72 80
REMARK SMILES IDX 80 81 73 82 79 83 81 84 78 85 74 86 75 87 76 88 77 89 56 90
REMARK SMILES IDX 57 91 65 92 58 93 64 94 66 95 63 96 59 97 60 98 61 99 62 100
REMARK H PARENT 20 7 5 14 8 17 15 27 15 28 27 34 86 53 54 64
REMARK Flexibility Score: inf
ROOT
ATOM      1  C   UNL     1       3.740  -6.236   1.102  1.00  0.00     0.002 C 
ENDROOT
BRANCH   1   2
ATOM      2  C   UNL     1       2.203  -6.382   1.129  1.00  0.00     0.021 C 
BRANCH   2   3
ATOM      3  C   UNL     1       1.404  -5.304   1.897  1.00  0.00     0.116 C 
BRANCH   3   4
ATOM      4  N   UNL     1       1.790  -4.007   1.409  1.00  0.00    -0.354 N 
ATOM      5  C   UNL     1       1.092  -2.813   1.349  1.00  0.00     0.245 C 
ATOM      6  O   UNL     1       0.912  -2.075   2.308  1.00  0.00    -0.272 OA
ATOM      7  H   UNL     1       2.709  -3.960   1.057  1.00  0.00     0.163 HD
BRANCH   5   8
ATOM      8  C   UNL     1       0.406  -2.661  -0.030  1.00  0.00     0.117 C 
ATOM      9  C   UNL     1      -1.043  -3.051   0.416  1.00  0.00     0.045 C 
BRANCH   8  10
ATOM     10  C   UNL     1       0.271  -1.347  -0.825  1.00  0.00     0.035 C 
ATOM     11  C   UNL     1       0.458  -0.033  -0.103  1.00  0.00     0.007 C 
ENDBRANCH   8  10
BRANCH   8  12
ATOM     12  N   UNL     1       0.993  -3.683  -0.953  1.00  0.00    -0.324 N 
ATOM     13  C   UNL     1       2.151  -3.861  -1.605  1.00  0.00     0.320 C 
ATOM     14  H   UNL     1       0.362  -4.419  -1.127  1.00  0.00     0.166 HD
ATOM     15  O   UNL     1       2.105  -4.681  -2.531  1.00  0.00    -0.248 OA
ATOM     16  N   UNL     1       3.340  -3.261  -1.411  1.00  0.00    -0.308 N 
ATOM     17  H   UNL     1       3.901  -3.462  -2.194  1.00  0.00     0.171 HD
BRANCH  16  18
ATOM     18  C   UNL     1       4.113  -2.453  -0.534  1.00  0.00     0.043 A 
ATOM     19  C   UNL     1       5.127  -1.700  -1.135  1.00  0.00     0.026 A 
ATOM     20  C   UNL     1       4.063  -2.359   0.854  1.00  0.00     0.035 A 
ATOM     21  C   UNL     1       5.904  -0.788  -0.399  1.00  0.00     0.003 A 
ATOM     22  C   UNL     1       4.691  -1.339   1.593  1.00  0.00     0.008 A 
ATOM     23  C   UNL     1       5.648  -0.567   0.954  1.00  0.00     0.010 A 
BRANCH  22  24
ATOM     24  C   UNL     1       4.126  -0.987   2.958  1.00  0.00     0.297 C 
BRANCH  24  25
ATOM     25  N   UNL     1       4.671  -1.688   4.120  1.00  0.00    -0.345 N 
ATOM     26  C   UNL     1       3.719  -1.521   5.233  1.00  0.00     0.331 C 
ATOM     27  H   UNL     1       5.574  -1.288   4.374  1.00  0.00     0.346 HD
ATOM     28  H   UNL     1       4.804  -2.677   3.910  1.00  0.00     0.346 HD
ENDBRANCH  24  25
ENDBRANCH  22  24
ENDBRANCH  16  18
ENDBRANCH   8  12
ENDBRANCH   5   8
ENDBRANCH   3   4
ENDBRANCH   2   3
ENDBRANCH   1   2
BRANCH   1  29
ATOM     29  C   UNL     1       4.428  -6.115   2.460  1.00  0.00     0.002 C 
BRANCH  29  30
ATOM     30  C   UNL     1       4.048  -7.202   3.459  1.00  0.00     0.021 C 
BRANCH  30  31
ATOM     31  C   UNL     1       4.267  -8.624   2.962  1.00  0.00     0.116 C 
BRANCH  31  32
ATOM     32  N   UNL     1       5.668  -8.992   2.895  1.00  0.00    -0.352 N 
ATOM     33  C   UNL     1       6.261 -10.155   3.345  1.00  0.00     0.251 C 
ATOM     34  H   UNL     1       6.270  -8.332   2.479  1.00  0.00     0.163 HD
ATOM     35  O   UNL     1       7.471 -10.266   3.365  1.00  0.00    -0.269 OA
BRANCH  33  36
ATOM     36  C   UNL     1       5.386 -11.248   3.841  1.00  0.00     0.039 A 
ATOM     37  C   UNL     1       5.671 -11.835   5.075  1.00  0.00     0.014 A 
ATOM     38  C   UNL     1       4.265 -11.653   3.111  1.00  0.00     0.014 A 
ATOM     39  C   UNL     1       4.797 -12.790   5.602  1.00  0.00     0.010 A 
ATOM     40  C   UNL     1       3.352 -12.538   3.677  1.00  0.00     0.010 A 
ATOM     41  C   UNL     1       3.613 -13.127   4.924  1.00  0.00    -0.014 A 
BRANCH  41  42
ATOM     42  C   UNL     1       2.661 -14.127   5.479  1.00  0.00     0.031 A 
ATOM     43  C   UNL     1       2.394 -15.402   4.720  1.00  0.00     0.074 A 
ATOM     44  C   UNL     1       2.011 -13.881   6.636  1.00  0.00     0.049 A 
ATOM     45  N   UNL     1       1.546 -16.362   4.984  1.00  0.00    -0.248 NA
ATOM     46  C   UNL     1       3.167 -15.609   3.484  1.00  0.00     0.031 C 
ATOM     47  C   UNL     1       2.160 -12.672   7.449  1.00  0.00     0.029 A 
ATOM     48  N   UNL     1       1.091 -14.630   7.328  1.00  0.00    -0.354 N 
ATOM     49  C   UNL     1       1.683 -17.284   3.951  1.00  0.00     0.074 A 
ATOM     50  C   UNL     1       2.637 -16.728   3.016  1.00  0.00     0.031 C 
ATOM     51  C   UNL     1       1.379 -12.773   8.537  1.00  0.00     0.029 A 
ATOM     52  C   UNL     1       0.635 -14.027   8.479  1.00  0.00     0.049 A 
ATOM     53  H   UNL     1       0.785 -15.516   7.028  1.00  0.00     0.167 HD
ATOM     54  C   UNL     1       1.096 -18.497   3.810  1.00  0.00     0.034 A 
ATOM     55  C   UNL     1      -0.288 -14.433   9.376  1.00  0.00     0.034 A 
ATOM     56  C   UNL     1       0.155 -19.047   4.753  1.00  0.00     0.049 A 
ATOM     57  C   UNL     1      -0.961 -15.771   9.172  1.00  0.00     0.074 A 
ATOM     58  C   UNL     1      -0.490 -20.271   4.713  1.00  0.00     0.029 A 
ATOM     59  N   UNL     1      -0.275 -18.410   5.910  1.00  0.00    -0.354 N 
ATOM     60  N   UNL     1      -0.797 -16.641   8.201  1.00  0.00    -0.248 NA
ATOM     61  C   UNL     1      -1.929 -16.192  10.194  1.00  0.00     0.031 C 
ATOM     62  C   UNL     1      -1.354 -20.348   5.809  1.00  0.00     0.029 A 
ATOM     63  C   UNL     1      -1.187 -19.210   6.581  1.00  0.00     0.049 A 
ATOM     64  H   UNL     1       0.024 -17.521   6.210  1.00  0.00     0.167 HD
ATOM     65  C   UNL     1      -1.605 -17.729   8.525  1.00  0.00     0.074 A 
ATOM     66  C   UNL     1      -2.241 -17.412   9.786  1.00  0.00     0.031 C 
ATOM     67  C   UNL     1      -1.802 -18.887   7.846  1.00  0.00     0.034 A 
BRANCH  54  68
ATOM     68  C   UNL     1       1.456 -19.308   2.589  1.00  0.00     0.023 A 
ATOM     69  C   UNL     1       2.767 -19.770   2.376  1.00  0.00     0.031 A 
ATOM     70  C   UNL     1       0.483 -19.625   1.626  1.00  0.00     0.131 A 
ATOM     71  C   UNL     1       3.083 -20.468   1.202  1.00  0.00     0.055 A 
ATOM     72  C   UNL     1       0.785 -20.391   0.498  1.00  0.00     0.041 A 
ATOM     73  F   UNL     1      -0.781 -19.192   1.763  1.00  0.00    -0.206 F 
ATOM     74  C   UNL     1       2.095 -20.807   0.275  1.00  0.00     0.022 A 
BRANCH  71  75
ATOM     75  S   UNL     1       4.825 -20.818   0.844  1.00  0.00     0.124 S 
ATOM     76  O   UNL     1       5.386 -19.471   0.772  1.00  0.00    -0.237 OA
ATOM     77  O   UNL     1       5.230 -21.618   1.993  1.00  0.00    -0.237 OA
ATOM     78  O   UNL     1       4.776 -21.534  -0.429  1.00  0.00    -0.744 OA
ENDBRANCH  71  75
ENDBRANCH  54  68
BRANCH  55  79
ATOM     79  C   UNL     1      -0.661 -13.571  10.539  1.00  0.00     0.023 A 
ATOM     80  C   UNL     1      -0.495 -14.020  11.859  1.00  0.00     0.031 A 
ATOM     81  C   UNL     1      -1.279 -12.321  10.346  1.00  0.00     0.131 A 
ATOM     82  C   UNL     1      -1.012 -13.268  12.927  1.00  0.00     0.055 A 
ATOM     83  C   UNL     1      -1.724 -11.543  11.416  1.00  0.00     0.041 A 
ATOM     84  F   UNL     1      -1.465 -11.839   9.107  1.00  0.00    -0.206 F 
ATOM     85  C   UNL     1      -1.611 -12.026  12.715  1.00  0.00     0.022 A 
BRANCH  82  86
ATOM     86  S   UNL     1      -1.021 -14.010  14.583  1.00  0.00     0.124 S 
ATOM     87  O   UNL     1      -1.722 -15.265  14.340  1.00  0.00    -0.237 OA
ATOM     88  O   UNL     1       0.405 -14.116  14.874  1.00  0.00    -0.237 OA
ATOM     89  O   UNL     1      -1.750 -13.032  15.388  1.00  0.00    -0.744 OA
ENDBRANCH  82  86
ENDBRANCH  55  79
BRANCH  67  90
ATOM     90  C   UNL     1      -2.683 -19.929   8.494  1.00  0.00     0.023 A 
ATOM     91  C   UNL     1      -4.054 -19.716   8.715  1.00  0.00     0.031 A 
ATOM     92  C   UNL     1      -2.130 -21.156   8.906  1.00  0.00     0.131 A 
ATOM     93  C   UNL     1      -4.812 -20.687   9.387  1.00  0.00     0.055 A 
ATOM     94  C   UNL     1      -2.904 -22.145   9.512  1.00  0.00     0.041 A 
ATOM     95  F   UNL     1      -0.825 -21.414   8.723  1.00  0.00    -0.206 F 
ATOM     96  C   UNL     1      -4.250 -21.908   9.770  1.00  0.00     0.022 A 
BRANCH  93  97
ATOM     97  S   UNL     1      -6.520 -20.290   9.850  1.00  0.00     0.124 S 
ATOM     98  O   UNL     1      -6.346 -19.084  10.652  1.00  0.00    -0.237 OA
ATOM     99  O   UNL     1      -7.160 -20.105   8.552  1.00  0.00    -0.237 OA
ATOM    100  O   UNL     1      -6.958 -21.471  10.593  1.00  0.00    -0.744 OA
ENDBRANCH  93  97
ENDBRANCH  67  90
ENDBRANCH  41  42
ENDBRANCH  33  36
ENDBRANCH  31  32
ENDBRANCH  30  31
ENDBRANCH  29  30
ENDBRANCH   1  29
TORSDOF 21
