REMARK SMILES O=C(NCCCCCCNC(=O)c1ccccc1Nc1nc(Cl)nc(Nc2ccc(N3CCOCC3=O)cc2)n1)c1ccc(-c2c3nc(c(-c4cc(S(=O)(=O)[O-])ccc4F)c4ccc([nH]4)c(-c4cc(S(=O)(=O)[O-])ccc4F)c4nc(c(-c5cc(S(=O)(=O)[O-])ccc5F)c5ccc2[nH]5)C=C4)C=C3)cc1
REMARK SMILES IDX 7 1 6 2 5 3 4 4 3 5 1 6 2 7 41 9 42 10 103 11 43 12 102 13
REMARK SMILES IDX 44 14 45 15 46 16 96 17 47 18 101 19 95 20 97 21 48 22
REMARK SMILES IDX 100 23 94 24 93 25 49 27 81 28 61 29 80 30 62 31 65 32 79 33
REMARK SMILES IDX 98 34 63 35 64 36 78 38 99 39 66 40 50 41 51 42 59 43 52 44
REMARK SMILES IDX 58 45 60 46 57 47 53 48 54 49 55 50 56 51 82 52 83 53 91 54
REMARK SMILES IDX 84 55 90 56 92 57 89 58 85 59 86 60 87 61 88 62 67 63 68 64
REMARK SMILES IDX 76 65 69 66 75 67 77 68 74 69 70 70 71 71 72 72 73 73 8 74
REMARK SMILES IDX 9 75 10 76 11 77 12 79 13 80 14 81 18 82 15 83 17 84 16 85
REMARK SMILES IDX 19 86 20 88 21 89 40 90 22 91 25 92 23 93 24 94 26 95 27 97
REMARK SMILES IDX 28 98 39 99 29 100 38 101 30 102 31 103 32 104 36 105 33 106
REMARK SMILES IDX 35 107 37 108 34 109
REMARK H PARENT 3 8 97 26 65 37 10 78 19 87 26 96
REMARK Flexibility Score: inf
ROOT
ATOM      1  C   UNL     1       4.679  -1.780  -3.980  1.00  0.00     0.002 C 
ENDROOT
BRANCH   1   2
ATOM      2  C   UNL     1       4.160  -2.657  -2.837  1.00  0.00     0.002 C 
BRANCH   2   3
ATOM      3  C   UNL     1       4.624  -2.275  -1.432  1.00  0.00     0.021 C 
BRANCH   3   4
ATOM      4  C   UNL     1       4.379  -0.828  -1.024  1.00  0.00     0.116 C 
BRANCH   4   5
ATOM      5  N   UNL     1       2.969  -0.473  -0.974  1.00  0.00    -0.352 N 
ATOM      6  O   UNL     1       1.057   0.305  -0.063  1.00  0.00    -0.269 OA
ATOM      7  C   UNL     1       2.277   0.182   0.018  1.00  0.00     0.251 C 
ATOM      8  H   UNL     1       2.437  -0.739  -1.758  1.00  0.00     0.163 HD
BRANCH   7   9
ATOM      9  C   UNL     1       3.000   0.711   1.198  1.00  0.00     0.039 A 
ATOM     10  C   UNL     1       4.193   1.421   1.047  1.00  0.00     0.014 A 
ATOM     11  C   UNL     1       2.481   0.481   2.476  1.00  0.00     0.014 A 
ATOM     12  C   UNL     1       4.941   1.763   2.169  1.00  0.00     0.010 A 
ATOM     13  C   UNL     1       3.194   0.903   3.604  1.00  0.00     0.010 A 
ATOM     14  C   UNL     1       4.449   1.515   3.461  1.00  0.00    -0.014 A 
BRANCH  14  15
ATOM     15  C   UNL     1       5.255   1.936   4.639  1.00  0.00     0.031 A 
ATOM     16  C   UNL     1       5.821   0.923   5.598  1.00  0.00     0.074 A 
ATOM     17  C   UNL     1       5.511   3.247   4.814  1.00  0.00     0.049 A 
ATOM     18  N   UNL     1       6.579   1.115   6.649  1.00  0.00    -0.248 NA
ATOM     19  C   UNL     1       5.485  -0.486   5.353  1.00  0.00     0.031 C 
ATOM     20  C   UNL     1       5.010   4.322   3.954  1.00  0.00     0.029 A 
ATOM     21  N   UNL     1       6.272   3.900   5.749  1.00  0.00    -0.354 N 
ATOM     22  C   UNL     1       6.795  -0.142   7.203  1.00  0.00     0.074 A 
ATOM     23  C   UNL     1       6.058  -1.086   6.387  1.00  0.00     0.031 C 
ATOM     24  C   UNL     1       5.524   5.490   4.365  1.00  0.00     0.029 A 
ATOM     25  C   UNL     1       6.337   5.260   5.554  1.00  0.00     0.049 A 
ATOM     26  H   UNL     1       6.729   3.439   6.490  1.00  0.00     0.167 HD
ATOM     27  C   UNL     1       7.543  -0.478   8.284  1.00  0.00     0.034 A 
ATOM     28  C   UNL     1       6.969   6.219   6.256  1.00  0.00     0.034 A 
ATOM     29  C   UNL     1       8.282   0.474   9.081  1.00  0.00     0.049 A 
ATOM     30  C   UNL     1       7.770   5.822   7.466  1.00  0.00     0.074 A 
ATOM     31  C   UNL     1       9.104   0.235  10.170  1.00  0.00     0.029 A 
ATOM     32  N   UNL     1       8.283   1.850   8.884  1.00  0.00    -0.354 N 
ATOM     33  N   UNL     1       7.979   4.625   7.963  1.00  0.00    -0.248 NA
ATOM     34  C   UNL     1       8.421   6.908   8.209  1.00  0.00     0.031 C 
ATOM     35  C   UNL     1       9.548   1.466  10.668  1.00  0.00     0.029 A 
ATOM     36  C   UNL     1       9.063   2.472   9.848  1.00  0.00     0.049 A 
ATOM     37  H   UNL     1       7.799   2.315   8.163  1.00  0.00     0.167 HD
ATOM     38  C   UNL     1       8.805   4.814   9.066  1.00  0.00     0.074 A 
ATOM     39  C   UNL     1       9.070   6.236   9.147  1.00  0.00     0.031 C 
ATOM     40  C   UNL     1       9.302   3.894   9.932  1.00  0.00     0.034 A 
BRANCH  27  41
ATOM     41  C   UNL     1       7.561  -1.932   8.694  1.00  0.00     0.023 A 
ATOM     42  C   UNL     1       8.115  -2.928   7.872  1.00  0.00     0.031 A 
ATOM     43  C   UNL     1       6.995  -2.329   9.919  1.00  0.00     0.131 A 
ATOM     44  C   UNL     1       8.029  -4.277   8.251  1.00  0.00     0.055 A 
ATOM     45  C   UNL     1       6.977  -3.666  10.325  1.00  0.00     0.041 A 
ATOM     46  F   UNL     1       6.438  -1.425  10.740  1.00  0.00    -0.206 F 
ATOM     47  C   UNL     1       7.482  -4.651   9.481  1.00  0.00     0.022 A 
BRANCH  44  48
ATOM     48  S   UNL     1       8.514  -5.545   7.051  1.00  0.00     0.124 S 
ATOM     49  O   UNL     1       7.647  -5.234   5.918  1.00  0.00    -0.237 OA
ATOM     50  O   UNL     1       9.934  -5.281   6.856  1.00  0.00    -0.237 OA
ATOM     51  O   UNL     1       8.211  -6.801   7.733  1.00  0.00    -0.744 OA
ENDBRANCH  44  48
ENDBRANCH  27  41
BRANCH  28  52
ATOM     52  C   UNL     1       6.858   7.646   5.845  1.00  0.00     0.023 A 
ATOM     53  C   UNL     1       7.983   8.361   5.406  1.00  0.00     0.031 A 
ATOM     54  C   UNL     1       5.626   8.321   5.904  1.00  0.00     0.131 A 
ATOM     55  C   UNL     1       7.860   9.720   5.077  1.00  0.00     0.055 A 
ATOM     56  C   UNL     1       5.499   9.658   5.527  1.00  0.00     0.041 A 
ATOM     57  F   UNL     1       4.519   7.679   6.312  1.00  0.00    -0.206 F 
ATOM     58  C   UNL     1       6.624  10.369   5.121  1.00  0.00     0.022 A 
BRANCH  55  59
ATOM     59  S   UNL     1       9.359  10.648   4.653  1.00  0.00     0.124 S 
ATOM     60  O   UNL     1      10.167  10.475   5.855  1.00  0.00    -0.237 OA
ATOM     61  O   UNL     1       9.823   9.947   3.461  1.00  0.00    -0.237 OA
ATOM     62  O   UNL     1       8.865  12.004   4.423  1.00  0.00    -0.744 OA
ENDBRANCH  55  59
ENDBRANCH  28  52
BRANCH  40  63
ATOM     63  C   UNL     1      10.212   4.411  11.018  1.00  0.00     0.023 A 
ATOM     64  C   UNL     1       9.736   5.246  12.044  1.00  0.00     0.031 A 
ATOM     65  C   UNL     1      11.582   4.097  11.002  1.00  0.00     0.131 A 
ATOM     66  C   UNL     1      10.634   5.792  12.974  1.00  0.00     0.055 A 
ATOM     67  C   UNL     1      12.461   4.594  11.966  1.00  0.00     0.041 A 
ATOM     68  F   UNL     1      12.091   3.306  10.044  1.00  0.00    -0.206 F 
ATOM     69  C   UNL     1      11.991   5.459  12.950  1.00  0.00     0.022 A 
BRANCH  66  70
ATOM     70  S   UNL     1      10.023   7.028  14.153  1.00  0.00     0.124 S 
ATOM     71  O   UNL     1       9.479   8.051  13.265  1.00  0.00    -0.237 OA
ATOM     72  O   UNL     1       9.045   6.268  14.924  1.00  0.00    -0.237 OA
ATOM     73  O   UNL     1      11.223   7.422  14.890  1.00  0.00    -0.744 OA
ENDBRANCH  66  70
ENDBRANCH  40  63
ENDBRANCH  14  15
ENDBRANCH   7   9
ENDBRANCH   4   5
ENDBRANCH   3   4
ENDBRANCH   2   3
ENDBRANCH   1   2
BRANCH   1  74
ATOM     74  C   UNL     1       6.198  -1.588  -4.057  1.00  0.00     0.021 C 
BRANCH  74  75
ATOM     75  C   UNL     1       7.032  -2.868  -4.073  1.00  0.00     0.116 C 
BRANCH  75  76
ATOM     76  N   UNL     1       6.713  -3.732  -5.199  1.00  0.00    -0.352 N 
ATOM     77  C   UNL     1       7.566  -4.405  -6.036  1.00  0.00     0.253 C 
ATOM     78  H   UNL     1       5.753  -3.850  -5.385  1.00  0.00     0.163 HD
ATOM     79  O   UNL     1       7.123  -5.067  -6.971  1.00  0.00    -0.269 OA
BRANCH  77  80
ATOM     80  C   UNL     1       9.028  -4.311  -5.843  1.00  0.00     0.063 A 
ATOM     81  C   UNL     1       9.763  -3.764  -6.907  1.00  0.00     0.016 A 
ATOM     82  C   UNL     1       9.668  -4.761  -4.673  1.00  0.00     0.054 A 
ATOM     83  C   UNL     1      11.143  -3.608  -6.797  1.00  0.00     0.001 A 
ATOM     84  C   UNL     1      11.053  -4.546  -4.570  1.00  0.00     0.027 A 
ATOM     85  C   UNL     1      11.784  -3.986  -5.622  1.00  0.00     0.002 A 
BRANCH  82  86
ATOM     86  N   UNL     1       8.957  -5.385  -3.635  1.00  0.00    -0.323 N 
ATOM     87  H   UNL     1       8.123  -5.827  -3.914  1.00  0.00     0.170 HD
BRANCH  86  88
ATOM     88  C   UNL     1       9.242  -5.478  -2.276  1.00  0.00     0.233 A 
ATOM     89  N   UNL     1       9.906  -4.505  -1.676  1.00  0.00    -0.182 NA
ATOM     90  N   UNL     1       8.803  -6.571  -1.662  1.00  0.00    -0.176 NA
ATOM     91  C   UNL     1      10.087  -4.705  -0.381  1.00  0.00     0.228 A 
ATOM     92  C   UNL     1       9.109  -6.694  -0.370  1.00  0.00     0.233 A 
ATOM     93  Cl  UNL     1      10.945  -3.482   0.445  1.00  0.00    -0.041 Cl
ATOM     94  N   UNL     1       9.738  -5.763   0.324  1.00  0.00    -0.182 NA
BRANCH  92  95
ATOM     95  N   UNL     1       8.847  -7.940   0.190  1.00  0.00    -0.324 N 
ATOM     96  H   UNL     1       8.426  -8.593  -0.415  1.00  0.00     0.170 HD
BRANCH  95  97
ATOM     97  C   UNL     1       9.094  -8.400   1.486  1.00  0.00     0.041 A 
ATOM     98  C   UNL     1       9.826  -9.582   1.668  1.00  0.00     0.028 A 
ATOM     99  C   UNL     1       8.709  -7.673   2.616  1.00  0.00     0.028 A 
ATOM    100  C   UNL     1      10.179 -10.018   2.949  1.00  0.00     0.028 A 
ATOM    101  C   UNL     1       8.997  -8.144   3.899  1.00  0.00     0.028 A 
ATOM    102  C   UNL     1       9.749  -9.308   4.070  1.00  0.00     0.044 A 
BRANCH 102 103
ATOM    103  N   UNL     1      10.135  -9.715   5.370  1.00  0.00    -0.308 N 
ATOM    104  C   UNL     1      11.547  -9.590   5.712  1.00  0.00     0.154 C 
ATOM    105  C   UNL     1       9.178  -9.848   6.379  1.00  0.00     0.253 C 
ATOM    106  C   UNL     1      11.879 -10.377   6.972  1.00  0.00     0.183 C 
ATOM    107  C   UNL     1       9.738  -9.893   7.821  1.00  0.00     0.260 C 
ATOM    108  O   UNL     1       7.983 -10.060   6.157  1.00  0.00    -0.272 OA
ATOM    109  O   UNL     1      11.138  -9.869   8.075  1.00  0.00    -0.370 OA
ENDBRANCH 102 103
ENDBRANCH  95  97
ENDBRANCH  92  95
ENDBRANCH  86  88
ENDBRANCH  82  86
ENDBRANCH  77  80
ENDBRANCH  75  76
ENDBRANCH  74  75
ENDBRANCH   1  74
TORSDOF 21
