REMARK SMILES Cc1ccc(C)c(S(=O)(=O)N[C@H](CC2=c3ccccc3=NC2)C(=O)NCCCCCCNC(=O)c2ccc(-c3c4nc(c(-c5cc(S(=O)(=O)[O-])ccc5F)c5ccc([nH]5)c(-c5cc(S(=O)(=O)[O-])ccc5F)c5nc(c(-c6cc(S(=O)(=O)[O-])ccc6F)c6ccc3[nH]6)C=C5)C=C4)cc2)c1
REMARK SMILES IDX 28 1 27 2 26 3 25 4 23 5 24 6 12 8 11 9 8 11 9 12 10 13 7 14
REMARK SMILES IDX 1 15 2 16 3 17 98 18 4 19 5 20 6 21 13 22 14 23 15 24 22 25
REMARK SMILES IDX 16 26 20 27 21 28 17 29 19 30 18 31 29 32 30 33 31 34 32 35
REMARK SMILES IDX 33 36 34 38 35 39 36 40 97 41 37 42 96 43 38 44 39 45 40 46
REMARK SMILES IDX 90 47 41 48 95 49 89 50 91 51 42 52 94 53 88 54 87 55 43 57
REMARK SMILES IDX 75 58 55 59 74 60 56 61 59 62 73 63 92 64 57 65 58 66 72 68
REMARK SMILES IDX 93 69 60 70 44 71 45 72 53 73 46 74 52 75 54 76 51 77 47 78
REMARK SMILES IDX 48 79 49 80 50 81 76 82 77 83 85 84 78 85 84 86 86 87 83 88
REMARK SMILES IDX 79 89 80 90 81 91 82 92 61 93 62 94 70 95 63 96 69 97 71 98
REMARK SMILES IDX 68 99 64 100 65 101 66 102 67 103
REMARK H PARENT 25 7 11 10 32 37 91 56 59 67
REMARK Flexibility Score: inf
ROOT
ATOM      1  C   UNL     1      -0.370   9.266  -1.119  1.00  0.00     0.002 C 
ENDROOT
BRANCH   1   2
ATOM      2  C   UNL     1      -1.350   8.098  -1.268  1.00  0.00     0.021 C 
BRANCH   2   3
ATOM      3  C   UNL     1      -0.911   6.890  -2.115  1.00  0.00     0.116 C 
BRANCH   3   4
ATOM      4  N   UNL     1       0.516   6.598  -2.119  1.00  0.00    -0.355 N 
ATOM      5  C   UNL     1       1.268   5.513  -1.761  1.00  0.00     0.238 C 
ATOM      6  O   UNL     1       2.495   5.655  -1.856  1.00  0.00    -0.273 OA
ATOM      7  H   UNL     1       1.060   7.348  -2.453  1.00  0.00     0.163 HD
BRANCH   5   8
ATOM      8  C   UNL     1       0.680   4.180  -1.266  1.00  0.00     0.163 C 
BRANCH   8   9
ATOM      9  N   UNL     1      -0.353   3.715  -2.228  1.00  0.00    -0.198 NA
ATOM     10  H   UNL     1      -1.099   3.302  -1.669  1.00  0.00     0.142 HD
BRANCH   9  11
ATOM     11  S   UNL     1      -0.007   2.616  -3.428  1.00  0.00     0.241 S 
ATOM     12  O   UNL     1       1.399   2.677  -3.724  1.00  0.00    -0.207 OA
ATOM     13  O   UNL     1      -1.012   2.843  -4.457  1.00  0.00    -0.207 OA
BRANCH  11  14
ATOM     14  C   UNL     1      -0.368   1.023  -2.717  1.00  0.00     0.085 A 
ATOM     15  C   UNL     1      -1.802  -0.304   0.554  1.00  0.00     0.044 C 
ATOM     16  C   UNL     1      -1.205  -0.262  -0.823  1.00  0.00    -0.050 A 
ATOM     17  C   UNL     1      -0.843  -1.438  -1.479  1.00  0.00     0.004 A 
ATOM     18  C   UNL     1      -0.960   0.965  -1.446  1.00  0.00     0.025 A 
ATOM     19  C   UNL     1      -0.292  -1.390  -2.761  1.00  0.00     0.005 A 
ATOM     20  C   UNL     1      -0.061  -0.163  -3.410  1.00  0.00    -0.031 A 
ATOM     21  C   UNL     1       0.484  -0.217  -4.809  1.00  0.00     0.046 C 
ENDBRANCH  11  14
ENDBRANCH   9  11
ENDBRANCH   8   9
BRANCH   8  22
ATOM     22  C   UNL     1       0.135   4.128   0.187  1.00  0.00     0.063 C 
BRANCH  22  23
ATOM     23  C   UNL     1       0.654   5.086   1.228  1.00  0.00    -0.037 C 
ATOM     24  C   UNL     1       1.296   4.891   2.382  1.00  0.00     0.001 A 
ATOM     25  C   UNL     1       0.229   6.516   1.163  1.00  0.00     0.174 C 
ATOM     26  C   UNL     1       1.724   3.777   3.166  1.00  0.00     0.010 A 
ATOM     27  C   UNL     1       1.471   6.265   2.890  1.00  0.00     0.065 A 
ATOM     28  N   UNL     1       0.913   7.240   2.246  1.00  0.00    -0.280 NA
ATOM     29  C   UNL     1       2.334   4.009   4.344  1.00  0.00     0.001 A 
ATOM     30  C   UNL     1       2.288   6.443   4.102  1.00  0.00     0.028 A 
ATOM     31  C   UNL     1       2.656   5.355   4.790  1.00  0.00     0.002 A 
ENDBRANCH  22  23
ENDBRANCH   8  22
ENDBRANCH   5   8
ENDBRANCH   3   4
ENDBRANCH   2   3
ENDBRANCH   1   2
BRANCH   1  32
ATOM     32  C   UNL     1      -0.390  10.311  -2.232  1.00  0.00     0.002 C 
BRANCH  32  33
ATOM     33  C   UNL     1      -1.746  10.928  -2.607  1.00  0.00     0.021 C 
BRANCH  33  34
ATOM     34  C   UNL     1      -2.530  11.632  -1.496  1.00  0.00     0.116 C 
BRANCH  34  35
ATOM     35  N   UNL     1      -1.846  12.822  -0.983  1.00  0.00    -0.352 N 
ATOM     36  C   UNL     1      -1.900  13.490   0.225  1.00  0.00     0.251 C 
ATOM     37  H   UNL     1      -1.222  13.227  -1.629  1.00  0.00     0.163 HD
ATOM     38  O   UNL     1      -1.550  14.670   0.254  1.00  0.00    -0.269 OA
BRANCH  36  39
ATOM     39  C   UNL     1      -2.330  12.830   1.480  1.00  0.00     0.039 A 
ATOM     40  C   UNL     1      -2.635  13.569   2.635  1.00  0.00     0.014 A 
ATOM     41  C   UNL     1      -2.331  11.447   1.556  1.00  0.00     0.014 A 
ATOM     42  C   UNL     1      -2.914  12.900   3.833  1.00  0.00     0.010 A 
ATOM     43  C   UNL     1      -2.783  10.787   2.663  1.00  0.00     0.010 A 
ATOM     44  C   UNL     1      -2.962  11.504   3.832  1.00  0.00    -0.014 A 
BRANCH  44  45
ATOM     45  C   UNL     1      -3.194  10.694   5.016  1.00  0.00     0.031 A 
ATOM     46  C   UNL     1      -4.599  10.588   5.445  1.00  0.00     0.074 A 
ATOM     47  C   UNL     1      -2.289   9.782   5.430  1.00  0.00     0.049 A 
ATOM     48  N   UNL     1      -5.114  11.040   6.538  1.00  0.00    -0.248 NA
ATOM     49  C   UNL     1      -5.572  10.036   4.493  1.00  0.00     0.031 C 
ATOM     50  C   UNL     1      -0.988   9.493   4.821  1.00  0.00     0.029 A 
ATOM     51  N   UNL     1      -2.416   8.804   6.370  1.00  0.00    -0.354 N 
ATOM     52  C   UNL     1      -6.439  10.627   6.508  1.00  0.00     0.074 A 
ATOM     53  C   UNL     1      -6.713  10.283   5.135  1.00  0.00     0.031 C 
ATOM     54  C   UNL     1      -0.565   8.287   5.251  1.00  0.00     0.029 A 
ATOM     55  C   UNL     1      -1.478   7.787   6.254  1.00  0.00     0.049 A 
ATOM     56  H   UNL     1      -3.109   8.818   7.069  1.00  0.00     0.167 HD
ATOM     57  C   UNL     1      -7.117  10.316   7.650  1.00  0.00     0.034 A 
ATOM     58  C   UNL     1      -1.469   6.590   6.887  1.00  0.00     0.034 A 
ATOM     59  C   UNL     1      -6.373  10.713   8.823  1.00  0.00     0.049 A 
ATOM     60  C   UNL     1      -2.344   6.695   8.075  1.00  0.00     0.074 A 
ATOM     61  C   UNL     1      -5.826  11.902   9.268  1.00  0.00     0.029 A 
ATOM     62  N   UNL     1      -5.752   9.723   9.549  1.00  0.00    -0.354 N 
ATOM     63  N   UNL     1      -2.069   7.418   9.123  1.00  0.00    -0.248 NA
ATOM     64  C   UNL     1      -3.744   6.335   7.912  1.00  0.00     0.031 C 
ATOM     65  C   UNL     1      -4.594  11.539   9.885  1.00  0.00     0.029 A 
ATOM     66  C   UNL     1      -4.481  10.148   9.846  1.00  0.00     0.049 A 
ATOM     67  H   UNL     1      -6.149   8.861   9.810  1.00  0.00     0.167 HD
ATOM     68  C   UNL     1      -3.278   8.014   9.443  1.00  0.00     0.074 A 
ATOM     69  C   UNL     1      -4.290   7.208   8.761  1.00  0.00     0.031 C 
ATOM     70  C   UNL     1      -3.329   9.274   9.967  1.00  0.00     0.034 A 
BRANCH  57  71
ATOM     71  C   UNL     1      -8.280   9.352   7.704  1.00  0.00     0.023 A 
ATOM     72  C   UNL     1      -8.625   8.492   6.645  1.00  0.00     0.031 A 
ATOM     73  C   UNL     1      -8.987   9.148   8.904  1.00  0.00     0.131 A 
ATOM     74  C   UNL     1      -9.649   7.545   6.756  1.00  0.00     0.055 A 
ATOM     75  C   UNL     1      -9.952   8.141   9.047  1.00  0.00     0.041 A 
ATOM     76  F   UNL     1      -8.726   9.887   9.993  1.00  0.00    -0.206 F 
ATOM     77  C   UNL     1     -10.298   7.340   7.966  1.00  0.00     0.022 A 
BRANCH  74  78
ATOM     78  S   UNL     1     -10.159   6.585   5.303  1.00  0.00     0.124 S 
ATOM     79  O   UNL     1      -9.847   5.223   5.721  1.00  0.00    -0.237 OA
ATOM     80  O   UNL     1     -11.580   6.912   5.215  1.00  0.00    -0.237 OA
ATOM     81  O   UNL     1      -9.336   7.129   4.227  1.00  0.00    -0.744 OA
ENDBRANCH  74  78
ENDBRANCH  57  71
BRANCH  58  82
ATOM     82  C   UNL     1      -1.197   5.275   6.259  1.00  0.00     0.023 A 
ATOM     83  C   UNL     1      -1.639   5.035   4.943  1.00  0.00     0.031 A 
ATOM     84  C   UNL     1      -0.833   4.165   7.039  1.00  0.00     0.131 A 
ATOM     85  C   UNL     1      -1.771   3.722   4.474  1.00  0.00     0.055 A 
ATOM     86  C   UNL     1      -0.940   2.856   6.556  1.00  0.00     0.041 A 
ATOM     87  F   UNL     1      -0.434   4.328   8.310  1.00  0.00    -0.206 F 
ATOM     88  C   UNL     1      -1.429   2.630   5.274  1.00  0.00     0.022 A 
BRANCH  85  89
ATOM     89  S   UNL     1      -2.464   3.377   2.839  1.00  0.00     0.124 S 
ATOM     90  O   UNL     1      -1.436   2.518   2.256  1.00  0.00    -0.237 OA
ATOM     91  O   UNL     1      -3.714   2.702   3.167  1.00  0.00    -0.237 OA
ATOM     92  O   UNL     1      -2.595   4.690   2.216  1.00  0.00    -0.744 OA
ENDBRANCH  85  89
ENDBRANCH  58  82
BRANCH  70  93
ATOM     93  C   UNL     1      -2.052   9.919  10.471  1.00  0.00     0.023 A 
ATOM     94  C   UNL     1      -2.105  10.535  11.734  1.00  0.00     0.031 A 
ATOM     95  C   UNL     1      -0.898  10.143   9.694  1.00  0.00     0.131 A 
ATOM     96  C   UNL     1      -1.067  11.371  12.162  1.00  0.00     0.055 A 
ATOM     97  C   UNL     1       0.166  10.927  10.152  1.00  0.00     0.041 A 
ATOM     98  F   UNL     1      -0.791   9.686   8.441  1.00  0.00    -0.206 F 
ATOM     99  C   UNL     1       0.078  11.562  11.385  1.00  0.00     0.022 A 
BRANCH  96 100
ATOM    100  S   UNL     1      -1.252  12.358  13.669  1.00  0.00     0.124 S 
ATOM    101  O   UNL     1      -0.221  11.793  14.536  1.00  0.00    -0.237 OA
ATOM    102  O   UNL     1      -0.991  13.714  13.188  1.00  0.00    -0.237 OA
ATOM    103  O   UNL     1      -2.627  12.108  14.089  1.00  0.00    -0.744 OA
ENDBRANCH  96 100
ENDBRANCH  70  93
ENDBRANCH  44  45
ENDBRANCH  36  39
ENDBRANCH  34  35
ENDBRANCH  33  34
ENDBRANCH  32  33
ENDBRANCH   1  32
TORSDOF 21
