REMARK SMILES O=C(NCCCCCCNC(=O)[C@H]1CN(S(=O)(=O)c2ccc(Cl)nc2)c2ccccc21)c1ccc(-c2c3nc(c(-c4cc(S(=O)(=O)[O-])ccc4F)c4ccc([nH]4)c(-c4cc(S(=O)(=O)[O-])ccc4F)c4nc(c(-c5cc(S(=O)(=O)[O-])ccc5F)c5ccc2[nH]5)C=C4)C=C3)cc1
REMARK SMILES IDX 6 1 5 2 4 3 3 4 1 5 2 6 32 8 33 9 94 10 34 11 93 12 35 13
REMARK SMILES IDX 36 14 37 15 87 16 38 17 92 18 86 19 88 20 39 21 91 22 85 23
REMARK SMILES IDX 84 24 40 26 72 27 52 28 71 29 53 30 56 31 70 32 89 33 54 34
REMARK SMILES IDX 55 35 69 37 90 38 57 39 41 40 42 41 50 42 43 43 49 44 51 45
REMARK SMILES IDX 48 46 44 47 45 48 46 49 47 50 73 51 74 52 82 53 75 54 81 55
REMARK SMILES IDX 83 56 80 57 76 58 77 59 78 60 79 61 58 62 59 63 67 64 60 65
REMARK SMILES IDX 66 66 68 67 65 68 61 69 62 70 63 71 64 72 7 73 8 74 9 75
REMARK SMILES IDX 10 76 11 77 12 79 13 80 14 81 31 82 15 83 26 84 30 85 27 86
REMARK SMILES IDX 29 87 28 88 16 89 17 90 18 91 19 92 20 93 25 94 21 95 24 96
REMARK SMILES IDX 22 97 23 98
REMARK H PARENT 3 7 88 25 56 36 10 78
REMARK Flexibility Score: inf
ROOT
ATOM      1  C   UNL     1       3.891  -2.419   2.944  1.00  0.00     0.002 C 
ENDROOT
BRANCH   1   2
ATOM      2  C   UNL     1       4.476  -1.143   2.329  1.00  0.00     0.021 C 
BRANCH   2   3
ATOM      3  C   UNL     1       4.337  -1.050   0.813  1.00  0.00     0.116 C 
BRANCH   3   4
ATOM      4  N   UNL     1       2.943  -1.087   0.402  1.00  0.00    -0.352 N 
ATOM      5  O   UNL     1       0.977  -0.236  -0.283  1.00  0.00    -0.269 OA
ATOM      6  C   UNL     1       2.200  -0.132  -0.241  1.00  0.00     0.251 C 
ATOM      7  H   UNL     1       2.463  -1.920   0.616  1.00  0.00     0.163 HD
BRANCH   6   8
ATOM      8  C   UNL     1       2.871   1.020  -0.878  1.00  0.00     0.039 A 
ATOM      9  C   UNL     1       4.013   0.837  -1.664  1.00  0.00     0.014 A 
ATOM     10  C   UNL     1       2.322   2.295  -0.719  1.00  0.00     0.014 A 
ATOM     11  C   UNL     1       4.665   1.939  -2.209  1.00  0.00     0.010 A 
ATOM     12  C   UNL     1       2.940   3.392  -1.322  1.00  0.00     0.010 A 
ATOM     13  C   UNL     1       4.126   3.225  -2.057  1.00  0.00    -0.014 A 
BRANCH  13  14
ATOM     14  C   UNL     1       4.778   4.391  -2.703  1.00  0.00     0.031 A 
ATOM     15  C   UNL     1       5.373   5.489  -1.869  1.00  0.00     0.074 A 
ATOM     16  C   UNL     1       4.798   4.471  -4.047  1.00  0.00     0.049 A 
ATOM     17  N   UNL     1       5.884   6.632  -2.246  1.00  0.00    -0.248 NA
ATOM     18  C   UNL     1       5.378   5.275  -0.415  1.00  0.00     0.031 C 
ATOM     19  C   UNL     1       4.257   3.459  -4.957  1.00  0.00     0.029 A 
ATOM     20  N   UNL     1       5.277   5.448  -4.881  1.00  0.00    -0.354 N 
ATOM     21  C   UNL     1       6.257   7.286  -1.077  1.00  0.00     0.074 A 
ATOM     22  C   UNL     1       5.874   6.423   0.022  1.00  0.00     0.031 C 
ATOM     23  C   UNL     1       4.440   3.864  -6.221  1.00  0.00     0.029 A 
ATOM     24  C   UNL     1       5.045   5.192  -6.212  1.00  0.00     0.049 A 
ATOM     25  H   UNL     1       5.741   6.254  -4.559  1.00  0.00     0.167 HD
ATOM     26  C   UNL     1       6.867   8.491  -0.940  1.00  0.00     0.034 A 
ATOM     27  C   UNL     1       5.254   5.955  -7.301  1.00  0.00     0.034 A 
ATOM     28  C   UNL     1       7.225   9.338  -2.055  1.00  0.00     0.049 A 
ATOM     29  C   UNL     1       5.868   7.317  -7.126  1.00  0.00     0.074 A 
ATOM     30  C   UNL     1       7.865  10.565  -2.038  1.00  0.00     0.029 A 
ATOM     31  N   UNL     1       6.957   9.053  -3.390  1.00  0.00    -0.354 N 
ATOM     32  N   UNL     1       6.225   7.924  -6.018  1.00  0.00    -0.248 NA
ATOM     33  C   UNL     1       6.112   8.096  -8.346  1.00  0.00     0.031 C 
ATOM     34  C   UNL     1       7.915  11.055  -3.348  1.00  0.00     0.029 A 
ATOM     35  C   UNL     1       7.387  10.095  -4.198  1.00  0.00     0.049 A 
ATOM     36  H   UNL     1       6.524   8.230  -3.715  1.00  0.00     0.167 HD
ATOM     37  C   UNL     1       6.767   9.143  -6.409  1.00  0.00     0.074 A 
ATOM     38  C   UNL     1       6.688   9.186  -7.856  1.00  0.00     0.031 C 
ATOM     39  C   UNL     1       7.295  10.130  -5.641  1.00  0.00     0.034 A 
BRANCH  26  40
ATOM     40  C   UNL     1       7.125   8.979   0.469  1.00  0.00     0.023 A 
ATOM     41  C   UNL     1       7.951   8.269   1.360  1.00  0.00     0.031 A 
ATOM     42  C   UNL     1       6.493  10.140   0.948  1.00  0.00     0.131 A 
ATOM     43  C   UNL     1       8.043   8.669   2.702  1.00  0.00     0.055 A 
ATOM     44  C   UNL     1       6.664  10.586   2.260  1.00  0.00     0.041 A 
ATOM     45  F   UNL     1       5.677  10.851   0.154  1.00  0.00    -0.206 F 
ATOM     46  C   UNL     1       7.426   9.838   3.152  1.00  0.00     0.022 A 
BRANCH  43  47
ATOM     47  S   UNL     1       8.829   7.542   3.888  1.00  0.00     0.124 S 
ATOM     48  O   UNL     1       8.064   6.313   3.685  1.00  0.00    -0.237 OA
ATOM     49  O   UNL     1      10.213   7.513   3.429  1.00  0.00    -0.237 OA
ATOM     50  O   UNL     1       8.611   8.193   5.178  1.00  0.00    -0.744 OA
ENDBRANCH  43  47
ENDBRANCH  26  40
BRANCH  27  51
ATOM     51  C   UNL     1       4.837   5.456  -8.641  1.00  0.00     0.023 A 
ATOM     52  C   UNL     1       5.782   5.147  -9.630  1.00  0.00     0.031 A 
ATOM     53  C   UNL     1       3.475   5.265  -8.942  1.00  0.00     0.131 A 
ATOM     54  C   UNL     1       5.351   4.685 -10.883  1.00  0.00     0.055 A 
ATOM     55  C   UNL     1       3.056   4.759 -10.172  1.00  0.00     0.041 A 
ATOM     56  F   UNL     1       2.533   5.539  -8.026  1.00  0.00    -0.206 F 
ATOM     57  C   UNL     1       3.997   4.473 -11.155  1.00  0.00     0.022 A 
BRANCH  54  58
ATOM     58  S   UNL     1       6.589   4.408 -12.179  1.00  0.00     0.124 S 
ATOM     59  O   UNL     1       7.167   5.739 -12.327  1.00  0.00    -0.237 OA
ATOM     60  O   UNL     1       7.449   3.399 -11.569  1.00  0.00    -0.237 OA
ATOM     61  O   UNL     1       5.796   3.942 -13.315  1.00  0.00    -0.744 OA
ENDBRANCH  54  58
ENDBRANCH  27  51
BRANCH  39  62
ATOM     62  C   UNL     1       7.891  11.317  -6.358  1.00  0.00     0.023 A 
ATOM     63  C   UNL     1       7.101  12.245  -7.057  1.00  0.00     0.031 A 
ATOM     64  C   UNL     1       9.283  11.524  -6.323  1.00  0.00     0.131 A 
ATOM     65  C   UNL     1       7.712  13.318  -7.724  1.00  0.00     0.055 A 
ATOM     66  C   UNL     1       9.879  12.623  -6.942  1.00  0.00     0.041 A 
ATOM     67  F   UNL     1      10.085  10.665  -5.673  1.00  0.00    -0.206 F 
ATOM     68  C   UNL     1       9.093  13.523  -7.655  1.00  0.00     0.022 A 
BRANCH  65  69
ATOM     69  S   UNL     1       6.687  14.415  -8.743  1.00  0.00     0.124 S 
ATOM     70  O   UNL     1       6.139  13.489  -9.729  1.00  0.00    -0.237 OA
ATOM     71  O   UNL     1       5.737  14.948  -7.772  1.00  0.00    -0.237 OA
ATOM     72  O   UNL     1       7.643  15.387  -9.270  1.00  0.00    -0.744 OA
ENDBRANCH  65  69
ENDBRANCH  39  62
ENDBRANCH  13  14
ENDBRANCH   6   8
ENDBRANCH   3   4
ENDBRANCH   2   3
ENDBRANCH   1   2
BRANCH   1  73
ATOM     73  C   UNL     1       4.483  -3.735   2.420  1.00  0.00     0.002 C 
BRANCH  73  74
ATOM     74  C   UNL     1       6.011  -3.817   2.451  1.00  0.00     0.021 C 
BRANCH  74  75
ATOM     75  C   UNL     1       6.605  -3.567   3.832  1.00  0.00     0.116 C 
BRANCH  75  76
ATOM     76  N   UNL     1       6.606  -4.753   4.667  1.00  0.00    -0.356 N 
ATOM     77  C   UNL     1       7.622  -5.503   5.173  1.00  0.00     0.229 C 
ATOM     78  H   UNL     1       5.708  -5.073   4.913  1.00  0.00     0.163 HD
ATOM     79  O   UNL     1       7.301  -6.423   5.936  1.00  0.00    -0.274 OA
BRANCH  77  80
ATOM     80  C   UNL     1       9.084  -5.345   4.783  1.00  0.00     0.131 C 
ATOM     81  C   UNL     1       9.323  -5.891   3.372  1.00  0.00     0.154 C 
ATOM     82  C   UNL     1       9.639  -3.955   4.702  1.00  0.00    -0.009 A 
ATOM     83  N   UNL     1       9.627  -4.700   2.493  1.00  0.00    -0.265 N 
ATOM     84  C   UNL     1       9.965  -3.620   3.381  1.00  0.00     0.056 A 
ATOM     85  C   UNL     1       9.701  -3.024   5.734  1.00  0.00     0.007 A 
ATOM     86  C   UNL     1      10.226  -2.296   3.065  1.00  0.00     0.027 A 
ATOM     87  C   UNL     1      10.028  -1.707   5.418  1.00  0.00     0.000 A 
ATOM     88  C   UNL     1      10.272  -1.343   4.090  1.00  0.00     0.002 A 
BRANCH  83  89
ATOM     89  S   UNL     1      10.591  -5.118   1.157  1.00  0.00     0.265 S 
ATOM     90  O   UNL     1      11.920  -5.440   1.647  1.00  0.00    -0.201 OA
ATOM     91  O   UNL     1       9.850  -6.098   0.393  1.00  0.00    -0.201 OA
BRANCH  89  92
ATOM     92  C   UNL     1      10.715  -3.678   0.166  1.00  0.00     0.106 A 
ATOM     93  C   UNL     1      11.866  -2.889   0.186  1.00  0.00     0.027 A 
ATOM     94  C   UNL     1       9.669  -3.329  -0.670  1.00  0.00     0.135 A 
ATOM     95  C   UNL     1      11.897  -1.729  -0.582  1.00  0.00     0.042 A 
ATOM     96  N   UNL     1       9.681  -2.210  -1.431  1.00  0.00    -0.243 NA
ATOM     97  C   UNL     1      10.789  -1.437  -1.361  1.00  0.00     0.129 A 
ATOM     98  Cl  UNL     1      10.738  -0.015  -2.313  1.00  0.00    -0.062 Cl
ENDBRANCH  89  92
ENDBRANCH  83  89
ENDBRANCH  77  80
ENDBRANCH  75  76
ENDBRANCH  74  75
ENDBRANCH  73  74
ENDBRANCH   1  73
TORSDOF 18
