REMARK SMILES C[C@H]1OCC[C@@H]1C(=O)Nc1ccc(Cl)c(C(=O)NCCCCCCNC(=O)c2ccc(-c3c4nc(c(-c5cc(S(=O)(=O)[O-])ccc5F)c5ccc([nH]5)c(-c5cc(S(=O)(=O)[O-])ccc5F)c5nc(c(-c6cc(S(=O)(=O)[O-])ccc6F)c6ccc3[nH]6)C=C5)C=C4)cc2)c1
REMARK SMILES IDX 22 1 21 2 20 3 19 4 18 5 16 6 17 7 15 9 10 10 11 11 91 12
REMARK SMILES IDX 12 13 13 14 14 15 9 16 7 17 8 18 6 20 1 21 2 22 3 23 4 24
REMARK SMILES IDX 5 25 23 26 24 27 25 28 26 29 27 31 28 32 29 33 90 34 30 35
REMARK SMILES IDX 89 36 31 37 32 38 33 39 83 40 34 41 88 42 82 43 84 44 35 45
REMARK SMILES IDX 87 46 81 47 80 48 36 50 68 51 48 52 67 53 49 54 52 55 66 56
REMARK SMILES IDX 85 57 50 58 51 59 65 61 86 62 53 63 37 64 38 65 46 66 39 67
REMARK SMILES IDX 45 68 47 69 44 70 40 71 41 72 42 73 43 74 69 75 70 76 78 77
REMARK SMILES IDX 71 78 77 79 79 80 76 81 72 82 73 83 74 84 75 85 54 86 55 87
REMARK SMILES IDX 63 88 56 89 62 90 64 91 61 92 57 93 58 94 59 95 60 96
REMARK H PARENT 18 8 9 19 25 30 84 49 52 60
REMARK Flexibility Score: inf
ROOT
ATOM      1  C   UNL     1      -1.704   6.083   7.248  1.00  0.00     0.002 C 
ENDROOT
BRANCH   1   2
ATOM      2  C   UNL     1      -2.272   4.824   7.911  1.00  0.00     0.002 C 
BRANCH   2   3
ATOM      3  C   UNL     1      -2.898   3.771   6.997  1.00  0.00     0.021 C 
BRANCH   3   4
ATOM      4  C   UNL     1      -2.091   3.372   5.772  1.00  0.00     0.116 C 
BRANCH   4   5
ATOM      5  N   UNL     1      -0.830   2.702   6.026  1.00  0.00    -0.352 N 
ATOM      6  C   UNL     1      -0.166   1.769   5.256  1.00  0.00     0.252 C 
ATOM      7  O   UNL     1       0.945   1.382   5.620  1.00  0.00    -0.269 OA
ATOM      8  H   UNL     1      -0.385   2.948   6.869  1.00  0.00     0.163 HD
BRANCH   6   9
ATOM      9  C   UNL     1      -0.804   1.115   4.082  1.00  0.00     0.060 A 
ATOM     10  C   UNL     1      -1.159  -0.939   2.854  1.00  0.00     0.042 A 
ATOM     11  C   UNL     1      -2.225  -0.353   2.190  1.00  0.00     0.028 A 
ATOM     12  C   UNL     1      -0.555  -0.261   3.911  1.00  0.00     0.041 A 
ATOM     13  C   UNL     1      -2.422   1.016   2.296  1.00  0.00     0.023 A 
ATOM     14  C   UNL     1      -1.594   1.764   3.128  1.00  0.00     0.053 A 
ATOM     15  Cl  UNL     1      -1.454   3.443   2.742  1.00  0.00    -0.083 Cl
BRANCH  10  16
ATOM     16  N   UNL     1      -0.657  -2.174   2.437  1.00  0.00    -0.326 N 
ATOM     17  C   UNL     1      -0.245  -2.545   1.181  1.00  0.00     0.230 C 
ATOM     18  O   UNL     1       0.030  -3.741   1.013  1.00  0.00    -0.274 OA
ATOM     19  H   UNL     1      -0.591  -2.867   3.133  1.00  0.00     0.169 HD
BRANCH  17  20
ATOM     20  C   UNL     1       0.011  -1.562   0.018  1.00  0.00     0.110 C 
ATOM     21  C   UNL     1       2.055  -0.127  -0.465  1.00  0.00     0.039 C 
ATOM     22  C   UNL     1       0.814  -0.322   0.404  1.00  0.00     0.127 C 
ATOM     23  O   UNL     1      -0.046   0.807   0.200  1.00  0.00    -0.378 OA
ATOM     24  C   UNL     1      -1.016   0.462  -0.789  1.00  0.00     0.161 C 
ATOM     25  C   UNL     1      -1.188  -1.044  -0.750  1.00  0.00     0.044 C 
ENDBRANCH  17  20
ENDBRANCH  10  16
ENDBRANCH   6   9
ENDBRANCH   4   5
ENDBRANCH   3   4
ENDBRANCH   2   3
ENDBRANCH   1   2
BRANCH   1  26
ATOM     26  C   UNL     1      -2.616   6.846   6.283  1.00  0.00     0.021 C 
BRANCH  26  27
ATOM     27  C   UNL     1      -3.998   7.219   6.805  1.00  0.00     0.116 C 
BRANCH  27  28
ATOM     28  N   UNL     1      -3.947   8.032   8.005  1.00  0.00    -0.352 N 
ATOM     29  C   UNL     1      -4.583   9.210   8.296  1.00  0.00     0.251 C 
ATOM     30  H   UNL     1      -3.365   7.685   8.720  1.00  0.00     0.163 HD
ATOM     31  O   UNL     1      -4.275   9.815   9.329  1.00  0.00    -0.269 OA
BRANCH  29  32
ATOM     32  C   UNL     1      -5.608   9.777   7.388  1.00  0.00     0.039 A 
ATOM     33  C   UNL     1      -5.631  11.161   7.189  1.00  0.00     0.014 A 
ATOM     34  C   UNL     1      -6.570   8.974   6.769  1.00  0.00     0.014 A 
ATOM     35  C   UNL     1      -6.588  11.731   6.344  1.00  0.00     0.010 A 
ATOM     36  C   UNL     1      -7.478   9.535   5.869  1.00  0.00     0.010 A 
ATOM     37  C   UNL     1      -7.508  10.922   5.658  1.00  0.00    -0.014 A 
BRANCH  37  38
ATOM     38  C   UNL     1      -8.524  11.522   4.751  1.00  0.00     0.031 A 
ATOM     39  C   UNL     1      -9.991  11.410   5.079  1.00  0.00     0.074 A 
ATOM     40  C   UNL     1      -8.131  12.139   3.618  1.00  0.00     0.049 A 
ATOM     41  N   UNL     1     -11.028  11.833   4.401  1.00  0.00    -0.248 NA
ATOM     42  C   UNL     1     -10.338  10.703   6.321  1.00  0.00     0.031 C 
ATOM     43  C   UNL     1      -6.744  12.276   3.170  1.00  0.00     0.029 A 
ATOM     44  N   UNL     1      -8.858  12.763   2.635  1.00  0.00    -0.354 N 
ATOM     45  C   UNL     1     -12.147  11.433   5.125  1.00  0.00     0.074 A 
ATOM     46  C   UNL     1     -11.661  10.680   6.261  1.00  0.00     0.031 C 
ATOM     47  C   UNL     1      -6.719  12.965   2.018  1.00  0.00     0.029 A 
ATOM     48  C   UNL     1      -8.087  13.283   1.621  1.00  0.00     0.049 A 
ATOM     49  H   UNL     1      -9.840  12.833   2.654  1.00  0.00     0.167 HD
ATOM     50  C   UNL     1     -13.457  11.688   4.878  1.00  0.00     0.034 A 
ATOM     51  C   UNL     1      -8.441  13.937   0.496  1.00  0.00     0.034 A 
ATOM     52  C   UNL     1     -13.924  12.457   3.748  1.00  0.00     0.049 A 
ATOM     53  C   UNL     1      -9.904  14.214   0.246  1.00  0.00     0.074 A 
ATOM     54  C   UNL     1     -15.222  12.815   3.427  1.00  0.00     0.029 A 
ATOM     55  N   UNL     1     -13.111  12.986   2.753  1.00  0.00    -0.354 N 
ATOM     56  N   UNL     1     -10.946  13.870   0.968  1.00  0.00    -0.248 NA
ATOM     57  C   UNL     1     -10.234  14.986  -0.958  1.00  0.00     0.031 C 
ATOM     58  C   UNL     1     -15.201  13.500   2.207  1.00  0.00     0.029 A 
ATOM     59  C   UNL     1     -13.883  13.646   1.808  1.00  0.00     0.049 A 
ATOM     60  H   UNL     1     -12.131  12.903   2.723  1.00  0.00     0.167 HD
ATOM     61  C   UNL     1     -12.051  14.422   0.324  1.00  0.00     0.074 A 
ATOM     62  C   UNL     1     -11.544  15.133  -0.831  1.00  0.00     0.031 C 
ATOM     63  C   UNL     1     -13.366  14.351   0.658  1.00  0.00     0.034 A 
BRANCH  50  64
ATOM     64  C   UNL     1     -14.474  11.109   5.833  1.00  0.00     0.023 A 
ATOM     65  C   UNL     1     -14.515  11.481   7.189  1.00  0.00     0.031 A 
ATOM     66  C   UNL     1     -15.409  10.157   5.387  1.00  0.00     0.131 A 
ATOM     67  C   UNL     1     -15.418  10.854   8.062  1.00  0.00     0.055 A 
ATOM     68  C   UNL     1     -16.361   9.599   6.243  1.00  0.00     0.041 A 
ATOM     69  F   UNL     1     -15.407   9.745   4.109  1.00  0.00    -0.206 F 
ATOM     70  C   UNL     1     -16.360   9.936   7.593  1.00  0.00     0.022 A 
BRANCH  67  71
ATOM     71  S   UNL     1     -15.252  11.154   9.844  1.00  0.00     0.124 S 
ATOM     72  O   UNL     1     -13.892  10.683  10.095  1.00  0.00    -0.237 OA
ATOM     73  O   UNL     1     -15.459  12.594   9.943  1.00  0.00    -0.237 OA
ATOM     74  O   UNL     1     -16.307  10.329  10.429  1.00  0.00    -0.744 OA
ENDBRANCH  67  71
ENDBRANCH  50  64
BRANCH  51  75
ATOM     75  C   UNL     1      -7.406  14.380  -0.485  1.00  0.00     0.023 A 
ATOM     76  C   UNL     1      -7.204  15.741  -0.763  1.00  0.00     0.031 A 
ATOM     77  C   UNL     1      -6.643  13.441  -1.202  1.00  0.00     0.131 A 
ATOM     78  C   UNL     1      -6.309  16.124  -1.774  1.00  0.00     0.055 A 
ATOM     79  C   UNL     1      -5.709  13.830  -2.165  1.00  0.00     0.041 A 
ATOM     80  F   UNL     1      -6.792  12.127  -0.974  1.00  0.00    -0.206 F 
ATOM     81  C   UNL     1      -5.550  15.179  -2.467  1.00  0.00     0.022 A 
BRANCH  78  82
ATOM     82  S   UNL     1      -6.227  17.875  -2.244  1.00  0.00     0.124 S 
ATOM     83  O   UNL     1      -7.615  18.154  -2.593  1.00  0.00    -0.237 OA
ATOM     84  O   UNL     1      -5.737  18.494  -1.017  1.00  0.00    -0.237 OA
ATOM     85  O   UNL     1      -5.286  17.883  -3.362  1.00  0.00    -0.744 OA
ENDBRANCH  78  82
ENDBRANCH  51  75
BRANCH  63  86
ATOM     86  C   UNL     1     -14.335  15.120  -0.208  1.00  0.00     0.023 A 
ATOM     87  C   UNL     1     -14.544  14.798  -1.561  1.00  0.00     0.031 A 
ATOM     88  C   UNL     1     -15.037  16.217   0.324  1.00  0.00     0.131 A 
ATOM     89  C   UNL     1     -15.372  15.608  -2.353  1.00  0.00     0.055 A 
ATOM     90  C   UNL     1     -15.914  16.977  -0.452  1.00  0.00     0.041 A 
ATOM     91  F   UNL     1     -14.877  16.573   1.609  1.00  0.00    -0.206 F 
ATOM     92  C   UNL     1     -16.071  16.685  -1.803  1.00  0.00     0.022 A 
BRANCH  89  93
ATOM     93  S   UNL     1     -15.424  15.311  -4.142  1.00  0.00     0.124 S 
ATOM     94  O   UNL     1     -14.013  15.393  -4.505  1.00  0.00    -0.237 OA
ATOM     95  O   UNL     1     -16.026  13.983  -4.219  1.00  0.00    -0.237 OA
ATOM     96  O   UNL     1     -16.259  16.400  -4.646  1.00  0.00    -0.744 OA
ENDBRANCH  89  93
ENDBRANCH  63  86
ENDBRANCH  37  38
ENDBRANCH  29  32
ENDBRANCH  27  28
ENDBRANCH  26  27
ENDBRANCH   1  26
TORSDOF 18
