REMARK SMILES O=C(NCCCCCCNC(=O)c1ccc(-c2c3nc(c(-c4cc(S(=O)(=O)[O-])ccc4F)c4ccc([nH]4)c(-c4cc(S(=O)(=O)[O-])ccc4F)c4nc(c(-c5cc(S(=O)(=O)[O-])ccc5F)c5ccc2[nH]5)C=C4)C=C3)cc1)c1ccc(NC(=O)[C@@H]2CC=CC[C@H]2C(=O)Nc2cccc([N+](=O)[O-])c2)cc1
REMARK SMILES IDX 5 1 4 2 3 3 1 4 2 5 76 7 77 8 102 9 78 10 101 11 79 12 80 13
REMARK SMILES IDX 81 14 82 16 83 17 84 18 88 19 85 20 87 21 86 22 89 23 90 24
REMARK SMILES IDX 91 25 92 27 93 28 100 29 94 30 96 31 95 32 97 33 98 34 99 35
REMARK SMILES IDX 6 36 7 37 8 38 9 39 10 40 11 41 12 43 13 44 14 45 75 46
REMARK SMILES IDX 15 47 74 48 16 49 17 50 18 51 68 52 19 53 73 54 67 55 69 56
REMARK SMILES IDX 20 57 72 58 66 59 65 60 21 62 53 63 33 64 52 65 34 66 37 67
REMARK SMILES IDX 51 68 70 69 35 70 36 71 50 73 71 74 38 75 22 76 23 77 31 78
REMARK SMILES IDX 24 79 30 80 32 81 29 82 25 83 26 84 27 85 28 86 54 87 55 88
REMARK SMILES IDX 63 89 56 90 62 91 64 92 61 93 57 94 58 95 59 96 60 97 39 98
REMARK SMILES IDX 40 99 48 100 41 101 47 102 49 103 46 104 42 105 43 106
REMARK SMILES IDX 44 107 45 108
REMARK H PARENT 3 6 80 15 91 26 10 42 69 61 37 72
REMARK Flexibility Score: inf
ROOT
ATOM      1  C   UNL     1      13.233  -0.165  -0.832  1.00  0.00     0.021 C 
ENDROOT
BRANCH   1   2
ATOM      2  C   UNL     1      12.691  -0.286  -2.248  1.00  0.00     0.116 C 
BRANCH   2   3
ATOM      3  N   UNL     1      13.284  -1.399  -2.981  1.00  0.00    -0.352 N 
ATOM      4  O   UNL     1      13.253  -3.356  -4.133  1.00  0.00    -0.269 OA
ATOM      5  C   UNL     1      12.647  -2.382  -3.702  1.00  0.00     0.251 C 
ATOM      6  H   UNL     1      14.267  -1.454  -2.957  1.00  0.00     0.163 HD
BRANCH   5   7
ATOM      7  C   UNL     1      11.202  -2.238  -3.951  1.00  0.00     0.039 A 
ATOM      8  C   UNL     1      10.718  -1.020  -4.413  1.00  0.00     0.016 A 
ATOM      9  C   UNL     1      10.320  -3.276  -3.659  1.00  0.00     0.016 A 
ATOM     10  C   UNL     1       9.350  -0.792  -4.444  1.00  0.00     0.027 A 
ATOM     11  C   UNL     1       8.942  -3.056  -3.783  1.00  0.00     0.027 A 
ATOM     12  C   UNL     1       8.441  -1.801  -4.167  1.00  0.00     0.041 A 
BRANCH  12  13
ATOM     13  N   UNL     1       7.049  -1.677  -4.274  1.00  0.00    -0.326 N 
ATOM     14  C   UNL     1       6.177  -0.690  -4.598  1.00  0.00     0.228 C 
ATOM     15  H   UNL     1       6.587  -2.519  -4.060  1.00  0.00     0.169 HD
ATOM     16  O   UNL     1       4.987  -1.031  -4.677  1.00  0.00    -0.274 OA
BRANCH  14  17
ATOM     17  C   UNL     1       6.512   0.781  -4.808  1.00  0.00     0.095 C 
ATOM     18  C   UNL     1       7.338   1.106  -6.061  1.00  0.00     0.041 C 
ATOM     19  C   UNL     1       6.874   1.464  -3.478  1.00  0.00     0.095 C 
ATOM     20  C   UNL     1       8.216   2.317  -5.942  1.00  0.00    -0.030 C 
ATOM     21  C   UNL     1       7.521   2.853  -3.593  1.00  0.00     0.041 C 
ATOM     22  C   UNL     1       8.297   3.087  -4.850  1.00  0.00    -0.030 C 
BRANCH  19  23
ATOM     23  C   UNL     1       5.731   1.450  -2.436  1.00  0.00     0.228 C 
ATOM     24  O   UNL     1       5.817   0.670  -1.477  1.00  0.00    -0.274 OA
ATOM     25  N   UNL     1       4.669   2.320  -2.438  1.00  0.00    -0.326 N 
ATOM     26  H   UNL     1       4.109   2.291  -1.629  1.00  0.00     0.169 HD
BRANCH  25  27
ATOM     27  C   UNL     1       4.258   3.241  -3.407  1.00  0.00     0.048 A 
ATOM     28  C   UNL     1       4.144   4.586  -3.056  1.00  0.00     0.026 A 
ATOM     29  C   UNL     1       3.970   2.852  -4.710  1.00  0.00     0.111 A 
ATOM     30  C   UNL     1       3.937   5.551  -4.048  1.00  0.00     0.009 A 
ATOM     31  C   UNL     1       3.842   3.815  -5.713  1.00  0.00     0.271 A 
ATOM     32  C   UNL     1       3.833   5.173  -5.389  1.00  0.00     0.086 A 
BRANCH  31  33
ATOM     33  N   UNL     1       3.796   3.388  -7.117  1.00  0.00     0.062 N 
ATOM     34  O   UNL     1       3.721   4.266  -7.987  1.00  0.00    -0.258 OA
ATOM     35  O   UNL     1       3.868   2.173  -7.354  1.00  0.00    -0.258 OA
ENDBRANCH  31  33
ENDBRANCH  25  27
ENDBRANCH  19  23
ENDBRANCH  14  17
ENDBRANCH  12  13
ENDBRANCH   5   7
ENDBRANCH   2   3
ENDBRANCH   1   2
BRANCH   1  36
ATOM     36  C   UNL     1      14.726   0.150  -0.754  1.00  0.00     0.002 C 
BRANCH  36  37
ATOM     37  C   UNL     1      15.152   1.446  -1.449  1.00  0.00     0.002 C 
BRANCH  37  38
ATOM     38  C   UNL     1      14.455   2.716  -0.954  1.00  0.00     0.021 C 
BRANCH  38  39
ATOM     39  C   UNL     1      14.525   2.948   0.553  1.00  0.00     0.116 C 
BRANCH  39  40
ATOM     40  N   UNL     1      15.892   2.999   1.043  1.00  0.00    -0.352 N 
ATOM     41  C   UNL     1      16.488   3.915   1.873  1.00  0.00     0.251 C 
ATOM     42  H   UNL     1      16.477   2.269   0.734  1.00  0.00     0.163 HD
ATOM     43  O   UNL     1      17.704   3.881   2.041  1.00  0.00    -0.269 OA
BRANCH  41  44
ATOM     44  C   UNL     1      15.671   4.955   2.535  1.00  0.00     0.039 A 
ATOM     45  C   UNL     1      16.137   6.271   2.546  1.00  0.00     0.014 A 
ATOM     46  C   UNL     1      14.454   4.636   3.145  1.00  0.00     0.014 A 
ATOM     47  C   UNL     1      15.354   7.279   3.113  1.00  0.00     0.010 A 
ATOM     48  C   UNL     1      13.644   5.651   3.649  1.00  0.00     0.010 A 
ATOM     49  C   UNL     1      14.086   6.983   3.639  1.00  0.00    -0.014 A 
BRANCH  49  50
ATOM     50  C   UNL     1      13.211   8.052   4.186  1.00  0.00     0.031 A 
ATOM     51  C   UNL     1      12.842   8.053   5.644  1.00  0.00     0.074 A 
ATOM     52  C   UNL     1      12.699   8.983   3.358  1.00  0.00     0.049 A 
ATOM     53  N   UNL     1      12.027   8.845   6.293  1.00  0.00    -0.248 NA
ATOM     54  C   UNL     1      13.448   7.002   6.474  1.00  0.00     0.031 C 
ATOM     55  C   UNL     1      12.949   9.060   1.917  1.00  0.00     0.029 A 
ATOM     56  N   UNL     1      11.851  10.034   3.603  1.00  0.00    -0.354 N 
ATOM     57  C   UNL     1      12.017   8.386   7.606  1.00  0.00     0.074 A 
ATOM     58  C   UNL     1      12.852   7.203   7.639  1.00  0.00     0.031 C 
ATOM     59  C   UNL     1      12.281  10.108   1.411  1.00  0.00     0.029 A 
ATOM     60  C   UNL     1      11.521  10.752   2.478  1.00  0.00     0.049 A 
ATOM     61  H   UNL     1      11.510  10.252   4.501  1.00  0.00     0.167 HD
ATOM     62  C   UNL     1      11.392   8.916   8.688  1.00  0.00     0.034 A 
ATOM     63  C   UNL     1      10.689  11.800   2.318  1.00  0.00     0.034 A 
ATOM     64  C   UNL     1      10.563  10.096   8.635  1.00  0.00     0.049 A 
ATOM     65  C   UNL     1       9.984  12.361   3.527  1.00  0.00     0.074 A 
ATOM     66  C   UNL     1       9.913  10.742   9.672  1.00  0.00     0.029 A 
ATOM     67  N   UNL     1      10.262  10.806   7.479  1.00  0.00    -0.354 N 
ATOM     68  N   UNL     1      10.018  11.941   4.771  1.00  0.00    -0.248 NA
ATOM     69  C   UNL     1       9.141  13.543   3.312  1.00  0.00     0.031 C 
ATOM     70  C   UNL     1       9.169  11.800   9.136  1.00  0.00     0.029 A 
ATOM     71  C   UNL     1       9.414  11.864   7.773  1.00  0.00     0.049 A 
ATOM     72  H   UNL     1      10.601  10.590   6.580  1.00  0.00     0.167 HD
ATOM     73  C   UNL     1       9.220  12.825   5.491  1.00  0.00     0.074 A 
ATOM     74  C   UNL     1       8.733  13.809   4.545  1.00  0.00     0.031 C 
ATOM     75  C   UNL     1       8.921  12.827   6.816  1.00  0.00     0.034 A 
BRANCH  62  76
ATOM     76  C   UNL     1      11.571   8.199  10.006  1.00  0.00     0.023 A 
ATOM     77  C   UNL     1      12.840   8.047  10.594  1.00  0.00     0.031 A 
ATOM     78  C   UNL     1      10.471   7.619  10.663  1.00  0.00     0.131 A 
ATOM     79  C   UNL     1      12.991   7.257  11.743  1.00  0.00     0.055 A 
ATOM     80  C   UNL     1      10.617   6.910  11.858  1.00  0.00     0.041 A 
ATOM     81  F   UNL     1       9.237   7.712  10.144  1.00  0.00    -0.206 F 
ATOM     82  C   UNL     1      11.885   6.709  12.395  1.00  0.00     0.022 A 
BRANCH  79  83
ATOM     83  S   UNL     1      14.670   6.819  12.274  1.00  0.00     0.124 S 
ATOM     84  O   UNL     1      15.190   6.152  11.083  1.00  0.00    -0.237 OA
ATOM     85  O   UNL     1      15.252   8.120  12.585  1.00  0.00    -0.237 OA
ATOM     86  O   UNL     1      14.448   5.943  13.422  1.00  0.00    -0.744 OA
ENDBRANCH  79  83
ENDBRANCH  62  76
BRANCH  63  87
ATOM     87  C   UNL     1      10.462  12.377   0.963  1.00  0.00     0.023 A 
ATOM     88  C   UNL     1      10.881  13.678   0.647  1.00  0.00     0.031 A 
ATOM     89  C   UNL     1       9.800  11.636  -0.033  1.00  0.00     0.131 A 
ATOM     90  C   UNL     1      10.598  14.215  -0.618  1.00  0.00     0.055 A 
ATOM     91  C   UNL     1       9.566  12.156  -1.306  1.00  0.00     0.041 A 
ATOM     92  F   UNL     1       9.386  10.383   0.215  1.00  0.00    -0.206 F 
ATOM     93  C   UNL     1       9.956  13.459  -1.601  1.00  0.00     0.022 A 
BRANCH  90  94
ATOM     94  S   UNL     1      11.021  15.949  -0.941  1.00  0.00     0.124 S 
ATOM     95  O   UNL     1      10.256  16.638   0.092  1.00  0.00    -0.237 OA
ATOM     96  O   UNL     1      12.470  15.943  -0.773  1.00  0.00    -0.237 OA
ATOM     97  O   UNL     1      10.555  16.163  -2.310  1.00  0.00    -0.744 OA
ENDBRANCH  90  94
ENDBRANCH  63  87
BRANCH  75  98
ATOM     98  C   UNL     1       8.052  13.954   7.319  1.00  0.00     0.023 A 
ATOM     99  C   UNL     1       6.705  14.077   6.938  1.00  0.00     0.031 A 
ATOM    100  C   UNL     1       8.586  14.926   8.184  1.00  0.00     0.131 A 
ATOM    101  C   UNL     1       5.952  15.178   7.376  1.00  0.00     0.055 A 
ATOM    102  C   UNL     1       7.816  15.986   8.665  1.00  0.00     0.041 A 
ATOM    103  F   UNL     1       9.868  14.860   8.578  1.00  0.00    -0.206 F 
ATOM    104  C   UNL     1       6.494  16.123   8.250  1.00  0.00     0.022 A 
BRANCH 101 105
ATOM    105  S   UNL     1       4.278  15.407   6.715  1.00  0.00     0.124 S 
ATOM    106  O   UNL     1       4.528  15.489   5.279  1.00  0.00    -0.237 OA
ATOM    107  O   UNL     1       3.594  14.203   7.175  1.00  0.00    -0.237 OA
ATOM    108  O   UNL     1       3.830  16.651   7.339  1.00  0.00    -0.744 OA
ENDBRANCH 101 105
ENDBRANCH  75  98
ENDBRANCH  49  50
ENDBRANCH  41  44
ENDBRANCH  39  40
ENDBRANCH  38  39
ENDBRANCH  37  38
ENDBRANCH  36  37
ENDBRANCH   1  36
TORSDOF 21
