REMARK SMILES O=C(NCCCCCCNC(=O)c1cc(-c2ccc(Cl)cc2)nc2c3c(C4CC4)cc(C(F)(F)F)nc3nn12)c1ccc(-c2c3nc(c(-c4cc(S(=O)(=O)[O-])ccc4F)c4ccc([nH]4)c(-c4cc(S(=O)(=O)[O-])ccc4F)c4nc(c(-c5cc(S(=O)(=O)[O-])ccc5F)c5ccc2[nH]5)C=C4)C=C3)cc1
REMARK SMILES IDX 5 1 4 2 3 3 1 4 2 5 40 7 41 8 102 9 42 10 101 11 43 12 44 13
REMARK SMILES IDX 45 14 95 15 46 16 100 17 94 18 96 19 47 20 99 21 93 22 92 23
REMARK SMILES IDX 48 25 80 26 60 27 79 28 61 29 64 30 78 31 97 32 62 33 63 34
REMARK SMILES IDX 77 36 98 37 65 38 49 39 50 40 58 41 51 42 57 43 59 44 56 45
REMARK SMILES IDX 52 46 53 47 54 48 55 49 81 50 82 51 90 52 83 53 89 54 91 55
REMARK SMILES IDX 88 56 84 57 85 58 86 59 87 60 66 61 67 62 75 63 68 64 74 65
REMARK SMILES IDX 76 66 73 67 69 68 70 69 71 70 72 71 6 72 7 73 8 74 9 75
REMARK SMILES IDX 10 76 11 77 12 79 13 80 14 81 39 82 15 83 24 84 38 85 23 86
REMARK SMILES IDX 25 87 37 88 26 89 36 90 30 91 31 92 16 93 17 94 22 95 18 96
REMARK SMILES IDX 21 97 19 98 20 99 27 100 28 101 29 102 32 103 33 104 34 105
REMARK SMILES IDX 35 106
REMARK H PARENT 3 6 96 24 64 35 10 78
REMARK Flexibility Score: inf
ROOT
ATOM      1  C   UNL     1       4.650   2.450   0.306  1.00  0.00     0.021 C 
ENDROOT
BRANCH   1   2
ATOM      2  C   UNL     1       4.584   1.033   0.865  1.00  0.00     0.116 C 
BRANCH   2   3
ATOM      3  N   UNL     1       3.255   0.453   0.784  1.00  0.00    -0.352 N 
ATOM      4  O   UNL     1       1.647  -0.870  -0.121  1.00  0.00    -0.269 OA
ATOM      5  C   UNL     1       2.798  -0.463  -0.137  1.00  0.00     0.251 C 
ATOM      6  H   UNL     1       2.608   0.748   1.465  1.00  0.00     0.163 HD
BRANCH   5   7
ATOM      7  C   UNL     1       3.761  -0.936  -1.145  1.00  0.00     0.039 A 
ATOM      8  C   UNL     1       4.816  -1.763  -0.743  1.00  0.00     0.014 A 
ATOM      9  C   UNL     1       3.688  -0.425  -2.440  1.00  0.00     0.014 A 
ATOM     10  C   UNL     1       5.853  -2.018  -1.631  1.00  0.00     0.010 A 
ATOM     11  C   UNL     1       4.718  -0.705  -3.335  1.00  0.00     0.010 A 
ATOM     12  C   UNL     1       5.809  -1.484  -2.927  1.00  0.00    -0.014 A 
BRANCH  12  13
ATOM     13  C   UNL     1       6.906  -1.828  -3.843  1.00  0.00     0.031 A 
ATOM     14  C   UNL     1       6.493  -2.479  -5.115  1.00  0.00     0.074 A 
ATOM     15  C   UNL     1       8.085  -1.177  -3.833  1.00  0.00     0.049 A 
ATOM     16  N   UNL     1       6.056  -1.800  -6.135  1.00  0.00    -0.248 NA
ATOM     17  C   UNL     1       6.317  -3.924  -5.231  1.00  0.00     0.031 C 
ATOM     18  C   UNL     1       8.255   0.214  -3.395  1.00  0.00     0.029 A 
ATOM     19  N   UNL     1       9.282  -1.502  -4.420  1.00  0.00    -0.354 N 
ATOM     20  C   UNL     1       5.483  -2.708  -7.002  1.00  0.00     0.074 A 
ATOM     21  C   UNL     1       5.688  -4.015  -6.412  1.00  0.00     0.031 C 
ATOM     22  C   UNL     1       9.411   0.684  -3.910  1.00  0.00     0.029 A 
ATOM     23  C   UNL     1      10.135  -0.410  -4.546  1.00  0.00     0.049 A 
ATOM     24  H   UNL     1       9.513  -2.411  -4.721  1.00  0.00     0.167 HD
ATOM     25  C   UNL     1       4.847  -2.349  -8.147  1.00  0.00     0.034 A 
ATOM     26  C   UNL     1      11.088  -0.273  -5.505  1.00  0.00     0.034 A 
ATOM     27  C   UNL     1       4.838  -0.951  -8.453  1.00  0.00     0.049 A 
ATOM     28  C   UNL     1      10.238  -0.101  -6.742  1.00  0.00     0.074 A 
ATOM     29  C   UNL     1       3.998   0.122  -8.246  1.00  0.00     0.029 A 
ATOM     30  N   UNL     1       5.962  -0.406  -9.029  1.00  0.00    -0.354 N 
ATOM     31  N   UNL     1       9.640   1.001  -7.116  1.00  0.00    -0.248 NA
ATOM     32  C   UNL     1       9.769  -1.305  -7.430  1.00  0.00     0.031 C 
ATOM     33  C   UNL     1       4.832   1.284  -8.309  1.00  0.00     0.029 A 
ATOM     34  C   UNL     1       6.144   0.841  -8.476  1.00  0.00     0.049 A 
ATOM     35  H   UNL     1       6.532  -0.829  -9.711  1.00  0.00     0.167 HD
ATOM     36  C   UNL     1       8.531   0.590  -7.866  1.00  0.00     0.074 A 
ATOM     37  C   UNL     1       8.698  -0.836  -8.054  1.00  0.00     0.031 C 
ATOM     38  C   UNL     1       7.448   1.381  -8.130  1.00  0.00     0.034 A 
BRANCH  25  39
ATOM     39  C   UNL     1       4.333  -3.347  -9.102  1.00  0.00     0.023 A 
ATOM     40  C   UNL     1       3.030  -3.856  -9.026  1.00  0.00     0.031 A 
ATOM     41  C   UNL     1       5.158  -3.734 -10.170  1.00  0.00     0.131 A 
ATOM     42  C   UNL     1       2.583  -4.731 -10.026  1.00  0.00     0.055 A 
ATOM     43  C   UNL     1       4.710  -4.601 -11.161  1.00  0.00     0.041 A 
ATOM     44  F   UNL     1       6.407  -3.246 -10.267  1.00  0.00    -0.206 F 
ATOM     45  C   UNL     1       3.413  -5.100 -11.094  1.00  0.00     0.022 A 
BRANCH  42  46
ATOM     46  S   UNL     1       0.898  -5.402 -10.007  1.00  0.00     0.124 S 
ATOM     47  O   UNL     1       0.396  -5.014 -11.323  1.00  0.00    -0.237 OA
ATOM     48  O   UNL     1       1.146  -6.830  -9.828  1.00  0.00    -0.237 OA
ATOM     49  O   UNL     1       0.267  -4.731  -8.876  1.00  0.00    -0.744 OA
ENDBRANCH  42  46
ENDBRANCH  25  39
BRANCH  26  50
ATOM     50  C   UNL     1      12.198  -1.278  -5.372  1.00  0.00     0.023 A 
ATOM     51  C   UNL     1      12.582  -2.205  -6.350  1.00  0.00     0.031 A 
ATOM     52  C   UNL     1      12.883  -1.343  -4.135  1.00  0.00     0.131 A 
ATOM     53  C   UNL     1      13.464  -3.251  -6.026  1.00  0.00     0.055 A 
ATOM     54  C   UNL     1      13.806  -2.348  -3.835  1.00  0.00     0.041 A 
ATOM     55  F   UNL     1      12.648  -0.429  -3.178  1.00  0.00    -0.206 F 
ATOM     56  C   UNL     1      14.077  -3.331  -4.775  1.00  0.00     0.022 A 
BRANCH  53  57
ATOM     57  S   UNL     1      13.782  -4.580  -7.221  1.00  0.00     0.124 S 
ATOM     58  O   UNL     1      15.209  -4.834  -7.041  1.00  0.00    -0.237 OA
ATOM     59  O   UNL     1      12.888  -5.624  -6.730  1.00  0.00    -0.237 OA
ATOM     60  O   UNL     1      13.412  -3.978  -8.496  1.00  0.00    -0.744 OA
ENDBRANCH  53  57
ENDBRANCH  26  50
BRANCH  38  61
ATOM     61  C   UNL     1       7.585   2.837  -7.792  1.00  0.00     0.023 A 
ATOM     62  C   UNL     1       6.754   3.446  -6.832  1.00  0.00     0.031 A 
ATOM     63  C   UNL     1       8.482   3.651  -8.502  1.00  0.00     0.131 A 
ATOM     64  C   UNL     1       6.783   4.836  -6.660  1.00  0.00     0.055 A 
ATOM     65  C   UNL     1       8.553   5.029  -8.280  1.00  0.00     0.041 A 
ATOM     66  F   UNL     1       9.269   3.131  -9.459  1.00  0.00    -0.206 F 
ATOM     67  C   UNL     1       7.693   5.629  -7.365  1.00  0.00     0.022 A 
BRANCH  64  68
ATOM     68  S   UNL     1       5.592   5.660  -5.568  1.00  0.00     0.124 S 
ATOM     69  O   UNL     1       6.418   6.644  -4.872  1.00  0.00    -0.237 OA
ATOM     70  O   UNL     1       4.644   6.219  -6.529  1.00  0.00    -0.237 OA
ATOM     71  O   UNL     1       5.072   4.583  -4.731  1.00  0.00    -0.744 OA
ENDBRANCH  64  68
ENDBRANCH  38  61
ENDBRANCH  12  13
ENDBRANCH   5   7
ENDBRANCH   2   3
ENDBRANCH   1   2
BRANCH   1  72
ATOM     72  C   UNL     1       4.110   3.524   1.253  1.00  0.00     0.002 C 
BRANCH  72  73
ATOM     73  C   UNL     1       4.690   3.506   2.673  1.00  0.00     0.002 C 
BRANCH  73  74
ATOM     74  C   UNL     1       6.218   3.412   2.770  1.00  0.00     0.021 C 
BRANCH  74  75
ATOM     75  C   UNL     1       6.974   4.568   2.122  1.00  0.00     0.116 C 
BRANCH  75  76
ATOM     76  N   UNL     1       6.747   5.813   2.840  1.00  0.00    -0.351 N 
ATOM     77  C   UNL     1       7.646   6.706   3.334  1.00  0.00     0.270 C 
ATOM     78  H   UNL     1       5.801   6.043   2.990  1.00  0.00     0.163 HD
ATOM     79  O   UNL     1       7.259   7.644   4.032  1.00  0.00    -0.268 OA
BRANCH  77  80
ATOM     80  C   UNL     1       9.090   6.478   3.131  1.00  0.00     0.134 A 
ATOM     81  C   UNL     1       9.828   6.423   4.249  1.00  0.00     0.063 A 
ATOM     82  N   UNL     1       9.686   6.345   1.879  1.00  0.00    -0.207 N 
ATOM     83  C   UNL     1      11.290   6.229   4.038  1.00  0.00     0.075 A 
ATOM     84  C   UNL     1      11.068   6.085   1.773  1.00  0.00     0.166 A 
ATOM     85  N   UNL     1       9.082   6.411   0.675  1.00  0.00    -0.145 NA
ATOM     86  N   UNL     1      11.878   6.076   2.887  1.00  0.00    -0.228 NA
ATOM     87  C   UNL     1      11.280   5.834   0.430  1.00  0.00     0.069 A 
ATOM     88  C   UNL     1      10.015   6.048  -0.193  1.00  0.00     0.184 A 
ATOM     89  C   UNL     1      12.464   5.434  -0.211  1.00  0.00    -0.028 A 
ATOM     90  N   UNL     1       9.817   5.884  -1.517  1.00  0.00    -0.222 NA
ATOM     91  C   UNL     1      12.206   5.256  -1.589  1.00  0.00     0.038 A 
ATOM     92  C   UNL     1      10.931   5.474  -2.194  1.00  0.00     0.147 A 
BRANCH  83  93
ATOM     93  C   UNL     1      12.084   6.269   5.285  1.00  0.00     0.000 A 
ATOM     94  C   UNL     1      13.035   7.280   5.447  1.00  0.00     0.012 A 
ATOM     95  C   UNL     1      11.825   5.360   6.319  1.00  0.00     0.012 A 
ATOM     96  C   UNL     1      13.707   7.404   6.665  1.00  0.00     0.021 A 
ATOM     97  C   UNL     1      12.508   5.482   7.531  1.00  0.00     0.021 A 
ATOM     98  C   UNL     1      13.438   6.509   7.702  1.00  0.00     0.041 A 
ATOM     99  Cl  UNL     1      14.248   6.680   9.210  1.00  0.00    -0.084 Cl
ENDBRANCH  83  93
BRANCH  89 100
ATOM    100  C   UNL     1      13.763   5.235   0.503  1.00  0.00     0.020 C 
ATOM    101  C   UNL     1      15.018   4.775  -0.203  1.00  0.00     0.009 C 
ATOM    102  C   UNL     1      14.893   6.203   0.235  1.00  0.00     0.009 C 
ENDBRANCH  89 100
BRANCH  92 103
ATOM    103  C   UNL     1      10.794   5.258  -3.705  1.00  0.00     0.433 C 
ATOM    104  F   UNL     1       9.790   4.410  -4.042  1.00  0.00    -0.165 F 
ATOM    105  F   UNL     1      10.594   6.421  -4.385  1.00  0.00    -0.165 F 
ATOM    106  F   UNL     1      11.927   4.720  -4.256  1.00  0.00    -0.165 F 
ENDBRANCH  92 103
ENDBRANCH  77  80
ENDBRANCH  75  76
ENDBRANCH  74  75
ENDBRANCH  73  74
ENDBRANCH  72  73
ENDBRANCH   1  72
TORSDOF 19
