REMARK SMILES Cc1cc(C)cc(OCC(=O)Nc2ccc(O)cc2C(=O)NCCCCCCNC(=O)c2ccc(-c3c4nc(c(-c5cc(S(=O)(=O)[O-])ccc5F)c5ccc([nH]5)c(-c5cc(S(=O)(=O)[O-])ccc5F)c5nc(c(-c6cc(S(=O)(=O)[O-])ccc6F)c6ccc3[nH]6)C=C5)C=C4)cc2)c1
REMARK SMILES IDX 25 1 24 2 23 3 22 4 20 5 21 6 19 8 13 9 14 10 15 11 18 12
REMARK SMILES IDX 16 13 12 14 10 15 11 16 9 18 8 19 7 20 1 21 2 22 3 23 95 24
REMARK SMILES IDX 4 25 5 26 6 27 17 28 26 30 27 31 28 32 29 33 30 34 31 36
REMARK SMILES IDX 32 37 33 38 94 39 34 40 93 41 35 42 36 43 37 44 87 45 38 46
REMARK SMILES IDX 92 47 86 48 88 49 39 50 91 51 85 52 84 53 40 55 72 56 52 57
REMARK SMILES IDX 71 58 53 59 56 60 70 61 89 62 54 63 55 64 69 66 90 67 57 68
REMARK SMILES IDX 41 69 42 70 50 71 43 72 49 73 51 74 48 75 44 76 45 77 46 78
REMARK SMILES IDX 47 79 73 80 74 81 82 82 75 83 81 84 83 85 80 86 76 87 77 88
REMARK SMILES IDX 78 89 79 90 58 91 59 92 67 93 60 94 66 95 68 96 65 97 61 98
REMARK SMILES IDX 62 99 63 100 64 101
REMARK H PARENT 22 7 12 17 17 29 29 35 88 54 56 65
REMARK Flexibility Score: inf
ROOT
ATOM      1  C   UNL     1       5.458  -5.343  -3.601  1.00  0.00     0.002 C 
ENDROOT
BRANCH   1   2
ATOM      2  C   UNL     1       4.293  -5.585  -2.642  1.00  0.00     0.021 C 
BRANCH   2   3
ATOM      3  C   UNL     1       2.934  -5.031  -3.041  1.00  0.00     0.116 C 
BRANCH   3   4
ATOM      4  N   UNL     1       2.288  -5.597  -4.198  1.00  0.00    -0.352 N 
ATOM      5  C   UNL     1       0.956  -5.634  -4.559  1.00  0.00     0.253 C 
ATOM      6  O   UNL     1       0.704  -6.106  -5.672  1.00  0.00    -0.269 OA
ATOM      7  H   UNL     1       2.898  -6.029  -4.838  1.00  0.00     0.163 HD
BRANCH   5   8
ATOM      8  C   UNL     1      -0.204  -5.217  -3.693  1.00  0.00     0.067 A 
ATOM      9  C   UNL     1      -0.272  -4.155  -2.769  1.00  0.00     0.054 A 
ATOM     10  C   UNL     1      -1.461  -3.913  -2.058  1.00  0.00     0.031 A 
ATOM     11  C   UNL     1      -2.590  -4.704  -2.243  1.00  0.00     0.048 A 
ATOM     12  C   UNL     1      -1.363  -6.005  -3.865  1.00  0.00     0.062 A 
ATOM     13  C   UNL     1      -2.532  -5.745  -3.152  1.00  0.00     0.116 A 
BRANCH   9  14
ATOM     14  N   UNL     1       0.759  -3.225  -2.616  1.00  0.00    -0.322 N 
ATOM     15  C   UNL     1       1.399  -2.868  -1.454  1.00  0.00     0.262 C 
ATOM     16  O   UNL     1       2.427  -2.190  -1.561  1.00  0.00    -0.271 OA
ATOM     17  H   UNL     1       1.062  -2.772  -3.436  1.00  0.00     0.170 HD
BRANCH  15  18
ATOM     18  C   UNL     1       0.974  -3.455  -0.081  1.00  0.00     0.329 C 
BRANCH  18  19
ATOM     19  O   UNL     1      -0.061  -2.830   0.667  1.00  0.00    -0.484 OA
BRANCH  19  20
ATOM     20  C   UNL     1      -0.019  -1.463   0.624  1.00  0.00     0.120 A 
ATOM     21  C   UNL     1       2.433   1.396   0.214  1.00  0.00     0.044 C 
ATOM     22  C   UNL     1       1.145   0.637   0.344  1.00  0.00    -0.047 A 
ATOM     23  C   UNL     1      -0.086   1.271   0.133  1.00  0.00     0.007 A 
ATOM     24  C   UNL     1       1.162  -0.724   0.655  1.00  0.00     0.049 A 
ATOM     25  C   UNL     1      -1.287   0.551   0.206  1.00  0.00    -0.047 A 
ATOM     26  C   UNL     1      -2.596   1.247  -0.007  1.00  0.00     0.044 C 
ATOM     27  C   UNL     1      -1.244  -0.822   0.463  1.00  0.00     0.049 A 
ENDBRANCH  19  20
ENDBRANCH  18  19
ENDBRANCH  15  18
ENDBRANCH   9  14
BRANCH  13  28
ATOM     28  O   UNL     1      -3.619  -6.532  -3.388  1.00  0.00    -0.508 OA
ATOM     29  H   UNL     1      -4.418  -6.380  -2.923  1.00  0.00     0.293 HD
ENDBRANCH  13  28
ENDBRANCH   5   8
ENDBRANCH   3   4
ENDBRANCH   2   3
ENDBRANCH   1   2
BRANCH   1  30
ATOM     30  C   UNL     1       5.673  -3.921  -4.132  1.00  0.00     0.002 C 
BRANCH  30  31
ATOM     31  C   UNL     1       5.764  -2.780  -3.116  1.00  0.00     0.021 C 
BRANCH  31  32
ATOM     32  C   UNL     1       6.730  -2.967  -1.951  1.00  0.00     0.116 C 
BRANCH  32  33
ATOM     33  N   UNL     1       8.094  -3.223  -2.378  1.00  0.00    -0.352 N 
ATOM     34  C   UNL     1       9.265  -2.611  -2.004  1.00  0.00     0.251 C 
ATOM     35  H   UNL     1       8.195  -3.946  -3.038  1.00  0.00     0.163 HD
ATOM     36  O   UNL     1      10.304  -2.889  -2.604  1.00  0.00    -0.269 OA
BRANCH  34  37
ATOM     37  C   UNL     1       9.286  -1.606  -0.916  1.00  0.00     0.039 A 
ATOM     38  C   UNL     1      10.066  -0.458  -1.077  1.00  0.00     0.014 A 
ATOM     39  C   UNL     1       8.565  -1.794   0.267  1.00  0.00     0.014 A 
ATOM     40  C   UNL     1      10.077   0.525  -0.083  1.00  0.00     0.010 A 
ATOM     41  C   UNL     1       8.514  -0.778   1.221  1.00  0.00     0.010 A 
ATOM     42  C   UNL     1       9.274   0.391   1.061  1.00  0.00    -0.014 A 
BRANCH  42  43
ATOM     43  C   UNL     1       9.225   1.460   2.095  1.00  0.00     0.031 A 
ATOM     44  C   UNL     1       9.704   1.189   3.495  1.00  0.00     0.074 A 
ATOM     45  C   UNL     1       8.709   2.665   1.785  1.00  0.00     0.049 A 
ATOM     46  N   UNL     1       9.718   1.983   4.537  1.00  0.00    -0.248 NA
ATOM     47  C   UNL     1      10.205  -0.165   3.765  1.00  0.00     0.031 C 
ATOM     48  C   UNL     1       8.182   3.044   0.472  1.00  0.00     0.029 A 
ATOM     49  N   UNL     1       8.548   3.796   2.545  1.00  0.00    -0.354 N 
ATOM     50  C   UNL     1      10.224   1.223   5.587  1.00  0.00     0.074 A 
ATOM     51  C   UNL     1      10.421  -0.116   5.069  1.00  0.00     0.031 C 
ATOM     52  C   UNL     1       7.803   4.331   0.506  1.00  0.00     0.029 A 
ATOM     53  C   UNL     1       8.009   4.856   1.853  1.00  0.00     0.049 A 
ATOM     54  H   UNL     1       8.795   3.845   3.497  1.00  0.00     0.167 HD
ATOM     55  C   UNL     1      10.526   1.609   6.853  1.00  0.00     0.034 A 
ATOM     56  C   UNL     1       7.715   6.108   2.255  1.00  0.00     0.034 A 
ATOM     57  C   UNL     1      10.310   2.947   7.354  1.00  0.00     0.049 A 
ATOM     58  C   UNL     1       7.992   6.501   3.683  1.00  0.00     0.074 A 
ATOM     59  C   UNL     1      10.613   3.461   8.603  1.00  0.00     0.029 A 
ATOM     60  N   UNL     1       9.719   3.981   6.637  1.00  0.00    -0.354 N 
ATOM     61  N   UNL     1       8.518   5.787   4.652  1.00  0.00    -0.248 NA
ATOM     62  C   UNL     1       7.641   7.873   4.068  1.00  0.00     0.031 C 
ATOM     63  C   UNL     1      10.132   4.774   8.668  1.00  0.00     0.029 A 
ATOM     64  C   UNL     1       9.610   5.114   7.430  1.00  0.00     0.049 A 
ATOM     65  H   UNL     1       9.421   3.918   5.701  1.00  0.00     0.167 HD
ATOM     66  C   UNL     1       8.592   6.636   5.752  1.00  0.00     0.074 A 
ATOM     67  C   UNL     1       8.067   7.917   5.322  1.00  0.00     0.031 C 
ATOM     68  C   UNL     1       9.063   6.383   7.001  1.00  0.00     0.034 A 
BRANCH  55  69
ATOM     69  C   UNL     1      11.087   0.551   7.779  1.00  0.00     0.023 A 
ATOM     70  C   UNL     1      12.273  -0.141   7.472  1.00  0.00     0.031 A 
ATOM     71  C   UNL     1      10.396   0.174   8.944  1.00  0.00     0.131 A 
ATOM     72  C   UNL     1      12.663  -1.245   8.244  1.00  0.00     0.055 A 
ATOM     73  C   UNL     1      10.850  -0.858   9.770  1.00  0.00     0.041 A 
ATOM     74  F   UNL     1       9.248   0.780   9.287  1.00  0.00    -0.206 F 
ATOM     75  C   UNL     1      11.976  -1.591   9.408  1.00  0.00     0.022 A 
BRANCH  72  76
ATOM     76  S   UNL     1      13.948  -2.344   7.586  1.00  0.00     0.124 S 
ATOM     77  O   UNL     1      13.391  -2.702   6.283  1.00  0.00    -0.237 OA
ATOM     78  O   UNL     1      15.122  -1.480   7.564  1.00  0.00    -0.237 OA
ATOM     79  O   UNL     1      13.994  -3.437   8.555  1.00  0.00    -0.744 OA
ENDBRANCH  72  76
ENDBRANCH  55  69
BRANCH  56  80
ATOM     80  C   UNL     1       7.142   7.089   1.290  1.00  0.00     0.023 A 
ATOM     81  C   UNL     1       7.867   8.230   0.913  1.00  0.00     0.031 A 
ATOM     82  C   UNL     1       5.859   6.911   0.744  1.00  0.00     0.131 A 
ATOM     83  C   UNL     1       7.293   9.168   0.042  1.00  0.00     0.055 A 
ATOM     84  C   UNL     1       5.312   7.821  -0.163  1.00  0.00     0.041 A 
ATOM     85  F   UNL     1       5.124   5.835   1.068  1.00  0.00    -0.206 F 
ATOM     86  C   UNL     1       6.027   8.963  -0.511  1.00  0.00     0.022 A 
BRANCH  83  87
ATOM     87  S   UNL     1       8.202  10.697  -0.311  1.00  0.00     0.124 S 
ATOM     88  O   UNL     1       8.322  11.283   1.019  1.00  0.00    -0.237 OA
ATOM     89  O   UNL     1       9.434  10.188  -0.903  1.00  0.00    -0.237 OA
ATOM     90  O   UNL     1       7.320  11.412  -1.231  1.00  0.00    -0.744 OA
ENDBRANCH  83  87
ENDBRANCH  56  80
BRANCH  68  91
ATOM     91  C   UNL     1       9.066   7.534   7.981  1.00  0.00     0.023 A 
ATOM     92  C   UNL     1       7.875   8.124   8.439  1.00  0.00     0.031 A 
ATOM     93  C   UNL     1      10.284   8.056   8.454  1.00  0.00     0.131 A 
ATOM     94  C   UNL     1       7.928   9.238   9.292  1.00  0.00     0.055 A 
ATOM     95  C   UNL     1      10.329   9.119   9.357  1.00  0.00     0.041 A 
ATOM     96  F   UNL     1      11.454   7.537   8.048  1.00  0.00    -0.206 F 
ATOM     97  C   UNL     1       9.147   9.726   9.770  1.00  0.00     0.022 A 
BRANCH  94  98
ATOM     98  S   UNL     1       6.386  10.108   9.688  1.00  0.00     0.124 S 
ATOM     99  O   UNL     1       5.900  10.481   8.364  1.00  0.00    -0.237 OA
ATOM    100  O   UNL     1       5.617   9.081  10.384  1.00  0.00    -0.237 OA
ATOM    101  O   UNL     1       6.826  11.224  10.524  1.00  0.00    -0.744 OA
ENDBRANCH  94  98
ENDBRANCH  68  91
ENDBRANCH  42  43
ENDBRANCH  34  37
ENDBRANCH  32  33
ENDBRANCH  31  32
ENDBRANCH  30  31
ENDBRANCH   1  30
TORSDOF 21
