REMARK SMILES CCSc1nc(CC(=O)N[C@@H](C(=O)NCCCCCCNC(=O)c2ccc(-c3c4nc(c(-c5cc(S(=O)(=O)[O-])ccc5F)c5ccc([nH]5)c(-c5cc(S(=O)(=O)[O-])ccc5F)c5nc(c(-c6cc(S(=O)(=O)[O-])ccc6F)c6ccc3[nH]6)C=C5)C=C4)cc2)C2=C(C)N=N[C@@H]2C)cs1
REMARK SMILES IDX 16 1 15 2 14 3 12 4 13 5 11 7 10 8 8 9 9 10 7 12 6 13 4 14
REMARK SMILES IDX 5 15 95 16 94 17 3 18 2 19 1 20 87 21 88 22 92 23 89 24
REMARK SMILES IDX 90 25 91 26 93 27 17 28 18 29 19 30 20 31 21 32 22 33 23 35
REMARK SMILES IDX 24 36 25 37 86 38 26 39 85 40 27 41 28 42 29 43 79 44 30 45
REMARK SMILES IDX 84 46 78 47 80 48 31 49 83 50 77 51 76 52 32 54 64 55 44 56
REMARK SMILES IDX 63 57 45 58 48 59 62 60 81 61 46 62 47 63 61 65 82 66 49 67
REMARK SMILES IDX 33 68 34 69 42 70 35 71 41 72 43 73 40 74 36 75 37 76 38 77
REMARK SMILES IDX 39 78 65 79 66 80 74 81 67 82 73 83 75 84 72 85 68 86 69 87
REMARK SMILES IDX 70 88 71 89 50 90 51 91 59 92 52 93 58 94 60 95 57 96 53 97
REMARK SMILES IDX 54 98 55 99 56 100
REMARK H PARENT 14 6 10 11 21 34 80 53 48 64
REMARK Flexibility Score: inf
ROOT
ATOM      1  C   UNL     1       6.073  -0.546  -3.754  1.00  0.00     0.021 C 
ENDROOT
BRANCH   1   2
ATOM      2  C   UNL     1       5.092  -1.639  -3.360  1.00  0.00     0.116 C 
BRANCH   2   3
ATOM      3  N   UNL     1       4.406  -2.250  -4.474  1.00  0.00    -0.354 N 
ATOM      4  C   UNL     1       3.946  -3.533  -4.595  1.00  0.00     0.247 C 
ATOM      5  O   UNL     1       2.931  -3.654  -5.293  1.00  0.00    -0.272 OA
ATOM      6  H   UNL     1       4.247  -1.665  -5.250  1.00  0.00     0.163 HD
BRANCH   4   7
ATOM      7  C   UNL     1       4.599  -4.777  -3.860  1.00  0.00     0.202 C 
BRANCH   7   8
ATOM      8  N   UNL     1       6.005  -4.592  -3.503  1.00  0.00    -0.340 N 
ATOM      9  C   UNL     1       6.596  -4.448  -2.280  1.00  0.00     0.226 C 
ATOM     10  O   UNL     1       7.789  -4.130  -2.267  1.00  0.00    -0.275 OA
ATOM     11  H   UNL     1       6.625  -4.566  -4.268  1.00  0.00     0.164 HD
BRANCH   9  12
ATOM     12  C   UNL     1       5.841  -4.669  -0.981  1.00  0.00     0.157 C 
BRANCH  12  13
ATOM     13  C   UNL     1       4.934  -3.553  -0.580  1.00  0.00     0.062 A 
ATOM     14  C   UNL     1       2.906  -2.656  -0.375  1.00  0.00     0.150 A 
ATOM     15  N   UNL     1       3.588  -3.645  -0.911  1.00  0.00    -0.234 NA
ATOM     16  S   UNL     1       3.842  -1.538   0.521  1.00  0.00    -0.116 S 
ATOM     17  C   UNL     1       5.259  -2.434   0.163  1.00  0.00     0.092 A 
BRANCH  14  18
ATOM     18  S   UNL     1       1.163  -2.645  -0.507  1.00  0.00    -0.096 SA
BRANCH  18  19
ATOM     19  C   UNL     1       0.758  -0.958  -1.036  1.00  0.00     0.074 C 
ATOM     20  C   UNL     1       0.698   0.030   0.118  1.00  0.00     0.016 C 
ENDBRANCH  18  19
ENDBRANCH  14  18
ENDBRANCH  12  13
ENDBRANCH   9  12
ENDBRANCH   7   8
BRANCH   7  21
ATOM     21  C   UNL     1       4.540  -6.035  -4.696  1.00  0.00     0.011 C 
ATOM     22  C   UNL     1       4.756  -7.315  -4.357  1.00  0.00     0.064 C 
ATOM     23  C   UNL     1       4.121  -6.103  -6.135  1.00  0.00     0.156 C 
ATOM     24  C   UNL     1       5.172  -7.900  -3.055  1.00  0.00     0.069 C 
ATOM     25  N   UNL     1       4.541  -8.187  -5.395  1.00  0.00    -0.160 NA
ATOM     26  N   UNL     1       4.172  -7.565  -6.423  1.00  0.00    -0.181 NA
ATOM     27  C   UNL     1       5.053  -5.407  -7.118  1.00  0.00     0.040 C 
ENDBRANCH   7  21
ENDBRANCH   4   7
ENDBRANCH   2   3
ENDBRANCH   1   2
BRANCH   1  28
ATOM     28  C   UNL     1       5.424   0.801  -4.073  1.00  0.00     0.002 C 
BRANCH  28  29
ATOM     29  C   UNL     1       4.538   1.384  -2.965  1.00  0.00     0.002 C 
BRANCH  29  30
ATOM     30  C   UNL     1       5.193   1.501  -1.586  1.00  0.00     0.021 C 
BRANCH  30  31
ATOM     31  C   UNL     1       6.468   2.336  -1.539  1.00  0.00     0.116 C 
BRANCH  31  32
ATOM     32  N   UNL     1       6.247   3.697  -1.995  1.00  0.00    -0.352 N 
ATOM     33  C   UNL     1       6.516   4.888  -1.367  1.00  0.00     0.251 C 
ATOM     34  H   UNL     1       5.844   3.777  -2.890  1.00  0.00     0.163 HD
ATOM     35  O   UNL     1       6.066   5.929  -1.833  1.00  0.00    -0.269 OA
BRANCH  33  36
ATOM     36  C   UNL     1       7.322   4.910  -0.126  1.00  0.00     0.039 A 
ATOM     37  C   UNL     1       6.927   5.751   0.917  1.00  0.00     0.014 A 
ATOM     38  C   UNL     1       8.470   4.124   0.007  1.00  0.00     0.014 A 
ATOM     39  C   UNL     1       7.649   5.760   2.113  1.00  0.00     0.010 A 
ATOM     40  C   UNL     1       9.142   4.075   1.227  1.00  0.00     0.010 A 
ATOM     41  C   UNL     1       8.743   4.897   2.292  1.00  0.00    -0.014 A 
BRANCH  41  42
ATOM     42  C   UNL     1       9.481   4.848   3.582  1.00  0.00     0.031 A 
ATOM     43  C   UNL     1      10.934   5.238   3.636  1.00  0.00     0.074 A 
ATOM     44  C   UNL     1       8.856   4.405   4.691  1.00  0.00     0.049 A 
ATOM     45  N   UNL     1      11.764   5.199   4.647  1.00  0.00    -0.248 NA
ATOM     46  C   UNL     1      11.541   5.705   2.380  1.00  0.00     0.031 C 
ATOM     47  C   UNL     1       7.460   3.967   4.755  1.00  0.00     0.029 A 
ATOM     48  N   UNL     1       9.311   4.243   5.976  1.00  0.00    -0.354 N 
ATOM     49  C   UNL     1      12.991   5.625   4.149  1.00  0.00     0.074 A 
ATOM     50  C   UNL     1      12.809   5.855   2.732  1.00  0.00     0.031 C 
ATOM     51  C   UNL     1       7.167   3.612   6.016  1.00  0.00     0.029 A 
ATOM     52  C   UNL     1       8.363   3.745   6.841  1.00  0.00     0.049 A 
ATOM     53  H   UNL     1      10.230   4.462   6.254  1.00  0.00     0.167 HD
ATOM     54  C   UNL     1      14.155   5.825   4.816  1.00  0.00     0.034 A 
ATOM     55  C   UNL     1       8.451   3.417   8.146  1.00  0.00     0.034 A 
ATOM     56  C   UNL     1      14.314   5.600   6.232  1.00  0.00     0.049 A 
ATOM     57  C   UNL     1       9.765   3.618   8.859  1.00  0.00     0.074 A 
ATOM     58  C   UNL     1      15.431   5.825   7.019  1.00  0.00     0.029 A 
ATOM     59  N   UNL     1      13.334   5.090   7.075  1.00  0.00    -0.354 N 
ATOM     60  N   UNL     1      10.902   4.073   8.383  1.00  0.00    -0.248 NA
ATOM     61  C   UNL     1       9.805   3.274  10.286  1.00  0.00     0.031 C 
ATOM     62  C   UNL     1      15.153   5.377   8.314  1.00  0.00     0.029 A 
ATOM     63  C   UNL     1      13.834   4.958   8.362  1.00  0.00     0.049 A 
ATOM     64  H   UNL     1      12.418   4.857   6.798  1.00  0.00     0.167 HD
ATOM     65  C   UNL     1      11.781   4.101   9.463  1.00  0.00     0.074 A 
ATOM     66  C   UNL     1      11.037   3.634  10.614  1.00  0.00     0.031 C 
ATOM     67  C   UNL     1      13.084   4.481   9.501  1.00  0.00     0.034 A 
BRANCH  54  68
ATOM     68  C   UNL     1      15.351   6.284   4.015  1.00  0.00     0.023 A 
ATOM     69  C   UNL     1      15.363   7.516   3.338  1.00  0.00     0.031 A 
ATOM     70  C   UNL     1      16.495   5.471   3.916  1.00  0.00     0.131 A 
ATOM     71  C   UNL     1      16.461   7.867   2.538  1.00  0.00     0.055 A 
ATOM     72  C   UNL     1      17.619   5.864   3.187  1.00  0.00     0.041 A 
ATOM     73  F   UNL     1      16.536   4.272   4.520  1.00  0.00    -0.206 F 
ATOM     74  C   UNL     1      17.601   7.063   2.480  1.00  0.00     0.022 A 
BRANCH  71  75
ATOM     75  S   UNL     1      16.319   9.321   1.463  1.00  0.00     0.124 S 
ATOM     76  O   UNL     1      15.159   8.971   0.646  1.00  0.00    -0.237 OA
ATOM     77  O   UNL     1      16.124  10.404   2.420  1.00  0.00    -0.237 OA
ATOM     78  O   UNL     1      17.593   9.343   0.746  1.00  0.00    -0.744 OA
ENDBRANCH  71  75
ENDBRANCH  54  68
BRANCH  55  79
ATOM     79  C   UNL     1       7.274   2.846   8.866  1.00  0.00     0.023 A 
ATOM     80  C   UNL     1       6.694   3.518   9.954  1.00  0.00     0.031 A 
ATOM     81  C   UNL     1       6.744   1.593   8.509  1.00  0.00     0.131 A 
ATOM     82  C   UNL     1       5.658   2.910  10.681  1.00  0.00     0.055 A 
ATOM     83  C   UNL     1       5.672   1.021   9.196  1.00  0.00     0.041 A 
ATOM     84  F   UNL     1       7.257   0.907   7.475  1.00  0.00    -0.206 F 
ATOM     85  C   UNL     1       5.133   1.673  10.300  1.00  0.00     0.022 A 
BRANCH  82  86
ATOM     86  S   UNL     1       5.075   3.714  12.199  1.00  0.00     0.124 S 
ATOM     87  O   UNL     1       6.306   3.811  12.974  1.00  0.00    -0.237 OA
ATOM     88  O   UNL     1       4.537   4.970  11.688  1.00  0.00    -0.237 OA
ATOM     89  O   UNL     1       4.081   2.777  12.719  1.00  0.00    -0.744 OA
ENDBRANCH  82  86
ENDBRANCH  55  79
BRANCH  67  90
ATOM     90  C   UNL     1      13.770   4.455  10.846  1.00  0.00     0.023 A 
ATOM     91  C   UNL     1      14.002   3.254  11.539  1.00  0.00     0.031 A 
ATOM     92  C   UNL     1      14.191   5.656  11.447  1.00  0.00     0.131 A 
ATOM     93  C   UNL     1      14.582   3.285  12.816  1.00  0.00     0.055 A 
ATOM     94  C   UNL     1      14.830   5.674  12.687  1.00  0.00     0.041 A 
ATOM     95  F   UNL     1      13.992   6.834  10.834  1.00  0.00    -0.206 F 
ATOM     96  C   UNL     1      15.015   4.485  13.386  1.00  0.00     0.022 A 
BRANCH  93  97
ATOM     97  S   UNL     1      14.671   1.744  13.770  1.00  0.00     0.124 S 
ATOM     98  O   UNL     1      13.268   1.348  13.835  1.00  0.00    -0.237 OA
ATOM     99  O   UNL     1      15.530   0.910  12.936  1.00  0.00    -0.237 OA
ATOM    100  O   UNL     1      15.258   2.162  15.042  1.00  0.00    -0.744 OA
ENDBRANCH  93  97
ENDBRANCH  67  90
ENDBRANCH  41  42
ENDBRANCH  33  36
ENDBRANCH  31  32
ENDBRANCH  30  31
ENDBRANCH  29  30
ENDBRANCH  28  29
ENDBRANCH   1  28
TORSDOF 22
