REMARK SMILES N#CCOc1ccc2[nH]cc([C@H](C(=O)NCCCCCCNC(=O)c3ccc(-c4c5nc(c(-c6cc(S(=O)(=O)[O-])ccc6F)c6ccc([nH]6)c(-c6cc(S(=O)(=O)[O-])ccc6F)c6nc(c(-c7cc(S(=O)(=O)[O-])ccc7F)c7ccc4[nH]7)C=C6)C=C5)cc3)[NH+]3CC[NH+]([C@@H]4CCS(=O)(=O)C4)CC3)c2c1
REMARK SMILES IDX 18 1 17 2 16 3 15 4 13 5 14 6 12 8 11 9 5 10 6 11 102 12
REMARK SMILES IDX 7 13 101 14 8 15 9 16 10 17 4 19 3 20 2 21 1 22 88 23 89 24
REMARK SMILES IDX 100 25 90 27 99 28 91 29 92 31 93 32 98 33 94 34 95 35 96 36
REMARK SMILES IDX 97 37 19 38 20 39 21 40 22 41 23 42 24 44 25 45 26 46 87 47
REMARK SMILES IDX 27 48 86 49 28 50 29 51 30 52 80 53 31 54 85 55 79 56 81 57
REMARK SMILES IDX 32 58 84 59 78 60 77 61 33 63 65 64 45 65 64 66 46 67 49 68
REMARK SMILES IDX 63 69 82 70 47 71 48 72 62 74 83 75 50 76 34 77 35 78 43 79
REMARK SMILES IDX 36 80 42 81 44 82 41 83 37 84 38 85 39 86 40 87 66 88 67 89
REMARK SMILES IDX 75 90 68 91 74 92 76 93 73 94 69 95 70 96 71 97 72 98 51 99
REMARK SMILES IDX 52 100 60 101 53 102 59 103 61 104 58 105 54 106 55 107
REMARK SMILES IDX 56 108 57 109
REMARK H PARENT 15 7 9 18 88 26 91 30 22 43 81 62 49 73
REMARK Flexibility Score: inf
ROOT
ATOM      1  C   UNL     1       3.205   2.330  -2.851  1.00  0.00     0.002 C 
ENDROOT
BRANCH   1   2
ATOM      2  C   UNL     1       4.723   2.517  -2.957  1.00  0.00     0.021 C 
BRANCH   2   3
ATOM      3  C   UNL     1       5.532   1.215  -3.060  1.00  0.00     0.116 C 
BRANCH   3   4
ATOM      4  N   UNL     1       4.987   0.322  -4.066  1.00  0.00    -0.351 N 
ATOM      5  C   UNL     1       5.304   0.184  -5.389  1.00  0.00     0.283 C 
ATOM      6  O   UNL     1       4.369  -0.180  -6.108  1.00  0.00    -0.268 OA
ATOM      7  H   UNL     1       4.277  -0.280  -3.745  1.00  0.00     0.163 HD
BRANCH   5   8
ATOM      8  C   UNL     1       6.710   0.561  -5.912  1.00  0.00     0.308 C 
BRANCH   8   9
ATOM      9  C   UNL     1       7.514  -0.545  -6.556  1.00  0.00     0.045 A 
ATOM     10  C   UNL     1       5.598  -3.316  -8.333  1.00  0.00     0.121 A 
ATOM     11  C   UNL     1       6.683  -3.699  -9.126  1.00  0.00     0.048 A 
ATOM     12  C   UNL     1       5.802  -2.355  -7.362  1.00  0.00     0.057 A 
ATOM     13  C   UNL     1       7.987  -3.252  -8.877  1.00  0.00     0.030 A 
ATOM     14  C   UNL     1       7.056  -1.734  -7.208  1.00  0.00     0.013 A 
ATOM     15  C   UNL     1       8.135  -2.247  -7.928  1.00  0.00     0.046 A 
ATOM     16  N   UNL     1       9.252  -1.541  -7.558  1.00  0.00    -0.361 N 
ATOM     17  C   UNL     1       8.889  -0.497  -6.756  1.00  0.00     0.094 A 
ATOM     18  H   UNL     1      10.174  -1.754  -7.829  1.00  0.00     0.166 HD
BRANCH  10  19
ATOM     19  O   UNL     1       4.272  -3.648  -8.526  1.00  0.00    -0.479 OA
BRANCH  19  20
ATOM     20  C   UNL     1       3.936  -5.048  -8.399  1.00  0.00     0.349 C 
BRANCH  20  21
ATOM     21  C   UNL     1       4.759  -5.779  -9.446  1.00  0.00     0.104 C 
ATOM     22  N   UNL     1       5.442  -6.386 -10.315  1.00  0.00    -0.195 NA
ENDBRANCH  20  21
ENDBRANCH  19  20
ENDBRANCH  10  19
ENDBRANCH   8   9
BRANCH   8  23
ATOM     23  N   UNL     1       6.705   1.739  -6.818  1.00  0.00    -0.312 N 
ATOM     24  C   UNL     1       6.210   1.595  -8.199  1.00  0.00     0.325 C 
ATOM     25  C   UNL     1       6.138   2.916  -6.179  1.00  0.00     0.325 C 
ATOM     26  H   UNL     1       7.707   1.852  -6.974  1.00  0.00     0.349 HD
ATOM     27  C   UNL     1       4.764   2.067  -8.538  1.00  0.00     0.324 C 
ATOM     28  C   UNL     1       4.617   3.076  -6.373  1.00  0.00     0.324 C 
ATOM     29  N   UNL     1       4.223   3.201  -7.767  1.00  0.00    -0.322 N 
ATOM     30  H   UNL     1       3.207   3.116  -7.804  1.00  0.00     0.348 HD
BRANCH  29  31
ATOM     31  C   UNL     1       4.273   4.535  -8.369  1.00  0.00     0.200 C 
ATOM     32  C   UNL     1       5.623   5.255  -8.544  1.00  0.00     0.082 C 
ATOM     33  C   UNL     1       3.331   5.529  -7.658  1.00  0.00     0.201 C 
ATOM     34  C   UNL     1       5.910   6.166  -7.354  1.00  0.00     0.143 C 
ATOM     35  S   UNL     1       4.340   6.601  -6.651  1.00  0.00     0.156 S 
ATOM     36  O   UNL     1       4.322   6.143  -5.272  1.00  0.00    -0.229 OA
ATOM     37  O   UNL     1       4.047   7.973  -6.996  1.00  0.00    -0.229 OA
ENDBRANCH  29  31
ENDBRANCH   8  23
ENDBRANCH   5   8
ENDBRANCH   3   4
ENDBRANCH   2   3
ENDBRANCH   1   2
BRANCH   1  38
ATOM     38  C   UNL     1       2.767   1.586  -1.591  1.00  0.00     0.002 C 
BRANCH  38  39
ATOM     39  C   UNL     1       3.329   2.181  -0.300  1.00  0.00     0.021 C 
BRANCH  39  40
ATOM     40  C   UNL     1       3.001   3.658  -0.109  1.00  0.00     0.116 C 
BRANCH  40  41
ATOM     41  N   UNL     1       1.585   3.850   0.150  1.00  0.00    -0.352 N 
ATOM     42  C   UNL     1       0.994   4.380   1.271  1.00  0.00     0.251 C 
ATOM     43  H   UNL     1       0.973   3.566  -0.567  1.00  0.00     0.163 HD
ATOM     44  O   UNL     1      -0.205   4.220   1.470  1.00  0.00    -0.269 OA
BRANCH  42  45
ATOM     45  C   UNL     1       1.830   5.120   2.239  1.00  0.00     0.039 A 
ATOM     46  C   UNL     1       1.700   4.845   3.600  1.00  0.00     0.014 A 
ATOM     47  C   UNL     1       2.758   6.069   1.795  1.00  0.00     0.014 A 
ATOM     48  C   UNL     1       2.538   5.486   4.514  1.00  0.00     0.010 A 
ATOM     49  C   UNL     1       3.646   6.645   2.699  1.00  0.00     0.010 A 
ATOM     50  C   UNL     1       3.540   6.367   4.070  1.00  0.00    -0.014 A 
BRANCH  50  51
ATOM     51  C   UNL     1       4.476   7.011   5.030  1.00  0.00     0.031 A 
ATOM     52  C   UNL     1       4.486   8.509   5.180  1.00  0.00     0.074 A 
ATOM     53  C   UNL     1       5.344   6.252   5.729  1.00  0.00     0.049 A 
ATOM     54  N   UNL     1       5.261   9.260   5.920  1.00  0.00    -0.248 NA
ATOM     55  C   UNL     1       3.516   9.263   4.372  1.00  0.00     0.031 C 
ATOM     56  C   UNL     1       5.452   4.794   5.640  1.00  0.00     0.029 A 
ATOM     57  N   UNL     1       6.304   6.598   6.647  1.00  0.00    -0.354 N 
ATOM     58  C   UNL     1       4.880  10.572   5.659  1.00  0.00     0.074 A 
ATOM     59  C   UNL     1       3.848  10.515   4.647  1.00  0.00     0.031 C 
ATOM     60  C   UNL     1       6.401   4.370   6.488  1.00  0.00     0.029 A 
ATOM     61  C   UNL     1       7.010   5.524   7.142  1.00  0.00     0.049 A 
ATOM     62  H   UNL     1       6.473   7.527   6.926  1.00  0.00     0.167 HD
ATOM     63  C   UNL     1       5.336  11.716   6.227  1.00  0.00     0.034 A 
ATOM     64  C   UNL     1       8.042   5.476   8.009  1.00  0.00     0.034 A 
ATOM     65  C   UNL     1       6.361  11.752   7.242  1.00  0.00     0.049 A 
ATOM     66  C   UNL     1       8.554   6.766   8.600  1.00  0.00     0.074 A 
ATOM     67  C   UNL     1       6.855  12.850   7.926  1.00  0.00     0.029 A 
ATOM     68  N   UNL     1       7.059  10.647   7.711  1.00  0.00    -0.354 N 
ATOM     69  N   UNL     1       8.142   7.995   8.385  1.00  0.00    -0.248 NA
ATOM     70  C   UNL     1       9.661   6.663   9.559  1.00  0.00     0.031 C 
ATOM     71  C   UNL     1       7.906  12.421   8.741  1.00  0.00     0.029 A 
ATOM     72  C   UNL     1       8.007  11.043   8.643  1.00  0.00     0.049 A 
ATOM     73  H   UNL     1       6.904   9.718   7.424  1.00  0.00     0.167 HD
ATOM     74  C   UNL     1       8.919   8.805   9.210  1.00  0.00     0.074 A 
ATOM     75  C   UNL     1       9.809   7.924   9.937  1.00  0.00     0.031 C 
ATOM     76  C   UNL     1       8.896  10.155   9.356  1.00  0.00     0.034 A 
BRANCH  63  77
ATOM     77  C   UNL     1       4.752  13.022   5.740  1.00  0.00     0.023 A 
ATOM     78  C   UNL     1       3.389  13.330   5.894  1.00  0.00     0.031 A 
ATOM     79  C   UNL     1       5.573  13.973   5.108  1.00  0.00     0.131 A 
ATOM     80  C   UNL     1       2.876  14.524   5.365  1.00  0.00     0.055 A 
ATOM     81  C   UNL     1       5.072  15.197   4.658  1.00  0.00     0.041 A 
ATOM     82  F   UNL     1       6.878  13.728   4.911  1.00  0.00    -0.206 F 
ATOM     83  C   UNL     1       3.713  15.472   4.773  1.00  0.00     0.022 A 
BRANCH  80  84
ATOM     84  S   UNL     1       1.077  14.759   5.339  1.00  0.00     0.124 S 
ATOM     85  O   UNL     1       0.640  13.603   4.561  1.00  0.00    -0.237 OA
ATOM     86  O   UNL     1       0.736  14.740   6.757  1.00  0.00    -0.237 OA
ATOM     87  O   UNL     1       0.910  16.049   4.674  1.00  0.00    -0.744 OA
ENDBRANCH  80  84
ENDBRANCH  63  77
BRANCH  64  88
ATOM     88  C   UNL     1       8.681   4.172   8.357  1.00  0.00     0.023 A 
ATOM     89  C   UNL     1       8.681   3.691   9.676  1.00  0.00     0.031 A 
ATOM     90  C   UNL     1       9.354   3.414   7.382  1.00  0.00     0.131 A 
ATOM     91  C   UNL     1       9.389   2.521   9.995  1.00  0.00     0.055 A 
ATOM     92  C   UNL     1      10.001   2.216   7.692  1.00  0.00     0.041 A 
ATOM     93  F   UNL     1       9.388   3.825   6.104  1.00  0.00    -0.206 F 
ATOM     94  C   UNL     1      10.035   1.772   9.009  1.00  0.00     0.022 A 
BRANCH  91  95
ATOM     95  S   UNL     1       9.548   2.051  11.740  1.00  0.00     0.124 S 
ATOM     96  O   UNL     1      10.162   3.243  12.312  1.00  0.00    -0.237 OA
ATOM     97  O   UNL     1       8.161   1.800  12.114  1.00  0.00    -0.237 OA
ATOM     98  O   UNL     1      10.404   0.867  11.696  1.00  0.00    -0.744 OA
ENDBRANCH  91  95
ENDBRANCH  64  88
BRANCH  76  99
ATOM     99  C   UNL     1       9.829  10.754  10.382  1.00  0.00     0.023 A 
ATOM    100  C   UNL     1      11.227  10.692  10.242  1.00  0.00     0.031 A 
ATOM    101  C   UNL     1       9.308  11.392  11.522  1.00  0.00     0.131 A 
ATOM    102  C   UNL     1      12.054  11.204  11.254  1.00  0.00     0.055 A 
ATOM    103  C   UNL     1      10.135  11.963  12.490  1.00  0.00     0.041 A 
ATOM    104  F   UNL     1       7.981  11.477  11.712  1.00  0.00    -0.206 F 
ATOM    105  C   UNL     1      11.517  11.857  12.367  1.00  0.00     0.022 A 
BRANCH 102 106
ATOM    106  S   UNL     1      13.841  10.911  11.150  1.00  0.00     0.124 S 
ATOM    107  O   UNL     1      13.906   9.454  11.095  1.00  0.00    -0.237 OA
ATOM    108  O   UNL     1      14.201  11.611   9.922  1.00  0.00    -0.237 OA
ATOM    109  O   UNL     1      14.359  11.508  12.380  1.00  0.00    -0.744 OA
ENDBRANCH 102 106
ENDBRANCH  76  99
ENDBRANCH  50  51
ENDBRANCH  42  45
ENDBRANCH  40  41
ENDBRANCH  39  40
ENDBRANCH  38  39
ENDBRANCH   1  38
TORSDOF 22
