REMARK SMILES C[C@@H](C(=O)NCCCCCCNC(=O)c1ccc(-c2c3nc(c(-c4cc(S(=O)(=O)[O-])ccc4F)c4ccc([nH]4)c(-c4cc(S(=O)(=O)[O-])ccc4F)c4nc(c(-c5cc(S(=O)(=O)[O-])ccc5F)c5ccc2[nH]5)C=C4)C=C3)cc1)N(C)c1ccc(C(N)=O)nn1
REMARK SMILES IDX 8 1 7 2 6 3 5 4 3 5 4 6 2 8 1 9 78 10 79 11 80 12 81 13
REMARK SMILES IDX 88 14 82 15 87 16 83 17 84 18 85 19 86 20 9 23 10 24 11 25
REMARK SMILES IDX 12 26 13 27 14 29 15 30 16 31 77 32 17 33 76 34 18 35 19 36
REMARK SMILES IDX 20 37 70 38 21 39 75 40 69 41 71 42 22 43 74 44 68 45 67 46
REMARK SMILES IDX 23 48 55 49 35 50 54 51 36 52 39 53 53 54 72 55 37 56 38 57
REMARK SMILES IDX 52 59 73 60 40 61 24 62 25 63 33 64 26 65 32 66 34 67 31 68
REMARK SMILES IDX 27 69 28 70 29 71 30 72 56 73 57 74 65 75 58 76 64 77 66 78
REMARK SMILES IDX 63 79 59 80 60 81 61 82 62 83 41 84 42 85 50 86 43 87 49 88
REMARK SMILES IDX 51 89 48 90 44 91 45 92 46 93 47 94
REMARK H PARENT 5 7 85 21 85 22 12 28 71 47 39 58
REMARK Flexibility Score: inf
ROOT
ATOM      1  C   UNL     1       4.852  -2.191  -1.837  1.00  0.00     0.002 C 
ENDROOT
BRANCH   1   2
ATOM      2  C   UNL     1       4.096  -1.062  -1.120  1.00  0.00     0.021 C 
BRANCH   2   3
ATOM      3  C   UNL     1       3.278  -0.180  -2.064  1.00  0.00     0.116 C 
BRANCH   3   4
ATOM      4  N   UNL     1       2.143  -0.912  -2.583  1.00  0.00    -0.354 N 
ATOM      5  C   UNL     1       0.826  -0.876  -2.224  1.00  0.00     0.242 C 
ATOM      6  O   UNL     1       0.090  -1.682  -2.799  1.00  0.00    -0.273 OA
ATOM      7  H   UNL     1       2.354  -1.537  -3.314  1.00  0.00     0.163 HD
BRANCH   5   8
ATOM      8  C   UNL     1       0.313   0.193  -1.209  1.00  0.00     0.169 C 
ATOM      9  C   UNL     1       0.960   0.121   0.174  1.00  0.00     0.042 C 
BRANCH   8  10
ATOM     10  N   UNL     1      -1.177   0.226  -1.106  1.00  0.00    -0.346 N 
ATOM     11  C   UNL     1      -1.865   1.112  -2.042  1.00  0.00     0.146 C 
BRANCH  10  12
ATOM     12  C   UNL     1      -1.894  -0.934  -0.787  1.00  0.00     0.151 A 
ATOM     13  C   UNL     1      -1.595  -1.690   0.344  1.00  0.00     0.051 A 
ATOM     14  N   UNL     1      -2.935  -1.335  -1.560  1.00  0.00    -0.132 NA
ATOM     15  C   UNL     1      -2.288  -2.865   0.628  1.00  0.00     0.040 A 
ATOM     16  N   UNL     1      -3.632  -2.506  -1.304  1.00  0.00    -0.143 NA
ATOM     17  C   UNL     1      -3.289  -3.252  -0.234  1.00  0.00     0.150 A 
BRANCH  17  18
ATOM     18  C   UNL     1      -4.049  -4.509  -0.001  1.00  0.00     0.269 C 
ATOM     19  N   UNL     1      -4.985  -4.839  -0.941  1.00  0.00    -0.364 N 
ATOM     20  O   UNL     1      -3.852  -5.223   0.979  1.00  0.00    -0.268 OA
ATOM     21  H   UNL     1      -5.128  -4.254  -1.720  1.00  0.00     0.160 HD
ATOM     22  H   UNL     1      -5.516  -5.662  -0.839  1.00  0.00     0.160 HD
ENDBRANCH  17  18
ENDBRANCH  10  12
ENDBRANCH   8  10
ENDBRANCH   5   8
ENDBRANCH   3   4
ENDBRANCH   2   3
ENDBRANCH   1   2
BRANCH   1  23
ATOM     23  C   UNL     1       5.828  -1.723  -2.922  1.00  0.00     0.002 C 
BRANCH  23  24
ATOM     24  C   UNL     1       6.865  -0.700  -2.452  1.00  0.00     0.021 C 
BRANCH  24  25
ATOM     25  C   UNL     1       7.785  -1.207  -1.349  1.00  0.00     0.116 C 
BRANCH  25  26
ATOM     26  N   UNL     1       8.617  -2.306  -1.808  1.00  0.00    -0.352 N 
ATOM     27  C   UNL     1       9.981  -2.440  -1.754  1.00  0.00     0.251 C 
ATOM     28  H   UNL     1       8.133  -3.061  -2.216  1.00  0.00     0.163 HD
ATOM     29  O   UNL     1      10.530  -3.320  -2.412  1.00  0.00    -0.269 OA
BRANCH  27  30
ATOM     30  C   UNL     1      10.782  -1.518  -0.918  1.00  0.00     0.039 A 
ATOM     31  C   UNL     1      12.007  -1.056  -1.404  1.00  0.00     0.014 A 
ATOM     32  C   UNL     1      10.342  -1.135   0.352  1.00  0.00     0.014 A 
ATOM     33  C   UNL     1      12.777  -0.189  -0.625  1.00  0.00     0.010 A 
ATOM     34  C   UNL     1      11.067  -0.202   1.087  1.00  0.00     0.010 A 
ATOM     35  C   UNL     1      12.307   0.259   0.620  1.00  0.00    -0.014 A 
BRANCH  35  36
ATOM     36  C   UNL     1      13.129   1.158   1.472  1.00  0.00     0.031 A 
ATOM     37  C   UNL     1      13.615   0.677   2.816  1.00  0.00     0.074 A 
ATOM     38  C   UNL     1      13.411   2.408   1.056  1.00  0.00     0.049 A 
ATOM     39  N   UNL     1      14.314   1.312   3.721  1.00  0.00    -0.248 NA
ATOM     40  C   UNL     1      13.234  -0.689   3.206  1.00  0.00     0.031 C 
ATOM     41  C   UNL     1      12.968   2.997  -0.209  1.00  0.00     0.029 A 
ATOM     42  N   UNL     1      14.141   3.408   1.649  1.00  0.00    -0.354 N 
ATOM     43  C   UNL     1      14.440   0.431   4.791  1.00  0.00     0.074 A 
ATOM     44  C   UNL     1      13.683  -0.753   4.449  1.00  0.00     0.031 C 
ATOM     45  C   UNL     1      13.471   4.238  -0.316  1.00  0.00     0.029 A 
ATOM     46  C   UNL     1      14.230   4.553   0.891  1.00  0.00     0.049 A 
ATOM     47  H   UNL     1      14.562   3.314   2.534  1.00  0.00     0.167 HD
ATOM     48  C   UNL     1      15.144   0.584   5.940  1.00  0.00     0.034 A 
ATOM     49  C   UNL     1      14.852   5.722   1.142  1.00  0.00     0.034 A 
ATOM     50  C   UNL     1      15.909   1.766   6.254  1.00  0.00     0.049 A 
ATOM     51  C   UNL     1      15.612   5.877   2.436  1.00  0.00     0.074 A 
ATOM     52  C   UNL     1      16.705   2.009   7.360  1.00  0.00     0.029 A 
ATOM     53  N   UNL     1      15.969   2.909   5.466  1.00  0.00    -0.354 N 
ATOM     54  N   UNL     1      15.765   5.014   3.416  1.00  0.00    -0.248 NA
ATOM     55  C   UNL     1      16.296   7.157   2.650  1.00  0.00     0.031 C 
ATOM     56  C   UNL     1      17.177   3.323   7.281  1.00  0.00     0.029 A 
ATOM     57  C   UNL     1      16.759   3.870   6.079  1.00  0.00     0.049 A 
ATOM     58  H   UNL     1      15.516   3.021   4.599  1.00  0.00     0.167 HD
ATOM     59  C   UNL     1      16.605   5.635   4.338  1.00  0.00     0.074 A 
ATOM     60  C   UNL     1      16.929   6.936   3.791  1.00  0.00     0.031 C 
ATOM     61  C   UNL     1      17.074   5.167   5.524  1.00  0.00     0.034 A 
BRANCH  48  62
ATOM     62  C   UNL     1      15.087  -0.541   6.949  1.00  0.00     0.023 A 
ATOM     63  C   UNL     1      15.541  -1.837   6.645  1.00  0.00     0.031 A 
ATOM     64  C   UNL     1      14.536  -0.324   8.225  1.00  0.00     0.131 A 
ATOM     65  C   UNL     1      15.357  -2.880   7.566  1.00  0.00     0.055 A 
ATOM     66  C   UNL     1      14.443  -1.345   9.172  1.00  0.00     0.041 A 
ATOM     67  F   UNL     1      14.062   0.884   8.568  1.00  0.00    -0.206 F 
ATOM     68  C   UNL     1      14.838  -2.637   8.839  1.00  0.00     0.022 A 
BRANCH  65  69
ATOM     69  S   UNL     1      15.650  -4.584   7.015  1.00  0.00     0.124 S 
ATOM     70  O   UNL     1      14.733  -4.687   5.882  1.00  0.00    -0.237 OA
ATOM     71  O   UNL     1      17.071  -4.570   6.689  1.00  0.00    -0.237 OA
ATOM     72  O   UNL     1      15.283  -5.388   8.179  1.00  0.00    -0.744 OA
ENDBRANCH  65  69
ENDBRANCH  48  62
BRANCH  49  73
ATOM     73  C   UNL     1      14.799   6.838   0.153  1.00  0.00     0.023 A 
ATOM     74  C   UNL     1      15.969   7.314  -0.461  1.00  0.00     0.031 A 
ATOM     75  C   UNL     1      13.586   7.481  -0.155  1.00  0.00     0.131 A 
ATOM     76  C   UNL     1      15.911   8.435  -1.305  1.00  0.00     0.055 A 
ATOM     77  C   UNL     1      13.526   8.557  -1.042  1.00  0.00     0.041 A 
ATOM     78  F   UNL     1      12.437   7.065   0.400  1.00  0.00    -0.206 F 
ATOM     79  C   UNL     1      14.696   9.050  -1.611  1.00  0.00     0.022 A 
BRANCH  76  80
ATOM     80  S   UNL     1      17.466   9.140  -1.918  1.00  0.00     0.124 S 
ATOM     81  O   UNL     1      18.163   9.444  -0.674  1.00  0.00    -0.237 OA
ATOM     82  O   UNL     1      18.008   8.038  -2.706  1.00  0.00    -0.237 OA
ATOM     83  O   UNL     1      17.030  10.301  -2.691  1.00  0.00    -0.744 OA
ENDBRANCH  76  80
ENDBRANCH  49  73
BRANCH  61  84
ATOM     84  C   UNL     1      18.046   6.047   6.276  1.00  0.00     0.023 A 
ATOM     85  C   UNL     1      17.678   7.305   6.784  1.00  0.00     0.031 A 
ATOM     86  C   UNL     1      19.375   5.623   6.466  1.00  0.00     0.131 A 
ATOM     87  C   UNL     1      18.643   8.124   7.390  1.00  0.00     0.055 A 
ATOM     88  C   UNL     1      20.311   6.410   7.137  1.00  0.00     0.041 A 
ATOM     89  F   UNL     1      19.786   4.433   6.000  1.00  0.00    -0.206 F 
ATOM     90  C   UNL     1      19.952   7.676   7.588  1.00  0.00     0.022 A 
BRANCH  87  91
ATOM     91  S   UNL     1      18.198   9.833   7.804  1.00  0.00     0.124 S 
ATOM     92  O   UNL     1      17.741  10.348   6.518  1.00  0.00    -0.237 OA
ATOM     93  O   UNL     1      17.166   9.648   8.819  1.00  0.00    -0.237 OA
ATOM     94  O   UNL     1      19.451  10.406   8.292  1.00  0.00    -0.744 OA
ENDBRANCH  87  91
ENDBRANCH  61  84
ENDBRANCH  35  36
ENDBRANCH  27  30
ENDBRANCH  25  26
ENDBRANCH  24  25
ENDBRANCH  23  24
ENDBRANCH   1  23
TORSDOF 19
