REMARK SMILES Cc1ccc(C)c(NS(=O)(=O)c2cc(C(=O)NCCCCCCNC(=O)c3ccc(-c4c5nc(c(-c6cc(S(=O)(=O)[O-])ccc6F)c6ccc([nH]6)c(-c6cc(S(=O)(=O)[O-])ccc6F)c6nc(c(-c7cc(S(=O)(=O)[O-])ccc7F)c7ccc4[nH]7)C=C6)C=C5)cc3)ccc2Cl)c1
REMARK SMILES IDX 20 1 19 2 18 3 17 4 15 5 16 6 14 8 12 9 13 10 92 11 91 12
REMARK SMILES IDX 93 13 90 14 9 15 10 16 11 17 8 18 7 20 1 21 2 22 3 23 94 24
REMARK SMILES IDX 4 25 5 26 6 27 21 28 22 29 23 30 24 31 25 32 26 34 27 35
REMARK SMILES IDX 28 36 89 37 29 38 88 39 30 40 31 41 32 42 82 43 33 44 87 45
REMARK SMILES IDX 81 46 83 47 34 48 86 49 80 50 79 51 35 53 67 54 47 55 66 56
REMARK SMILES IDX 48 57 51 58 65 59 84 60 49 61 50 62 64 64 85 65 52 66 36 67
REMARK SMILES IDX 37 68 45 69 38 70 44 71 46 72 43 73 39 74 40 75 41 76 42 77
REMARK SMILES IDX 68 78 69 79 77 80 70 81 76 82 78 83 75 84 71 85 72 86 73 87
REMARK SMILES IDX 74 88 53 89 54 90 62 91 55 92 61 93 63 94 60 95 56 96 57 97
REMARK SMILES IDX 58 98 59 99
REMARK H PARENT 17 7 8 19 24 33 83 52 51 63
REMARK Flexibility Score: inf
ROOT
ATOM      1  C   UNL     1      -8.847  -5.024   0.524  1.00  0.00     0.002 C 
ENDROOT
BRANCH   1   2
ATOM      2  C   UNL     1      -7.405  -4.560   0.773  1.00  0.00     0.021 C 
BRANCH   2   3
ATOM      3  C   UNL     1      -6.785  -3.762  -0.374  1.00  0.00     0.116 C 
BRANCH   3   4
ATOM      4  N   UNL     1      -7.264  -2.398  -0.426  1.00  0.00    -0.352 N 
ATOM      5  C   UNL     1      -6.716  -1.166  -0.197  1.00  0.00     0.251 C 
ATOM      6  O   UNL     1      -7.400  -0.207  -0.567  1.00  0.00    -0.269 OA
ATOM      7  H   UNL     1      -8.211  -2.343  -0.689  1.00  0.00     0.163 HD
BRANCH   5   8
ATOM      8  C   UNL     1      -5.389  -0.884   0.438  1.00  0.00     0.041 A 
ATOM      9  C   UNL     1      -3.743   0.871   0.976  1.00  0.00     0.107 A 
ATOM     10  C   UNL     1      -4.976   0.462   0.428  1.00  0.00     0.037 A 
ATOM     11  C   UNL     1      -2.974  -0.036   1.687  1.00  0.00     0.061 A 
ATOM     12  C   UNL     1      -3.343  -1.385   1.660  1.00  0.00     0.023 A 
ATOM     13  Cl  UNL     1      -1.637   0.401   2.681  1.00  0.00    -0.083 Cl
ATOM     14  C   UNL     1      -4.529  -1.807   1.032  1.00  0.00     0.015 A 
BRANCH   9  15
ATOM     15  S   UNL     1      -3.145   2.455   0.456  1.00  0.00     0.263 S 
ATOM     16  O   UNL     1      -3.310   3.369   1.556  1.00  0.00    -0.201 OA
ATOM     17  O   UNL     1      -3.765   2.748  -0.830  1.00  0.00    -0.201 OA
BRANCH  15  18
ATOM     18  N   UNL     1      -1.492   2.377   0.165  1.00  0.00    -0.279 N 
ATOM     19  H   UNL     1      -0.978   3.195   0.354  1.00  0.00     0.180 HD
BRANCH  18  20
ATOM     20  C   UNL     1      -0.742   1.257  -0.328  1.00  0.00     0.052 A 
ATOM     21  C   UNL     1       2.873   0.181   0.337  1.00  0.00     0.044 C 
ATOM     22  C   UNL     1       1.457   0.166  -0.154  1.00  0.00    -0.049 A 
ATOM     23  C   UNL     1       0.957  -0.922  -0.859  1.00  0.00     0.004 A 
ATOM     24  C   UNL     1       0.591   1.227   0.132  1.00  0.00     0.030 A 
ATOM     25  C   UNL     1      -0.325  -0.862  -1.405  1.00  0.00     0.006 A 
ATOM     26  C   UNL     1      -1.154   0.266  -1.229  1.00  0.00    -0.027 A 
ATOM     27  C   UNL     1      -2.392   0.324  -2.073  1.00  0.00     0.046 C 
ENDBRANCH  18  20
ENDBRANCH  15  18
ENDBRANCH   9  15
ENDBRANCH   5   8
ENDBRANCH   3   4
ENDBRANCH   2   3
ENDBRANCH   1   2
BRANCH   1  28
ATOM     28  C   UNL     1      -9.124  -5.871  -0.731  1.00  0.00     0.002 C 
BRANCH  28  29
ATOM     29  C   UNL     1      -8.113  -6.925  -1.224  1.00  0.00     0.021 C 
BRANCH  29  30
ATOM     30  C   UNL     1      -7.944  -8.259  -0.486  1.00  0.00     0.116 C 
BRANCH  30  31
ATOM     31  N   UNL     1      -9.199  -8.924  -0.148  1.00  0.00    -0.352 N 
ATOM     32  C   UNL     1      -9.681  -9.476   1.025  1.00  0.00     0.251 C 
ATOM     33  H   UNL     1      -9.825  -8.994  -0.904  1.00  0.00     0.163 HD
ATOM     34  O   UNL     1     -10.629 -10.257   0.956  1.00  0.00    -0.269 OA
BRANCH  32  35
ATOM     35  C   UNL     1      -9.092  -9.149   2.347  1.00  0.00     0.039 A 
ATOM     36  C   UNL     1      -9.365  -9.912   3.493  1.00  0.00     0.014 A 
ATOM     37  C   UNL     1      -8.287  -8.031   2.471  1.00  0.00     0.014 A 
ATOM     38  C   UNL     1      -8.812  -9.535   4.725  1.00  0.00     0.010 A 
ATOM     39  C   UNL     1      -7.609  -7.756   3.623  1.00  0.00     0.010 A 
ATOM     40  C   UNL     1      -7.944  -8.440   4.779  1.00  0.00    -0.014 A 
BRANCH  40  41
ATOM     41  C   UNL     1      -7.298  -7.965   5.995  1.00  0.00     0.031 A 
ATOM     42  C   UNL     1      -6.265  -8.857   6.560  1.00  0.00     0.074 A 
ATOM     43  C   UNL     1      -7.320  -6.659   6.350  1.00  0.00     0.049 A 
ATOM     44  N   UNL     1      -6.290  -9.478   7.689  1.00  0.00    -0.248 NA
ATOM     45  C   UNL     1      -5.103  -9.188   5.721  1.00  0.00     0.031 C 
ATOM     46  C   UNL     1      -7.971  -5.553   5.634  1.00  0.00     0.029 A 
ATOM     47  N   UNL     1      -6.619  -6.018   7.326  1.00  0.00    -0.354 N 
ATOM     48  C   UNL     1      -5.038 -10.068   7.818  1.00  0.00     0.074 A 
ATOM     49  C   UNL     1      -4.467 -10.066   6.498  1.00  0.00     0.031 C 
ATOM     50  C   UNL     1      -7.451  -4.380   6.052  1.00  0.00     0.029 A 
ATOM     51  C   UNL     1      -6.561  -4.637   7.170  1.00  0.00     0.049 A 
ATOM     52  H   UNL     1      -6.192  -6.491   8.077  1.00  0.00     0.167 HD
ATOM     53  C   UNL     1      -4.470 -10.259   9.041  1.00  0.00     0.034 A 
ATOM     54  C   UNL     1      -5.817  -3.756   7.886  1.00  0.00     0.034 A 
ATOM     55  C   UNL     1      -5.436 -10.044  10.101  1.00  0.00     0.049 A 
ATOM     56  C   UNL     1      -5.484  -4.418   9.171  1.00  0.00     0.074 A 
ATOM     57  C   UNL     1      -6.690 -10.551  10.391  1.00  0.00     0.029 A 
ATOM     58  N   UNL     1      -5.322  -8.896  10.856  1.00  0.00    -0.354 N 
ATOM     59  N   UNL     1      -6.375  -4.750  10.064  1.00  0.00    -0.248 NA
ATOM     60  C   UNL     1      -4.205  -5.101   9.298  1.00  0.00     0.031 C 
ATOM     61  C   UNL     1      -7.431  -9.440  10.894  1.00  0.00     0.029 A 
ATOM     62  C   UNL     1      -6.574  -8.339  10.956  1.00  0.00     0.049 A 
ATOM     63  H   UNL     1      -4.494  -8.540  11.252  1.00  0.00     0.167 HD
ATOM     64  C   UNL     1      -5.944  -5.968  10.565  1.00  0.00     0.074 A 
ATOM     65  C   UNL     1      -4.544  -6.059  10.167  1.00  0.00     0.031 C 
ATOM     66  C   UNL     1      -6.838  -6.911  10.989  1.00  0.00     0.034 A 
BRANCH  53  67
ATOM     67  C   UNL     1      -2.981 -10.302   9.321  1.00  0.00     0.023 A 
ATOM     68  C   UNL     1      -2.589 -10.586  10.643  1.00  0.00     0.031 A 
ATOM     69  C   UNL     1      -1.952  -9.844   8.466  1.00  0.00     0.131 A 
ATOM     70  C   UNL     1      -1.280 -10.330  11.084  1.00  0.00     0.055 A 
ATOM     71  C   UNL     1      -0.629  -9.674   8.888  1.00  0.00     0.041 A 
ATOM     72  F   UNL     1      -2.174  -9.441   7.210  1.00  0.00    -0.206 F 
ATOM     73  C   UNL     1      -0.292  -9.885  10.212  1.00  0.00     0.022 A 
BRANCH  70  74
ATOM     74  S   UNL     1      -0.951 -10.398  12.863  1.00  0.00     0.124 S 
ATOM     75  O   UNL     1      -2.007  -9.540  13.388  1.00  0.00    -0.237 OA
ATOM     76  O   UNL     1      -1.082 -11.825  13.136  1.00  0.00    -0.237 OA
ATOM     77  O   UNL     1       0.403  -9.861  12.976  1.00  0.00    -0.744 OA
ENDBRANCH  70  74
ENDBRANCH  53  67
BRANCH  54  78
ATOM     78  C   UNL     1      -5.258  -2.450   7.454  1.00  0.00     0.023 A 
ATOM     79  C   UNL     1      -4.830  -1.480   8.382  1.00  0.00     0.031 A 
ATOM     80  C   UNL     1      -4.926  -2.219   6.100  1.00  0.00     0.131 A 
ATOM     81  C   UNL     1      -4.107  -0.346   7.948  1.00  0.00     0.055 A 
ATOM     82  C   UNL     1      -4.234  -1.083   5.673  1.00  0.00     0.041 A 
ATOM     83  F   UNL     1      -5.187  -3.132   5.150  1.00  0.00    -0.206 F 
ATOM     84  C   UNL     1      -3.811  -0.144   6.599  1.00  0.00     0.022 A 
BRANCH  81  85
ATOM     85  S   UNL     1      -3.417   0.817   9.167  1.00  0.00     0.124 S 
ATOM     86  O   UNL     1      -4.592   1.580   9.566  1.00  0.00    -0.237 OA
ATOM     87  O   UNL     1      -2.852  -0.079  10.170  1.00  0.00    -0.237 OA
ATOM     88  O   UNL     1      -2.425   1.565   8.393  1.00  0.00    -0.744 OA
ENDBRANCH  81  85
ENDBRANCH  54  78
BRANCH  66  89
ATOM     89  C   UNL     1      -8.265  -6.481  11.271  1.00  0.00     0.023 A 
ATOM     90  C   UNL     1      -9.113  -5.839  10.341  1.00  0.00     0.031 A 
ATOM     91  C   UNL     1      -8.821  -6.843  12.512  1.00  0.00     0.131 A 
ATOM     92  C   UNL     1     -10.454  -5.568  10.674  1.00  0.00     0.055 A 
ATOM     93  C   UNL     1     -10.156  -6.593  12.831  1.00  0.00     0.041 A 
ATOM     94  F   UNL     1      -8.078  -7.482  13.431  1.00  0.00    -0.206 F 
ATOM     95  C   UNL     1     -10.976  -5.947  11.914  1.00  0.00     0.022 A 
BRANCH  92  96
ATOM     96  S   UNL     1     -11.540  -4.703   9.496  1.00  0.00     0.124 S 
ATOM     97  O   UNL     1     -10.736  -3.569   9.058  1.00  0.00    -0.237 OA
ATOM     98  O   UNL     1     -11.797  -5.731   8.491  1.00  0.00    -0.237 OA
ATOM     99  O   UNL     1     -12.705  -4.345  10.309  1.00  0.00    -0.744 OA
ENDBRANCH  92  96
ENDBRANCH  66  89
ENDBRANCH  40  41
ENDBRANCH  32  35
ENDBRANCH  30  31
ENDBRANCH  29  30
ENDBRANCH  28  29
ENDBRANCH   1  28
TORSDOF 19
