REMARK SMILES CC[C@H](NC(=O)c1nn(C)cc1C(=O)NCCCCCCNC(=O)c1ccc(-c2c3nc(c(-c4cc(S(=O)(=O)[O-])ccc4F)c4ccc([nH]4)c(-c4cc(S(=O)(=O)[O-])ccc4F)c4nc(c(-c5cc(S(=O)(=O)[O-])ccc5F)c5ccc2[nH]5)C=C4)C=C3)cc1)c1ccccc1
REMARK SMILES IDX 18 1 17 2 16 3 15 4 13 5 14 6 12 8 7 9 8 10 9 11 11 12 10 13
REMARK SMILES IDX 5 14 4 15 6 17 3 18 2 19 1 20 88 21 89 22 93 23 90 24 92 25
REMARK SMILES IDX 91 26 19 27 20 28 21 29 22 30 23 31 24 33 25 34 26 35 87 36
REMARK SMILES IDX 27 37 86 38 28 39 29 40 30 41 80 42 31 43 85 44 79 45 81 46
REMARK SMILES IDX 32 47 84 48 78 49 77 50 33 52 65 53 45 54 64 55 46 56 49 57
REMARK SMILES IDX 63 58 82 59 47 60 48 61 62 63 83 64 50 65 34 66 35 67 43 68
REMARK SMILES IDX 36 69 42 70 44 71 41 72 37 73 38 74 39 75 40 76 66 77 67 78
REMARK SMILES IDX 75 79 68 80 74 81 76 82 73 83 69 84 70 85 71 86 72 87 51 88
REMARK SMILES IDX 52 89 60 90 53 91 59 92 61 93 58 94 54 95 55 96 56 97 57 98
REMARK H PARENT 15 7 4 16 22 32 81 51 49 62
REMARK Flexibility Score: inf
ROOT
ATOM      1  C   UNL     1       1.871   8.242  -0.521  1.00  0.00     0.002 C 
ENDROOT
BRANCH   1   2
ATOM      2  C   UNL     1       2.817   7.438   0.378  1.00  0.00     0.021 C 
BRANCH   2   3
ATOM      3  C   UNL     1       2.331   7.148   1.795  1.00  0.00     0.116 C 
BRANCH   3   4
ATOM      4  N   UNL     1       1.133   6.338   1.858  1.00  0.00    -0.352 N 
ATOM      5  C   UNL     1       0.896   5.021   2.146  1.00  0.00     0.255 C 
ATOM      6  O   UNL     1      -0.288   4.679   2.217  1.00  0.00    -0.269 OA
ATOM      7  H   UNL     1       0.314   6.842   1.649  1.00  0.00     0.163 HD
BRANCH   5   8
ATOM      8  C   UNL     1       1.956   4.045   2.330  1.00  0.00     0.090 A 
ATOM      9  C   UNL     1       1.808   2.626   2.166  1.00  0.00     0.162 A 
ATOM     10  N   UNL     1       2.957   1.971   2.426  1.00  0.00    -0.167 NA
ATOM     11  N   UNL     1       3.788   2.930   2.850  1.00  0.00    -0.274 N 
ATOM     12  C   UNL     1       3.251   4.183   2.797  1.00  0.00     0.123 A 
ATOM     13  C   UNL     1       5.090   2.566   3.358  1.00  0.00     0.173 C 
BRANCH   9  14
ATOM     14  C   UNL     1       0.592   1.880   1.822  1.00  0.00     0.273 C 
ATOM     15  N   UNL     1       0.110   1.930   0.538  1.00  0.00    -0.344 N 
ATOM     16  H   UNL     1      -0.721   1.425   0.384  1.00  0.00     0.164 HD
ATOM     17  O   UNL     1       0.006   1.162   2.635  1.00  0.00    -0.267 OA
BRANCH  15  18
ATOM     18  C   UNL     1       0.638   2.618  -0.631  1.00  0.00     0.112 C 
BRANCH  18  19
ATOM     19  C   UNL     1       0.806   1.606  -1.785  1.00  0.00     0.026 C 
ATOM     20  C   UNL     1       1.818   0.512  -1.469  1.00  0.00     0.006 C 
ENDBRANCH  18  19
BRANCH  18  21
ATOM     21  C   UNL     1      -0.253   3.774  -1.075  1.00  0.00    -0.026 A 
ATOM     22  C   UNL     1       0.239   4.702  -2.010  1.00  0.00     0.006 A 
ATOM     23  C   UNL     1      -1.561   3.958  -0.595  1.00  0.00     0.006 A 
ATOM     24  C   UNL     1      -0.551   5.766  -2.455  1.00  0.00     0.000 A 
ATOM     25  C   UNL     1      -2.345   5.030  -1.030  1.00  0.00     0.000 A 
ATOM     26  C   UNL     1      -1.841   5.932  -1.961  1.00  0.00     0.000 A 
ENDBRANCH  18  21
ENDBRANCH  15  18
ENDBRANCH   9  14
ENDBRANCH   5   8
ENDBRANCH   3   4
ENDBRANCH   2   3
ENDBRANCH   1   2
BRANCH   1  27
ATOM     27  C   UNL     1       1.238   9.511   0.058  1.00  0.00     0.002 C 
BRANCH  27  28
ATOM     28  C   UNL     1       2.166  10.520   0.739  1.00  0.00     0.021 C 
BRANCH  28  29
ATOM     29  C   UNL     1       3.371  10.995  -0.065  1.00  0.00     0.116 C 
BRANCH  29  30
ATOM     30  N   UNL     1       3.007  11.766  -1.239  1.00  0.00    -0.352 N 
ATOM     31  C   UNL     1       3.459  12.998  -1.651  1.00  0.00     0.251 C 
ATOM     32  H   UNL     1       2.338  11.346  -1.827  1.00  0.00     0.163 HD
ATOM     33  O   UNL     1       2.941  13.534  -2.627  1.00  0.00    -0.269 OA
BRANCH  31  34
ATOM     34  C   UNL     1       4.537  13.698  -0.909  1.00  0.00     0.039 A 
ATOM     35  C   UNL     1       4.372  15.057  -0.615  1.00  0.00     0.014 A 
ATOM     36  C   UNL     1       5.707  13.040  -0.518  1.00  0.00     0.014 A 
ATOM     37  C   UNL     1       5.340  15.734   0.133  1.00  0.00     0.010 A 
ATOM     38  C   UNL     1       6.654  13.706   0.263  1.00  0.00     0.010 A 
ATOM     39  C   UNL     1       6.474  15.056   0.604  1.00  0.00    -0.014 A 
BRANCH  39  40
ATOM     40  C   UNL     1       7.475  15.733   1.466  1.00  0.00     0.031 A 
ATOM     41  C   UNL     1       8.853  16.023   0.942  1.00  0.00     0.074 A 
ATOM     42  C   UNL     1       7.175  16.006   2.750  1.00  0.00     0.049 A 
ATOM     43  N   UNL     1       9.906  16.462   1.583  1.00  0.00    -0.248 NA
ATOM     44  C   UNL     1       9.081  15.753  -0.484  1.00  0.00     0.031 C 
ATOM     45  C   UNL     1       5.892  15.729   3.400  1.00  0.00     0.029 A 
ATOM     46  N   UNL     1       7.943  16.553   3.746  1.00  0.00    -0.354 N 
ATOM     47  C   UNL     1      10.937  16.480   0.651  1.00  0.00     0.074 A 
ATOM     48  C   UNL     1      10.376  16.007  -0.600  1.00  0.00     0.031 C 
ATOM     49  C   UNL     1       5.966  16.097   4.690  1.00  0.00     0.029 A 
ATOM     50  C   UNL     1       7.303  16.616   4.960  1.00  0.00     0.049 A 
ATOM     51  H   UNL     1       8.864  16.870   3.605  1.00  0.00     0.167 HD
ATOM     52  C   UNL     1      12.231  16.848   0.821  1.00  0.00     0.034 A 
ATOM     53  C   UNL     1       7.749  17.024   6.162  1.00  0.00     0.034 A 
ATOM     54  C   UNL     1      12.780  17.357   2.052  1.00  0.00     0.049 A 
ATOM     55  C   UNL     1       9.160  17.511   6.307  1.00  0.00     0.074 A 
ATOM     56  C   UNL     1      14.063  17.811   2.306  1.00  0.00     0.029 A 
ATOM     57  N   UNL     1      12.073  17.484   3.239  1.00  0.00    -0.354 N 
ATOM     58  N   UNL     1      10.122  17.521   5.416  1.00  0.00    -0.248 NA
ATOM     59  C   UNL     1       9.542  18.046   7.621  1.00  0.00     0.031 C 
ATOM     60  C   UNL     1      14.138  18.193   3.654  1.00  0.00     0.029 A 
ATOM     61  C   UNL     1      12.893  18.002   4.229  1.00  0.00     0.049 A 
ATOM     62  H   UNL     1      11.127  17.241   3.360  1.00  0.00     0.167 HD
ATOM     63  C   UNL     1      11.227  18.058   6.064  1.00  0.00     0.074 A 
ATOM     64  C   UNL     1      10.814  18.364   7.419  1.00  0.00     0.031 C 
ATOM     65  C   UNL     1      12.472  18.282   5.577  1.00  0.00     0.034 A 
BRANCH  52  66
ATOM     66  C   UNL     1      13.146  16.657  -0.356  1.00  0.00     0.023 A 
ATOM     67  C   UNL     1      13.070  17.481  -1.490  1.00  0.00     0.031 A 
ATOM     68  C   UNL     1      14.070  15.598  -0.360  1.00  0.00     0.131 A 
ATOM     69  C   UNL     1      13.866  17.196  -2.610  1.00  0.00     0.055 A 
ATOM     70  C   UNL     1      14.896  15.351  -1.457  1.00  0.00     0.041 A 
ATOM     71  F   UNL     1      14.162  14.769   0.692  1.00  0.00    -0.206 F 
ATOM     72  C   UNL     1      14.788  16.145  -2.596  1.00  0.00     0.022 A 
BRANCH  69  73
ATOM     73  S   UNL     1      13.589  18.139  -4.134  1.00  0.00     0.124 S 
ATOM     74  O   UNL     1      12.169  17.898  -4.380  1.00  0.00    -0.237 OA
ATOM     75  O   UNL     1      13.948  19.494  -3.733  1.00  0.00    -0.237 OA
ATOM     76  O   UNL     1      14.495  17.511  -5.094  1.00  0.00    -0.744 OA
ENDBRANCH  69  73
ENDBRANCH  52  66
BRANCH  53  77
ATOM     77  C   UNL     1       6.860  16.939   7.344  1.00  0.00     0.023 A 
ATOM     78  C   UNL     1       6.085  18.035   7.747  1.00  0.00     0.031 A 
ATOM     79  C   UNL     1       6.777  15.746   8.078  1.00  0.00     0.131 A 
ATOM     80  C   UNL     1       5.261  17.918   8.876  1.00  0.00     0.055 A 
ATOM     81  C   UNL     1       5.950  15.633   9.195  1.00  0.00     0.041 A 
ATOM     82  F   UNL     1       7.494  14.673   7.709  1.00  0.00    -0.206 F 
ATOM     83  C   UNL     1       5.187  16.725   9.601  1.00  0.00     0.022 A 
BRANCH  80  84
ATOM     84  S   UNL     1       4.268  19.350   9.379  1.00  0.00     0.124 S 
ATOM     85  O   UNL     1       5.298  20.304   9.774  1.00  0.00    -0.237 OA
ATOM     86  O   UNL     1       3.541  19.662   8.152  1.00  0.00    -0.237 OA
ATOM     87  O   UNL     1       3.446  18.828  10.469  1.00  0.00    -0.744 OA
ENDBRANCH  80  84
ENDBRANCH  53  77
BRANCH  65  88
ATOM     88  C   UNL     1      13.458  18.904   6.522  1.00  0.00     0.023 A 
ATOM     89  C   UNL     1      14.171  18.122   7.444  1.00  0.00     0.031 A 
ATOM     90  C   UNL     1      13.665  20.292   6.512  1.00  0.00     0.131 A 
ATOM     91  C   UNL     1      15.050  18.742   8.344  1.00  0.00     0.055 A 
ATOM     92  C   UNL     1      14.552  20.902   7.398  1.00  0.00     0.041 A 
ATOM     93  F   UNL     1      12.995  21.075   5.651  1.00  0.00    -0.206 F 
ATOM     94  C   UNL     1      15.247  20.127   8.324  1.00  0.00     0.022 A 
BRANCH  91  95
ATOM     95  S   UNL     1      15.910  17.720   9.572  1.00  0.00     0.124 S 
ATOM     96  O   UNL     1      14.799  17.149  10.327  1.00  0.00    -0.237 OA
ATOM     97  O   UNL     1      16.658  16.789   8.735  1.00  0.00    -0.237 OA
ATOM     98  O   UNL     1      16.727  18.683  10.308  1.00  0.00    -0.744 OA
ENDBRANCH  91  95
ENDBRANCH  65  88
ENDBRANCH  39  40
ENDBRANCH  31  34
ENDBRANCH  29  30
ENDBRANCH  28  29
ENDBRANCH  27  28
ENDBRANCH   1  27
TORSDOF 20
