REMARK SMILES CC1=C([C@H](NC(=O)c2cccc3ccccc23)C(=O)NCCCCCCNC(=O)c2ccc(-c3c4nc(c(-c5cc(S(=O)(=O)[O-])ccc5F)c5ccc([nH]5)c(-c5cc(S(=O)(=O)[O-])ccc5F)c5nc(c(-c6cc(S(=O)(=O)[O-])ccc6F)c6ccc3[nH]6)C=C5)C=C4)cc2)[C@H](C)N=N1
REMARK SMILES IDX 24 1 23 2 22 3 21 4 20 5 18 6 19 7 4 9 3 10 1 11 2 12 96 13
REMARK SMILES IDX 93 14 95 15 94 16 5 17 6 18 7 20 8 21 9 22 17 23 10 24 12 25
REMARK SMILES IDX 16 26 11 27 13 28 15 29 14 30 25 31 26 32 27 33 28 34 29 36
REMARK SMILES IDX 30 37 31 38 92 39 32 40 91 41 33 42 34 43 35 44 85 45 36 46
REMARK SMILES IDX 90 47 84 48 86 49 37 50 89 51 83 52 82 53 38 55 70 56 50 57
REMARK SMILES IDX 69 58 51 59 54 60 68 61 87 62 52 63 53 64 67 66 88 67 55 68
REMARK SMILES IDX 39 69 40 70 48 71 41 72 47 73 49 74 46 75 42 76 43 77 44 78
REMARK SMILES IDX 45 79 71 80 72 81 80 82 73 83 79 84 81 85 78 86 74 87 75 88
REMARK SMILES IDX 76 89 77 90 56 91 57 92 65 93 58 94 64 95 66 96 63 97 59 98
REMARK SMILES IDX 60 99 61 100 62 101
REMARK H PARENT 20 8 5 19 27 35 86 54 54 65
REMARK Flexibility Score: inf
ROOT
ATOM      1  C   UNL     1       2.426   8.389   1.249  1.00  0.00     0.002 C 
ENDROOT
BRANCH   1   2
ATOM      2  C   UNL     1       1.790   7.075   1.691  1.00  0.00     0.002 C 
BRANCH   2   3
ATOM      3  C   UNL     1       1.184   6.221   0.573  1.00  0.00     0.021 C 
BRANCH   3   4
ATOM      4  C   UNL     1       2.024   6.013  -0.695  1.00  0.00     0.116 C 
BRANCH   4   5
ATOM      5  N   UNL     1       3.330   5.395  -0.545  1.00  0.00    -0.354 N 
ATOM      6  C   UNL     1       3.719   4.079  -0.497  1.00  0.00     0.247 C 
ATOM      7  O   UNL     1       4.928   3.862  -0.338  1.00  0.00    -0.272 OA
ATOM      8  H   UNL     1       4.072   6.037  -0.463  1.00  0.00     0.163 HD
BRANCH   6   9
ATOM      9  C   UNL     1       2.716   2.894  -0.655  1.00  0.00     0.202 C 
BRANCH   9  10
ATOM     10  C   UNL     1       2.404   2.928  -2.150  1.00  0.00     0.011 C 
ATOM     11  C   UNL     1       4.811   2.945  -3.071  1.00  0.00     0.069 C 
ATOM     12  C   UNL     1       3.320   3.066  -3.133  1.00  0.00     0.064 C 
ATOM     13  N   UNL     1       2.781   3.531  -4.305  1.00  0.00    -0.160 NA
ATOM     14  C   UNL     1       1.105   3.238  -2.832  1.00  0.00     0.156 C 
ATOM     15  N   UNL     1       1.553   3.758  -4.156  1.00  0.00    -0.181 NA
ATOM     16  C   UNL     1       0.206   2.049  -3.139  1.00  0.00     0.040 C 
ENDBRANCH   9  10
BRANCH   9  17
ATOM     17  N   UNL     1       1.523   2.868   0.236  1.00  0.00    -0.337 N 
ATOM     18  C   UNL     1       1.358   2.687   1.631  1.00  0.00     0.252 C 
ATOM     19  H   UNL     1       0.674   3.004  -0.244  1.00  0.00     0.165 HD
ATOM     20  O   UNL     1       0.291   2.165   1.957  1.00  0.00    -0.269 OA
BRANCH  18  21
ATOM     21  C   UNL     1       2.325   3.162   2.720  1.00  0.00     0.047 A 
ATOM     22  C   UNL     1       3.295   4.063   2.332  1.00  0.00     0.014 A 
ATOM     23  C   UNL     1       2.226   2.989   4.133  1.00  0.00    -0.006 A 
ATOM     24  C   UNL     1       4.298   4.618   3.107  1.00  0.00     0.001 A 
ATOM     25  C   UNL     1       3.208   3.635   4.974  1.00  0.00    -0.018 A 
ATOM     26  C   UNL     1       1.192   2.310   4.816  1.00  0.00     0.009 A 
ATOM     27  C   UNL     1       4.260   4.382   4.449  1.00  0.00     0.009 A 
ATOM     28  C   UNL     1       3.117   3.615   6.364  1.00  0.00     0.009 A 
ATOM     29  C   UNL     1       1.107   2.318   6.218  1.00  0.00     0.001 A 
ATOM     30  C   UNL     1       2.060   2.975   6.987  1.00  0.00     0.001 A 
ENDBRANCH  18  21
ENDBRANCH   9  17
ENDBRANCH   6   9
ENDBRANCH   4   5
ENDBRANCH   3   4
ENDBRANCH   2   3
ENDBRANCH   1   2
BRANCH   1  31
ATOM     31  C   UNL     1       1.484   9.332   0.498  1.00  0.00     0.021 C 
BRANCH  31  32
ATOM     32  C   UNL     1       0.342   9.848   1.358  1.00  0.00     0.116 C 
BRANCH  32  33
ATOM     33  N   UNL     1       0.820  10.740   2.410  1.00  0.00    -0.352 N 
ATOM     34  C   UNL     1       0.059  11.401   3.344  1.00  0.00     0.251 C 
ATOM     35  H   UNL     1       1.793  10.884   2.454  1.00  0.00     0.163 HD
ATOM     36  O   UNL     1       0.477  12.437   3.869  1.00  0.00    -0.269 OA
BRANCH  34  37
ATOM     37  C   UNL     1      -1.244  10.834   3.720  1.00  0.00     0.039 A 
ATOM     38  C   UNL     1      -2.364  11.644   3.923  1.00  0.00     0.014 A 
ATOM     39  C   UNL     1      -1.326   9.447   3.866  1.00  0.00     0.014 A 
ATOM     40  C   UNL     1      -3.580  11.036   4.226  1.00  0.00     0.010 A 
ATOM     41  C   UNL     1      -2.547   8.845   4.036  1.00  0.00     0.010 A 
ATOM     42  C   UNL     1      -3.665   9.633   4.274  1.00  0.00    -0.014 A 
BRANCH  42  43
ATOM     43  C   UNL     1      -4.955   8.961   4.402  1.00  0.00     0.031 A 
ATOM     44  C   UNL     1      -5.917   9.349   3.336  1.00  0.00     0.074 A 
ATOM     45  C   UNL     1      -5.179   7.925   5.243  1.00  0.00     0.049 A 
ATOM     46  N   UNL     1      -6.969  10.088   3.456  1.00  0.00    -0.248 NA
ATOM     47  C   UNL     1      -5.563   9.059   1.934  1.00  0.00     0.031 C 
ATOM     48  C   UNL     1      -4.226   7.243   6.124  1.00  0.00     0.029 A 
ATOM     49  N   UNL     1      -6.309   7.186   5.419  1.00  0.00    -0.354 N 
ATOM     50  C   UNL     1      -7.561  10.109   2.198  1.00  0.00     0.074 A 
ATOM     51  C   UNL     1      -6.540   9.690   1.279  1.00  0.00     0.031 C 
ATOM     52  C   UNL     1      -4.752   6.069   6.548  1.00  0.00     0.029 A 
ATOM     53  C   UNL     1      -6.133   5.983   6.107  1.00  0.00     0.049 A 
ATOM     54  H   UNL     1      -7.188   7.480   5.086  1.00  0.00     0.167 HD
ATOM     55  C   UNL     1      -8.916  10.188   2.069  1.00  0.00     0.034 A 
ATOM     56  C   UNL     1      -7.052   4.987   6.280  1.00  0.00     0.034 A 
ATOM     57  C   UNL     1      -9.521  10.639   3.307  1.00  0.00     0.049 A 
ATOM     58  C   UNL     1      -8.384   5.608   6.062  1.00  0.00     0.074 A 
ATOM     59  C   UNL     1      -9.345  11.749   4.114  1.00  0.00     0.029 A 
ATOM     60  N   UNL     1     -10.133   9.701   4.110  1.00  0.00    -0.354 N 
ATOM     61  N   UNL     1      -8.877   6.526   6.849  1.00  0.00    -0.248 NA
ATOM     62  C   UNL     1      -8.912   5.603   4.706  1.00  0.00     0.031 C 
ATOM     63  C   UNL     1      -9.349  11.233   5.445  1.00  0.00     0.029 A 
ATOM     64  C   UNL     1      -9.648   9.871   5.386  1.00  0.00     0.049 A 
ATOM     65  H   UNL     1     -10.797   9.032   3.824  1.00  0.00     0.167 HD
ATOM     66  C   UNL     1      -9.421   7.473   5.995  1.00  0.00     0.074 A 
ATOM     67  C   UNL     1      -9.477   6.814   4.688  1.00  0.00     0.031 C 
ATOM     68  C   UNL     1      -9.495   8.791   6.346  1.00  0.00     0.034 A 
BRANCH  55  69
ATOM     69  C   UNL     1      -9.717   9.490   0.988  1.00  0.00     0.023 A 
ATOM     70  C   UNL     1     -11.115   9.655   1.019  1.00  0.00     0.031 A 
ATOM     71  C   UNL     1      -9.244   8.469   0.131  1.00  0.00     0.131 A 
ATOM     72  C   UNL     1     -11.965   8.774   0.326  1.00  0.00     0.055 A 
ATOM     73  C   UNL     1     -10.091   7.638  -0.609  1.00  0.00     0.041 A 
ATOM     74  F   UNL     1      -7.951   8.147   0.021  1.00  0.00    -0.206 F 
ATOM     75  C   UNL     1     -11.462   7.765  -0.488  1.00  0.00     0.022 A 
BRANCH  72  76
ATOM     76  S   UNL     1     -13.743   8.861   0.656  1.00  0.00     0.124 S 
ATOM     77  O   UNL     1     -13.777   8.713   2.107  1.00  0.00    -0.237 OA
ATOM     78  O   UNL     1     -14.079  10.181   0.134  1.00  0.00    -0.237 OA
ATOM     79  O   UNL     1     -14.282   7.735  -0.102  1.00  0.00    -0.744 OA
ENDBRANCH  72  76
ENDBRANCH  55  69
BRANCH  56  80
ATOM     80  C   UNL     1      -6.840   3.504   6.263  1.00  0.00     0.023 A 
ATOM     81  C   UNL     1      -7.802   2.574   6.732  1.00  0.00     0.031 A 
ATOM     82  C   UNL     1      -5.769   2.967   5.514  1.00  0.00     0.131 A 
ATOM     83  C   UNL     1      -7.670   1.190   6.442  1.00  0.00     0.055 A 
ATOM     84  C   UNL     1      -5.649   1.605   5.224  1.00  0.00     0.041 A 
ATOM     85  F   UNL     1      -4.844   3.765   4.959  1.00  0.00    -0.206 F 
ATOM     86  C   UNL     1      -6.605   0.711   5.676  1.00  0.00     0.022 A 
BRANCH  83  87
ATOM     87  S   UNL     1      -8.933  -0.018   6.981  1.00  0.00     0.124 S 
ATOM     88  O   UNL     1      -8.725  -0.062   8.423  1.00  0.00    -0.237 OA
ATOM     89  O   UNL     1     -10.174   0.593   6.521  1.00  0.00    -0.237 OA
ATOM     90  O   UNL     1      -8.559  -1.244   6.272  1.00  0.00    -0.744 OA
ENDBRANCH  83  87
ENDBRANCH  56  80
BRANCH  68  91
ATOM     91  C   UNL     1      -9.234   9.182   7.792  1.00  0.00     0.023 A 
ATOM     92  C   UNL     1      -8.058   8.897   8.529  1.00  0.00     0.031 A 
ATOM     93  C   UNL     1     -10.204   9.991   8.411  1.00  0.00     0.131 A 
ATOM     94  C   UNL     1      -7.902   9.411   9.836  1.00  0.00     0.055 A 
ATOM     95  C   UNL     1     -10.035  10.517   9.690  1.00  0.00     0.041 A 
ATOM     96  F   UNL     1     -11.335  10.314   7.761  1.00  0.00    -0.206 F 
ATOM     97  C   UNL     1      -8.885  10.224  10.410  1.00  0.00     0.022 A 
BRANCH  94  98
ATOM     98  S   UNL     1      -6.431   9.012  10.840  1.00  0.00     0.124 S 
ATOM     99  O   UNL     1      -6.276   7.573  10.666  1.00  0.00    -0.237 OA
ATOM    100  O   UNL     1      -5.397   9.845  10.232  1.00  0.00    -0.237 OA
ATOM    101  O   UNL     1      -6.820   9.422  12.191  1.00  0.00    -0.744 OA
ENDBRANCH  94  98
ENDBRANCH  68  91
ENDBRANCH  42  43
ENDBRANCH  34  37
ENDBRANCH  32  33
ENDBRANCH  31  32
ENDBRANCH   1  31
TORSDOF 19
