REMARK SMILES C[C@H](C(=O)NCCCCCCNC(=O)c1ccc(-c2c3nc(c(-c4cc(S(=O)(=O)[O-])ccc4F)c4ccc([nH]4)c(-c4cc(S(=O)(=O)[O-])ccc4F)c4nc(c(-c5cc(S(=O)(=O)[O-])ccc5F)c5ccc2[nH]5)C=C4)C=C3)cc1)[C@H](C)[N@@H+]1CC[C@H]([NH+]2CCCCC2)C1
REMARK SMILES IDX 8 1 7 2 6 3 5 4 3 5 4 6 2 8 1 9 78 10 79 11 80 12 81 13
REMARK SMILES IDX 90 14 82 16 83 17 84 18 85 19 89 20 86 22 88 23 87 24 9 25
REMARK SMILES IDX 10 26 11 27 12 28 13 29 14 31 15 32 16 33 77 34 17 35 76 36
REMARK SMILES IDX 18 37 19 38 20 39 70 40 21 41 75 42 69 43 71 44 22 45 74 46
REMARK SMILES IDX 68 47 67 48 23 50 55 51 35 52 54 53 36 54 39 55 53 56 72 57
REMARK SMILES IDX 37 58 38 59 52 61 73 62 40 63 24 64 25 65 33 66 26 67 32 68
REMARK SMILES IDX 34 69 31 70 27 71 28 72 29 73 30 74 56 75 57 76 65 77 58 78
REMARK SMILES IDX 64 79 66 80 63 81 59 82 60 83 61 84 62 85 41 86 42 87 50 88
REMARK SMILES IDX 43 89 49 90 51 91 48 92 44 93 45 94 46 95 47 96
REMARK H PARENT 5 7 80 15 84 21 12 30 71 49 39 60
REMARK Flexibility Score: inf
ROOT
ATOM      1  C   UNL     1       0.192   3.278   5.304  1.00  0.00     0.002 C 
ENDROOT
BRANCH   1   2
ATOM      2  C   UNL     1       0.663   2.533   4.050  1.00  0.00     0.021 C 
BRANCH   2   3
ATOM      3  C   UNL     1      -0.036   1.198   3.799  1.00  0.00     0.116 C 
BRANCH   3   4
ATOM      4  N   UNL     1      -1.448   1.381   3.539  1.00  0.00    -0.356 N 
ATOM      5  C   UNL     1      -2.214   0.995   2.483  1.00  0.00     0.228 C 
ATOM      6  O   UNL     1      -3.430   1.183   2.579  1.00  0.00    -0.275 OA
ATOM      7  H   UNL     1      -1.935   1.867   4.244  1.00  0.00     0.163 HD
BRANCH   5   8
ATOM      8  C   UNL     1      -1.579   0.314   1.268  1.00  0.00     0.133 C 
ATOM      9  C   UNL     1      -2.621  -0.646   0.667  1.00  0.00     0.024 C 
BRANCH   8  10
ATOM     10  C   UNL     1      -1.058   1.294   0.170  1.00  0.00     0.193 C 
ATOM     11  C   UNL     1       0.457   1.525   0.262  1.00  0.00     0.076 C 
BRANCH  10  12
ATOM     12  N   UNL     1      -1.911   2.489   0.053  1.00  0.00    -0.327 N 
ATOM     13  C   UNL     1      -2.493   2.699  -1.273  1.00  0.00     0.269 C 
ATOM     14  C   UNL     1      -1.385   3.790   0.514  1.00  0.00     0.328 C 
ATOM     15  H   UNL     1      -2.620   2.209   0.730  1.00  0.00     0.348 HD
ATOM     16  C   UNL     1      -1.679   3.824  -1.878  1.00  0.00     0.132 C 
ATOM     17  C   UNL     1      -1.491   4.766  -0.689  1.00  0.00     0.245 C 
BRANCH  17  18
ATOM     18  N   UNL     1      -0.477   5.834  -0.839  1.00  0.00    -0.328 N 
ATOM     19  C   UNL     1       0.914   5.357  -0.855  1.00  0.00     0.262 C 
ATOM     20  C   UNL     1      -0.768   6.666  -2.022  1.00  0.00     0.262 C 
ATOM     21  H   UNL     1      -0.552   6.405   0.002  1.00  0.00     0.348 HD
ATOM     22  C   UNL     1       1.914   6.513  -0.962  1.00  0.00     0.062 C 
ATOM     23  C   UNL     1       0.189   7.849  -2.160  1.00  0.00     0.062 C 
ATOM     24  C   UNL     1       1.636   7.379  -2.182  1.00  0.00     0.012 C 
ENDBRANCH  17  18
ENDBRANCH  10  12
ENDBRANCH   8  10
ENDBRANCH   5   8
ENDBRANCH   3   4
ENDBRANCH   2   3
ENDBRANCH   1   2
BRANCH   1  25
ATOM     25  C   UNL     1       0.291   2.490   6.613  1.00  0.00     0.002 C 
BRANCH  25  26
ATOM     26  C   UNL     1       1.670   1.901   6.922  1.00  0.00     0.021 C 
BRANCH  26  27
ATOM     27  C   UNL     1       2.817   2.908   6.954  1.00  0.00     0.116 C 
BRANCH  27  28
ATOM     28  N   UNL     1       2.625   3.928   7.970  1.00  0.00    -0.352 N 
ATOM     29  C   UNL     1       3.484   4.365   8.945  1.00  0.00     0.251 C 
ATOM     30  H   UNL     1       1.747   4.372   7.956  1.00  0.00     0.163 HD
ATOM     31  O   UNL     1       3.058   5.112   9.828  1.00  0.00    -0.269 OA
BRANCH  29  32
ATOM     32  C   UNL     1       4.899   3.931   8.962  1.00  0.00     0.039 A 
ATOM     33  C   UNL     1       5.484   3.612  10.190  1.00  0.00     0.014 A 
ATOM     34  C   UNL     1       5.662   3.868   7.791  1.00  0.00     0.014 A 
ATOM     35  C   UNL     1       6.812   3.184  10.239  1.00  0.00     0.010 A 
ATOM     36  C   UNL     1       6.968   3.377   7.833  1.00  0.00     0.010 A 
ATOM     37  C   UNL     1       7.559   3.034   9.058  1.00  0.00    -0.014 A 
BRANCH  37  38
ATOM     38  C   UNL     1       8.953   2.517   9.108  1.00  0.00     0.031 A 
ATOM     39  C   UNL     1      10.110   3.396   8.713  1.00  0.00     0.074 A 
ATOM     40  C   UNL     1       9.172   1.244   9.492  1.00  0.00     0.049 A 
ATOM     41  N   UNL     1      11.389   3.119   8.691  1.00  0.00    -0.248 NA
ATOM     42  C   UNL     1       9.783   4.756   8.261  1.00  0.00     0.031 C 
ATOM     43  C   UNL     1       8.128   0.280   9.850  1.00  0.00     0.029 A 
ATOM     44  N   UNL     1      10.339   0.538   9.648  1.00  0.00    -0.354 N 
ATOM     45  C   UNL     1      12.021   4.270   8.233  1.00  0.00     0.074 A 
ATOM     46  C   UNL     1      10.976   5.222   7.920  1.00  0.00     0.031 C 
ATOM     47  C   UNL     1       8.703  -0.880  10.206  1.00  0.00     0.029 A 
ATOM     48  C   UNL     1      10.150  -0.758  10.070  1.00  0.00     0.049 A 
ATOM     49  H   UNL     1      11.228   0.924   9.474  1.00  0.00     0.167 HD
ATOM     50  C   UNL     1      13.349   4.521   8.112  1.00  0.00     0.034 A 
ATOM     51  C   UNL     1      11.041  -1.739  10.316  1.00  0.00     0.034 A 
ATOM     52  C   UNL     1      14.381   3.561   8.424  1.00  0.00     0.049 A 
ATOM     53  C   UNL     1      12.511  -1.439  10.165  1.00  0.00     0.074 A 
ATOM     54  C   UNL     1      15.755   3.717   8.359  1.00  0.00     0.029 A 
ATOM     55  N   UNL     1      14.153   2.261   8.861  1.00  0.00    -0.354 N 
ATOM     56  N   UNL     1      13.092  -0.327   9.775  1.00  0.00    -0.248 NA
ATOM     57  C   UNL     1      13.445  -2.518  10.508  1.00  0.00     0.031 C 
ATOM     58  C   UNL     1      16.355   2.499   8.698  1.00  0.00     0.029 A 
ATOM     59  C   UNL     1      15.359   1.601   9.047  1.00  0.00     0.049 A 
ATOM     60  H   UNL     1      13.265   1.866   9.015  1.00  0.00     0.167 HD
ATOM     61  C   UNL     1      14.461  -0.569   9.850  1.00  0.00     0.074 A 
ATOM     62  C   UNL     1      14.616  -1.919  10.351  1.00  0.00     0.031 C 
ATOM     63  C   UNL     1      15.498   0.247   9.530  1.00  0.00     0.034 A 
BRANCH  50  64
ATOM     64  C   UNL     1      13.754   5.886   7.608  1.00  0.00     0.023 A 
ATOM     65  C   UNL     1      13.460   7.053   8.337  1.00  0.00     0.031 A 
ATOM     66  C   UNL     1      14.428   6.030   6.383  1.00  0.00     0.131 A 
ATOM     67  C   UNL     1      13.777   8.312   7.805  1.00  0.00     0.055 A 
ATOM     68  C   UNL     1      14.810   7.282   5.896  1.00  0.00     0.041 A 
ATOM     69  F   UNL     1      14.718   4.956   5.632  1.00  0.00    -0.206 F 
ATOM     70  C   UNL     1      14.473   8.434   6.601  1.00  0.00     0.022 A 
BRANCH  67  71
ATOM     71  S   UNL     1      13.151   9.791   8.648  1.00  0.00     0.124 S 
ATOM     72  O   UNL     1      11.707   9.579   8.580  1.00  0.00    -0.237 OA
ATOM     73  O   UNL     1      13.753   9.680   9.971  1.00  0.00    -0.237 OA
ATOM     74  O   UNL     1      13.651  10.891   7.825  1.00  0.00    -0.744 OA
ENDBRANCH  67  71
ENDBRANCH  50  64
BRANCH  51  75
ATOM     75  C   UNL     1      10.579  -3.099  10.718  1.00  0.00     0.023 A 
ATOM     76  C   UNL     1      10.907  -3.639  11.971  1.00  0.00     0.031 A 
ATOM     77  C   UNL     1       9.845  -3.902   9.826  1.00  0.00     0.131 A 
ATOM     78  C   UNL     1      10.554  -4.963  12.277  1.00  0.00     0.055 A 
ATOM     79  C   UNL     1       9.445  -5.198  10.158  1.00  0.00     0.041 A 
ATOM     80  F   UNL     1       9.498  -3.433   8.617  1.00  0.00    -0.206 F 
ATOM     81  C   UNL     1       9.815  -5.742  11.384  1.00  0.00     0.022 A 
BRANCH  78  82
ATOM     82  S   UNL     1      11.168  -5.691  13.821  1.00  0.00     0.124 S 
ATOM     83  O   UNL     1      12.607  -5.490  13.694  1.00  0.00    -0.237 OA
ATOM     84  O   UNL     1      10.493  -4.878  14.827  1.00  0.00    -0.237 OA
ATOM     85  O   UNL     1      10.722  -7.080  13.743  1.00  0.00    -0.744 OA
ENDBRANCH  78  82
ENDBRANCH  51  75
BRANCH  63  86
ATOM     86  C   UNL     1      16.887  -0.303   9.748  1.00  0.00     0.023 A 
ATOM     87  C   UNL     1      17.371  -1.395   9.007  1.00  0.00     0.031 A 
ATOM     88  C   UNL     1      17.722   0.248  10.737  1.00  0.00     0.131 A 
ATOM     89  C   UNL     1      18.623  -1.949   9.315  1.00  0.00     0.055 A 
ATOM     90  C   UNL     1      18.994  -0.267  10.993  1.00  0.00     0.041 A 
ATOM     91  F   UNL     1      17.312   1.291  11.475  1.00  0.00    -0.206 F 
ATOM     92  C   UNL     1      19.444  -1.383  10.293  1.00  0.00     0.022 A 
BRANCH  89  93
ATOM     93  S   UNL     1      19.114  -3.493   8.497  1.00  0.00     0.124 S 
ATOM     94  O   UNL     1      18.014  -4.385   8.847  1.00  0.00    -0.237 OA
ATOM     95  O   UNL     1      19.189  -3.092   7.096  1.00  0.00    -0.237 OA
ATOM     96  O   UNL     1      20.397  -3.817   9.119  1.00  0.00    -0.744 OA
ENDBRANCH  89  93
ENDBRANCH  63  86
ENDBRANCH  37  38
ENDBRANCH  29  32
ENDBRANCH  27  28
ENDBRANCH  26  27
ENDBRANCH  25  26
ENDBRANCH   1  25
TORSDOF 19
