REMARK SMILES Cc1cccc(O[C@H](C)C(=O)NNC(=O)[C@H]2[C@@H]3CC[C@@H](C3)[C@@H]2C(=O)NCCCCCCNC(=O)c2ccc(-c3c4nc(c(-c5cc(S(=O)(=O)[O-])ccc5F)c5ccc([nH]5)c(-c5cc(S(=O)(=O)[O-])ccc5F)c5nc(c(-c6cc(S(=O)(=O)[O-])ccc6F)c6ccc3[nH]6)C=C5)C=C4)cc2)c1
REMARK SMILES IDX 27 1 26 2 25 3 23 4 24 5 22 7 16 8 17 9 18 10 21 11 20 12
REMARK SMILES IDX 19 13 14 14 13 15 15 17 12 18 10 19 11 20 8 22 9 23 7 24
REMARK SMILES IDX 6 25 1 26 2 27 3 28 98 29 4 30 5 31 28 32 29 33 30 34 31 35
REMARK SMILES IDX 32 36 33 37 34 39 35 40 36 41 97 42 37 43 96 44 38 45 39 46
REMARK SMILES IDX 40 47 90 48 41 49 95 50 89 51 91 52 42 53 94 54 88 55 87 56
REMARK SMILES IDX 43 58 75 59 55 60 74 61 56 62 59 63 73 64 92 65 57 66 58 67
REMARK SMILES IDX 72 69 93 70 60 71 44 72 45 73 53 74 46 75 52 76 54 77 51 78
REMARK SMILES IDX 47 79 48 80 49 81 50 82 76 83 77 84 85 85 78 86 84 87 86 88
REMARK SMILES IDX 83 89 79 90 80 91 81 92 82 93 61 94 62 95 70 96 63 97 69 98
REMARK SMILES IDX 71 99 68 100 64 101 65 102 66 103 67 104
REMARK H PARENT 25 6 13 16 12 21 32 38 91 57 59 68
REMARK Flexibility Score: inf
ROOT
ATOM      1  C   UNL     1       3.678   6.118  -1.981  1.00  0.00     0.021 C 
ENDROOT
BRANCH   1   2
ATOM      2  C   UNL     1       3.815   5.094  -3.107  1.00  0.00     0.116 C 
BRANCH   2   3
ATOM      3  N   UNL     1       4.801   4.067  -2.814  1.00  0.00    -0.356 N 
ATOM      4  C   UNL     1       4.641   2.715  -2.703  1.00  0.00     0.224 C 
ATOM      5  O   UNL     1       5.619   2.006  -2.480  1.00  0.00    -0.275 OA
ATOM      6  H   UNL     1       5.719   4.394  -2.675  1.00  0.00     0.163 HD
BRANCH   4   7
ATOM      7  C   UNL     1       3.241   2.152  -2.888  1.00  0.00     0.094 C 
ATOM      8  C   UNL     1       3.001   0.787  -2.229  1.00  0.00     0.096 C 
ATOM      9  C   UNL     1       2.397  -0.063  -3.374  1.00  0.00     0.002 C 
ATOM     10  C   UNL     1       3.550  -0.444  -4.329  1.00  0.00     0.005 C 
ATOM     11  C   UNL     1       1.658   0.954  -4.240  1.00  0.00     0.009 C 
ATOM     12  C   UNL     1       2.876   1.875  -4.370  1.00  0.00     0.002 C 
ATOM     13  C   UNL     1       3.879   0.895  -5.016  1.00  0.00     0.005 C 
BRANCH   8  14
ATOM     14  C   UNL     1       2.207   0.752  -0.923  1.00  0.00     0.242 C 
ATOM     15  N   UNL     1       1.204   1.613  -0.579  1.00  0.00    -0.267 N 
ATOM     16  H   UNL     1       0.945   1.604   0.370  1.00  0.00     0.191 HD
ATOM     17  O   UNL     1       2.468  -0.144  -0.108  1.00  0.00    -0.273 OA
BRANCH  15  18
ATOM     18  N   UNL     1       0.506   2.490  -1.372  1.00  0.00    -0.264 N 
ATOM     19  C   UNL     1      -0.519   3.321  -1.048  1.00  0.00     0.279 C 
ATOM     20  O   UNL     1      -0.913   4.038  -1.985  1.00  0.00    -0.269 OA
ATOM     21  H   UNL     1       0.790   2.520  -2.314  1.00  0.00     0.191 HD
BRANCH  19  22
ATOM     22  C   UNL     1      -1.256   3.392   0.318  1.00  0.00     0.260 C 
ATOM     23  C   UNL     1      -2.677   2.825   0.198  1.00  0.00     0.064 C 
BRANCH  22  24
ATOM     24  O   UNL     1      -0.673   3.289   1.596  1.00  0.00    -0.481 OA
BRANCH  24  25
ATOM     25  C   UNL     1      -0.268   2.152   2.208  1.00  0.00     0.120 A 
ATOM     26  C   UNL     1       2.333   1.572   4.937  1.00  0.00     0.044 C 
ATOM     27  C   UNL     1       1.294   1.315   3.887  1.00  0.00    -0.047 A 
ATOM     28  C   UNL     1       0.968   0.008   3.520  1.00  0.00     0.003 A 
ATOM     29  C   UNL     1       0.659   2.377   3.233  1.00  0.00     0.049 A 
ATOM     30  C   UNL     1       0.013  -0.226   2.531  1.00  0.00     0.004 A 
ATOM     31  C   UNL     1      -0.613   0.843   1.883  1.00  0.00     0.046 A 
ENDBRANCH  24  25
ENDBRANCH  22  24
ENDBRANCH  19  22
ENDBRANCH  15  18
ENDBRANCH   8  14
ENDBRANCH   4   7
ENDBRANCH   2   3
ENDBRANCH   1   2
BRANCH   1  32
ATOM     32  C   UNL     1       4.908   7.004  -1.747  1.00  0.00     0.002 C 
BRANCH  32  33
ATOM     33  C   UNL     1       5.547   7.625  -2.998  1.00  0.00     0.002 C 
BRANCH  33  34
ATOM     34  C   UNL     1       4.598   8.377  -3.932  1.00  0.00     0.021 C 
BRANCH  34  35
ATOM     35  C   UNL     1       4.049   9.671  -3.344  1.00  0.00     0.116 C 
BRANCH  35  36
ATOM     36  N   UNL     1       4.595  10.869  -3.970  1.00  0.00    -0.352 N 
ATOM     37  C   UNL     1       4.241  12.196  -3.770  1.00  0.00     0.251 C 
ATOM     38  H   UNL     1       5.314  10.715  -4.625  1.00  0.00     0.163 HD
ATOM     39  O   UNL     1       4.742  13.098  -4.404  1.00  0.00    -0.269 OA
BRANCH  37  40
ATOM     40  C   UNL     1       3.319  12.499  -2.647  1.00  0.00     0.039 A 
ATOM     41  C   UNL     1       3.812  13.332  -1.636  1.00  0.00     0.014 A 
ATOM     42  C   UNL     1       2.139  11.783  -2.469  1.00  0.00     0.014 A 
ATOM     43  C   UNL     1       3.251  13.262  -0.365  1.00  0.00     0.010 A 
ATOM     44  C   UNL     1       1.639  11.645  -1.188  1.00  0.00     0.010 A 
ATOM     45  C   UNL     1       2.240  12.331  -0.125  1.00  0.00    -0.014 A 
BRANCH  45  46
ATOM     46  C   UNL     1       1.886  11.892   1.221  1.00  0.00     0.031 A 
ATOM     47  C   UNL     1       0.612  12.290   1.849  1.00  0.00     0.074 A 
ATOM     48  C   UNL     1       2.729  11.082   1.899  1.00  0.00     0.049 A 
ATOM     49  N   UNL     1       0.427  12.383   3.123  1.00  0.00    -0.248 NA
ATOM     50  C   UNL     1      -0.561  12.661   1.069  1.00  0.00     0.031 C 
ATOM     51  C   UNL     1       2.461  10.355   3.136  1.00  0.00     0.029 A 
ATOM     52  N   UNL     1       4.103  10.959   1.716  1.00  0.00    -0.354 N 
ATOM     53  C   UNL     1      -0.923  12.524   3.340  1.00  0.00     0.074 A 
ATOM     54  C   UNL     1      -1.484  12.767   2.030  1.00  0.00     0.031 C 
ATOM     55  C   UNL     1       3.628  10.078   3.737  1.00  0.00     0.029 A 
ATOM     56  C   UNL     1       4.677  10.733   2.977  1.00  0.00     0.049 A 
ATOM     57  H   UNL     1       4.585  11.019   0.860  1.00  0.00     0.167 HD
ATOM     58  C   UNL     1      -1.439  12.273   4.578  1.00  0.00     0.034 A 
ATOM     59  C   UNL     1       5.606  11.591   3.491  1.00  0.00     0.034 A 
ATOM     60  C   UNL     1      -0.395  11.939   5.547  1.00  0.00     0.049 A 
ATOM     61  C   UNL     1       5.177  12.239   4.790  1.00  0.00     0.074 A 
ATOM     62  C   UNL     1       0.050  10.736   6.071  1.00  0.00     0.029 A 
ATOM     63  N   UNL     1       0.546  12.897   5.912  1.00  0.00    -0.354 N 
ATOM     64  N   UNL     1       3.951  12.240   5.239  1.00  0.00    -0.248 NA
ATOM     65  C   UNL     1       6.091  12.950   5.678  1.00  0.00     0.031 C 
ATOM     66  C   UNL     1       1.298  10.966   6.705  1.00  0.00     0.029 A 
ATOM     67  C   UNL     1       1.597  12.313   6.594  1.00  0.00     0.049 A 
ATOM     68  H   UNL     1       0.473  13.858   5.712  1.00  0.00     0.167 HD
ATOM     69  C   UNL     1       3.889  12.936   6.421  1.00  0.00     0.074 A 
ATOM     70  C   UNL     1       5.264  13.338   6.664  1.00  0.00     0.031 C 
ATOM     71  C   UNL     1       2.707  13.120   7.086  1.00  0.00     0.034 A 
BRANCH  58  72
ATOM     72  C   UNL     1      -2.910  12.010   4.824  1.00  0.00     0.023 A 
ATOM     73  C   UNL     1      -3.296  11.100   5.832  1.00  0.00     0.031 A 
ATOM     74  C   UNL     1      -3.968  12.567   4.081  1.00  0.00     0.131 A 
ATOM     75  C   UNL     1      -4.634  10.690   5.982  1.00  0.00     0.055 A 
ATOM     76  C   UNL     1      -5.290  12.112   4.183  1.00  0.00     0.041 A 
ATOM     77  F   UNL     1      -3.776  13.611   3.263  1.00  0.00    -0.206 F 
ATOM     78  C   UNL     1      -5.627  11.154   5.126  1.00  0.00     0.022 A 
BRANCH  75  79
ATOM     79  S   UNL     1      -5.061   9.543   7.321  1.00  0.00     0.124 S 
ATOM     80  O   UNL     1      -4.217   8.391   7.027  1.00  0.00    -0.237 OA
ATOM     81  O   UNL     1      -4.713  10.314   8.509  1.00  0.00    -0.237 OA
ATOM     82  O   UNL     1      -6.495   9.321   7.132  1.00  0.00    -0.744 OA
ENDBRANCH  75  79
ENDBRANCH  58  72
BRANCH  59  83
ATOM     83  C   UNL     1       6.473  12.208   2.447  1.00  0.00     0.023 A 
ATOM     84  C   UNL     1       7.219  11.328   1.631  1.00  0.00     0.031 A 
ATOM     85  C   UNL     1       6.279  13.518   1.992  1.00  0.00     0.131 A 
ATOM     86  C   UNL     1       7.597  11.711   0.337  1.00  0.00     0.055 A 
ATOM     87  C   UNL     1       6.720  13.919   0.724  1.00  0.00     0.041 A 
ATOM     88  F   UNL     1       5.551  14.389   2.706  1.00  0.00    -0.206 F 
ATOM     89  C   UNL     1       7.340  13.002  -0.127  1.00  0.00     0.022 A 
BRANCH  86  90
ATOM     90  S   UNL     1       8.174  10.442  -0.833  1.00  0.00     0.124 S 
ATOM     91  O   UNL     1       9.620  10.617  -0.785  1.00  0.00    -0.237 OA
ATOM     92  O   UNL     1       7.665   9.199  -0.256  1.00  0.00    -0.237 OA
ATOM     93  O   UNL     1       7.529  10.827  -2.087  1.00  0.00    -0.744 OA
ENDBRANCH  86  90
ENDBRANCH  59  83
BRANCH  71  94
ATOM     94  C   UNL     1       2.486  13.996   8.306  1.00  0.00     0.023 A 
ATOM     95  C   UNL     1       3.377  14.997   8.720  1.00  0.00     0.031 A 
ATOM     96  C   UNL     1       1.294  13.890   9.069  1.00  0.00     0.131 A 
ATOM     97  C   UNL     1       3.122  15.774   9.868  1.00  0.00     0.055 A 
ATOM     98  C   UNL     1       1.007  14.713  10.162  1.00  0.00     0.041 A 
ATOM     99  F   UNL     1       0.348  12.984   8.782  1.00  0.00    -0.206 F 
ATOM    100  C   UNL     1       1.932  15.655  10.580  1.00  0.00     0.022 A 
BRANCH  97 101
ATOM    101  S   UNL     1       4.412  16.908  10.446  1.00  0.00     0.124 S 
ATOM    102  O   UNL     1       5.495  15.986  10.779  1.00  0.00    -0.237 OA
ATOM    103  O   UNL     1       4.636  17.751   9.276  1.00  0.00    -0.237 OA
ATOM    104  O   UNL     1       3.797  17.581  11.588  1.00  0.00    -0.744 OA
ENDBRANCH  97 101
ENDBRANCH  71  94
ENDBRANCH  45  46
ENDBRANCH  37  40
ENDBRANCH  35  36
ENDBRANCH  34  35
ENDBRANCH  33  34
ENDBRANCH  32  33
ENDBRANCH   1  32
TORSDOF 21
