REMARK SMILES COc1ccc(C[N@@H+]2C[C@@H](C(=O)NCCCCCCNC(=O)c3ccc(-c4c5nc(c(-c6cc(S(=O)(=O)[O-])ccc6F)c6ccc([nH]6)c(-c6cc(S(=O)(=O)[O-])ccc6F)c6nc(c(-c7cc(S(=O)(=O)[O-])ccc7F)c7ccc4[nH]7)C=C6)C=C5)cc3)[C@H](c3ccccc3OC)C2)c(OC)c1
REMARK SMILES IDX 16 1 15 2 14 3 13 4 11 5 12 6 10 8 8 9 9 10 95 11 86 13 7 14
REMARK SMILES IDX 6 15 3 16 4 17 99 18 5 19 96 20 2 21 1 22 97 23 98 24 87 25
REMARK SMILES IDX 88 26 92 27 89 28 91 29 90 30 93 31 94 32 17 33 18 34 19 35
REMARK SMILES IDX 20 36 21 37 22 39 23 40 24 41 85 42 25 43 84 44 26 45 27 46
REMARK SMILES IDX 28 47 78 48 29 49 83 50 77 51 79 52 30 53 82 54 76 55 75 56
REMARK SMILES IDX 31 58 63 59 43 60 62 61 44 62 47 63 61 64 80 65 45 66 46 67
REMARK SMILES IDX 60 69 81 70 48 71 32 72 33 73 41 74 34 75 40 76 42 77 39 78
REMARK SMILES IDX 35 79 36 80 37 81 38 82 64 83 65 84 73 85 66 86 72 87 74 88
REMARK SMILES IDX 71 89 67 90 68 91 69 92 70 93 49 94 50 95 58 96 51 97 57 98
REMARK SMILES IDX 59 99 56 100 52 101 53 102 54 103 55 104
REMARK H PARENT 13 7 8 12 20 38 79 57 47 68
REMARK Flexibility Score: inf
ROOT
ATOM      1  C   UNL     1      -4.434  -2.987   2.873  1.00  0.00     0.002 C 
ENDROOT
BRANCH   1   2
ATOM      2  C   UNL     1      -3.196  -3.620   2.238  1.00  0.00     0.021 C 
BRANCH   2   3
ATOM      3  C   UNL     1      -1.974  -3.619   3.149  1.00  0.00     0.116 C 
BRANCH   3   4
ATOM      4  N   UNL     1      -1.934  -4.767   4.039  1.00  0.00    -0.356 N 
ATOM      5  C   UNL     1      -0.843  -5.476   4.471  1.00  0.00     0.229 C 
ATOM      6  O   UNL     1      -1.018  -6.321   5.352  1.00  0.00    -0.275 OA
ATOM      7  H   UNL     1      -2.806  -5.077   4.375  1.00  0.00     0.163 HD
BRANCH   5   8
ATOM      8  C   UNL     1       0.495  -5.291   3.779  1.00  0.00     0.146 C 
ATOM      9  N   UNL     1       2.054  -6.671   2.631  1.00  0.00    -0.330 N 
ATOM     10  C   UNL     1       0.649  -6.590   2.979  1.00  0.00     0.276 C 
ATOM     11  C   UNL     1       2.760  -6.126   3.803  1.00  0.00     0.272 C 
ATOM     12  H   UNL     1       2.367  -7.629   2.475  1.00  0.00     0.348 HD
ATOM     13  C   UNL     1       1.794  -5.197   4.620  1.00  0.00     0.096 C 
BRANCH   9  14
ATOM     14  C   UNL     1       2.408  -6.172   1.287  1.00  0.00     0.303 C 
BRANCH  14  15
ATOM     15  C   UNL     1       2.014  -4.758   0.890  1.00  0.00     0.048 A 
ATOM     16  C   UNL     1       1.142  -2.107   0.536  1.00  0.00     0.122 A 
ATOM     17  C   UNL     1       0.265  -3.159   0.311  1.00  0.00     0.047 A 
ATOM     18  C   UNL     1       2.482  -2.370   0.812  1.00  0.00     0.093 A 
ATOM     19  C   UNL     1       0.697  -4.476   0.481  1.00  0.00     0.017 A 
ATOM     20  C   UNL     1       2.931  -3.695   0.925  1.00  0.00     0.131 A 
BRANCH  16  21
ATOM     21  O   UNL     1       0.591  -0.858   0.611  1.00  0.00    -0.497 OA
ATOM     22  C   UNL     1       1.192   0.085  -0.272  1.00  0.00     0.278 C 
ENDBRANCH  16  21
BRANCH  20  23
ATOM     23  O   UNL     1       4.244  -4.032   1.137  1.00  0.00    -0.496 OA
ATOM     24  C   UNL     1       5.204  -3.127   0.605  1.00  0.00     0.278 C 
ENDBRANCH  20  23
ENDBRANCH  14  15
ENDBRANCH   9  14
BRANCH  13  25
ATOM     25  C   UNL     1       2.293  -3.756   4.871  1.00  0.00     0.004 A 
ATOM     26  C   UNL     1       3.378  -3.218   4.155  1.00  0.00     0.008 A 
ATOM     27  C   UNL     1       1.739  -2.896   5.838  1.00  0.00     0.122 A 
ATOM     28  C   UNL     1       3.810  -1.892   4.287  1.00  0.00     0.001 A 
ATOM     29  C   UNL     1       2.130  -1.545   5.944  1.00  0.00     0.047 A 
ATOM     30  C   UNL     1       3.151  -1.036   5.149  1.00  0.00     0.004 A 
BRANCH  27  31
ATOM     31  O   UNL     1       1.044  -3.387   6.913  1.00  0.00    -0.496 OA
ATOM     32  C   UNL     1      -0.357  -3.444   6.718  1.00  0.00     0.278 C 
ENDBRANCH  27  31
ENDBRANCH  13  25
ENDBRANCH   5   8
ENDBRANCH   3   4
ENDBRANCH   2   3
ENDBRANCH   1   2
BRANCH   1  33
ATOM     33  C   UNL     1      -4.301  -1.492   3.196  1.00  0.00     0.002 C 
BRANCH  33  34
ATOM     34  C   UNL     1      -3.920  -0.589   2.018  1.00  0.00     0.021 C 
BRANCH  34  35
ATOM     35  C   UNL     1      -4.837  -0.688   0.802  1.00  0.00     0.116 C 
BRANCH  35  36
ATOM     36  N   UNL     1      -6.222  -0.391   1.135  1.00  0.00    -0.352 N 
ATOM     37  C   UNL     1      -7.088   0.498   0.557  1.00  0.00     0.251 C 
ATOM     38  H   UNL     1      -6.591  -0.907   1.887  1.00  0.00     0.163 HD
ATOM     39  O   UNL     1      -8.161   0.749   1.115  1.00  0.00    -0.269 OA
BRANCH  37  40
ATOM     40  C   UNL     1      -6.738   1.169  -0.712  1.00  0.00     0.039 A 
ATOM     41  C   UNL     1      -6.999   2.535  -0.847  1.00  0.00     0.014 A 
ATOM     42  C   UNL     1      -6.169   0.457  -1.772  1.00  0.00     0.014 A 
ATOM     43  C   UNL     1      -6.635   3.197  -2.022  1.00  0.00     0.010 A 
ATOM     44  C   UNL     1      -5.745   1.132  -2.915  1.00  0.00     0.010 A 
ATOM     45  C   UNL     1      -5.972   2.510  -3.053  1.00  0.00    -0.014 A 
BRANCH  45  46
ATOM     46  C   UNL     1      -5.502   3.223  -4.270  1.00  0.00     0.031 A 
ATOM     47  C   UNL     1      -6.070   2.875  -5.621  1.00  0.00     0.074 A 
ATOM     48  C   UNL     1      -4.521   4.144  -4.162  1.00  0.00     0.049 A 
ATOM     49  N   UNL     1      -5.744   3.342  -6.798  1.00  0.00    -0.248 NA
ATOM     50  C   UNL     1      -7.126   1.850  -5.656  1.00  0.00     0.031 C 
ATOM     51  C   UNL     1      -3.865   4.534  -2.910  1.00  0.00     0.029 A 
ATOM     52  N   UNL     1      -3.895   4.911  -5.113  1.00  0.00    -0.354 N 
ATOM     53  C   UNL     1      -6.536   2.658  -7.714  1.00  0.00     0.074 A 
ATOM     54  C   UNL     1      -7.330   1.714  -6.959  1.00  0.00     0.031 C 
ATOM     55  C   UNL     1      -2.946   5.477  -3.170  1.00  0.00     0.029 A 
ATOM     56  C   UNL     1      -2.907   5.726  -4.607  1.00  0.00     0.049 A 
ATOM     57  H   UNL     1      -4.131   4.882  -6.068  1.00  0.00     0.167 HD
ATOM     58  C   UNL     1      -6.603   2.816  -9.059  1.00  0.00     0.034 A 
ATOM     59  C   UNL     1      -2.053   6.563  -5.231  1.00  0.00     0.034 A 
ATOM     60  C   UNL     1      -5.825   3.784  -9.793  1.00  0.00     0.049 A 
ATOM     61  C   UNL     1      -2.149   6.711  -6.731  1.00  0.00     0.074 A 
ATOM     62  C   UNL     1      -5.881   4.082 -11.144  1.00  0.00     0.029 A 
ATOM     63  N   UNL     1      -4.843   4.599  -9.247  1.00  0.00    -0.354 N 
ATOM     64  N   UNL     1      -2.963   6.111  -7.569  1.00  0.00    -0.248 NA
ATOM     65  C   UNL     1      -1.223   7.657  -7.367  1.00  0.00     0.031 C 
ATOM     66  C   UNL     1      -4.880   5.016 -11.428  1.00  0.00     0.029 A 
ATOM     67  C   UNL     1      -4.258   5.368 -10.242  1.00  0.00     0.049 A 
ATOM     68  H   UNL     1      -4.598   4.627  -8.294  1.00  0.00     0.167 HD
ATOM     69  C   UNL     1      -2.668   6.638  -8.825  1.00  0.00     0.074 A 
ATOM     70  C   UNL     1      -1.621   7.617  -8.629  1.00  0.00     0.031 C 
ATOM     71  C   UNL     1      -3.213   6.340 -10.032  1.00  0.00     0.034 A 
BRANCH  58  72
ATOM     72  C   UNL     1      -7.525   1.909  -9.836  1.00  0.00     0.023 A 
ATOM     73  C   UNL     1      -8.922   1.963  -9.691  1.00  0.00     0.031 A 
ATOM     74  C   UNL     1      -6.994   1.001 -10.771  1.00  0.00     0.131 A 
ATOM     75  C   UNL     1      -9.736   1.096 -10.437  1.00  0.00     0.055 A 
ATOM     76  C   UNL     1      -7.812   0.192 -11.559  1.00  0.00     0.041 A 
ATOM     77  F   UNL     1      -5.666   0.892 -10.936  1.00  0.00    -0.206 F 
ATOM     78  C   UNL     1      -9.193   0.231 -11.389  1.00  0.00     0.022 A 
BRANCH  75  79
ATOM     79  S   UNL     1     -11.513   1.047 -10.078  1.00  0.00     0.124 S 
ATOM     80  O   UNL     1     -11.520   0.626  -8.679  1.00  0.00    -0.237 OA
ATOM     81  O   UNL     1     -11.925   2.422 -10.334  1.00  0.00    -0.237 OA
ATOM     82  O   UNL     1     -12.026   0.056 -11.022  1.00  0.00    -0.744 OA
ENDBRANCH  75  79
ENDBRANCH  58  72
BRANCH  59  83
ATOM     83  C   UNL     1      -1.009   7.307  -4.463  1.00  0.00     0.023 A 
ATOM     84  C   UNL     1      -0.970   8.711  -4.464  1.00  0.00     0.031 A 
ATOM     85  C   UNL     1       0.020   6.624  -3.790  1.00  0.00     0.131 A 
ATOM     86  C   UNL     1       0.113   9.383  -3.876  1.00  0.00     0.055 A 
ATOM     87  C   UNL     1       1.057   7.300  -3.143  1.00  0.00     0.041 A 
ATOM     88  F   UNL     1       0.036   5.282  -3.753  1.00  0.00    -0.206 F 
ATOM     89  C   UNL     1       1.119   8.688  -3.203  1.00  0.00     0.022 A 
BRANCH  86  90
ATOM     90  S   UNL     1       0.262  11.174  -4.130  1.00  0.00     0.124 S 
ATOM     91  O   UNL     1       0.203  11.272  -5.584  1.00  0.00    -0.237 OA
ATOM     92  O   UNL     1      -0.899  11.678  -3.404  1.00  0.00    -0.237 OA
ATOM     93  O   UNL     1       1.557  11.493  -3.534  1.00  0.00    -0.744 OA
ENDBRANCH  86  90
ENDBRANCH  59  83
BRANCH  71  94
ATOM     94  C   UNL     1      -2.717   7.125 -11.223  1.00  0.00     0.023 A 
ATOM     95  C   UNL     1      -1.393   7.017 -11.682  1.00  0.00     0.031 A 
ATOM     96  C   UNL     1      -3.581   8.005 -11.898  1.00  0.00     0.131 A 
ATOM     97  C   UNL     1      -0.954   7.822 -12.744  1.00  0.00     0.055 A 
ATOM     98  C   UNL     1      -3.158   8.752 -12.998  1.00  0.00     0.041 A 
ATOM     99  F   UNL     1      -4.856   8.151 -11.502  1.00  0.00    -0.206 F 
ATOM    100  C   UNL     1      -1.833   8.674 -13.417  1.00  0.00     0.022 A 
BRANCH  97 101
ATOM    101  S   UNL     1       0.809   7.816 -13.169  1.00  0.00     0.124 S 
ATOM    102  O   UNL     1       1.426   8.220 -11.910  1.00  0.00    -0.237 OA
ATOM    103  O   UNL     1       1.029   6.429 -13.570  1.00  0.00    -0.237 OA
ATOM    104  O   UNL     1       0.905   8.795 -14.250  1.00  0.00    -0.744 OA
ENDBRANCH  97 101
ENDBRANCH  71  94
ENDBRANCH  45  46
ENDBRANCH  37  40
ENDBRANCH  35  36
ENDBRANCH  34  35
ENDBRANCH  33  34
ENDBRANCH   1  33
TORSDOF 22
