REMARK SMILES CC[C@@](C)(NC(=O)Nc1c(C)cccc1Cl)C(=O)NCCCCCCNC(=O)c1ccc(-c2c3nc(c(-c4cc(S(=O)(=O)[O-])ccc4F)c4ccc([nH]4)c(-c4cc(S(=O)(=O)[O-])ccc4F)c4nc(c(-c5cc(S(=O)(=O)[O-])ccc5F)c5ccc2[nH]5)C=C4)C=C3)cc1
REMARK SMILES IDX 23 1 22 2 21 3 20 4 19 5 17 6 18 7 3 9 4 10 2 11 1 12 5 13
REMARK SMILES IDX 6 14 7 16 8 17 9 19 10 20 15 21 11 22 12 23 14 24 16 25
REMARK SMILES IDX 13 26 24 27 25 28 26 29 27 30 28 32 29 33 30 34 91 35 31 36
REMARK SMILES IDX 90 37 32 38 33 39 34 40 84 41 35 42 89 43 83 44 85 45 36 46
REMARK SMILES IDX 88 47 82 48 81 49 37 51 69 52 49 53 68 54 50 55 53 56 67 57
REMARK SMILES IDX 86 58 51 59 52 60 66 62 87 63 54 64 38 65 39 66 47 67 40 68
REMARK SMILES IDX 46 69 48 70 45 71 41 72 42 73 43 74 44 75 70 76 71 77 79 78
REMARK SMILES IDX 72 79 78 80 80 81 77 82 73 83 74 84 75 85 76 86 55 87 56 88
REMARK SMILES IDX 64 89 57 90 63 91 65 92 62 93 58 94 59 95 60 96 61 97
REMARK H PARENT 19 8 5 15 8 18 26 31 85 50 53 61
REMARK Flexibility Score: inf
ROOT
ATOM      1  C   UNL     1       4.420   4.023   5.388  1.00  0.00     0.002 C 
ENDROOT
BRANCH   1   2
ATOM      2  C   UNL     1       3.834   2.677   5.811  1.00  0.00     0.002 C 
BRANCH   2   3
ATOM      3  C   UNL     1       2.321   2.555   6.053  1.00  0.00     0.021 C 
BRANCH   3   4
ATOM      4  C   UNL     1       1.302   2.912   4.954  1.00  0.00     0.116 C 
BRANCH   4   5
ATOM      5  N   UNL     1       1.695   2.666   3.575  1.00  0.00    -0.354 N 
ATOM      6  C   UNL     1       1.110   1.992   2.500  1.00  0.00     0.245 C 
ATOM      7  O   UNL     1       1.170   2.463   1.362  1.00  0.00    -0.272 OA
ATOM      8  H   UNL     1       2.568   3.062   3.349  1.00  0.00     0.163 HD
BRANCH   6   9
ATOM      9  C   UNL     1       0.276   0.738   2.751  1.00  0.00     0.117 C 
ATOM     10  C   UNL     1      -1.146   1.310   2.968  1.00  0.00     0.045 C 
BRANCH   9  11
ATOM     11  C   UNL     1       0.163  -0.418   1.716  1.00  0.00     0.035 C 
ATOM     12  C   UNL     1       0.409  -0.131   0.250  1.00  0.00     0.007 C 
ENDBRANCH   9  11
BRANCH   9  13
ATOM     13  N   UNL     1       0.889   0.185   3.942  1.00  0.00    -0.324 N 
ATOM     14  C   UNL     1       2.152  -0.147   4.207  1.00  0.00     0.320 C 
ATOM     15  H   UNL     1       0.263   0.028   4.685  1.00  0.00     0.166 HD
ATOM     16  O   UNL     1       2.287  -0.775   5.271  1.00  0.00    -0.248 OA
ATOM     17  N   UNL     1       3.282   0.003   3.507  1.00  0.00    -0.306 N 
ATOM     18  H   UNL     1       3.957  -0.399   4.099  1.00  0.00     0.171 HD
BRANCH  17  19
ATOM     19  C   UNL     1       4.068   0.422   2.372  1.00  0.00     0.064 A 
ATOM     20  C   UNL     1       4.130   1.536   1.478  1.00  0.00    -0.026 A 
ATOM     21  C   UNL     1       5.094  -0.552   2.131  1.00  0.00     0.064 A 
ATOM     22  C   UNL     1       3.989   3.030   1.752  1.00  0.00     0.046 C 
ATOM     23  C   UNL     1       4.867   1.418   0.260  1.00  0.00     0.005 A 
ATOM     24  C   UNL     1       5.926  -0.561   1.007  1.00  0.00     0.023 A 
ATOM     25  Cl  UNL     1       5.402  -1.844   3.272  1.00  0.00    -0.082 Cl
ATOM     26  C   UNL     1       5.762   0.392   0.030  1.00  0.00     0.002 A 
ENDBRANCH  17  19
ENDBRANCH   9  13
ENDBRANCH   6   9
ENDBRANCH   4   5
ENDBRANCH   3   4
ENDBRANCH   2   3
ENDBRANCH   1   2
BRANCH   1  27
ATOM     27  C   UNL     1       3.987   5.251   6.169  1.00  0.00     0.021 C 
BRANCH  27  28
ATOM     28  C   UNL     1       4.276   5.207   7.657  1.00  0.00     0.116 C 
BRANCH  28  29
ATOM     29  N   UNL     1       5.693   5.284   7.970  1.00  0.00    -0.352 N 
ATOM     30  C   UNL     1       6.331   6.089   8.892  1.00  0.00     0.251 C 
ATOM     31  H   UNL     1       6.276   4.680   7.456  1.00  0.00     0.163 HD
ATOM     32  O   UNL     1       7.550   6.122   8.934  1.00  0.00    -0.269 OA
BRANCH  30  33
ATOM     33  C   UNL     1       5.521   6.948   9.793  1.00  0.00     0.039 A 
ATOM     34  C   UNL     1       5.910   8.276   9.982  1.00  0.00     0.014 A 
ATOM     35  C   UNL     1       4.366   6.463  10.412  1.00  0.00     0.014 A 
ATOM     36  C   UNL     1       5.097   9.132  10.729  1.00  0.00     0.010 A 
ATOM     37  C   UNL     1       3.509   7.340  11.071  1.00  0.00     0.010 A 
ATOM     38  C   UNL     1       3.867   8.685  11.242  1.00  0.00    -0.014 A 
BRANCH  38  39
ATOM     39  C   UNL     1       2.950   9.624  11.941  1.00  0.00     0.031 A 
ATOM     40  C   UNL     1       2.593   9.411  13.387  1.00  0.00     0.074 A 
ATOM     41  C   UNL     1       2.415  10.656  11.257  1.00  0.00     0.049 A 
ATOM     42  N   UNL     1       1.842  10.144  14.170  1.00  0.00    -0.248 NA
ATOM     43  C   UNL     1       3.125   8.201  14.029  1.00  0.00     0.031 C 
ATOM     44  C   UNL     1       2.640  10.933   9.836  1.00  0.00     0.029 A 
ATOM     45  N   UNL     1       1.587  11.672  11.663  1.00  0.00    -0.354 N 
ATOM     46  C   UNL     1       1.807   9.482  15.393  1.00  0.00     0.074 A 
ATOM     47  C   UNL     1       2.552   8.253  15.222  1.00  0.00     0.031 C 
ATOM     48  C   UNL     1       2.016  12.074   9.506  1.00  0.00     0.029 A 
ATOM     49  C   UNL     1       1.308  12.586  10.673  1.00  0.00     0.049 A 
ATOM     50  H   UNL     1       1.226  11.740  12.576  1.00  0.00     0.167 HD
ATOM     51  C   UNL     1       1.229   9.875  16.556  1.00  0.00     0.034 A 
ATOM     52  C   UNL     1       0.570  13.713  10.704  1.00  0.00     0.034 A 
ATOM     53  C   UNL     1       0.490  11.106  16.705  1.00  0.00     0.049 A 
ATOM     54  C   UNL     1      -0.083  14.117  12.001  1.00  0.00     0.074 A 
ATOM     55  C   UNL     1      -0.077  11.638  17.851  1.00  0.00     0.029 A 
ATOM     56  N   UNL     1       0.197  11.991  15.674  1.00  0.00    -0.354 N 
ATOM     57  N   UNL     1      -0.038  13.522  13.171  1.00  0.00    -0.248 NA
ATOM     58  C   UNL     1      -0.875  15.351  11.981  1.00  0.00     0.031 C 
ATOM     59  C   UNL     1      -0.785  12.792  17.496  1.00  0.00     0.029 A 
ATOM     60  C   UNL     1      -0.584  13.037  16.147  1.00  0.00     0.049 A 
ATOM     61  H   UNL     1       0.499  11.891  14.742  1.00  0.00     0.167 HD
ATOM     62  C   UNL     1      -0.777  14.328  14.034  1.00  0.00     0.074 A 
ATOM     63  C   UNL     1      -1.227  15.462  13.252  1.00  0.00     0.031 C 
ATOM     64  C   UNL     1      -1.058  14.148  15.351  1.00  0.00     0.034 A 
BRANCH  51  65
ATOM     65  C   UNL     1       1.346   8.941  17.741  1.00  0.00     0.023 A 
ATOM     66  C   UNL     1       2.593   8.573  18.279  1.00  0.00     0.031 A 
ATOM     67  C   UNL     1       0.194   8.378  18.319  1.00  0.00     0.131 A 
ATOM     68  C   UNL     1       2.663   7.606  19.294  1.00  0.00     0.055 A 
ATOM     69  C   UNL     1       0.266   7.487  19.392  1.00  0.00     0.041 A 
ATOM     70  F   UNL     1      -1.025   8.669  17.838  1.00  0.00    -0.206 F 
ATOM     71  C   UNL     1       1.507   7.081  19.874  1.00  0.00     0.022 A 
BRANCH  68  72
ATOM     72  S   UNL     1       4.287   6.919  19.724  1.00  0.00     0.124 S 
ATOM     73  O   UNL     1       4.749   6.423  18.431  1.00  0.00    -0.237 OA
ATOM     74  O   UNL     1       4.991   8.082  20.253  1.00  0.00    -0.237 OA
ATOM     75  O   UNL     1       3.970   5.881  20.704  1.00  0.00    -0.744 OA
ENDBRANCH  68  72
ENDBRANCH  51  65
BRANCH  52  76
ATOM     76  C   UNL     1       0.413  14.550   9.479  1.00  0.00     0.023 A 
ATOM     77  C   UNL     1       0.907  15.864   9.433  1.00  0.00     0.031 A 
ATOM     78  C   UNL     1      -0.264  14.062   8.347  1.00  0.00     0.131 A 
ATOM     79  C   UNL     1       0.678  16.660   8.300  1.00  0.00     0.055 A 
ATOM     80  C   UNL     1      -0.440  14.838   7.200  1.00  0.00     0.041 A 
ATOM     81  F   UNL     1      -0.755  12.812   8.335  1.00  0.00    -0.206 F 
ATOM     82  C   UNL     1       0.022  16.151   7.177  1.00  0.00     0.022 A 
BRANCH  79  83
ATOM     83  S   UNL     1       1.180  18.402   8.345  1.00  0.00     0.124 S 
ATOM     84  O   UNL     1       0.418  18.901   9.483  1.00  0.00    -0.237 OA
ATOM     85  O   UNL     1       2.623  18.297   8.536  1.00  0.00    -0.237 OA
ATOM     86  O   UNL     1       0.762  18.910   7.041  1.00  0.00    -0.744 OA
ENDBRANCH  79  83
ENDBRANCH  52  76
BRANCH  64  87
ATOM     87  C   UNL     1      -1.876  15.226  16.024  1.00  0.00     0.023 A 
ATOM     88  C   UNL     1      -3.193  15.512  15.621  1.00  0.00     0.031 A 
ATOM     89  C   UNL     1      -1.317  16.013  17.047  1.00  0.00     0.131 A 
ATOM     90  C   UNL     1      -3.873  16.609  16.172  1.00  0.00     0.055 A 
ATOM     91  C   UNL     1      -2.029  17.052  17.650  1.00  0.00     0.041 A 
ATOM     92  F   UNL     1      -0.063  15.792  17.473  1.00  0.00    -0.206 F 
ATOM     93  C   UNL     1      -3.307  17.368  17.198  1.00  0.00     0.022 A 
BRANCH  90  94
ATOM     94  S   UNL     1      -5.446  17.117  15.426  1.00  0.00     0.124 S 
ATOM     95  O   UNL     1      -5.067  17.326  14.033  1.00  0.00    -0.237 OA
ATOM     96  O   UNL     1      -6.303  15.965  15.688  1.00  0.00    -0.237 OA
ATOM     97  O   UNL     1      -5.798  18.331  16.162  1.00  0.00    -0.744 OA
ENDBRANCH  90  94
ENDBRANCH  64  87
ENDBRANCH  38  39
ENDBRANCH  30  33
ENDBRANCH  28  29
ENDBRANCH  27  28
ENDBRANCH   1  27
TORSDOF 19
