REMARK SMILES COc1cccc(NC(=O)COc2csc(C(=O)NCCCCCCNC(=O)c3ccc(-c4c5nc(c(-c6cc(S(=O)(=O)[O-])ccc6F)c6ccc([nH]6)c(-c6cc(S(=O)(=O)[O-])ccc6F)c6nc(c(-c7cc(S(=O)(=O)[O-])ccc7F)c7ccc4[nH]7)C=C6)C=C5)cc3)c2)c1
REMARK SMILES IDX 21 1 20 2 19 3 17 4 18 5 16 7 13 8 14 9 92 10 15 11 12 12
REMARK SMILES IDX 11 13 9 14 8 15 10 17 7 18 3 19 4 20 93 21 5 22 6 23 2 24
REMARK SMILES IDX 1 25 22 26 23 27 24 28 25 29 26 30 27 31 28 33 29 34 30 35
REMARK SMILES IDX 91 36 31 37 90 38 32 39 33 40 34 41 84 42 35 43 89 44 83 45
REMARK SMILES IDX 85 46 36 47 88 48 82 49 81 50 37 52 69 53 49 54 68 55 50 56
REMARK SMILES IDX 53 57 67 58 86 59 51 60 52 61 66 63 87 64 54 65 38 66 39 67
REMARK SMILES IDX 47 68 40 69 46 70 48 71 45 72 41 73 42 74 43 75 44 76 70 77
REMARK SMILES IDX 71 78 79 79 72 80 78 81 80 82 77 83 73 84 74 85 75 86 76 87
REMARK SMILES IDX 55 88 56 89 64 90 57 91 63 92 65 93 62 94 58 95 59 96 60 97
REMARK SMILES IDX 61 98
REMARK H PARENT 19 6 8 16 26 32 85 51 53 62
REMARK Flexibility Score: inf
ROOT
ATOM      1  C   UNL     1       1.749   9.374   6.925  1.00  0.00     0.021 C 
ENDROOT
BRANCH   1   2
ATOM      2  C   UNL     1       1.800   9.069   5.427  1.00  0.00     0.116 C 
BRANCH   2   3
ATOM      3  N   UNL     1       3.045   9.536   4.852  1.00  0.00    -0.351 N 
ATOM      4  C   UNL     1       4.203   8.881   4.505  1.00  0.00     0.261 C 
ATOM      5  O   UNL     1       5.073   9.595   3.998  1.00  0.00    -0.268 OA
ATOM      6  H   UNL     1       3.066  10.505   4.678  1.00  0.00     0.163 HD
BRANCH   4   7
ATOM      7  C   UNL     1       4.357   7.444   4.696  1.00  0.00     0.096 A 
ATOM      8  C   UNL     1       4.092   5.184   5.270  1.00  0.00     0.131 A 
ATOM      9  C   UNL     1       5.119   5.097   4.364  1.00  0.00     0.112 A 
ATOM     10  C   UNL     1       3.713   6.534   5.514  1.00  0.00     0.072 A 
ATOM     11  S   UNL     1       5.574   6.638   3.774  1.00  0.00    -0.135 S 
BRANCH   8  12
ATOM     12  O   UNL     1       3.404   4.164   5.836  1.00  0.00    -0.483 OA
BRANCH  12  13
ATOM     13  C   UNL     1       4.127   2.993   6.142  1.00  0.00     0.329 C 
BRANCH  13  14
ATOM     14  C   UNL     1       4.605   2.049   5.038  1.00  0.00     0.262 C 
ATOM     15  N   UNL     1       3.839   1.644   3.990  1.00  0.00    -0.323 N 
ATOM     16  H   UNL     1       4.340   1.084   3.354  1.00  0.00     0.170 HD
ATOM     17  O   UNL     1       5.768   1.620   5.068  1.00  0.00    -0.271 OA
BRANCH  15  18
ATOM     18  C   UNL     1       2.503   1.834   3.600  1.00  0.00     0.044 A 
ATOM     19  C   UNL     1       0.899   1.600   1.775  1.00  0.00     0.120 A 
ATOM     20  C   UNL     1      -0.086   2.181   2.564  1.00  0.00     0.046 A 
ATOM     21  C   UNL     1       2.188   1.439   2.287  1.00  0.00     0.072 A 
ATOM     22  C   UNL     1       0.202   2.541   3.879  1.00  0.00     0.006 A 
ATOM     23  C   UNL     1       1.489   2.354   4.400  1.00  0.00     0.026 A 
BRANCH  19  24
ATOM     24  O   UNL     1       0.534   1.276   0.496  1.00  0.00    -0.497 OA
ATOM     25  C   UNL     1       1.077   0.045   0.026  1.00  0.00     0.278 C 
ENDBRANCH  19  24
ENDBRANCH  15  18
ENDBRANCH  13  14
ENDBRANCH  12  13
ENDBRANCH   8  12
ENDBRANCH   4   7
ENDBRANCH   2   3
ENDBRANCH   1   2
BRANCH   1  26
ATOM     26  C   UNL     1       1.388  10.834   7.234  1.00  0.00     0.002 C 
BRANCH  26  27
ATOM     27  C   UNL     1       0.011  11.281   6.725  1.00  0.00     0.002 C 
BRANCH  27  28
ATOM     28  C   UNL     1      -1.162  10.406   7.177  1.00  0.00     0.021 C 
BRANCH  28  29
ATOM     29  C   UNL     1      -1.370  10.369   8.687  1.00  0.00     0.116 C 
BRANCH  29  30
ATOM     30  N   UNL     1      -1.736  11.676   9.206  1.00  0.00    -0.352 N 
ATOM     31  C   UNL     1      -2.827  12.039   9.955  1.00  0.00     0.251 C 
ATOM     32  H   UNL     1      -1.111  12.405   8.990  1.00  0.00     0.163 HD
ATOM     33  O   UNL     1      -3.105  13.227  10.082  1.00  0.00    -0.269 OA
BRANCH  31  34
ATOM     34  C   UNL     1      -3.665  11.001  10.595  1.00  0.00     0.039 A 
ATOM     35  C   UNL     1      -5.053  11.160  10.602  1.00  0.00     0.014 A 
ATOM     36  C   UNL     1      -3.083   9.897  11.225  1.00  0.00     0.014 A 
ATOM     37  C   UNL     1      -5.858  10.196  11.213  1.00  0.00     0.010 A 
ATOM     38  C   UNL     1      -3.889   8.900  11.767  1.00  0.00     0.010 A 
ATOM     39  C   UNL     1      -5.284   9.051  11.788  1.00  0.00    -0.014 A 
BRANCH  39  40
ATOM     40  C   UNL     1      -6.122   8.029  12.468  1.00  0.00     0.031 A 
ATOM     41  C   UNL     1      -5.965   7.801  13.948  1.00  0.00     0.074 A 
ATOM     42  C   UNL     1      -6.980   7.279  11.752  1.00  0.00     0.049 A 
ATOM     43  N   UNL     1      -6.545   6.917  14.718  1.00  0.00    -0.248 NA
ATOM     44  C   UNL     1      -4.996   8.659  14.645  1.00  0.00     0.031 C 
ATOM     45  C   UNL     1      -7.188   7.381  10.306  1.00  0.00     0.029 A 
ATOM     46  N   UNL     1      -7.832   6.277  12.140  1.00  0.00    -0.354 N 
ATOM     47  C   UNL     1      -5.999   7.100  15.985  1.00  0.00     0.074 A 
ATOM     48  C   UNL     1      -4.990   8.130  15.858  1.00  0.00     0.031 C 
ATOM     49  C   UNL     1      -8.125   6.495   9.934  1.00  0.00     0.029 A 
ATOM     50  C   UNL     1      -8.556   5.734  11.103  1.00  0.00     0.049 A 
ATOM     51  H   UNL     1      -7.918   5.974  13.072  1.00  0.00     0.167 HD
ATOM     52  C   UNL     1      -6.326   6.486  17.150  1.00  0.00     0.034 A 
ATOM     53  C   UNL     1      -9.460   4.735  11.097  1.00  0.00     0.034 A 
ATOM     54  C   UNL     1      -7.346   5.471  17.256  1.00  0.00     0.049 A 
ATOM     55  C   UNL     1      -9.813   4.066  12.401  1.00  0.00     0.074 A 
ATOM     56  C   UNL     1      -7.796   4.812  18.387  1.00  0.00     0.029 A 
ATOM     57  N   UNL     1      -8.078   4.964  16.188  1.00  0.00    -0.354 N 
ATOM     58  N   UNL     1      -9.320   4.280  13.600  1.00  0.00    -0.248 NA
ATOM     59  C   UNL     1     -10.858   3.037  12.354  1.00  0.00     0.031 C 
ATOM     60  C   UNL     1      -8.748   3.864  17.995  1.00  0.00     0.029 A 
ATOM     61  C   UNL     1      -8.956   3.987  16.630  1.00  0.00     0.049 A 
ATOM     62  H   UNL     1      -7.985   5.257  15.252  1.00  0.00     0.167 HD
ATOM     63  C   UNL     1     -10.026   3.438  14.456  1.00  0.00     0.074 A 
ATOM     64  C   UNL     1     -10.982   2.722  13.634  1.00  0.00     0.031 C 
ATOM     65  C   UNL     1      -9.901   3.276  15.798  1.00  0.00     0.034 A 
BRANCH  52  66
ATOM     66  C   UNL     1      -5.545   6.882  18.384  1.00  0.00     0.023 A 
ATOM     67  C   UNL     1      -5.546   8.203  18.868  1.00  0.00     0.031 A 
ATOM     68  C   UNL     1      -4.745   5.941  19.055  1.00  0.00     0.131 A 
ATOM     69  C   UNL     1      -4.692   8.567  19.920  1.00  0.00     0.055 A 
ATOM     70  C   UNL     1      -3.969   6.289  20.164  1.00  0.00     0.041 A 
ATOM     71  F   UNL     1      -4.683   4.669  18.632  1.00  0.00    -0.206 F 
ATOM     72  C   UNL     1      -3.923   7.613  20.590  1.00  0.00     0.022 A 
BRANCH  69  73
ATOM     73  S   UNL     1      -4.468  10.331  20.280  1.00  0.00     0.124 S 
ATOM     74  O   UNL     1      -3.998  10.836  18.993  1.00  0.00    -0.237 OA
ATOM     75  O   UNL     1      -5.809  10.744  20.678  1.00  0.00    -0.237 OA
ATOM     76  O   UNL     1      -3.469  10.339  21.347  1.00  0.00    -0.744 OA
ENDBRANCH  69  73
ENDBRANCH  52  66
BRANCH  53  77
ATOM     77  C   UNL     1     -10.100   4.310   9.820  1.00  0.00     0.023 A 
ATOM     78  C   UNL     1     -11.475   4.492   9.603  1.00  0.00     0.031 A 
ATOM     79  C   UNL     1      -9.348   3.690   8.806  1.00  0.00     0.131 A 
ATOM     80  C   UNL     1     -12.065   4.021   8.419  1.00  0.00     0.055 A 
ATOM     81  C   UNL     1      -9.931   3.269   7.609  1.00  0.00     0.041 A 
ATOM     82  F   UNL     1      -8.028   3.501   8.959  1.00  0.00    -0.206 F 
ATOM     83  C   UNL     1     -11.300   3.423   7.416  1.00  0.00     0.022 A 
BRANCH  80  84
ATOM     84  S   UNL     1     -13.866   4.139   8.240  1.00  0.00     0.124 S 
ATOM     85  O   UNL     1     -14.330   3.363   9.383  1.00  0.00    -0.237 OA
ATOM     86  O   UNL     1     -14.083   5.580   8.310  1.00  0.00    -0.237 OA
ATOM     87  O   UNL     1     -14.117   3.537   6.932  1.00  0.00    -0.744 OA
ENDBRANCH  80  84
ENDBRANCH  53  77
BRANCH  65  88
ATOM     88  C   UNL     1     -10.868   2.328  16.468  1.00  0.00     0.023 A 
ATOM     89  C   UNL     1     -10.859   0.947  16.207  1.00  0.00     0.031 A 
ATOM     90  C   UNL     1     -11.828   2.825  17.367  1.00  0.00     0.131 A 
ATOM     91  C   UNL     1     -11.833   0.120  16.788  1.00  0.00     0.055 A 
ATOM     92  C   UNL     1     -12.752   1.987  17.993  1.00  0.00     0.041 A 
ATOM     93  F   UNL     1     -11.885   4.136  17.653  1.00  0.00    -0.206 F 
ATOM     94  C   UNL     1     -12.768   0.629  17.692  1.00  0.00     0.022 A 
BRANCH  91  95
ATOM     95  S   UNL     1     -11.931  -1.613  16.260  1.00  0.00     0.124 S 
ATOM     96  O   UNL     1     -12.093  -1.481  14.815  1.00  0.00    -0.237 OA
ATOM     97  O   UNL     1     -10.651  -2.149  16.711  1.00  0.00    -0.237 OA
ATOM     98  O   UNL     1     -13.102  -2.122  16.971  1.00  0.00    -0.744 OA
ENDBRANCH  91  95
ENDBRANCH  65  88
ENDBRANCH  39  40
ENDBRANCH  31  34
ENDBRANCH  29  30
ENDBRANCH  28  29
ENDBRANCH  27  28
ENDBRANCH  26  27
ENDBRANCH   1  26
TORSDOF 21
