REMARK SMILES O=C(NCCCCCCNC(=O)[C@H]1Cc2ccc(Cl)cc2C[N@@H+]1Cc1ccc(Cl)cc1)c1ccc(-c2c3nc(c(-c4cc(S(=O)(=O)[O-])ccc4F)c4ccc([nH]4)c(-c4cc(S(=O)(=O)[O-])ccc4F)c4nc(c(-c5cc(S(=O)(=O)[O-])ccc5F)c5ccc2[nH]5)C=C4)C=C3)cc1
REMARK SMILES IDX 6 1 5 2 4 3 3 4 1 5 2 6 32 8 33 9 94 10 34 11 93 12 35 13
REMARK SMILES IDX 36 14 37 15 87 16 38 17 92 18 86 19 88 20 39 21 91 22 85 23
REMARK SMILES IDX 84 24 40 26 72 27 52 28 71 29 53 30 56 31 70 32 89 33 54 34
REMARK SMILES IDX 55 35 69 37 90 38 57 39 41 40 42 41 50 42 43 43 49 44 51 45
REMARK SMILES IDX 48 46 44 47 45 48 46 49 47 50 73 51 74 52 82 53 75 54 81 55
REMARK SMILES IDX 83 56 80 57 76 58 77 59 78 60 79 61 58 62 59 63 67 64 60 65
REMARK SMILES IDX 66 66 68 67 65 68 61 69 62 70 63 71 64 72 7 73 8 74 9 75
REMARK SMILES IDX 10 76 11 77 12 79 13 80 14 81 23 82 15 83 22 84 16 86 21 87
REMARK SMILES IDX 17 88 20 89 18 90 19 91 24 92 25 93 26 94 31 95 27 96 30 97
REMARK SMILES IDX 28 98 29 99
REMARK H PARENT 3 7 88 25 56 36 10 78 23 85
REMARK Flexibility Score: inf
ROOT
ATOM      1  C   UNL     1       4.199   3.119  -2.439  1.00  0.00     0.002 C 
ENDROOT
BRANCH   1   2
ATOM      2  C   UNL     1       4.786   1.745  -2.113  1.00  0.00     0.021 C 
BRANCH   2   3
ATOM      3  C   UNL     1       4.435   1.162  -0.751  1.00  0.00     0.116 C 
BRANCH   3   4
ATOM      4  N   UNL     1       3.006   1.055  -0.524  1.00  0.00    -0.352 N 
ATOM      5  O   UNL     1       1.052   0.086   0.016  1.00  0.00    -0.269 OA
ATOM      6  C   UNL     1       2.284   0.022   0.015  1.00  0.00     0.251 C 
ATOM      7  H   UNL     1       2.478   1.839  -0.798  1.00  0.00     0.163 HD
BRANCH   6   8
ATOM      8  C   UNL     1       2.960  -1.170   0.577  1.00  0.00     0.039 A 
ATOM      9  C   UNL     1       2.390  -2.426   0.355  1.00  0.00     0.014 A 
ATOM     10  C   UNL     1       4.122  -1.063   1.349  1.00  0.00     0.014 A 
ATOM     11  C   UNL     1       2.990  -3.567   0.891  1.00  0.00     0.010 A 
ATOM     12  C   UNL     1       4.770  -2.210   1.803  1.00  0.00     0.010 A 
ATOM     13  C   UNL     1       4.194  -3.472   1.610  1.00  0.00    -0.014 A 
BRANCH  13  14
ATOM     14  C   UNL     1       4.824  -4.686   2.193  1.00  0.00     0.031 A 
ATOM     15  C   UNL     1       4.971  -4.829   3.684  1.00  0.00     0.074 A 
ATOM     16  C   UNL     1       5.269  -5.662   1.378  1.00  0.00     0.049 A 
ATOM     17  N   UNL     1       5.439  -5.838   4.372  1.00  0.00    -0.248 NA
ATOM     18  C   UNL     1       4.563  -3.681   4.510  1.00  0.00     0.031 C 
ATOM     19  C   UNL     1       5.240  -5.606  -0.083  1.00  0.00     0.029 A 
ATOM     20  N   UNL     1       5.818  -6.888   1.656  1.00  0.00    -0.354 N 
ATOM     21  C   UNL     1       5.375  -5.449   5.706  1.00  0.00     0.074 A 
ATOM     22  C   UNL     1       4.912  -4.081   5.723  1.00  0.00     0.031 C 
ATOM     23  C   UNL     1       5.702  -6.765  -0.573  1.00  0.00     0.029 A 
ATOM     24  C   UNL     1       6.099  -7.633   0.535  1.00  0.00     0.049 A 
ATOM     25  H   UNL     1       5.994  -7.205   2.572  1.00  0.00     0.167 HD
ATOM     26  C   UNL     1       5.634  -6.180   6.817  1.00  0.00     0.034 A 
ATOM     27  C   UNL     1       6.607  -8.877   0.407  1.00  0.00     0.034 A 
ATOM     28  C   UNL     1       6.085  -7.548   6.783  1.00  0.00     0.049 A 
ATOM     29  C   UNL     1       6.893  -9.677   1.652  1.00  0.00     0.074 A 
ATOM     30  C   UNL     1       6.330  -8.394   7.849  1.00  0.00     0.029 A 
ATOM     31  N   UNL     1       6.361  -8.271   5.630  1.00  0.00    -0.354 N 
ATOM     32  N   UNL     1       6.728  -9.333   2.909  1.00  0.00    -0.248 NA
ATOM     33  C   UNL     1       7.414 -11.038   1.468  1.00  0.00     0.031 C 
ATOM     34  C   UNL     1       6.822  -9.600   7.345  1.00  0.00     0.029 A 
ATOM     35  C   UNL     1       6.808  -9.541   5.960  1.00  0.00     0.049 A 
ATOM     36  H   UNL     1       6.255  -7.932   4.712  1.00  0.00     0.167 HD
ATOM     37  C   UNL     1       7.122 -10.434   3.665  1.00  0.00     0.074 A 
ATOM     38  C   UNL     1       7.486 -11.471   2.721  1.00  0.00     0.031 C 
ATOM     39  C   UNL     1       7.186 -10.568   5.015  1.00  0.00     0.034 A 
BRANCH  26  40
ATOM     40  C   UNL     1       5.404  -5.538   8.166  1.00  0.00     0.023 A 
ATOM     41  C   UNL     1       6.464  -5.411   9.083  1.00  0.00     0.031 A 
ATOM     42  C   UNL     1       4.118  -5.143   8.583  1.00  0.00     0.131 A 
ATOM     43  C   UNL     1       6.213  -4.929  10.375  1.00  0.00     0.055 A 
ATOM     44  C   UNL     1       3.884  -4.613   9.852  1.00  0.00     0.041 A 
ATOM     45  F   UNL     1       3.069  -5.248   7.751  1.00  0.00    -0.206 F 
ATOM     46  C   UNL     1       4.933  -4.517  10.760  1.00  0.00     0.022 A 
BRANCH  43  47
ATOM     47  S   UNL     1       7.521  -4.884  11.631  1.00  0.00     0.124 S 
ATOM     48  O   UNL     1       7.574  -3.460  11.956  1.00  0.00    -0.237 OA
ATOM     49  O   UNL     1       6.967  -5.741  12.676  1.00  0.00    -0.237 OA
ATOM     50  O   UNL     1       8.692  -5.408  10.938  1.00  0.00    -0.744 OA
ENDBRANCH  43  47
ENDBRANCH  26  40
BRANCH  27  51
ATOM     51  C   UNL     1       6.788  -9.437  -0.964  1.00  0.00     0.023 A 
ATOM     52  C   UNL     1       7.649  -8.814  -1.886  1.00  0.00     0.031 A 
ATOM     53  C   UNL     1       5.993 -10.502  -1.419  1.00  0.00     0.131 A 
ATOM     54  C   UNL     1       7.622  -9.196  -3.233  1.00  0.00     0.055 A 
ATOM     55  C   UNL     1       6.030 -10.934  -2.747  1.00  0.00     0.041 A 
ATOM     56  F   UNL     1       5.146 -11.120  -0.582  1.00  0.00    -0.206 F 
ATOM     57  C   UNL     1       6.832 -10.264  -3.667  1.00  0.00     0.022 A 
BRANCH  54  58
ATOM     58  S   UNL     1       8.486  -8.213  -4.491  1.00  0.00     0.124 S 
ATOM     59  O   UNL     1       9.351  -9.207  -5.117  1.00  0.00    -0.237 OA
ATOM     60  O   UNL     1       7.373  -7.739  -5.311  1.00  0.00    -0.237 OA
ATOM     61  O   UNL     1       9.168  -7.182  -3.716  1.00  0.00    -0.744 OA
ENDBRANCH  54  58
ENDBRANCH  27  51
BRANCH  39  62
ATOM     62  C   UNL     1       7.707 -11.870   5.584  1.00  0.00     0.023 A 
ATOM     63  C   UNL     1       6.898 -12.652   6.432  1.00  0.00     0.031 A 
ATOM     64  C   UNL     1       9.045 -12.262   5.402  1.00  0.00     0.131 A 
ATOM     65  C   UNL     1       7.445 -13.758   7.095  1.00  0.00     0.055 A 
ATOM     66  C   UNL     1       9.569 -13.399   6.018  1.00  0.00     0.041 A 
ATOM     67  F   UNL     1       9.865 -11.544   4.617  1.00  0.00    -0.206 F 
ATOM     68  C   UNL     1       8.772 -14.144   6.882  1.00  0.00     0.022 A 
BRANCH  65  69
ATOM     69  S   UNL     1       6.489 -14.680   8.332  1.00  0.00     0.124 S 
ATOM     70  O   UNL     1       6.436 -16.014   7.739  1.00  0.00    -0.237 OA
ATOM     71  O   UNL     1       7.327 -14.559   9.521  1.00  0.00    -0.237 OA
ATOM     72  O   UNL     1       5.213 -13.974   8.389  1.00  0.00    -0.744 OA
ENDBRANCH  65  69
ENDBRANCH  39  62
ENDBRANCH  13  14
ENDBRANCH   6   8
ENDBRANCH   3   4
ENDBRANCH   2   3
ENDBRANCH   1   2
BRANCH   1  73
ATOM     73  C   UNL     1       4.351   4.229  -1.393  1.00  0.00     0.002 C 
BRANCH  73  74
ATOM     74  C   UNL     1       5.756   4.531  -0.852  1.00  0.00     0.021 C 
BRANCH  74  75
ATOM     75  C   UNL     1       6.875   4.653  -1.881  1.00  0.00     0.116 C 
BRANCH  75  76
ATOM     76  N   UNL     1       6.687   5.699  -2.865  1.00  0.00    -0.351 N 
ATOM     77  C   UNL     1       7.552   6.189  -3.803  1.00  0.00     0.278 C 
ATOM     78  H   UNL     1       5.798   6.122  -2.857  1.00  0.00     0.163 HD
ATOM     79  O   UNL     1       7.057   6.959  -4.639  1.00  0.00    -0.268 OA
BRANCH  77  80
ATOM     80  C   UNL     1       9.089   5.968  -3.798  1.00  0.00     0.279 C 
ATOM     81  C   UNL     1       9.661   7.177  -3.016  1.00  0.00     0.111 C 
ATOM     82  N   UNL     1       9.549   4.657  -3.283  1.00  0.00    -0.317 N 
ATOM     83  C   UNL     1      11.132   7.078  -2.721  1.00  0.00    -0.033 A 
ATOM     84  C   UNL     1      11.012   4.578  -3.132  1.00  0.00     0.300 C 
ATOM     85  H   UNL     1       9.112   4.614  -2.363  1.00  0.00     0.349 HD
ATOM     86  C   UNL     1      11.892   8.225  -2.438  1.00  0.00     0.006 A 
ATOM     87  C   UNL     1      11.738   5.820  -2.678  1.00  0.00     0.011 A 
ATOM     88  C   UNL     1      13.250   8.118  -2.126  1.00  0.00     0.021 A 
ATOM     89  C   UNL     1      13.101   5.720  -2.343  1.00  0.00     0.030 A 
ATOM     90  C   UNL     1      13.847   6.863  -2.071  1.00  0.00     0.041 A 
ATOM     91  Cl  UNL     1      15.520   6.723  -1.694  1.00  0.00    -0.084 Cl
BRANCH  82  92
ATOM     92  C   UNL     1       9.069   3.478  -4.043  1.00  0.00     0.299 C 
BRANCH  92  93
ATOM     93  C   UNL     1       9.324   3.417  -5.533  1.00  0.00     0.006 A 
ATOM     94  C   UNL     1      10.535   2.936  -6.051  1.00  0.00     0.011 A 
ATOM     95  C   UNL     1       8.305   3.786  -6.427  1.00  0.00     0.011 A 
ATOM     96  C   UNL     1      10.744   2.877  -7.429  1.00  0.00     0.021 A 
ATOM     97  C   UNL     1       8.503   3.700  -7.805  1.00  0.00     0.021 A 
ATOM     98  C   UNL     1       9.727   3.260  -8.300  1.00  0.00     0.041 A 
ATOM     99  Cl  UNL     1       9.984   3.182  -9.999  1.00  0.00    -0.084 Cl
ENDBRANCH  92  93
ENDBRANCH  82  92
ENDBRANCH  77  80
ENDBRANCH  75  76
ENDBRANCH  74  75
ENDBRANCH  73  74
ENDBRANCH   1  73
TORSDOF 18
