REMARK SMILES CCOc1cccc(-c2ccc([C@@H](C)C(=O)NCCCCCCNC(=O)c3ccc(-c4c5nc(c(-c6cc(S(=O)(=O)[O-])ccc6F)c6ccc([nH]6)c(-c6cc(S(=O)(=O)[O-])ccc6F)c6nc(c(-c7cc(S(=O)(=O)[O-])ccc7F)c7ccc4[nH]7)C=C6)C=C5)cc3)cc2F)c1
REMARK SMILES IDX 20 1 19 2 18 3 17 4 15 5 16 6 13 8 14 9 12 10 9 11 10 12
REMARK SMILES IDX 91 13 11 14 90 15 92 16 8 17 4 18 5 19 93 20 6 21 7 22 3 23
REMARK SMILES IDX 2 24 1 25 21 26 22 27 23 28 24 29 25 30 26 32 27 33 28 34
REMARK SMILES IDX 89 35 29 36 88 37 30 38 31 39 32 40 82 41 33 42 87 43 81 44
REMARK SMILES IDX 83 45 34 46 86 47 80 48 79 49 35 51 67 52 47 53 66 54 48 55
REMARK SMILES IDX 51 56 65 57 84 58 49 59 50 60 64 62 85 63 52 64 36 65 37 66
REMARK SMILES IDX 45 67 38 68 44 69 46 70 43 71 39 72 40 73 41 74 42 75 68 76
REMARK SMILES IDX 69 77 77 78 70 79 76 80 78 81 75 82 71 83 72 84 73 85 74 86
REMARK SMILES IDX 53 87 54 88 62 89 55 90 61 91 63 92 60 93 56 94 57 95 58 96
REMARK SMILES IDX 59 97
REMARK H PARENT 17 7 24 31 83 50 51 61
REMARK Flexibility Score: inf
ROOT
ATOM      1  C   UNL     1       8.691  -2.021   2.880  1.00  0.00     0.002 C 
ENDROOT
BRANCH   1   2
ATOM      2  C   UNL     1       8.543  -1.536   1.434  1.00  0.00     0.021 C 
BRANCH   2   3
ATOM      3  C   UNL     1       9.382  -2.331   0.433  1.00  0.00     0.116 C 
BRANCH   3   4
ATOM      4  N   UNL     1       8.655  -3.474  -0.077  1.00  0.00    -0.356 N 
ATOM      5  C   UNL     1       8.007  -3.676  -1.255  1.00  0.00     0.227 C 
ATOM      6  O   UNL     1       7.373  -4.733  -1.361  1.00  0.00    -0.274 OA
ATOM      7  H   UNL     1       8.625  -4.242   0.539  1.00  0.00     0.163 HD
BRANCH   5   8
ATOM      8  C   UNL     1       8.047  -2.686  -2.430  1.00  0.00     0.105 C 
ATOM      9  C   UNL     1       9.448  -2.422  -2.978  1.00  0.00     0.023 C 
BRANCH   8  10
ATOM     10  C   UNL     1       7.171  -1.459  -2.234  1.00  0.00    -0.033 A 
ATOM     11  C   UNL     1       5.386   0.735  -1.748  1.00  0.00     0.018 A 
ATOM     12  C   UNL     1       6.731   0.771  -1.345  1.00  0.00     0.012 A 
ATOM     13  C   UNL     1       4.986  -0.410  -2.457  1.00  0.00     0.131 A 
ATOM     14  C   UNL     1       7.612  -0.286  -1.615  1.00  0.00     0.005 A 
ATOM     15  C   UNL     1       5.842  -1.492  -2.673  1.00  0.00     0.044 A 
ATOM     16  F   UNL     1       3.743  -0.511  -2.954  1.00  0.00    -0.206 F 
BRANCH  11  17
ATOM     17  C   UNL     1       4.450   1.827  -1.386  1.00  0.00    -0.012 A 
ATOM     18  C   UNL     1       2.209   2.558  -0.725  1.00  0.00     0.119 A 
ATOM     19  C   UNL     1       2.646   3.870  -0.598  1.00  0.00     0.046 A 
ATOM     20  C   UNL     1       3.094   1.560  -1.131  1.00  0.00     0.055 A 
ATOM     21  C   UNL     1       3.982   4.172  -0.851  1.00  0.00     0.004 A 
ATOM     22  C   UNL     1       4.871   3.163  -1.242  1.00  0.00     0.009 A 
BRANCH  18  23
ATOM     23  O   UNL     1       0.878   2.290  -0.561  1.00  0.00    -0.494 OA
BRANCH  23  24
ATOM     24  C   UNL     1       0.596   1.509   0.607  1.00  0.00     0.226 C 
ATOM     25  C   UNL     1       0.617   0.014   0.320  1.00  0.00     0.049 C 
ENDBRANCH  23  24
ENDBRANCH  18  23
ENDBRANCH  11  17
ENDBRANCH   8  10
ENDBRANCH   5   8
ENDBRANCH   3   4
ENDBRANCH   2   3
ENDBRANCH   1   2
BRANCH   1  26
ATOM     26  C   UNL     1      10.107  -1.899   3.458  1.00  0.00     0.002 C 
BRANCH  26  27
ATOM     27  C   UNL     1      10.721  -0.497   3.389  1.00  0.00     0.021 C 
BRANCH  27  28
ATOM     28  C   UNL     1       9.940   0.570   4.151  1.00  0.00     0.116 C 
BRANCH  28  29
ATOM     29  N   UNL     1       9.890   0.276   5.574  1.00  0.00    -0.352 N 
ATOM     30  C   UNL     1      10.388   1.001   6.629  1.00  0.00     0.251 C 
ATOM     31  H   UNL     1       9.434  -0.562   5.816  1.00  0.00     0.163 HD
ATOM     32  O   UNL     1      10.504   0.472   7.730  1.00  0.00    -0.269 OA
BRANCH  30  33
ATOM     33  C   UNL     1      10.786   2.410   6.427  1.00  0.00     0.039 A 
ATOM     34  C   UNL     1      11.967   2.877   7.008  1.00  0.00     0.014 A 
ATOM     35  C   UNL     1       9.977   3.275   5.684  1.00  0.00     0.014 A 
ATOM     36  C   UNL     1      12.364   4.201   6.800  1.00  0.00     0.010 A 
ATOM     37  C   UNL     1      10.411   4.570   5.416  1.00  0.00     0.010 A 
ATOM     38  C   UNL     1      11.603   5.050   5.980  1.00  0.00    -0.014 A 
BRANCH  38  39
ATOM     39  C   UNL     1      12.012   6.455   5.724  1.00  0.00     0.031 A 
ATOM     40  C   UNL     1      11.134   7.584   6.193  1.00  0.00     0.074 A 
ATOM     41  C   UNL     1      13.128   6.712   5.014  1.00  0.00     0.049 A 
ATOM     42  N   UNL     1      11.245   8.869   5.973  1.00  0.00    -0.248 NA
ATOM     43  C   UNL     1       9.954   7.210   6.987  1.00  0.00     0.031 C 
ATOM     44  C   UNL     1      14.046   5.700   4.487  1.00  0.00     0.029 A 
ATOM     45  N   UNL     1      13.675   7.902   4.604  1.00  0.00    -0.354 N 
ATOM     46  C   UNL     1      10.144   9.455   6.588  1.00  0.00     0.074 A 
ATOM     47  C   UNL     1       9.344   8.376   7.129  1.00  0.00     0.031 C 
ATOM     48  C   UNL     1      15.052   6.313   3.843  1.00  0.00     0.029 A 
ATOM     49  C   UNL     1      14.826   7.755   3.863  1.00  0.00     0.049 A 
ATOM     50  H   UNL     1      13.282   8.778   4.819  1.00  0.00     0.167 HD
ATOM     51  C   UNL     1       9.841  10.772   6.711  1.00  0.00     0.034 A 
ATOM     52  C   UNL     1      15.600   8.677   3.256  1.00  0.00     0.034 A 
ATOM     53  C   UNL     1      10.657  11.832   6.172  1.00  0.00     0.049 A 
ATOM     54  C   UNL     1      15.222  10.133   3.369  1.00  0.00     0.074 A 
ATOM     55  C   UNL     1      10.469  13.200   6.270  1.00  0.00     0.029 A 
ATOM     56  N   UNL     1      11.814  11.645   5.425  1.00  0.00    -0.354 N 
ATOM     57  N   UNL     1      14.194  10.675   3.982  1.00  0.00    -0.248 NA
ATOM     58  C   UNL     1      16.113  11.101   2.718  1.00  0.00     0.031 C 
ATOM     59  C   UNL     1      11.468  13.835   5.525  1.00  0.00     0.029 A 
ATOM     60  C   UNL     1      12.332  12.870   5.032  1.00  0.00     0.049 A 
ATOM     61  H   UNL     1      12.209  10.770   5.207  1.00  0.00     0.167 HD
ATOM     62  C   UNL     1      14.340  12.051   3.822  1.00  0.00     0.074 A 
ATOM     63  C   UNL     1      15.557  12.253   3.063  1.00  0.00     0.031 C 
ATOM     64  C   UNL     1      13.546  13.056   4.271  1.00  0.00     0.034 A 
BRANCH  51  65
ATOM     65  C   UNL     1       8.559  11.125   7.430  1.00  0.00     0.023 A 
ATOM     66  C   UNL     1       8.347  10.777   8.777  1.00  0.00     0.031 A 
ATOM     67  C   UNL     1       7.518  11.784   6.753  1.00  0.00     0.131 A 
ATOM     68  C   UNL     1       7.099  11.007   9.373  1.00  0.00     0.055 A 
ATOM     69  C   UNL     1       6.309  12.093   7.381  1.00  0.00     0.041 A 
ATOM     70  F   UNL     1       7.649  12.123   5.461  1.00  0.00    -0.206 F 
ATOM     71  C   UNL     1       6.087  11.688   8.694  1.00  0.00     0.022 A 
BRANCH  68  72
ATOM     72  S   UNL     1       6.762  10.255  10.989  1.00  0.00     0.124 S 
ATOM     73  O   UNL     1       6.974   8.837  10.704  1.00  0.00    -0.237 OA
ATOM     74  O   UNL     1       7.757  10.890  11.846  1.00  0.00    -0.237 OA
ATOM     75  O   UNL     1       5.375  10.628  11.258  1.00  0.00    -0.744 OA
ENDBRANCH  68  72
ENDBRANCH  51  65
BRANCH  52  76
ATOM     76  C   UNL     1      16.803   8.259   2.479  1.00  0.00     0.023 A 
ATOM     77  C   UNL     1      18.091   8.646   2.881  1.00  0.00     0.031 A 
ATOM     78  C   UNL     1      16.680   7.501   1.301  1.00  0.00     0.131 A 
ATOM     79  C   UNL     1      19.200   8.316   2.087  1.00  0.00     0.055 A 
ATOM     80  C   UNL     1      17.792   7.127   0.545  1.00  0.00     0.041 A 
ATOM     81  F   UNL     1      15.472   7.100   0.873  1.00  0.00    -0.206 F 
ATOM     82  C   UNL     1      19.061   7.547   0.930  1.00  0.00     0.022 A 
BRANCH  79  83
ATOM     83  S   UNL     1      20.823   8.985   2.543  1.00  0.00     0.124 S 
ATOM     84  O   UNL     1      20.568  10.421   2.522  1.00  0.00    -0.237 OA
ATOM     85  O   UNL     1      21.037   8.390   3.858  1.00  0.00    -0.237 OA
ATOM     86  O   UNL     1      21.704   8.490   1.487  1.00  0.00    -0.744 OA
ENDBRANCH  79  83
ENDBRANCH  52  76
BRANCH  64  87
ATOM     87  C   UNL     1      14.005  14.470   4.003  1.00  0.00     0.023 A 
ATOM     88  C   UNL     1      14.066  15.001   2.704  1.00  0.00     0.031 A 
ATOM     89  C   UNL     1      14.386  15.298   5.075  1.00  0.00     0.131 A 
ATOM     90  C   UNL     1      14.550  16.303   2.503  1.00  0.00     0.055 A 
ATOM     91  C   UNL     1      14.805  16.614   4.875  1.00  0.00     0.041 A 
ATOM     92  F   UNL     1      14.350  14.842   6.337  1.00  0.00    -0.206 F 
ATOM     93  C   UNL     1      14.901  17.119   3.582  1.00  0.00     0.022 A 
BRANCH  90  94
ATOM     94  S   UNL     1      14.800  16.889   0.805  1.00  0.00     0.124 S 
ATOM     95  O   UNL     1      15.736  15.900   0.278  1.00  0.00    -0.237 OA
ATOM     96  O   UNL     1      13.449  16.843   0.256  1.00  0.00    -0.237 OA
ATOM     97  O   UNL     1      15.351  18.231   0.983  1.00  0.00    -0.744 OA
ENDBRANCH  90  94
ENDBRANCH  64  87
ENDBRANCH  38  39
ENDBRANCH  30  33
ENDBRANCH  28  29
ENDBRANCH  27  28
ENDBRANCH  26  27
ENDBRANCH   1  26
TORSDOF 20
