REMARK SMILES CS(=O)(=O)c1ccc(/C=C(/C(=O)NCCCCCCNC(=O)c2ccc(-c3c4nc(c(-c5cc(S(=O)(=O)[O-])ccc5F)c5ccc([nH]5)c(-c5cc(S(=O)(=O)[O-])ccc5F)c5nc(c(-c6cc(S(=O)(=O)[O-])ccc6F)c6ccc3[nH]6)C=C5)C=C4)cc2)c2ccc(-c3ccc(F)cc3F)cc2)cc1
REMARK SMILES IDX 17 1 16 2 15 3 14 4 13 5 11 6 12 7 10 9 9 10 8 11 5 12 6 13
REMARK SMILES IDX 101 14 7 15 100 16 2 17 1 18 3 19 4 20 86 21 87 22 99 23
REMARK SMILES IDX 88 24 98 25 89 26 90 27 91 28 96 29 92 30 95 31 97 32 93 33
REMARK SMILES IDX 94 34 18 35 19 36 20 37 21 38 22 40 23 41 24 42 85 43 25 44
REMARK SMILES IDX 84 45 26 46 27 47 28 48 78 49 29 50 83 51 77 52 79 53 30 54
REMARK SMILES IDX 82 55 76 56 75 57 31 59 63 60 43 61 62 62 44 63 47 64 61 65
REMARK SMILES IDX 80 66 45 67 46 68 60 70 81 71 48 72 32 73 33 74 41 75 34 76
REMARK SMILES IDX 40 77 42 78 39 79 35 80 36 81 37 82 38 83 64 84 65 85 73 86
REMARK SMILES IDX 66 87 72 88 74 89 71 90 67 91 68 92 69 93 70 94 49 95 50 96
REMARK SMILES IDX 58 97 51 98 57 99 59 100 56 101 52 102 53 103 54 104 55 105
REMARK H PARENT 13 8 20 39 79 58 47 69
REMARK Flexibility Score: inf
ROOT
ATOM      1  C   UNL     1       3.513  -5.221  11.176  1.00  0.00     0.002 C 
ENDROOT
BRANCH   1   2
ATOM      2  C   UNL     1       2.134  -5.258  10.505  1.00  0.00     0.002 C 
BRANCH   2   3
ATOM      3  C   UNL     1       1.977  -4.333   9.286  1.00  0.00     0.021 C 
BRANCH   3   4
ATOM      4  C   UNL     1       2.929  -4.669   8.134  1.00  0.00     0.116 C 
BRANCH   4   5
ATOM      5  N   UNL     1       2.522  -5.911   7.508  1.00  0.00    -0.352 N 
ATOM      6  C   UNL     1       1.849  -6.227   6.373  1.00  0.00     0.251 C 
ATOM      7  O   UNL     1       1.603  -7.426   6.211  1.00  0.00    -0.269 OA
ATOM      8  H   UNL     1       2.795  -6.705   8.023  1.00  0.00     0.163 HD
BRANCH   6   9
ATOM      9  C   UNL     1       1.482  -5.226   5.301  1.00  0.00     0.047 C 
ATOM     10  C   UNL     1       1.164  -3.937   5.568  1.00  0.00     0.022 C 
BRANCH  10  11
ATOM     11  C   UNL     1       0.884  -2.829   4.625  1.00  0.00    -0.025 A 
ATOM     12  C   UNL     1       0.548  -0.677   2.849  1.00  0.00     0.067 A 
ATOM     13  C   UNL     1      -0.162  -1.861   2.649  1.00  0.00     0.021 A 
ATOM     14  C   UNL     1       1.381  -0.531   3.958  1.00  0.00     0.021 A 
ATOM     15  C   UNL     1      -0.006  -2.923   3.546  1.00  0.00     0.009 A 
ATOM     16  C   UNL     1       1.547  -1.608   4.837  1.00  0.00     0.009 A 
BRANCH  12  17
ATOM     17  S   UNL     1       0.349   0.662   1.698  1.00  0.00     0.175 S 
ATOM     18  C   UNL     1       1.215   0.106   0.252  1.00  0.00     0.163 C 
ATOM     19  O   UNL     1       1.056   1.811   2.217  1.00  0.00    -0.224 OA
ATOM     20  O   UNL     1      -1.066   0.734   1.370  1.00  0.00    -0.224 OA
ENDBRANCH  12  17
ENDBRANCH  10  11
BRANCH   9  21
ATOM     21  C   UNL     1       1.276  -5.769   3.935  1.00  0.00    -0.013 A 
ATOM     22  C   UNL     1       0.167  -6.598   3.720  1.00  0.00     0.009 A 
ATOM     23  C   UNL     1       2.065  -5.401   2.841  1.00  0.00     0.009 A 
ATOM     24  C   UNL     1      -0.196  -6.983   2.431  1.00  0.00     0.009 A 
ATOM     25  C   UNL     1       1.687  -5.778   1.544  1.00  0.00     0.009 A 
ATOM     26  C   UNL     1       0.526  -6.538   1.313  1.00  0.00    -0.015 A 
BRANCH  26  27
ATOM     27  C   UNL     1       0.020  -6.806  -0.047  1.00  0.00     0.018 A 
ATOM     28  C   UNL     1      -1.348  -6.613  -0.338  1.00  0.00     0.015 A 
ATOM     29  C   UNL     1       0.846  -7.238  -1.096  1.00  0.00     0.133 A 
ATOM     30  C   UNL     1      -1.860  -6.854  -1.614  1.00  0.00     0.040 A 
ATOM     31  C   UNL     1       0.344  -7.479  -2.374  1.00  0.00     0.079 A 
ATOM     32  F   UNL     1       2.157  -7.439  -0.889  1.00  0.00    -0.206 F 
ATOM     33  C   UNL     1      -1.007  -7.287  -2.619  1.00  0.00     0.126 A 
ATOM     34  F   UNL     1      -1.497  -7.517  -3.844  1.00  0.00    -0.207 F 
ENDBRANCH  26  27
ENDBRANCH   9  21
ENDBRANCH   6   9
ENDBRANCH   4   5
ENDBRANCH   3   4
ENDBRANCH   2   3
ENDBRANCH   1   2
BRANCH   1  35
ATOM     35  C   UNL     1       4.001  -3.828  11.580  1.00  0.00     0.021 C 
BRANCH  35  36
ATOM     36  C   UNL     1       3.099  -3.104  12.575  1.00  0.00     0.116 C 
BRANCH  36  37
ATOM     37  N   UNL     1       3.090  -3.759  13.873  1.00  0.00    -0.352 N 
ATOM     38  C   UNL     1       3.325  -3.219  15.114  1.00  0.00     0.251 C 
ATOM     39  H   UNL     1       2.889  -4.722  13.860  1.00  0.00     0.163 HD
ATOM     40  O   UNL     1       3.489  -3.959  16.079  1.00  0.00    -0.269 OA
BRANCH  38  41
ATOM     41  C   UNL     1       3.398  -1.750  15.276  1.00  0.00     0.039 A 
ATOM     42  C   UNL     1       4.431  -1.204  16.043  1.00  0.00     0.014 A 
ATOM     43  C   UNL     1       2.444  -0.915  14.687  1.00  0.00     0.014 A 
ATOM     44  C   UNL     1       4.537   0.183  16.177  1.00  0.00     0.010 A 
ATOM     45  C   UNL     1       2.585   0.469  14.772  1.00  0.00     0.010 A 
ATOM     46  C   UNL     1       3.629   1.031  15.522  1.00  0.00    -0.014 A 
BRANCH  46  47
ATOM     47  C   UNL     1       3.744   2.509  15.626  1.00  0.00     0.031 A 
ATOM     48  C   UNL     1       2.672   3.298  16.327  1.00  0.00     0.074 A 
ATOM     49  C   UNL     1       4.777   3.143  15.037  1.00  0.00     0.049 A 
ATOM     50  N   UNL     1       2.544   4.594  16.453  1.00  0.00    -0.248 NA
ATOM     51  C   UNL     1       1.583   2.523  16.940  1.00  0.00     0.031 C 
ATOM     52  C   UNL     1       5.858   2.489  14.296  1.00  0.00     0.029 A 
ATOM     53  N   UNL     1       5.082   4.478  14.958  1.00  0.00    -0.354 N 
ATOM     54  C   UNL     1       1.354   4.793  17.145  1.00  0.00     0.074 A 
ATOM     55  C   UNL     1       0.773   3.483  17.359  1.00  0.00     0.031 C 
ATOM     56  C   UNL     1       6.713   3.423  13.850  1.00  0.00     0.029 A 
ATOM     57  C   UNL     1       6.225   4.743  14.240  1.00  0.00     0.049 A 
ATOM     58  H   UNL     1       4.534   5.181  15.375  1.00  0.00     0.167 HD
ATOM     59  C   UNL     1       0.807   5.956  17.578  1.00  0.00     0.034 A 
ATOM     60  C   UNL     1       6.807   5.916  13.922  1.00  0.00     0.034 A 
ATOM     61  C   UNL     1       1.408   7.251  17.371  1.00  0.00     0.049 A 
ATOM     62  C   UNL     1       6.181   7.197  14.410  1.00  0.00     0.074 A 
ATOM     63  C   UNL     1       0.972   8.488  17.815  1.00  0.00     0.029 A 
ATOM     64  N   UNL     1       2.576   7.479  16.653  1.00  0.00    -0.354 N 
ATOM     65  N   UNL     1       5.079   7.365  15.104  1.00  0.00    -0.248 NA
ATOM     66  C   UNL     1       6.883   8.444  14.084  1.00  0.00     0.031 C 
ATOM     67  C   UNL     1       1.843   9.466  17.320  1.00  0.00     0.029 A 
ATOM     68  C   UNL     1       2.860   8.835  16.622  1.00  0.00     0.049 A 
ATOM     69  H   UNL     1       3.123   6.778  16.229  1.00  0.00     0.167 HD
ATOM     70  C   UNL     1       4.973   8.736  15.321  1.00  0.00     0.074 A 
ATOM     71  C   UNL     1       6.128   9.345  14.694  1.00  0.00     0.031 C 
ATOM     72  C   UNL     1       4.012   9.428  15.983  1.00  0.00     0.034 A 
BRANCH  59  73
ATOM     73  C   UNL     1      -0.519   5.872  18.296  1.00  0.00     0.023 A 
ATOM     74  C   UNL     1      -0.655   5.190  19.518  1.00  0.00     0.031 A 
ATOM     75  C   UNL     1      -1.672   6.449  17.734  1.00  0.00     0.131 A 
ATOM     76  C   UNL     1      -1.923   5.031  20.095  1.00  0.00     0.055 A 
ATOM     77  C   UNL     1      -2.919   6.358  18.356  1.00  0.00     0.041 A 
ATOM     78  F   UNL     1      -1.609   7.097  16.560  1.00  0.00    -0.206 F 
ATOM     79  C   UNL     1      -3.053   5.631  19.536  1.00  0.00     0.022 A 
BRANCH  76  80
ATOM     80  S   UNL     1      -2.096   3.905  21.507  1.00  0.00     0.124 S 
ATOM     81  O   UNL     1      -1.630   2.644  20.936  1.00  0.00    -0.237 OA
ATOM     82  O   UNL     1      -1.227   4.515  22.506  1.00  0.00    -0.237 OA
ATOM     83  O   UNL     1      -3.525   3.953  21.810  1.00  0.00    -0.744 OA
ENDBRANCH  76  80
ENDBRANCH  59  73
BRANCH  60  84
ATOM     84  C   UNL     1       8.047   5.942  13.096  1.00  0.00     0.023 A 
ATOM     85  C   UNL     1       9.266   6.377  13.638  1.00  0.00     0.031 A 
ATOM     86  C   UNL     1       8.021   5.564  11.743  1.00  0.00     0.131 A 
ATOM     87  C   UNL     1      10.403   6.464  12.819  1.00  0.00     0.055 A 
ATOM     88  C   UNL     1       9.165   5.609  10.944  1.00  0.00     0.041 A 
ATOM     89  F   UNL     1       6.882   5.131  11.180  1.00  0.00    -0.206 F 
ATOM     90  C   UNL     1      10.363   6.073  11.479  1.00  0.00     0.022 A 
BRANCH  87  91
ATOM     91  S   UNL     1      11.923   7.165  13.516  1.00  0.00     0.124 S 
ATOM     92  O   UNL     1      11.476   8.489  13.936  1.00  0.00    -0.237 OA
ATOM     93  O   UNL     1      12.228   6.221  14.586  1.00  0.00    -0.237 OA
ATOM     94  O   UNL     1      12.853   7.149  12.389  1.00  0.00    -0.744 OA
ENDBRANCH  87  91
ENDBRANCH  60  84
BRANCH  72  95
ATOM     95  C   UNL     1       4.202  10.919  16.098  1.00  0.00     0.023 A 
ATOM     96  C   UNL     1       4.104  11.765  14.980  1.00  0.00     0.031 A 
ATOM     97  C   UNL     1       4.499  11.498  17.345  1.00  0.00     0.131 A 
ATOM     98  C   UNL     1       4.350  13.139  15.122  1.00  0.00     0.055 A 
ATOM     99  C   UNL     1       4.691  12.872  17.489  1.00  0.00     0.041 A 
ATOM    100  F   UNL     1       4.605  10.734  18.444  1.00  0.00    -0.206 F 
ATOM    101  C   UNL     1       4.629  13.700  16.371  1.00  0.00     0.022 A 
BRANCH  98 102
ATOM    102  S   UNL     1       4.381  14.178  13.635  1.00  0.00     0.124 S 
ATOM    103  O   UNL     1       5.445  13.557  12.853  1.00  0.00    -0.237 OA
ATOM    104  O   UNL     1       3.028  14.015  13.112  1.00  0.00    -0.237 OA
ATOM    105  O   UNL     1       4.687  15.510  14.152  1.00  0.00    -0.744 OA
ENDBRANCH  98 102
ENDBRANCH  72  95
ENDBRANCH  46  47
ENDBRANCH  38  41
ENDBRANCH  36  37
ENDBRANCH  35  36
ENDBRANCH   1  35
TORSDOF 20
