REMARK SMILES CCc1ccsc1CNC(=O)N1[C@H]2CC[C@@H]1[C@H](C(=O)NCCCCCCNC(=O)c1ccc(-c3c4nc(c(-c5cc(S(=O)(=O)[O-])ccc5F)c5ccc([nH]5)c(-c5cc(S(=O)(=O)[O-])ccc5F)c5nc(c(-c6cc(S(=O)(=O)[O-])ccc6F)c6ccc3[nH]6)C=C5)C=C4)cc1)C2
REMARK SMILES IDX 23 1 22 2 21 3 20 4 18 5 19 6 17 8 12 9 13 10 16 11 14 12
REMARK SMILES IDX 93 13 15 14 10 15 9 16 11 18 8 19 7 20 3 21 4 22 5 23 6 24
REMARK SMILES IDX 2 25 1 26 24 27 25 28 26 29 27 30 28 31 29 33 30 34 31 35
REMARK SMILES IDX 92 36 32 37 91 38 33 39 34 40 35 41 85 42 36 43 90 44 84 45
REMARK SMILES IDX 86 46 37 47 89 48 83 49 82 50 38 52 70 53 50 54 69 55 51 56
REMARK SMILES IDX 54 57 68 58 87 59 52 60 53 61 67 63 88 64 55 65 39 66 40 67
REMARK SMILES IDX 48 68 41 69 47 70 49 71 46 72 42 73 43 74 44 75 45 76 71 77
REMARK SMILES IDX 72 78 80 79 73 80 79 81 81 82 78 83 74 84 75 85 76 86 77 87
REMARK SMILES IDX 56 88 57 89 65 90 58 91 64 92 66 93 63 94 59 95 60 96 61 97
REMARK SMILES IDX 62 98
REMARK H PARENT 20 7 9 17 27 32 86 51 54 62
REMARK Flexibility Score: inf
ROOT
ATOM      1  C   UNL     1       2.965  11.184   0.196  1.00  0.00     0.002 C 
ENDROOT
BRANCH   1   2
ATOM      2  C   UNL     1       2.028   9.981   0.285  1.00  0.00     0.021 C 
BRANCH   2   3
ATOM      3  C   UNL     1       2.750   8.635   0.284  1.00  0.00     0.116 C 
BRANCH   3   4
ATOM      4  N   UNL     1       3.038   8.212   1.633  1.00  0.00    -0.356 N 
ATOM      5  C   UNL     1       2.556   7.204   2.391  1.00  0.00     0.225 C 
ATOM      6  O   UNL     1       2.908   7.211   3.578  1.00  0.00    -0.275 OA
ATOM      7  H   UNL     1       3.715   8.764   2.087  1.00  0.00     0.163 HD
BRANCH   5   8
ATOM      8  C   UNL     1       1.640   6.100   1.899  1.00  0.00     0.103 C 
ATOM      9  N   UNL     1      -0.288   5.077   1.348  1.00  0.00    -0.318 N 
ATOM     10  C   UNL     1       0.400   5.163   0.072  1.00  0.00     0.088 C 
ATOM     11  C   UNL     1       0.120   6.341   1.935  1.00  0.00     0.099 C 
ATOM     12  C   UNL     1      -0.175   6.489  -0.454  1.00  0.00     0.027 C 
ATOM     13  C   UNL     1       1.854   5.385   0.543  1.00  0.00     0.040 C 
ATOM     14  C   UNL     1      -0.386   7.297   0.847  1.00  0.00     0.028 C 
BRANCH   9  15
ATOM     15  C   UNL     1      -1.373   4.370   1.730  1.00  0.00     0.318 C 
ATOM     16  N   UNL     1      -1.430   3.052   1.432  1.00  0.00    -0.333 N 
ATOM     17  H   UNL     1      -2.321   2.639   1.501  1.00  0.00     0.165 HD
ATOM     18  O   UNL     1      -2.276   4.858   2.408  1.00  0.00    -0.249 OA
BRANCH  16  19
ATOM     19  C   UNL     1      -0.365   2.168   1.026  1.00  0.00     0.165 C 
BRANCH  19  20
ATOM     20  C   UNL     1       0.297   1.481   2.193  1.00  0.00     0.027 A 
ATOM     21  C   UNL     1       0.705   0.153   2.271  1.00  0.00    -0.033 A 
ATOM     22  C   UNL     1       1.385  -0.110   3.507  1.00  0.00     0.016 A 
ATOM     23  C   UNL     1       1.487   1.002   4.307  1.00  0.00     0.065 A 
ATOM     24  S   UNL     1       0.775   2.368   3.585  1.00  0.00    -0.147 S 
BRANCH  21  25
ATOM     25  C   UNL     1       0.486  -0.887   1.207  1.00  0.00     0.033 C 
ATOM     26  C   UNL     1       1.334  -0.654  -0.037  1.00  0.00     0.009 C 
ENDBRANCH  21  25
ENDBRANCH  19  20
ENDBRANCH  16  19
ENDBRANCH   9  15
ENDBRANCH   5   8
ENDBRANCH   3   4
ENDBRANCH   2   3
ENDBRANCH   1   2
BRANCH   1  27
ATOM     27  C   UNL     1       3.795  11.256  -1.091  1.00  0.00     0.002 C 
BRANCH  27  28
ATOM     28  C   UNL     1       2.996  11.129  -2.392  1.00  0.00     0.021 C 
BRANCH  28  29
ATOM     29  C   UNL     1       1.846  12.122  -2.536  1.00  0.00     0.116 C 
BRANCH  29  30
ATOM     30  N   UNL     1       2.308  13.496  -2.441  1.00  0.00    -0.352 N 
ATOM     31  C   UNL     1       2.260  14.498  -3.376  1.00  0.00     0.251 C 
ATOM     32  H   UNL     1       2.714  13.744  -1.579  1.00  0.00     0.163 HD
ATOM     33  O   UNL     1       2.925  15.515  -3.213  1.00  0.00    -0.269 OA
BRANCH  31  34
ATOM     34  C   UNL     1       1.417  14.338  -4.580  1.00  0.00     0.039 A 
ATOM     35  C   UNL     1       1.937  14.701  -5.824  1.00  0.00     0.014 A 
ATOM     36  C   UNL     1       0.112  13.848  -4.476  1.00  0.00     0.014 A 
ATOM     37  C   UNL     1       1.163  14.525  -6.973  1.00  0.00     0.010 A 
ATOM     38  C   UNL     1      -0.631  13.609  -5.628  1.00  0.00     0.010 A 
ATOM     39  C   UNL     1      -0.116  13.952  -6.887  1.00  0.00    -0.014 A 
BRANCH  39  40
ATOM     40  C   UNL     1      -0.939  13.719  -8.101  1.00  0.00     0.031 A 
ATOM     41  C   UNL     1      -2.233  14.464  -8.283  1.00  0.00     0.074 A 
ATOM     42  C   UNL     1      -0.552  12.798  -9.004  1.00  0.00     0.049 A 
ATOM     43  N   UNL     1      -3.134  14.344  -9.224  1.00  0.00    -0.248 NA
ATOM     44  C   UNL     1      -2.569  15.456  -7.250  1.00  0.00     0.031 C 
ATOM     45  C   UNL     1       0.669  11.993  -8.919  1.00  0.00     0.029 A 
ATOM     46  N   UNL     1      -1.146  12.376 -10.166  1.00  0.00    -0.354 N 
ATOM     47  C   UNL     1      -4.149  15.236  -8.893  1.00  0.00     0.074 A 
ATOM     48  C   UNL     1      -3.779  15.837  -7.628  1.00  0.00     0.031 C 
ATOM     49  C   UNL     1       0.744  11.195  -9.996  1.00  0.00     0.029 A 
ATOM     50  C   UNL     1      -0.442  11.394 -10.822  1.00  0.00     0.049 A 
ATOM     51  H   UNL     1      -1.998  12.742 -10.499  1.00  0.00     0.167 HD
ATOM     52  C   UNL     1      -5.271  15.543  -9.591  1.00  0.00     0.034 A 
ATOM     53  C   UNL     1      -0.726  10.723 -11.956  1.00  0.00     0.034 A 
ATOM     54  C   UNL     1      -5.619  14.935 -10.852  1.00  0.00     0.049 A 
ATOM     55  C   UNL     1      -2.000  11.049 -12.693  1.00  0.00     0.074 A 
ATOM     56  C   UNL     1      -6.708  15.197 -11.666  1.00  0.00     0.029 A 
ATOM     57  N   UNL     1      -4.887  13.936 -11.482  1.00  0.00    -0.354 N 
ATOM     58  N   UNL     1      -2.932  11.922 -12.387  1.00  0.00    -0.248 NA
ATOM     59  C   UNL     1      -2.254  10.306 -13.934  1.00  0.00     0.031 C 
ATOM     60  C   UNL     1      -6.668  14.313 -12.751  1.00  0.00     0.029 A 
ATOM     61  C   UNL     1      -5.515  13.550 -12.656  1.00  0.00     0.049 A 
ATOM     62  H   UNL     1      -4.044  13.556 -11.143  1.00  0.00     0.167 HD
ATOM     63  C   UNL     1      -3.867  11.854 -13.416  1.00  0.00     0.074 A 
ATOM     64  C   UNL     1      -3.379  10.864 -14.355  1.00  0.00     0.031 C 
ATOM     65  C   UNL     1      -5.021  12.552 -13.576  1.00  0.00     0.034 A 
BRANCH  52  66
ATOM     66  C   UNL     1      -6.205  16.563  -8.982  1.00  0.00     0.023 A 
ATOM     67  C   UNL     1      -5.793  17.886  -8.737  1.00  0.00     0.031 A 
ATOM     68  C   UNL     1      -7.509  16.202  -8.600  1.00  0.00     0.131 A 
ATOM     69  C   UNL     1      -6.639  18.769  -8.050  1.00  0.00     0.055 A 
ATOM     70  C   UNL     1      -8.379  17.113  -7.995  1.00  0.00     0.041 A 
ATOM     71  F   UNL     1      -7.955  14.950  -8.788  1.00  0.00    -0.206 F 
ATOM     72  C   UNL     1      -7.939  18.400  -7.700  1.00  0.00     0.022 A 
BRANCH  69  73
ATOM     73  S   UNL     1      -5.956  20.348  -7.476  1.00  0.00     0.124 S 
ATOM     74  O   UNL     1      -4.847  19.901  -6.636  1.00  0.00    -0.237 OA
ATOM     75  O   UNL     1      -5.587  21.004  -8.725  1.00  0.00    -0.237 OA
ATOM     76  O   UNL     1      -7.068  20.960  -6.753  1.00  0.00    -0.744 OA
ENDBRANCH  69  73
ENDBRANCH  52  66
BRANCH  53  77
ATOM     77  C   UNL     1       0.203   9.675 -12.466  1.00  0.00     0.023 A 
ATOM     78  C   UNL     1       0.872   9.840 -13.689  1.00  0.00     0.031 A 
ATOM     79  C   UNL     1       0.409   8.478 -11.758  1.00  0.00     0.131 A 
ATOM     80  C   UNL     1       1.680   8.808 -14.190  1.00  0.00     0.055 A 
ATOM     81  C   UNL     1       1.254   7.475 -12.235  1.00  0.00     0.041 A 
ATOM     82  F   UNL     1      -0.201   8.272 -10.579  1.00  0.00    -0.206 F 
ATOM     83  C   UNL     1       1.886   7.632 -13.465  1.00  0.00     0.022 A 
BRANCH  80  84
ATOM     84  S   UNL     1       2.398   8.993 -15.845  1.00  0.00     0.124 S 
ATOM     85  O   UNL     1       1.206   9.169 -16.667  1.00  0.00    -0.237 OA
ATOM     86  O   UNL     1       3.243  10.171 -15.677  1.00  0.00    -0.237 OA
ATOM     87  O   UNL     1       3.116   7.737 -16.046  1.00  0.00    -0.744 OA
ENDBRANCH  80  84
ENDBRANCH  53  77
BRANCH  65  88
ATOM     88  C   UNL     1      -5.805  12.297 -14.840  1.00  0.00     0.023 A 
ATOM     89  C   UNL     1      -6.436  11.065 -15.084  1.00  0.00     0.031 A 
ATOM     90  C   UNL     1      -5.910  13.301 -15.819  1.00  0.00     0.131 A 
ATOM     91  C   UNL     1      -7.099  10.850 -16.302  1.00  0.00     0.055 A 
ATOM     92  C   UNL     1      -6.622  13.102 -17.002  1.00  0.00     0.041 A 
ATOM     93  F   UNL     1      -5.324  14.496 -15.638  1.00  0.00    -0.206 F 
ATOM     94  C   UNL     1      -7.211  11.866 -17.255  1.00  0.00     0.022 A 
BRANCH  91  95
ATOM     95  S   UNL     1      -7.742   9.193 -16.663  1.00  0.00     0.124 S 
ATOM     96  O   UNL     1      -6.534   8.377 -16.593  1.00  0.00    -0.237 OA
ATOM     97  O   UNL     1      -8.710   8.992 -15.590  1.00  0.00    -0.237 OA
ATOM     98  O   UNL     1      -8.319   9.332 -17.999  1.00  0.00    -0.744 OA
ENDBRANCH  91  95
ENDBRANCH  65  88
ENDBRANCH  39  40
ENDBRANCH  31  34
ENDBRANCH  29  30
ENDBRANCH  28  29
ENDBRANCH  27  28
ENDBRANCH   1  27
TORSDOF 20
