REMARK SMILES O=C(NCCCCCCNC(=O)[C@H]1CCCCN1c1ccnc2ccccc12)c1ccc(-c2c3nc(c(-c4cc(S(=O)(=O)[O-])ccc4F)c4ccc([nH]4)c(-c4cc(S(=O)(=O)[O-])ccc4F)c4nc(c(-c5cc(S(=O)(=O)[O-])ccc5F)c5ccc2[nH]5)C=C4)C=C3)cc1
REMARK SMILES IDX 5 1 4 2 3 3 1 4 2 5 29 7 30 8 91 9 31 10 90 11 32 12 33 13
REMARK SMILES IDX 34 14 84 15 35 16 89 17 83 18 85 19 36 20 88 21 82 22 81 23
REMARK SMILES IDX 37 25 69 26 49 27 68 28 50 29 53 30 67 31 86 32 51 33 52 34
REMARK SMILES IDX 66 36 87 37 54 38 38 39 39 40 47 41 40 42 46 43 48 44 45 45
REMARK SMILES IDX 41 46 42 47 43 48 44 49 70 50 71 51 79 52 72 53 78 54 80 55
REMARK SMILES IDX 77 56 73 57 74 58 75 59 76 60 55 61 56 62 64 63 57 64 63 65
REMARK SMILES IDX 65 66 62 67 58 68 59 69 60 70 61 71 6 72 7 73 8 74 9 75
REMARK SMILES IDX 10 76 11 77 12 79 13 80 14 81 18 82 15 83 17 84 16 85 19 86
REMARK SMILES IDX 20 87 28 88 21 89 23 90 27 91 22 92 24 93 26 94 25 95
REMARK H PARENT 3 6 85 24 53 35 10 78
REMARK Flexibility Score: inf
ROOT
ATOM      1  C   UNL     1      13.285   9.897  -6.947  1.00  0.00     0.021 C 
ENDROOT
BRANCH   1   2
ATOM      2  C   UNL     1      14.636   9.895  -6.249  1.00  0.00     0.116 C 
BRANCH   2   3
ATOM      3  N   UNL     1      15.710  10.307  -7.141  1.00  0.00    -0.352 N 
ATOM      4  O   UNL     1      17.168  11.731  -8.101  1.00  0.00    -0.269 OA
ATOM      5  C   UNL     1      16.468  11.456  -7.135  1.00  0.00     0.251 C 
ATOM      6  H   UNL     1      15.927   9.668  -7.858  1.00  0.00     0.163 HD
BRANCH   5   7
ATOM      7  C   UNL     1      16.429  12.354  -5.958  1.00  0.00     0.039 A 
ATOM      8  C   UNL     1      16.419  11.820  -4.670  1.00  0.00     0.014 A 
ATOM      9  C   UNL     1      16.430  13.741  -6.139  1.00  0.00     0.014 A 
ATOM     10  C   UNL     1      16.242  12.655  -3.578  1.00  0.00     0.010 A 
ATOM     11  C   UNL     1      16.378  14.588  -5.025  1.00  0.00     0.010 A 
ATOM     12  C   UNL     1      16.266  14.051  -3.734  1.00  0.00    -0.014 A 
BRANCH  12  13
ATOM     13  C   UNL     1      16.280  14.894  -2.509  1.00  0.00     0.031 A 
ATOM     14  C   UNL     1      15.176  15.866  -2.203  1.00  0.00     0.074 A 
ATOM     15  C   UNL     1      17.291  14.712  -1.633  1.00  0.00     0.049 A 
ATOM     16  N   UNL     1      15.024  16.629  -1.151  1.00  0.00    -0.248 NA
ATOM     17  C   UNL     1      14.110  16.008  -3.205  1.00  0.00     0.031 C 
ATOM     18  C   UNL     1      18.425  13.803  -1.841  1.00  0.00     0.029 A 
ATOM     19  N   UNL     1      17.520  15.238  -0.389  1.00  0.00    -0.354 N 
ATOM     20  C   UNL     1      13.852  17.347  -1.361  1.00  0.00     0.074 A 
ATOM     21  C   UNL     1      13.354  16.954  -2.663  1.00  0.00     0.031 C 
ATOM     22  C   UNL     1      19.182  13.780  -0.737  1.00  0.00     0.029 A 
ATOM     23  C   UNL     1      18.650  14.741   0.219  1.00  0.00     0.049 A 
ATOM     24  H   UNL     1      16.932  15.908   0.029  1.00  0.00     0.167 HD
ATOM     25  C   UNL     1      13.247  18.239  -0.536  1.00  0.00     0.034 A 
ATOM     26  C   UNL     1      19.217  15.043   1.402  1.00  0.00     0.034 A 
ATOM     27  C   UNL     1      13.768  18.621   0.757  1.00  0.00     0.049 A 
ATOM     28  C   UNL     1      18.543  16.066   2.274  1.00  0.00     0.074 A 
ATOM     29  C   UNL     1      13.236  19.515   1.672  1.00  0.00     0.029 A 
ATOM     30  N   UNL     1      14.943  18.136   1.321  1.00  0.00    -0.354 N 
ATOM     31  N   UNL     1      17.429  16.727   2.058  1.00  0.00    -0.248 NA
ATOM     32  C   UNL     1      19.196  16.378   3.548  1.00  0.00     0.031 C 
ATOM     33  C   UNL     1      14.118  19.619   2.753  1.00  0.00     0.029 A 
ATOM     34  C   UNL     1      15.163  18.731   2.556  1.00  0.00     0.049 A 
ATOM     35  H   UNL     1      15.533  17.467   0.905  1.00  0.00     0.167 HD
ATOM     36  C   UNL     1      17.245  17.529   3.179  1.00  0.00     0.074 A 
ATOM     37  C   UNL     1      18.337  17.230   4.084  1.00  0.00     0.031 C 
ATOM     38  C   UNL     1      16.270  18.439   3.436  1.00  0.00     0.034 A 
BRANCH  25  39
ATOM     39  C   UNL     1      11.973  18.891  -1.021  1.00  0.00     0.023 A 
ATOM     40  C   UNL     1      10.799  18.149  -1.237  1.00  0.00     0.031 A 
ATOM     41  C   UNL     1      11.928  20.277  -1.260  1.00  0.00     0.131 A 
ATOM     42  C   UNL     1       9.646  18.785  -1.725  1.00  0.00     0.055 A 
ATOM     43  C   UNL     1      10.757  20.916  -1.675  1.00  0.00     0.041 A 
ATOM     44  F   UNL     1      13.022  21.035  -1.092  1.00  0.00    -0.206 F 
ATOM     45  C   UNL     1       9.610  20.168  -1.919  1.00  0.00     0.022 A 
BRANCH  42  46
ATOM     46  S   UNL     1       8.228  17.763  -2.209  1.00  0.00     0.124 S 
ATOM     47  O   UNL     1       8.818  16.904  -3.233  1.00  0.00    -0.237 OA
ATOM     48  O   UNL     1       7.869  17.108  -0.957  1.00  0.00    -0.237 OA
ATOM     49  O   UNL     1       7.258  18.736  -2.706  1.00  0.00    -0.744 OA
ENDBRANCH  42  46
ENDBRANCH  25  39
BRANCH  26  50
ATOM     50  C   UNL     1      20.510  14.416   1.804  1.00  0.00     0.023 A 
ATOM     51  C   UNL     1      20.619  13.652   2.975  1.00  0.00     0.031 A 
ATOM     52  C   UNL     1      21.677  14.622   1.042  1.00  0.00     0.131 A 
ATOM     53  C   UNL     1      21.874  13.172   3.381  1.00  0.00     0.055 A 
ATOM     54  C   UNL     1      22.908  14.081   1.412  1.00  0.00     0.041 A 
ATOM     55  F   UNL     1      21.633  15.346  -0.088  1.00  0.00    -0.206 F 
ATOM     56  C   UNL     1      23.015  13.367   2.600  1.00  0.00     0.022 A 
BRANCH  53  57
ATOM     57  S   UNL     1      22.016  12.395   5.014  1.00  0.00     0.124 S 
ATOM     58  O   UNL     1      21.454  13.422   5.883  1.00  0.00    -0.237 OA
ATOM     59  O   UNL     1      21.213  11.188   4.844  1.00  0.00    -0.237 OA
ATOM     60  O   UNL     1      23.453  12.171   5.159  1.00  0.00    -0.744 OA
ENDBRANCH  53  57
ENDBRANCH  26  50
BRANCH  38  61
ATOM     61  C   UNL     1      16.348  19.147   4.767  1.00  0.00     0.023 A 
ATOM     62  C   UNL     1      17.422  19.998   5.084  1.00  0.00     0.031 A 
ATOM     63  C   UNL     1      15.370  18.922   5.751  1.00  0.00     0.131 A 
ATOM     64  C   UNL     1      17.538  20.523   6.378  1.00  0.00     0.055 A 
ATOM     65  C   UNL     1      15.451  19.510   7.014  1.00  0.00     0.041 A 
ATOM     66  F   UNL     1      14.324  18.116   5.505  1.00  0.00    -0.206 F 
ATOM     67  C   UNL     1      16.551  20.299   7.340  1.00  0.00     0.022 A 
BRANCH  64  68
ATOM     68  S   UNL     1      19.066  21.392   6.827  1.00  0.00     0.124 S 
ATOM     69  O   UNL     1      20.081  20.382   6.549  1.00  0.00    -0.237 OA
ATOM     70  O   UNL     1      19.047  22.541   5.928  1.00  0.00    -0.237 OA
ATOM     71  O   UNL     1      18.877  21.709   8.242  1.00  0.00    -0.744 OA
ENDBRANCH  64  68
ENDBRANCH  38  61
ENDBRANCH  12  13
ENDBRANCH   5   7
ENDBRANCH   2   3
ENDBRANCH   1   2
BRANCH   1  72
ATOM     72  C   UNL     1      13.156   8.893  -8.089  1.00  0.00     0.002 C 
BRANCH  72  73
ATOM     73  C   UNL     1      13.370   7.427  -7.693  1.00  0.00     0.002 C 
BRANCH  73  74
ATOM     74  C   UNL     1      12.471   6.924  -6.559  1.00  0.00     0.021 C 
BRANCH  74  75
ATOM     75  C   UNL     1      10.976   6.971  -6.888  1.00  0.00     0.116 C 
BRANCH  75  76
ATOM     76  N   UNL     1      10.445   5.655  -7.118  1.00  0.00    -0.354 N 
ATOM     77  C   UNL     1       9.614   4.885  -6.380  1.00  0.00     0.242 C 
ATOM     78  H   UNL     1      10.738   5.241  -7.963  1.00  0.00     0.163 HD
ATOM     79  O   UNL     1       9.223   3.864  -6.974  1.00  0.00    -0.273 OA
BRANCH  77  80
ATOM     80  C   UNL     1       9.091   5.180  -4.938  1.00  0.00     0.171 C 
ATOM     81  C   UNL     1       9.098   3.828  -4.186  1.00  0.00     0.035 C 
ATOM     82  N   UNL     1       9.770   6.229  -4.114  1.00  0.00    -0.359 N 
ATOM     83  C   UNL     1      10.515   3.457  -3.764  1.00  0.00     0.004 C 
ATOM     84  C   UNL     1      11.042   5.909  -3.455  1.00  0.00     0.117 C 
ATOM     85  C   UNL     1      11.052   4.521  -2.817  1.00  0.00     0.022 C 
BRANCH  82  86
ATOM     86  C   UNL     1       8.944   7.161  -3.437  1.00  0.00     0.048 A 
ATOM     87  C   UNL     1       7.890   6.713  -2.635  1.00  0.00     0.046 A 
ATOM     88  C   UNL     1       9.106   8.578  -3.572  1.00  0.00     0.024 A 
ATOM     89  C   UNL     1       7.016   7.629  -2.083  1.00  0.00     0.114 A 
ATOM     90  C   UNL     1       8.105   9.419  -3.025  1.00  0.00     0.072 A 
ATOM     91  C   UNL     1      10.188   9.211  -4.229  1.00  0.00     0.012 A 
ATOM     92  N   UNL     1       7.083   8.952  -2.296  1.00  0.00    -0.256 NA
ATOM     93  C   UNL     1       8.161  10.790  -3.251  1.00  0.00     0.029 A 
ATOM     94  C   UNL     1      10.223  10.589  -4.452  1.00  0.00     0.001 A 
ATOM     95  C   UNL     1       9.192  11.380  -3.979  1.00  0.00     0.002 A 
ENDBRANCH  82  86
ENDBRANCH  77  80
ENDBRANCH  75  76
ENDBRANCH  74  75
ENDBRANCH  73  74
ENDBRANCH  72  73
ENDBRANCH   1  72
TORSDOF 17
