REMARK SMILES CSCCC(=O)N1[C@H](C)CCC[C@@H]1C(=O)NCCCCCCNC(=O)c1ccc(-c2c3nc(c(-c4cc(S(=O)(=O)[O-])ccc4F)c4ccc([nH]4)c(-c4cc(S(=O)(=O)[O-])ccc4F)c4nc(c(-c5cc(S(=O)(=O)[O-])ccc5F)c5ccc2[nH]5)C=C4)C=C3)cc1
REMARK SMILES IDX 19 1 18 2 17 3 16 4 14 5 15 6 13 8 7 9 8 10 9 11 10 12 12 13
REMARK SMILES IDX 11 14 5 15 6 16 4 17 3 18 2 19 1 20 20 21 21 22 22 23 23 24
REMARK SMILES IDX 24 25 25 27 26 28 27 29 88 30 28 31 87 32 29 33 30 34 31 35
REMARK SMILES IDX 81 36 32 37 86 38 80 39 82 40 33 41 85 42 79 43 78 44 34 46
REMARK SMILES IDX 66 47 46 48 65 49 47 50 50 51 64 52 83 53 48 54 49 55 63 57
REMARK SMILES IDX 84 58 51 59 35 60 36 61 44 62 37 63 43 64 45 65 42 66 38 67
REMARK SMILES IDX 39 68 40 69 41 70 67 71 68 72 76 73 69 74 75 75 77 76 74 77
REMARK SMILES IDX 70 78 71 79 72 80 73 81 52 82 53 83 61 84 54 85 60 86 62 87
REMARK SMILES IDX 59 88 55 89 56 90 57 91 58 92
REMARK H PARENT 16 7 23 26 82 45 50 56
REMARK Flexibility Score: inf
ROOT
ATOM      1  C   UNL     1      -1.862   5.307  -0.735  1.00  0.00     0.002 C 
ENDROOT
BRANCH   1   2
ATOM      2  C   UNL     1      -0.736   4.832  -1.654  1.00  0.00     0.021 C 
BRANCH   2   3
ATOM      3  C   UNL     1      -0.533   3.328  -1.734  1.00  0.00     0.116 C 
BRANCH   3   4
ATOM      4  N   UNL     1      -1.328   2.585  -2.679  1.00  0.00    -0.354 N 
ATOM      5  C   UNL     1      -1.159   1.295  -3.115  1.00  0.00     0.242 C 
ATOM      6  O   UNL     1      -2.154   0.772  -3.636  1.00  0.00    -0.273 OA
ATOM      7  H   UNL     1      -2.096   3.067  -3.062  1.00  0.00     0.163 HD
BRANCH   5   8
ATOM      8  C   UNL     1       0.151   0.445  -2.914  1.00  0.00     0.174 C 
ATOM      9  N   UNL     1       0.181  -0.494  -1.769  1.00  0.00    -0.328 N 
ATOM     10  C   UNL     1       0.317   0.098  -0.445  1.00  0.00     0.082 C 
ATOM     11  C   UNL     1      -1.024   0.453   0.192  1.00  0.00     0.031 C 
ATOM     12  C   UNL     1       1.410   1.187  -0.424  1.00  0.00     0.025 C 
ATOM     13  C   UNL     1       1.488   1.176  -3.032  1.00  0.00     0.035 C 
ATOM     14  C   UNL     1       2.256   1.271  -1.704  1.00  0.00     0.005 C 
BRANCH   9  15
ATOM     15  C   UNL     1       0.597  -1.810  -1.987  1.00  0.00     0.224 C 
ATOM     16  O   UNL     1       1.154  -2.162  -3.028  1.00  0.00    -0.275 OA
BRANCH  15  17
ATOM     17  C   UNL     1       0.281  -2.842  -0.909  1.00  0.00     0.111 C 
BRANCH  17  18
ATOM     18  C   UNL     1       1.504  -3.422  -0.197  1.00  0.00     0.079 C 
BRANCH  18  19
ATOM     19  S   UNL     1       1.779  -2.749   1.487  1.00  0.00    -0.165 SA
ATOM     20  C   UNL     1       3.131  -1.589   1.151  1.00  0.00     0.085 C 
ENDBRANCH  18  19
ENDBRANCH  17  18
ENDBRANCH  15  17
ENDBRANCH   9  15
ENDBRANCH   5   8
ENDBRANCH   3   4
ENDBRANCH   2   3
ENDBRANCH   1   2
BRANCH   1  21
ATOM     21  C   UNL     1      -1.920   4.720   0.684  1.00  0.00     0.002 C 
BRANCH  21  22
ATOM     22  C   UNL     1      -0.650   4.785   1.540  1.00  0.00     0.021 C 
BRANCH  22  23
ATOM     23  C   UNL     1       0.006   6.156   1.699  1.00  0.00     0.116 C 
BRANCH  23  24
ATOM     24  N   UNL     1      -0.930   7.190   2.097  1.00  0.00    -0.352 N 
ATOM     25  C   UNL     1      -0.858   8.132   3.093  1.00  0.00     0.251 C 
ATOM     26  H   UNL     1      -1.757   7.222   1.562  1.00  0.00     0.163 HD
ATOM     27  O   UNL     1      -1.845   8.825   3.324  1.00  0.00    -0.269 OA
BRANCH  25  28
ATOM     28  C   UNL     1       0.371   8.302   3.903  1.00  0.00     0.039 A 
ATOM     29  C   UNL     1       0.233   8.535   5.275  1.00  0.00     0.014 A 
ATOM     30  C   UNL     1       1.645   8.283   3.328  1.00  0.00     0.014 A 
ATOM     31  C   UNL     1       1.367   8.692   6.077  1.00  0.00     0.010 A 
ATOM     32  C   UNL     1       2.778   8.375   4.139  1.00  0.00     0.010 A 
ATOM     33  C   UNL     1       2.652   8.582   5.522  1.00  0.00    -0.014 A 
BRANCH  33  34
ATOM     34  C   UNL     1       3.868   8.675   6.377  1.00  0.00     0.031 A 
ATOM     35  C   UNL     1       4.848   9.802   6.183  1.00  0.00     0.074 A 
ATOM     36  C   UNL     1       4.116   7.710   7.286  1.00  0.00     0.049 A 
ATOM     37  N   UNL     1       5.994  10.012   6.777  1.00  0.00    -0.248 NA
ATOM     38  C   UNL     1       4.506  10.812   5.169  1.00  0.00     0.031 C 
ATOM     39  C   UNL     1       3.258   6.550   7.541  1.00  0.00     0.029 A 
ATOM     40  N   UNL     1       5.164   7.539   8.157  1.00  0.00    -0.354 N 
ATOM     41  C   UNL     1       6.522  11.160   6.195  1.00  0.00     0.074 A 
ATOM     42  C   UNL     1       5.587  11.579   5.173  1.00  0.00     0.031 C 
ATOM     43  C   UNL     1       3.805   5.799   8.511  1.00  0.00     0.029 A 
ATOM     44  C   UNL     1       5.076   6.392   8.915  1.00  0.00     0.049 A 
ATOM     45  H   UNL     1       5.910   8.177   8.233  1.00  0.00     0.167 HD
ATOM     46  C   UNL     1       7.674  11.809   6.496  1.00  0.00     0.034 A 
ATOM     47  C   UNL     1       5.930   5.866   9.816  1.00  0.00     0.034 A 
ATOM     48  C   UNL     1       8.580  11.395   7.540  1.00  0.00     0.049 A 
ATOM     49  C   UNL     1       7.209   6.609  10.124  1.00  0.00     0.074 A 
ATOM     50  C   UNL     1       9.726  12.031   7.985  1.00  0.00     0.029 A 
ATOM     51  N   UNL     1       8.452  10.236   8.293  1.00  0.00    -0.354 N 
ATOM     52  N   UNL     1       7.652   7.736   9.616  1.00  0.00    -0.248 NA
ATOM     53  C   UNL     1       8.096   6.016  11.133  1.00  0.00     0.031 C 
ATOM     54  C   UNL     1      10.333  11.219   8.947  1.00  0.00     0.029 A 
ATOM     55  C   UNL     1       9.522  10.118   9.168  1.00  0.00     0.049 A 
ATOM     56  H   UNL     1       7.712   9.592   8.218  1.00  0.00     0.167 HD
ATOM     57  C   UNL     1       8.849   8.004  10.276  1.00  0.00     0.074 A 
ATOM     58  C   UNL     1       9.048   6.931  11.228  1.00  0.00     0.031 C 
ATOM     59  C   UNL     1       9.707   9.043  10.113  1.00  0.00     0.034 A 
BRANCH  46  60
ATOM     60  C   UNL     1       8.045  13.017   5.668  1.00  0.00     0.023 A 
ATOM     61  C   UNL     1       7.278  14.195   5.679  1.00  0.00     0.031 A 
ATOM     62  C   UNL     1       9.204  12.993   4.871  1.00  0.00     0.131 A 
ATOM     63  C   UNL     1       7.651  15.280   4.870  1.00  0.00     0.055 A 
ATOM     64  C   UNL     1       9.610  14.102   4.127  1.00  0.00     0.041 A 
ATOM     65  F   UNL     1       9.965  11.889   4.804  1.00  0.00    -0.206 F 
ATOM     66  C   UNL     1       8.827  15.251   4.115  1.00  0.00     0.022 A 
BRANCH  63  67
ATOM     67  S   UNL     1       6.521  16.692   4.734  1.00  0.00     0.124 S 
ATOM     68  O   UNL     1       5.322  16.057   4.191  1.00  0.00    -0.237 OA
ATOM     69  O   UNL     1       6.429  17.158   6.112  1.00  0.00    -0.237 OA
ATOM     70  O   UNL     1       7.210  17.595   3.814  1.00  0.00    -0.744 OA
ENDBRANCH  63  67
ENDBRANCH  46  60
BRANCH  47  71
ATOM     71  C   UNL     1       5.636   4.561  10.482  1.00  0.00     0.023 A 
ATOM     72  C   UNL     1       5.505   4.474  11.877  1.00  0.00     0.031 A 
ATOM     73  C   UNL     1       5.565   3.368   9.741  1.00  0.00     0.131 A 
ATOM     74  C   UNL     1       5.384   3.218  12.493  1.00  0.00     0.055 A 
ATOM     75  C   UNL     1       5.375   2.127  10.352  1.00  0.00     0.041 A 
ATOM     76  F   UNL     1       5.682   3.390   8.403  1.00  0.00    -0.206 F 
ATOM     77  C   UNL     1       5.304   2.045  11.739  1.00  0.00     0.022 A 
BRANCH  74  78
ATOM     78  S   UNL     1       5.470   3.129  14.303  1.00  0.00     0.124 S 
ATOM     79  O   UNL     1       6.732   3.808  14.572  1.00  0.00    -0.237 OA
ATOM     80  O   UNL     1       4.260   3.842  14.697  1.00  0.00    -0.237 OA
ATOM     81  O   UNL     1       5.463   1.693  14.573  1.00  0.00    -0.744 OA
ENDBRANCH  74  78
ENDBRANCH  47  71
BRANCH  59  82
ATOM     82  C   UNL     1      10.908   9.094  11.027  1.00  0.00     0.023 A 
ATOM     83  C   UNL     1      11.927   8.127  10.970  1.00  0.00     0.031 A 
ATOM     84  C   UNL     1      11.027  10.123  11.978  1.00  0.00     0.131 A 
ATOM     85  C   UNL     1      12.988   8.174  11.886  1.00  0.00     0.055 A 
ATOM     86  C   UNL     1      12.119  10.203  12.843  1.00  0.00     0.041 A 
ATOM     87  F   UNL     1      10.082  11.072  12.079  1.00  0.00    -0.206 F 
ATOM     88  C   UNL     1      13.100   9.217  12.810  1.00  0.00     0.022 A 
BRANCH  85  89
ATOM     89  S   UNL     1      14.171   6.800  11.921  1.00  0.00     0.124 S 
ATOM     90  O   UNL     1      13.301   5.658  12.186  1.00  0.00    -0.237 OA
ATOM     91  O   UNL     1      14.756   6.858  10.586  1.00  0.00    -0.237 OA
ATOM     92  O   UNL     1      15.078   7.155  13.011  1.00  0.00    -0.744 OA
ENDBRANCH  85  89
ENDBRANCH  59  82
ENDBRANCH  33  34
ENDBRANCH  25  28
ENDBRANCH  23  24
ENDBRANCH  22  23
ENDBRANCH  21  22
ENDBRANCH   1  21
TORSDOF 20
