REMARK SMILES Cc1ccc([C@@]23C[C@@H]4C[C@@H](C[C@@](C(=O)N5CCC(C(=O)NCCCCCCNC(=O)c6ccc(-c7c8nc(c(-c9cc(S(=O)(=O)[O-])ccc9F)c9ccc([nH]9)c(-c9cc(S(=O)(=O)[O-])ccc9F)c9nc(c(-c%10cc(S(=O)(=O)[O-])ccc%10F)c%10ccc7[nH]%10)C=C9)C=C8)cc6)CC5)(C4)C2)C3)cc1
REMARK SMILES IDX 25 1 24 2 23 3 22 4 21 5 19 6 20 7 18 9 13 10 14 11 15 12
REMARK SMILES IDX 16 13 95 14 17 15 94 16 12 17 6 18 7 19 97 20 98 21 8 22
REMARK SMILES IDX 10 23 9 24 96 25 11 26 5 27 1 28 2 29 3 30 100 31 4 32 99 33
REMARK SMILES IDX 26 34 27 35 28 36 29 37 30 39 31 40 32 41 93 42 33 43 92 44
REMARK SMILES IDX 34 45 35 46 36 47 86 48 37 49 91 50 85 51 87 52 38 53 90 54
REMARK SMILES IDX 84 55 83 56 39 58 71 59 51 60 70 61 52 62 55 63 69 64 88 65
REMARK SMILES IDX 53 66 54 67 68 69 89 70 56 71 40 72 41 73 49 74 42 75 48 76
REMARK SMILES IDX 50 77 47 78 43 79 44 80 45 81 46 82 72 83 73 84 81 85 74 86
REMARK SMILES IDX 80 87 82 88 79 89 75 90 76 91 77 92 78 93 57 94 58 95 66 96
REMARK SMILES IDX 59 97 65 98 67 99 64 100 60 101 61 102 62 103 63 104
REMARK H PARENT 21 8 28 38 87 57 55 68
REMARK Flexibility Score: inf
ROOT
ATOM      1  C   UNL     1     -11.882  -3.305  -4.156  1.00  0.00     0.002 C 
ENDROOT
BRANCH   1   2
ATOM      2  C   UNL     1     -10.847  -2.371  -4.803  1.00  0.00     0.002 C 
BRANCH   2   3
ATOM      3  C   UNL     1      -9.567  -2.106  -4.004  1.00  0.00     0.021 C 
BRANCH   3   4
ATOM      4  C   UNL     1      -8.829  -3.351  -3.522  1.00  0.00     0.116 C 
BRANCH   4   5
ATOM      5  N   UNL     1      -8.309  -4.160  -4.614  1.00  0.00    -0.356 N 
ATOM      6  C   UNL     1      -7.117  -4.801  -4.758  1.00  0.00     0.223 C 
ATOM      7  O   UNL     1      -6.952  -5.536  -5.735  1.00  0.00    -0.275 OA
ATOM      8  H   UNL     1      -8.922  -4.261  -5.377  1.00  0.00     0.163 HD
BRANCH   6   9
ATOM      9  C   UNL     1      -5.991  -4.624  -3.750  1.00  0.00     0.082 C 
ATOM     10  C   UNL     1      -5.785  -2.454  -0.383  1.00  0.00     0.228 C 
ATOM     11  O   UNL     1      -6.617  -2.908   0.409  1.00  0.00    -0.274 OA
ATOM     12  N   UNL     1      -5.213  -3.282  -1.350  1.00  0.00    -0.342 N 
ATOM     13  C   UNL     1      -5.437  -4.719  -1.263  1.00  0.00     0.120 C 
ATOM     14  C   UNL     1      -4.543  -2.896  -2.592  1.00  0.00     0.120 C 
ATOM     15  C   UNL     1      -6.372  -5.184  -2.368  1.00  0.00     0.035 C 
ATOM     16  C   UNL     1      -5.457  -3.182  -3.773  1.00  0.00     0.035 C 
BRANCH  10  17
ATOM     17  C   UNL     1      -5.311  -0.989  -0.235  1.00  0.00     0.051 C 
ATOM     18  C   UNL     1      -3.167   0.414   0.057  1.00  0.00    -0.003 C 
ATOM     19  C   UNL     1      -3.662   1.244  -1.167  1.00  0.00     0.015 C 
ATOM     20  C   UNL     1      -3.779  -0.998  -0.081  1.00  0.00     0.028 C 
ATOM     21  C   UNL     1      -3.754   1.035   1.350  1.00  0.00     0.015 C 
ATOM     22  C   UNL     1      -5.201   1.333  -1.210  1.00  0.00    -0.009 C 
ATOM     23  C   UNL     1      -5.295   1.069   1.283  1.00  0.00    -0.009 C 
ATOM     24  C   UNL     1      -5.718   1.948   0.098  1.00  0.00     0.007 C 
ATOM     25  C   UNL     1      -5.799  -0.071  -1.372  1.00  0.00     0.020 C 
ATOM     26  C   UNL     1      -5.854  -0.358   1.087  1.00  0.00     0.020 C 
BRANCH  18  27
ATOM     27  C   UNL     1      -1.629   0.352   0.111  1.00  0.00    -0.042 A 
ATOM     28  C   UNL     1       2.711   0.185   0.017  1.00  0.00     0.044 C 
ATOM     29  C   UNL     1       1.216   0.260   0.081  1.00  0.00    -0.051 A 
ATOM     30  C   UNL     1       0.471  -0.914   0.154  1.00  0.00     0.004 A 
ATOM     31  C   UNL     1       0.540   1.482   0.049  1.00  0.00     0.004 A 
ATOM     32  C   UNL     1      -0.924  -0.866   0.176  1.00  0.00     0.004 A 
ATOM     33  C   UNL     1      -0.861   1.527   0.069  1.00  0.00     0.004 A 
ENDBRANCH  18  27
ENDBRANCH  10  17
ENDBRANCH   6   9
ENDBRANCH   4   5
ENDBRANCH   3   4
ENDBRANCH   2   3
ENDBRANCH   1   2
BRANCH   1  34
ATOM     34  C   UNL     1     -12.294  -2.967  -2.723  1.00  0.00     0.021 C 
BRANCH  34  35
ATOM     35  C   UNL     1     -12.976  -1.612  -2.569  1.00  0.00     0.116 C 
BRANCH  35  36
ATOM     36  N   UNL     1     -14.420  -1.678  -2.402  1.00  0.00    -0.352 N 
ATOM     37  C   UNL     1     -15.321  -0.635  -2.211  1.00  0.00     0.251 C 
ATOM     38  H   UNL     1     -14.812  -2.581  -2.429  1.00  0.00     0.163 HD
ATOM     39  O   UNL     1     -16.494  -0.833  -2.003  1.00  0.00    -0.269 OA
BRANCH  37  40
ATOM     40  C   UNL     1     -14.821   0.754  -2.396  1.00  0.00     0.039 A 
ATOM     41  C   UNL     1     -15.462   1.535  -3.364  1.00  0.00     0.014 A 
ATOM     42  C   UNL     1     -13.630   1.183  -1.818  1.00  0.00     0.014 A 
ATOM     43  C   UNL     1     -14.794   2.627  -3.914  1.00  0.00     0.010 A 
ATOM     44  C   UNL     1     -12.928   2.212  -2.423  1.00  0.00     0.010 A 
ATOM     45  C   UNL     1     -13.482   2.893  -3.513  1.00  0.00    -0.014 A 
BRANCH  45  46
ATOM     46  C   UNL     1     -12.577   3.726  -4.300  1.00  0.00     0.031 A 
ATOM     47  C   UNL     1     -12.149   5.064  -3.845  1.00  0.00     0.074 A 
ATOM     48  C   UNL     1     -12.111   3.286  -5.490  1.00  0.00     0.049 A 
ATOM     49  N   UNL     1     -11.896   6.047  -4.647  1.00  0.00    -0.248 NA
ATOM     50  C   UNL     1     -11.992   5.411  -2.438  1.00  0.00     0.031 C 
ATOM     51  C   UNL     1     -11.048   3.878  -6.297  1.00  0.00     0.029 A 
ATOM     52  N   UNL     1     -12.684   2.339  -6.326  1.00  0.00    -0.354 N 
ATOM     53  C   UNL     1     -11.258   7.019  -3.915  1.00  0.00     0.074 A 
ATOM     54  C   UNL     1     -11.420   6.616  -2.535  1.00  0.00     0.031 C 
ATOM     55  C   UNL     1     -11.192   3.476  -7.569  1.00  0.00     0.029 A 
ATOM     56  C   UNL     1     -12.421   2.709  -7.651  1.00  0.00     0.049 A 
ATOM     57  H   UNL     1     -13.187   1.544  -6.038  1.00  0.00     0.167 HD
ATOM     58  C   UNL     1     -10.517   7.976  -4.542  1.00  0.00     0.034 A 
ATOM     59  C   UNL     1     -13.425   2.908  -8.553  1.00  0.00     0.034 A 
ATOM     60  C   UNL     1     -10.491   7.806  -5.993  1.00  0.00     0.049 A 
ATOM     61  C   UNL     1     -13.442   4.298  -9.147  1.00  0.00     0.074 A 
ATOM     62  C   UNL     1      -9.536   7.295  -6.858  1.00  0.00     0.029 A 
ATOM     63  N   UNL     1     -11.652   7.960  -6.740  1.00  0.00    -0.354 N 
ATOM     64  N   UNL     1     -12.775   5.308  -8.662  1.00  0.00    -0.248 NA
ATOM     65  C   UNL     1     -14.239   4.671 -10.311  1.00  0.00     0.031 C 
ATOM     66  C   UNL     1     -10.132   7.136  -8.133  1.00  0.00     0.029 A 
ATOM     67  C   UNL     1     -11.446   7.559  -8.047  1.00  0.00     0.049 A 
ATOM     68  H   UNL     1     -12.504   8.306  -6.388  1.00  0.00     0.167 HD
ATOM     69  C   UNL     1     -13.052   6.443  -9.386  1.00  0.00     0.074 A 
ATOM     70  C   UNL     1     -13.957   5.982 -10.424  1.00  0.00     0.031 C 
ATOM     71  C   UNL     1     -12.511   7.653  -9.039  1.00  0.00     0.034 A 
BRANCH  58  72
ATOM     72  C   UNL     1      -9.546   8.866  -3.801  1.00  0.00     0.023 A 
ATOM     73  C   UNL     1      -8.326   9.228  -4.409  1.00  0.00     0.031 A 
ATOM     74  C   UNL     1      -9.746   9.359  -2.499  1.00  0.00     0.131 A 
ATOM     75  C   UNL     1      -7.331   9.925  -3.702  1.00  0.00     0.055 A 
ATOM     76  C   UNL     1      -8.736  10.005  -1.772  1.00  0.00     0.041 A 
ATOM     77  F   UNL     1     -10.938   9.258  -1.892  1.00  0.00    -0.206 F 
ATOM     78  C   UNL     1      -7.512  10.275  -2.368  1.00  0.00     0.022 A 
BRANCH  75  79
ATOM     79  S   UNL     1      -5.793  10.364  -4.557  1.00  0.00     0.124 S 
ATOM     80  O   UNL     1      -5.303   9.064  -5.005  1.00  0.00    -0.237 OA
ATOM     81  O   UNL     1      -6.266  11.269  -5.598  1.00  0.00    -0.237 OA
ATOM     82  O   UNL     1      -4.991  10.995  -3.510  1.00  0.00    -0.744 OA
ENDBRANCH  75  79
ENDBRANCH  58  72
BRANCH  59  83
ATOM     83  C   UNL     1     -14.623   2.058  -8.298  1.00  0.00     0.023 A 
ATOM     84  C   UNL     1     -14.418   0.662  -8.264  1.00  0.00     0.031 A 
ATOM     85  C   UNL     1     -15.789   2.566  -7.712  1.00  0.00     0.131 A 
ATOM     86  C   UNL     1     -15.260  -0.157  -7.502  1.00  0.00     0.055 A 
ATOM     87  C   UNL     1     -16.674   1.730  -7.018  1.00  0.00     0.041 A 
ATOM     88  F   UNL     1     -16.026   3.885  -7.691  1.00  0.00    -0.206 F 
ATOM     89  C   UNL     1     -16.386   0.371  -6.869  1.00  0.00     0.022 A 
BRANCH  86  90
ATOM     90  S   UNL     1     -14.700  -1.840  -7.099  1.00  0.00     0.124 S 
ATOM     91  O   UNL     1     -15.298  -2.626  -8.171  1.00  0.00    -0.237 OA
ATOM     92  O   UNL     1     -13.244  -1.715  -7.138  1.00  0.00    -0.237 OA
ATOM     93  O   UNL     1     -15.245  -2.070  -5.763  1.00  0.00    -0.744 OA
ENDBRANCH  86  90
ENDBRANCH  59  83
BRANCH  71  94
ATOM     94  C   UNL     1     -12.836   9.018  -9.629  1.00  0.00     0.023 A 
ATOM     95  C   UNL     1     -13.886   9.261 -10.526  1.00  0.00     0.031 A 
ATOM     96  C   UNL     1     -12.095  10.169  -9.247  1.00  0.00     0.131 A 
ATOM     97  C   UNL     1     -14.129  10.551 -11.044  1.00  0.00     0.055 A 
ATOM     98  C   UNL     1     -12.373  11.457  -9.717  1.00  0.00     0.041 A 
ATOM     99  F   UNL     1     -11.069  10.101  -8.387  1.00  0.00    -0.206 F 
ATOM    100  C   UNL     1     -13.390  11.655 -10.633  1.00  0.00     0.022 A 
BRANCH  97 101
ATOM    101  S   UNL     1     -15.415  10.744 -12.308  1.00  0.00     0.124 S 
ATOM    102  O   UNL     1     -14.900   9.911 -13.392  1.00  0.00    -0.237 OA
ATOM    103  O   UNL     1     -16.601  10.235 -11.627  1.00  0.00    -0.237 OA
ATOM    104  O   UNL     1     -15.422  12.180 -12.579  1.00  0.00    -0.744 OA
ENDBRANCH  97 101
ENDBRANCH  71  94
ENDBRANCH  45  46
ENDBRANCH  37  40
ENDBRANCH  35  36
ENDBRANCH  34  35
ENDBRANCH   1  34
TORSDOF 18
