REMARK SMILES O=C(NCCCCCCNC(=O)c1cccn(CC[NH+]2CCCC2)c1=O)c1ccc(-c2c3nc(c(-c4cc(S(=O)(=O)[O-])ccc4F)c4ccc([nH]4)c(-c4cc(S(=O)(=O)[O-])ccc4F)c4nc(c(-c5cc(S(=O)(=O)[O-])ccc5F)c5ccc2[nH]5)C=C4)C=C3)cc1
REMARK SMILES IDX 6 1 5 2 4 3 3 4 1 5 2 6 27 8 28 9 89 10 29 11 88 12 30 13
REMARK SMILES IDX 31 14 32 15 82 16 33 17 87 18 81 19 83 20 34 21 86 22 80 23
REMARK SMILES IDX 79 24 35 26 67 27 47 28 66 29 48 30 51 31 65 32 84 33 49 34
REMARK SMILES IDX 50 35 64 37 85 38 52 39 36 40 37 41 45 42 38 43 44 44 46 45
REMARK SMILES IDX 43 46 39 47 40 48 41 49 42 50 68 51 69 52 77 53 70 54 76 55
REMARK SMILES IDX 78 56 75 57 71 58 72 59 73 60 74 61 53 62 54 63 62 64 55 65
REMARK SMILES IDX 61 66 63 67 60 68 56 69 57 70 58 71 59 72 7 73 8 74 9 75
REMARK SMILES IDX 10 76 11 77 12 79 13 80 14 81 25 82 15 83 17 84 26 85 16 86
REMARK SMILES IDX 18 87 19 88 20 89 21 90 24 91 22 93 23 94
REMARK H PARENT 3 7 83 25 51 36 10 78 20 92
REMARK Flexibility Score: inf
ROOT
ATOM      1  C   UNL     1       4.230  -2.726  -2.892  1.00  0.00     0.002 C 
ENDROOT
BRANCH   1   2
ATOM      2  C   UNL     1       4.756  -2.385  -1.494  1.00  0.00     0.021 C 
BRANCH   2   3
ATOM      3  C   UNL     1       4.563  -0.938  -1.052  1.00  0.00     0.116 C 
BRANCH   3   4
ATOM      4  N   UNL     1       3.166  -0.543  -1.040  1.00  0.00    -0.352 N 
ATOM      5  O   UNL     1       1.216   0.180  -0.205  1.00  0.00    -0.269 OA
ATOM      6  C   UNL     1       2.433   0.082  -0.065  1.00  0.00     0.251 C 
ATOM      7  H   UNL     1       2.667  -0.758  -1.861  1.00  0.00     0.163 HD
BRANCH   6   8
ATOM      8  C   UNL     1       3.080   0.635   1.150  1.00  0.00     0.039 A 
ATOM      9  C   UNL     1       2.398   0.539   2.367  1.00  0.00     0.014 A 
ATOM     10  C   UNL     1       4.302   1.313   1.094  1.00  0.00     0.014 A 
ATOM     11  C   UNL     1       2.939   1.112   3.521  1.00  0.00     0.010 A 
ATOM     12  C   UNL     1       4.875   1.823   2.260  1.00  0.00     0.010 A 
ATOM     13  C   UNL     1       4.183   1.760   3.478  1.00  0.00    -0.014 A 
BRANCH  13  14
ATOM     14  C   UNL     1       4.727   2.443   4.681  1.00  0.00     0.031 A 
ATOM     15  C   UNL     1       4.848   3.945   4.699  1.00  0.00     0.074 A 
ATOM     16  C   UNL     1       5.114   1.722   5.751  1.00  0.00     0.049 A 
ATOM     17  N   UNL     1       5.284   4.727   5.652  1.00  0.00    -0.248 NA
ATOM     18  C   UNL     1       4.446   4.662   3.477  1.00  0.00     0.031 C 
ATOM     19  C   UNL     1       5.074   0.262   5.839  1.00  0.00     0.029 A 
ATOM     20  N   UNL     1       5.607   2.115   6.971  1.00  0.00    -0.354 N 
ATOM     21  C   UNL     1       5.224   6.019   5.141  1.00  0.00     0.074 A 
ATOM     22  C   UNL     1       4.764   5.913   3.776  1.00  0.00     0.031 C 
ATOM     23  C   UNL     1       5.481  -0.115   7.062  1.00  0.00     0.029 A 
ATOM     24  C   UNL     1       5.840   1.071   7.838  1.00  0.00     0.049 A 
ATOM     25  H   UNL     1       5.778   3.057   7.205  1.00  0.00     0.167 HD
ATOM     26  C   UNL     1       5.497   7.190   5.764  1.00  0.00     0.034 A 
ATOM     27  C   UNL     1       6.272   1.071   9.116  1.00  0.00     0.034 A 
ATOM     28  C   UNL     1       5.910   7.287   7.139  1.00  0.00     0.049 A 
ATOM     29  C   UNL     1       6.537   2.392   9.798  1.00  0.00     0.074 A 
ATOM     30  C   UNL     1       6.174   8.429   7.874  1.00  0.00     0.029 A 
ATOM     31  N   UNL     1       6.098   6.210   7.992  1.00  0.00    -0.354 N 
ATOM     32  N   UNL     1       6.406   3.608   9.322  1.00  0.00    -0.248 NA
ATOM     33  C   UNL     1       6.989   2.346  11.197  1.00  0.00     0.031 C 
ATOM     34  C   UNL     1       6.560   8.042   9.157  1.00  0.00     0.029 A 
ATOM     35  C   UNL     1       6.479   6.661   9.243  1.00  0.00     0.049 A 
ATOM     36  H   UNL     1       5.979   5.264   7.744  1.00  0.00     0.167 HD
ATOM     37  C   UNL     1       6.713   4.468  10.374  1.00  0.00     0.074 A 
ATOM     38  C   UNL     1       7.025   3.633  11.515  1.00  0.00     0.031 C 
ATOM     39  C   UNL     1       6.738   5.824  10.390  1.00  0.00     0.034 A 
BRANCH  26  40
ATOM     40  C   UNL     1       5.327   8.475   4.992  1.00  0.00     0.023 A 
ATOM     41  C   UNL     1       6.437   9.306   4.752  1.00  0.00     0.031 A 
ATOM     42  C   UNL     1       4.055   8.934   4.606  1.00  0.00     0.131 A 
ATOM     43  C   UNL     1       6.248  10.566   4.171  1.00  0.00     0.055 A 
ATOM     44  C   UNL     1       3.878  10.173   3.990  1.00  0.00     0.041 A 
ATOM     45  F   UNL     1       2.965   8.177   4.814  1.00  0.00    -0.206 F 
ATOM     46  C   UNL     1       4.977  11.000   3.781  1.00  0.00     0.022 A 
BRANCH  43  47
ATOM     47  S   UNL     1       7.636  11.713   3.948  1.00  0.00     0.124 S 
ATOM     48  O   UNL     1       7.581  11.975   2.511  1.00  0.00    -0.237 OA
ATOM     49  O   UNL     1       7.247  12.831   4.802  1.00  0.00    -0.237 OA
ATOM     50  O   UNL     1       8.797  10.950   4.394  1.00  0.00    -0.744 OA
ENDBRANCH  43  47
ENDBRANCH  26  40
BRANCH  27  51
ATOM     51  C   UNL     1       6.371  -0.220   9.859  1.00  0.00     0.023 A 
ATOM     52  C   UNL     1       7.269  -1.228   9.465  1.00  0.00     0.031 A 
ATOM     53  C   UNL     1       5.504  -0.490  10.932  1.00  0.00     0.131 A 
ATOM     54  C   UNL     1       7.245  -2.473  10.111  1.00  0.00     0.055 A 
ATOM     55  C   UNL     1       5.526  -1.709  11.612  1.00  0.00     0.041 A 
ATOM     56  F   UNL     1       4.619   0.435  11.335  1.00  0.00    -0.206 F 
ATOM     57  C   UNL     1       6.392  -2.713  11.192  1.00  0.00     0.022 A 
BRANCH  54  58
ATOM     58  S   UNL     1       8.239  -3.861   9.495  1.00  0.00     0.124 S 
ATOM     59  O   UNL     1       9.134  -4.116  10.620  1.00  0.00    -0.237 OA
ATOM     60  O   UNL     1       7.218  -4.879   9.258  1.00  0.00    -0.237 OA
ATOM     61  O   UNL     1       8.870  -3.326   8.293  1.00  0.00    -0.744 OA
ENDBRANCH  54  58
ENDBRANCH  27  51
BRANCH  39  62
ATOM     62  C   UNL     1       7.068   6.534  11.681  1.00  0.00     0.023 A 
ATOM     63  C   UNL     1       6.109   7.377  12.277  1.00  0.00     0.031 A 
ATOM     64  C   UNL     1       8.363   6.509  12.224  1.00  0.00     0.131 A 
ATOM     65  C   UNL     1       6.471   8.187  13.360  1.00  0.00     0.055 A 
ATOM     66  C   UNL     1       8.706   7.286  13.331  1.00  0.00     0.041 A 
ATOM     67  F   UNL     1       9.315   5.735  11.681  1.00  0.00    -0.206 F 
ATOM     68  C   UNL     1       7.763   8.141  13.894  1.00  0.00     0.022 A 
BRANCH  65  69
ATOM     69  S   UNL     1       5.311   9.401  14.050  1.00  0.00     0.124 S 
ATOM     70  O   UNL     1       5.105   8.885  15.401  1.00  0.00    -0.237 OA
ATOM     71  O   UNL     1       6.077  10.642  13.966  1.00  0.00    -0.237 OA
ATOM     72  O   UNL     1       4.152   9.322  13.168  1.00  0.00    -0.744 OA
ENDBRANCH  65  69
ENDBRANCH  39  62
ENDBRANCH  13  14
ENDBRANCH   6   8
ENDBRANCH   3   4
ENDBRANCH   2   3
ENDBRANCH   1   2
BRANCH   1  73
ATOM     73  C   UNL     1       4.763  -1.859  -4.035  1.00  0.00     0.002 C 
BRANCH  73  74
ATOM     74  C   UNL     1       6.287  -1.781  -4.149  1.00  0.00     0.021 C 
BRANCH  74  75
ATOM     75  C   UNL     1       6.998  -3.127  -4.256  1.00  0.00     0.116 C 
BRANCH  75  76
ATOM     76  N   UNL     1       6.650  -3.841  -5.475  1.00  0.00    -0.352 N 
ATOM     77  C   UNL     1       7.489  -4.417  -6.391  1.00  0.00     0.256 C 
ATOM     78  H   UNL     1       5.687  -3.919  -5.666  1.00  0.00     0.163 HD
ATOM     79  O   UNL     1       7.041  -4.938  -7.408  1.00  0.00    -0.269 OA
BRANCH  77  80
ATOM     80  C   UNL     1       8.941  -4.282  -6.167  1.00  0.00     0.105 A 
ATOM     81  C   UNL     1       9.615  -3.471  -6.998  1.00  0.00     0.021 A 
ATOM     82  C   UNL     1       9.624  -4.891  -4.988  1.00  0.00     0.263 A 
ATOM     83  C   UNL     1      10.988  -3.133  -6.728  1.00  0.00     0.019 A 
ATOM     84  N   UNL     1      10.917  -4.422  -4.732  1.00  0.00    -0.309 N 
ATOM     85  O   UNL     1       9.038  -5.705  -4.276  1.00  0.00    -0.268 OA
ATOM     86  C   UNL     1      11.573  -3.573  -5.609  1.00  0.00     0.089 A 
BRANCH  84  87
ATOM     87  C   UNL     1      11.578  -4.819  -3.484  1.00  0.00     0.186 C 
BRANCH  87  88
ATOM     88  C   UNL     1      12.713  -5.856  -3.647  1.00  0.00     0.284 C 
BRANCH  88  89
ATOM     89  N   UNL     1      13.915  -5.370  -4.360  1.00  0.00    -0.333 N 
ATOM     90  C   UNL     1      14.883  -6.457  -4.577  1.00  0.00     0.262 C 
ATOM     91  C   UNL     1      14.655  -4.339  -3.611  1.00  0.00     0.262 C 
ATOM     92  H   UNL     1      13.555  -4.990  -5.235  1.00  0.00     0.348 HD
ATOM     93  C   UNL     1      15.744  -6.477  -3.328  1.00  0.00     0.067 C 
ATOM     94  C   UNL     1      15.839  -5.016  -2.934  1.00  0.00     0.067 C 
ENDBRANCH  88  89
ENDBRANCH  87  88
ENDBRANCH  84  87
ENDBRANCH  77  80
ENDBRANCH  75  76
ENDBRANCH  74  75
ENDBRANCH  73  74
ENDBRANCH   1  73
TORSDOF 19
