REMARK SMILES Cc1nc(C)c(C(=O)N[C@@H](Cc2ccccc2)C(=O)NCCCCCCNC(=O)c2ccc(-c3c4nc(c(-c5cc(S(=O)(=O)[O-])ccc5F)c5ccc([nH]5)c(-c5cc(S(=O)(=O)[O-])ccc5F)c5nc(c(-c6cc(S(=O)(=O)[O-])ccc6F)c6ccc3[nH]6)C=C5)C=C4)cc2)s1
REMARK SMILES IDX 24 1 23 2 22 3 21 4 20 5 18 6 19 7 10 9 9 10 7 11 8 12 6 14
REMARK SMILES IDX 1 15 2 16 3 17 93 18 4 19 5 20 11 21 12 22 13 23 17 24 14 25
REMARK SMILES IDX 16 26 15 27 25 28 26 29 27 30 28 31 29 33 30 34 31 35 92 36
REMARK SMILES IDX 32 37 91 38 33 39 34 40 35 41 85 42 36 43 90 44 84 45 86 46
REMARK SMILES IDX 37 47 89 48 83 49 82 50 38 52 70 53 50 54 69 55 51 56 54 57
REMARK SMILES IDX 68 58 87 59 52 60 53 61 67 63 88 64 55 65 39 66 40 67 48 68
REMARK SMILES IDX 41 69 47 70 49 71 46 72 42 73 43 74 44 75 45 76 71 77 72 78
REMARK SMILES IDX 80 79 73 80 79 81 81 82 78 83 74 84 75 85 76 86 77 87 56 88
REMARK SMILES IDX 57 89 65 90 58 91 64 92 66 93 63 94 59 95 60 96 61 97 62 98
REMARK H PARENT 20 8 9 13 27 32 86 51 54 62
REMARK Flexibility Score: inf
ROOT
ATOM      1  C   UNL     1      -0.377  -9.343  -2.131  1.00  0.00     0.002 C 
ENDROOT
BRANCH   1   2
ATOM      2  C   UNL     1      -1.123  -8.202  -2.835  1.00  0.00     0.002 C 
BRANCH   2   3
ATOM      3  C   UNL     1      -1.675  -7.100  -1.927  1.00  0.00     0.021 C 
BRANCH   3   4
ATOM      4  C   UNL     1      -0.662  -6.499  -0.965  1.00  0.00     0.116 C 
BRANCH   4   5
ATOM      5  N   UNL     1       0.346  -5.685  -1.607  1.00  0.00    -0.354 N 
ATOM      6  C   UNL     1       1.095  -4.666  -1.099  1.00  0.00     0.242 C 
ATOM      7  O   UNL     1       2.145  -4.400  -1.698  1.00  0.00    -0.273 OA
ATOM      8  H   UNL     1       0.516  -5.898  -2.553  1.00  0.00     0.163 HD
BRANCH   6   9
ATOM      9  C   UNL     1       0.739  -3.903   0.199  1.00  0.00     0.176 C 
BRANCH   9  10
ATOM     10  N   UNL     1      -0.654  -3.445   0.262  1.00  0.00    -0.339 N 
ATOM     11  C   UNL     1      -1.302  -2.242   0.119  1.00  0.00     0.263 C 
ATOM     12  O   UNL     1      -2.531  -2.378   0.081  1.00  0.00    -0.268 OA
ATOM     13  H   UNL     1      -1.278  -4.182   0.454  1.00  0.00     0.164 HD
BRANCH  11  14
ATOM     14  C   UNL     1      -0.677  -0.923   0.056  1.00  0.00     0.115 A 
ATOM     15  C   UNL     1       1.933   1.980  -0.006  1.00  0.00     0.079 C 
ATOM     16  C   UNL     1       0.771   1.052   0.002  1.00  0.00     0.091 A 
ATOM     17  N   UNL     1      -0.482   1.430  -0.029  1.00  0.00    -0.246 NA
ATOM     18  S   UNL     1       1.009  -0.628   0.068  1.00  0.00    -0.113 S 
ATOM     19  C   UNL     1      -1.323   0.318   0.003  1.00  0.00     0.061 A 
ATOM     20  C   UNL     1      -2.783   0.622  -0.004  1.00  0.00     0.068 C 
ENDBRANCH  11  14
ENDBRANCH   9  10
BRANCH   9  21
ATOM     21  C   UNL     1       1.245  -4.532   1.511  1.00  0.00     0.070 C 
BRANCH  21  22
ATOM     22  C   UNL     1       0.769  -5.915   1.874  1.00  0.00    -0.045 A 
ATOM     23  C   UNL     1      -0.499  -6.123   2.435  1.00  0.00     0.004 A 
ATOM     24  C   UNL     1       1.603  -7.022   1.652  1.00  0.00     0.004 A 
ATOM     25  C   UNL     1      -0.940  -7.418   2.721  1.00  0.00     0.000 A 
ATOM     26  C   UNL     1       1.163  -8.313   1.949  1.00  0.00     0.000 A 
ATOM     27  C   UNL     1      -0.111  -8.511   2.475  1.00  0.00     0.000 A 
ENDBRANCH  21  22
ENDBRANCH   9  21
ENDBRANCH   6   9
ENDBRANCH   4   5
ENDBRANCH   3   4
ENDBRANCH   2   3
ENDBRANCH   1   2
BRANCH   1  28
ATOM     28  C   UNL     1      -1.120 -10.014  -0.973  1.00  0.00     0.021 C 
BRANCH  28  29
ATOM     29  C   UNL     1      -2.502 -10.558  -1.309  1.00  0.00     0.116 C 
BRANCH  29  30
ATOM     30  N   UNL     1      -2.466 -11.540  -2.376  1.00  0.00    -0.352 N 
ATOM     31  C   UNL     1      -3.013 -12.796  -2.426  1.00  0.00     0.251 C 
ATOM     32  H   UNL     1      -1.976 -11.264  -3.184  1.00  0.00     0.163 HD
ATOM     33  O   UNL     1      -2.713 -13.546  -3.356  1.00  0.00    -0.269 OA
BRANCH  31  34
ATOM     34  C   UNL     1      -3.933 -13.258  -1.363  1.00  0.00     0.039 A 
ATOM     35  C   UNL     1      -3.820 -14.572  -0.902  1.00  0.00     0.014 A 
ATOM     36  C   UNL     1      -4.917 -12.416  -0.834  1.00  0.00     0.014 A 
ATOM     37  C   UNL     1      -4.661 -15.026   0.115  1.00  0.00     0.010 A 
ATOM     38  C   UNL     1      -5.698 -12.845   0.237  1.00  0.00     0.010 A 
ATOM     39  C   UNL     1      -5.590 -14.159   0.714  1.00  0.00    -0.014 A 
BRANCH  39  40
ATOM     40  C   UNL     1      -6.472 -14.626   1.816  1.00  0.00     0.031 A 
ATOM     41  C   UNL     1      -7.966 -14.660   1.624  1.00  0.00     0.074 A 
ATOM     42  C   UNL     1      -5.933 -14.984   2.998  1.00  0.00     0.049 A 
ATOM     43  N   UNL     1      -8.903 -14.992   2.475  1.00  0.00    -0.248 NA
ATOM     44  C   UNL     1      -8.472 -14.235   0.310  1.00  0.00     0.031 C 
ATOM     45  C   UNL     1      -4.503 -14.959   3.316  1.00  0.00     0.029 A 
ATOM     46  N   UNL     1      -6.519 -15.439   4.153  1.00  0.00    -0.354 N 
ATOM     47  C   UNL     1     -10.108 -14.809   1.804  1.00  0.00     0.074 A 
ATOM     48  C   UNL     1      -9.782 -14.268   0.501  1.00  0.00     0.031 C 
ATOM     49  C   UNL     1      -4.322 -15.411   4.567  1.00  0.00     0.029 A 
ATOM     50  C   UNL     1      -5.621 -15.712   5.160  1.00  0.00     0.049 A 
ATOM     51  H   UNL     1      -7.491 -15.559   4.252  1.00  0.00     0.167 HD
ATOM     52  C   UNL     1     -11.367 -15.090   2.224  1.00  0.00     0.034 A 
ATOM     53  C   UNL     1      -5.822 -16.147   6.420  1.00  0.00     0.034 A 
ATOM     54  C   UNL     1     -11.672 -15.638   3.523  1.00  0.00     0.049 A 
ATOM     55  C   UNL     1      -7.233 -16.427   6.874  1.00  0.00     0.074 A 
ATOM     56  C   UNL     1     -12.905 -16.001   4.038  1.00  0.00     0.029 A 
ATOM     57  N   UNL     1     -10.737 -15.897   4.519  1.00  0.00    -0.354 N 
ATOM     58  N   UNL     1      -8.358 -16.292   6.210  1.00  0.00    -0.248 NA
ATOM     59  C   UNL     1      -7.399 -16.935   8.242  1.00  0.00     0.031 C 
ATOM     60  C   UNL     1     -12.725 -16.407   5.364  1.00  0.00     0.029 A 
ATOM     61  C   UNL     1     -11.370 -16.385   5.652  1.00  0.00     0.049 A 
ATOM     62  H   UNL     1      -9.767 -15.755   4.431  1.00  0.00     0.167 HD
ATOM     63  C   UNL     1      -9.361 -16.735   7.069  1.00  0.00     0.074 A 
ATOM     64  C   UNL     1      -8.704 -17.155   8.290  1.00  0.00     0.031 C 
ATOM     65  C   UNL     1     -10.703 -16.795   6.867  1.00  0.00     0.034 A 
BRANCH  52  66
ATOM     66  C   UNL     1     -12.503 -14.783   1.275  1.00  0.00     0.023 A 
ATOM     67  C   UNL     1     -12.612 -15.412   0.022  1.00  0.00     0.031 A 
ATOM     68  C   UNL     1     -13.479 -13.829   1.615  1.00  0.00     0.131 A 
ATOM     69  C   UNL     1     -13.620 -15.025  -0.874  1.00  0.00     0.055 A 
ATOM     70  C   UNL     1     -14.532 -13.512   0.755  1.00  0.00     0.041 A 
ATOM     71  F   UNL     1     -13.418 -13.177   2.787  1.00  0.00    -0.206 F 
ATOM     72  C   UNL     1     -14.598 -14.099  -0.505  1.00  0.00     0.022 A 
BRANCH  69  73
ATOM     73  S   UNL     1     -13.544 -15.635  -2.580  1.00  0.00     0.124 S 
ATOM     74  O   UNL     1     -12.236 -15.145  -3.010  1.00  0.00    -0.237 OA
ATOM     75  O   UNL     1     -13.660 -17.078  -2.405  1.00  0.00    -0.237 OA
ATOM     76  O   UNL     1     -14.685 -14.990  -3.226  1.00  0.00    -0.744 OA
ENDBRANCH  69  73
ENDBRANCH  52  66
BRANCH  53  77
ATOM     77  C   UNL     1      -4.670 -16.343   7.348  1.00  0.00     0.023 A 
ATOM     78  C   UNL     1      -4.359 -17.612   7.861  1.00  0.00     0.031 A 
ATOM     79  C   UNL     1      -3.892 -15.252   7.777  1.00  0.00     0.131 A 
ATOM     80  C   UNL     1      -3.337 -17.752   8.813  1.00  0.00     0.055 A 
ATOM     81  C   UNL     1      -2.837 -15.406   8.678  1.00  0.00     0.041 A 
ATOM     82  F   UNL     1      -4.142 -14.016   7.316  1.00  0.00    -0.206 F 
ATOM     83  C   UNL     1      -2.565 -16.660   9.214  1.00  0.00     0.022 A 
BRANCH  80  84
ATOM     84  S   UNL     1      -3.098 -19.370   9.598  1.00  0.00     0.124 S 
ATOM     85  O   UNL     1      -4.415 -19.618  10.173  1.00  0.00    -0.237 OA
ATOM     86  O   UNL     1      -2.725 -20.205   8.461  1.00  0.00    -0.237 OA
ATOM     87  O   UNL     1      -2.030 -19.124  10.564  1.00  0.00    -0.744 OA
ENDBRANCH  80  84
ENDBRANCH  53  77
BRANCH  65  88
ATOM     88  C   UNL     1     -11.539 -17.390   7.976  1.00  0.00     0.023 A 
ATOM     89  C   UNL     1     -11.646 -16.779   9.238  1.00  0.00     0.031 A 
ATOM     90  C   UNL     1     -12.223 -18.602   7.770  1.00  0.00     0.131 A 
ATOM     91  C   UNL     1     -12.360 -17.416  10.264  1.00  0.00     0.055 A 
ATOM     92  C   UNL     1     -12.991 -19.194   8.773  1.00  0.00     0.041 A 
ATOM     93  F   UNL     1     -12.154 -19.233   6.586  1.00  0.00    -0.206 F 
ATOM     94  C   UNL     1     -13.049 -18.609  10.034  1.00  0.00     0.022 A 
BRANCH  91  95
ATOM     95  S   UNL     1     -12.281 -16.722  11.938  1.00  0.00     0.124 S 
ATOM     96  O   UNL     1     -10.844 -16.705  12.192  1.00  0.00    -0.237 OA
ATOM     97  O   UNL     1     -12.913 -15.418  11.765  1.00  0.00    -0.237 OA
ATOM     98  O   UNL     1     -13.042 -17.677  12.742  1.00  0.00    -0.744 OA
ENDBRANCH  91  95
ENDBRANCH  65  88
ENDBRANCH  39  40
ENDBRANCH  31  34
ENDBRANCH  29  30
ENDBRANCH  28  29
ENDBRANCH   1  28
TORSDOF 20
