REMARK SMILES CS(=O)(=O)c1ccc(/C=C(/C(=O)NCCCCCCNC(=O)c2ccc(-c3c4nc(c(-c5cc(S(=O)(=O)[O-])ccc5F)c5ccc([nH]5)c(-c5cc(S(=O)(=O)[O-])ccc5F)c5nc(c(-c6cc(S(=O)(=O)[O-])ccc6F)c6ccc3[nH]6)C=C5)C=C4)cc2)c2ccccc2)cc1
REMARK SMILES IDX 17 1 16 2 15 3 14 4 13 5 11 6 12 7 10 9 9 10 8 11 5 12 6 13
REMARK SMILES IDX 93 14 7 15 92 16 2 17 1 18 3 19 4 20 86 21 87 22 91 23 88 24
REMARK SMILES IDX 90 25 89 26 18 27 19 28 20 29 21 30 22 32 23 33 24 34 85 35
REMARK SMILES IDX 25 36 84 37 26 38 27 39 28 40 78 41 29 42 83 43 77 44 79 45
REMARK SMILES IDX 30 46 82 47 76 48 75 49 31 51 63 52 43 53 62 54 44 55 47 56
REMARK SMILES IDX 61 57 80 58 45 59 46 60 60 62 81 63 48 64 32 65 33 66 41 67
REMARK SMILES IDX 34 68 40 69 42 70 39 71 35 72 36 73 37 74 38 75 64 76 65 77
REMARK SMILES IDX 73 78 66 79 72 80 74 81 71 82 67 83 68 84 69 85 70 86 49 87
REMARK SMILES IDX 50 88 58 89 51 90 57 91 59 92 56 93 52 94 53 95 54 96 55 97
REMARK H PARENT 13 8 20 31 79 50 47 61
REMARK Flexibility Score: inf
ROOT
ATOM      1  C   UNL     1       4.425  -2.698 -10.790  1.00  0.00     0.002 C 
ENDROOT
BRANCH   1   2
ATOM      2  C   UNL     1       5.024  -3.492  -9.623  1.00  0.00     0.002 C 
BRANCH   2   3
ATOM      3  C   UNL     1       4.440  -3.153  -8.241  1.00  0.00     0.021 C 
BRANCH   3   4
ATOM      4  C   UNL     1       2.938  -3.432  -8.130  1.00  0.00     0.116 C 
BRANCH   4   5
ATOM      5  N   UNL     1       2.718  -4.864  -8.096  1.00  0.00    -0.352 N 
ATOM      6  C   UNL     1       2.411  -5.754  -7.117  1.00  0.00     0.251 C 
ATOM      7  O   UNL     1       2.417  -6.942  -7.450  1.00  0.00    -0.269 OA
ATOM      8  H   UNL     1       2.811  -5.287  -8.980  1.00  0.00     0.163 HD
BRANCH   6   9
ATOM      9  C   UNL     1       1.975  -5.348  -5.727  1.00  0.00     0.047 C 
ATOM     10  C   UNL     1       2.507  -4.282  -5.084  1.00  0.00     0.022 C 
BRANCH  10  11
ATOM     11  C   UNL     1       2.081  -3.661  -3.809  1.00  0.00    -0.025 A 
ATOM     12  C   UNL     1       1.048  -2.360  -1.541  1.00  0.00     0.067 A 
ATOM     13  C   UNL     1       1.276  -3.738  -1.516  1.00  0.00     0.021 A 
ATOM     14  C   UNL     1       1.387  -1.612  -2.668  1.00  0.00     0.021 A 
ATOM     15  C   UNL     1       1.811  -4.378  -2.639  1.00  0.00     0.009 A 
ATOM     16  C   UNL     1       1.903  -2.266  -3.794  1.00  0.00     0.009 A 
BRANCH  12  17
ATOM     17  S   UNL     1       0.292  -1.599  -0.123  1.00  0.00     0.175 S 
ATOM     18  C   UNL     1       0.991   0.022   0.016  1.00  0.00     0.163 C 
ATOM     19  O   UNL     1       0.733  -2.349   1.042  1.00  0.00    -0.224 OA
ATOM     20  O   UNL     1      -1.116  -1.463  -0.429  1.00  0.00    -0.224 OA
ENDBRANCH  12  17
ENDBRANCH  10  11
BRANCH   9  21
ATOM     21  C   UNL     1       1.048  -6.279  -5.033  1.00  0.00    -0.013 A 
ATOM     22  C   UNL     1       1.518  -7.558  -4.687  1.00  0.00     0.009 A 
ATOM     23  C   UNL     1      -0.248  -5.911  -4.651  1.00  0.00     0.009 A 
ATOM     24  C   UNL     1       0.724  -8.442  -3.959  1.00  0.00     0.001 A 
ATOM     25  C   UNL     1      -1.036  -6.792  -3.904  1.00  0.00     0.001 A 
ATOM     26  C   UNL     1      -0.549  -8.053  -3.556  1.00  0.00     0.000 A 
ENDBRANCH   9  21
ENDBRANCH   6   9
ENDBRANCH   4   5
ENDBRANCH   3   4
ENDBRANCH   2   3
ENDBRANCH   1   2
BRANCH   1  27
ATOM     27  C   UNL     1       4.468  -1.177 -10.621  1.00  0.00     0.021 C 
BRANCH  27  28
ATOM     28  C   UNL     1       5.872  -0.602 -10.457  1.00  0.00     0.116 C 
BRANCH  28  29
ATOM     29  N   UNL     1       6.675  -0.804 -11.649  1.00  0.00    -0.352 N 
ATOM     30  C   UNL     1       7.326   0.122 -12.426  1.00  0.00     0.251 C 
ATOM     31  H   UNL     1       6.766  -1.739 -11.943  1.00  0.00     0.163 HD
ATOM     32  O   UNL     1       7.745  -0.205 -13.533  1.00  0.00    -0.269 OA
BRANCH  30  33
ATOM     33  C   UNL     1       7.507   1.507 -11.937  1.00  0.00     0.039 A 
ATOM     34  C   UNL     1       7.334   2.566 -12.832  1.00  0.00     0.014 A 
ATOM     35  C   UNL     1       7.880   1.763 -10.613  1.00  0.00     0.014 A 
ATOM     36  C   UNL     1       7.498   3.880 -12.389  1.00  0.00     0.010 A 
ATOM     37  C   UNL     1       7.970   3.076 -10.156  1.00  0.00     0.010 A 
ATOM     38  C   UNL     1       7.797   4.148 -11.043  1.00  0.00    -0.014 A 
BRANCH  38  39
ATOM     39  C   UNL     1       7.960   5.546 -10.564  1.00  0.00     0.031 A 
ATOM     40  C   UNL     1       9.297   6.020 -10.060  1.00  0.00     0.074 A 
ATOM     41  C   UNL     1       6.899   6.376 -10.554  1.00  0.00     0.049 A 
ATOM     42  N   UNL     1       9.635   7.191  -9.583  1.00  0.00    -0.248 NA
ATOM     43  C   UNL     1      10.391   5.037 -10.065  1.00  0.00     0.031 C 
ATOM     44  C   UNL     1       5.543   6.017 -10.977  1.00  0.00     0.029 A 
ATOM     45  N   UNL     1       6.790   7.691 -10.178  1.00  0.00    -0.354 N 
ATOM     46  C   UNL     1      10.976   7.084  -9.226  1.00  0.00     0.074 A 
ATOM     47  C   UNL     1      11.365   5.712  -9.476  1.00  0.00     0.031 C 
ATOM     48  C   UNL     1       4.749   7.094 -10.867  1.00  0.00     0.029 A 
ATOM     49  C   UNL     1       5.524   8.207 -10.331  1.00  0.00     0.049 A 
ATOM     50  H   UNL     1       7.548   8.215  -9.831  1.00  0.00     0.167 HD
ATOM     51  C   UNL     1      11.812   8.046  -8.759  1.00  0.00     0.034 A 
ATOM     52  C   UNL     1       5.043   9.438 -10.066  1.00  0.00     0.034 A 
ATOM     53  C   UNL     1      11.408   9.412  -8.526  1.00  0.00     0.049 A 
ATOM     54  C   UNL     1       5.988  10.489  -9.538  1.00  0.00     0.074 A 
ATOM     55  C   UNL     1      12.180  10.479  -8.101  1.00  0.00     0.029 A 
ATOM     56  N   UNL     1      10.118   9.900  -8.694  1.00  0.00    -0.354 N 
ATOM     57  N   UNL     1       7.267  10.385  -9.256  1.00  0.00    -0.248 NA
ATOM     58  C   UNL     1       5.427  11.826  -9.311  1.00  0.00     0.031 C 
ATOM     59  C   UNL     1      11.345  11.592  -7.946  1.00  0.00     0.029 A 
ATOM     60  C   UNL     1      10.067  11.243  -8.352  1.00  0.00     0.049 A 
ATOM     61  H   UNL     1       9.351   9.369  -9.009  1.00  0.00     0.167 HD
ATOM     62  C   UNL     1       7.668  11.654  -8.849  1.00  0.00     0.074 A 
ATOM     63  C   UNL     1       6.501  12.507  -8.942  1.00  0.00     0.031 C 
ATOM     64  C   UNL     1       8.891  12.079  -8.436  1.00  0.00     0.034 A 
BRANCH  51  65
ATOM     65  C   UNL     1      13.235   7.639  -8.450  1.00  0.00     0.023 A 
ATOM     66  C   UNL     1      14.097   7.151  -9.448  1.00  0.00     0.031 A 
ATOM     67  C   UNL     1      13.728   7.708  -7.135  1.00  0.00     0.131 A 
ATOM     68  C   UNL     1      15.371   6.675  -9.104  1.00  0.00     0.055 A 
ATOM     69  C   UNL     1      15.029   7.315  -6.814  1.00  0.00     0.041 A 
ATOM     70  F   UNL     1      12.947   8.145  -6.134  1.00  0.00    -0.206 F 
ATOM     71  C   UNL     1      15.854   6.778  -7.798  1.00  0.00     0.022 A 
BRANCH  68  72
ATOM     72  S   UNL     1      16.328   5.777 -10.358  1.00  0.00     0.124 S 
ATOM     73  O   UNL     1      15.424   4.677 -10.685  1.00  0.00    -0.237 OA
ATOM     74  O   UNL     1      16.511   6.785 -11.396  1.00  0.00    -0.237 OA
ATOM     75  O   UNL     1      17.542   5.385  -9.646  1.00  0.00    -0.744 OA
ENDBRANCH  68  72
ENDBRANCH  51  65
BRANCH  52  76
ATOM     76  C   UNL     1       3.604   9.753 -10.296  1.00  0.00     0.023 A 
ATOM     77  C   UNL     1       3.214  10.704 -11.252  1.00  0.00     0.031 A 
ATOM     78  C   UNL     1       2.598   9.139  -9.529  1.00  0.00     0.131 A 
ATOM     79  C   UNL     1       1.861  11.052 -11.383  1.00  0.00     0.055 A 
ATOM     80  C   UNL     1       1.247   9.448  -9.701  1.00  0.00     0.041 A 
ATOM     81  F   UNL     1       2.914   8.218  -8.605  1.00  0.00    -0.206 F 
ATOM     82  C   UNL     1       0.873  10.421 -10.623  1.00  0.00     0.022 A 
BRANCH  79  83
ATOM     83  S   UNL     1       1.416  12.409 -12.502  1.00  0.00     0.124 S 
ATOM     84  O   UNL     1       2.202  13.510 -11.958  1.00  0.00    -0.237 OA
ATOM     85  O   UNL     1       1.848  11.887 -13.794  1.00  0.00    -0.237 OA
ATOM     86  O   UNL     1      -0.030  12.529 -12.332  1.00  0.00    -0.744 OA
ENDBRANCH  79  83
ENDBRANCH  52  76
BRANCH  64  87
ATOM     87  C   UNL     1       9.026  13.544  -8.098  1.00  0.00     0.023 A 
ATOM     88  C   UNL     1       8.339  14.120  -7.015  1.00  0.00     0.031 A 
ATOM     89  C   UNL     1       9.830  14.383  -8.890  1.00  0.00     0.131 A 
ATOM     90  C   UNL     1       8.412  15.504  -6.796  1.00  0.00     0.055 A 
ATOM     91  C   UNL     1       9.954  15.748  -8.626  1.00  0.00     0.041 A 
ATOM     92  F   UNL     1      10.508  13.889  -9.939  1.00  0.00    -0.206 F 
ATOM     93  C   UNL     1       9.228  16.319  -7.585  1.00  0.00     0.022 A 
BRANCH  90  94
ATOM     94  S   UNL     1       7.333  16.244  -5.539  1.00  0.00     0.124 S 
ATOM     95  O   UNL     1       6.010  15.821  -5.988  1.00  0.00    -0.237 OA
ATOM     96  O   UNL     1       7.817  15.623  -4.310  1.00  0.00    -0.237 OA
ATOM     97  O   UNL     1       7.600  17.676  -5.657  1.00  0.00    -0.744 OA
ENDBRANCH  90  94
ENDBRANCH  64  87
ENDBRANCH  38  39
ENDBRANCH  30  33
ENDBRANCH  28  29
ENDBRANCH  27  28
ENDBRANCH   1  27
TORSDOF 19
