REMARK SMILES COc1ccc(-c2[nH]nc3nc(-c4ccc(C(F)(F)F)cc4)cc(C(=O)NCCCCCCNC(=O)c4ccc(-c5c6nc(c(-c7cc(S(=O)(=O)[O-])ccc7F)c7ccc([nH]7)c(-c7cc(S(=O)(=O)[O-])ccc7F)c7nc(c(-c8cc(S(=O)(=O)[O-])ccc8F)c8ccc5[nH]8)C=C7)C=C6)cc4)c23)cc1
REMARK SMILES IDX 31 1 30 2 29 3 28 4 27 5 25 6 26 7 24 9 7 10 8 11 100 12
REMARK SMILES IDX 9 13 10 15 11 16 23 17 12 18 6 19 3 20 4 21 102 22 5 23
REMARK SMILES IDX 101 24 2 25 1 26 13 27 14 28 22 29 15 30 21 31 16 32 17 33
REMARK SMILES IDX 18 34 19 35 20 36 32 37 33 38 34 39 35 40 36 42 37 43 38 44
REMARK SMILES IDX 99 45 39 46 98 47 40 48 41 49 42 50 92 51 43 52 97 53 91 54
REMARK SMILES IDX 93 55 44 56 96 57 90 58 89 59 45 61 77 62 57 63 76 64 58 65
REMARK SMILES IDX 61 66 75 67 94 68 59 69 60 70 74 72 95 73 62 74 46 75 47 76
REMARK SMILES IDX 55 77 48 78 54 79 56 80 53 81 49 82 50 83 51 84 52 85 78 86
REMARK SMILES IDX 79 87 87 88 80 89 86 90 88 91 85 92 81 93 82 94 83 95 84 96
REMARK SMILES IDX 63 97 64 98 72 99 65 100 71 101 73 102 70 103 66 104 67 105
REMARK SMILES IDX 68 106 69 107
REMARK H PARENT 27 8 8 14 34 41 93 60 61 71
REMARK Flexibility Score: inf
ROOT
ATOM      1  C   UNL     1       7.011  -3.184   6.763  1.00  0.00     0.002 C 
ENDROOT
BRANCH   1   2
ATOM      2  C   UNL     1       7.338  -3.383   5.271  1.00  0.00     0.002 C 
BRANCH   2   3
ATOM      3  C   UNL     1       7.126  -4.805   4.732  1.00  0.00     0.021 C 
BRANCH   3   4
ATOM      4  C   UNL     1       5.766  -5.385   5.107  1.00  0.00     0.116 C 
BRANCH   4   5
ATOM      5  N   UNL     1       4.708  -4.792   4.323  1.00  0.00    -0.352 N 
ATOM      6  C   UNL     1       3.857  -5.213   3.342  1.00  0.00     0.252 C 
ATOM      7  O   UNL     1       2.913  -4.451   3.152  1.00  0.00    -0.269 OA
ATOM      8  H   UNL     1       4.565  -3.846   4.553  1.00  0.00     0.163 HD
BRANCH   6   9
ATOM      9  C   UNL     1       3.951  -6.506   2.623  1.00  0.00     0.055 A 
ATOM     10  C   UNL     1       2.079  -6.329   0.918  1.00  0.00     0.075 A 
ATOM     11  N   UNL     1       1.513  -7.306   0.133  1.00  0.00    -0.275 N 
ATOM     12  C   UNL     1       3.049  -6.993   1.656  1.00  0.00     0.059 A 
ATOM     13  N   UNL     1       2.023  -8.536   0.292  1.00  0.00    -0.154 NA
ATOM     14  H   UNL     1       0.784  -7.116  -0.500  1.00  0.00     0.190 HD
ATOM     15  C   UNL     1       2.992  -8.358   1.189  1.00  0.00     0.182 A 
ATOM     16  N   UNL     1       3.821  -9.331   1.649  1.00  0.00    -0.226 NA
ATOM     17  C   UNL     1       4.897  -7.499   2.900  1.00  0.00     0.043 A 
ATOM     18  C   UNL     1       4.763  -8.851   2.498  1.00  0.00     0.074 A 
BRANCH  10  19
ATOM     19  C   UNL     1       1.652  -4.940   0.777  1.00  0.00     0.001 A 
ATOM     20  C   UNL     1       0.868  -2.238   0.673  1.00  0.00     0.118 A 
ATOM     21  C   UNL     1      -0.023  -3.219   1.111  1.00  0.00     0.047 A 
ATOM     22  C   UNL     1       2.152  -2.611   0.274  1.00  0.00     0.047 A 
ATOM     23  C   UNL     1       0.358  -4.563   1.155  1.00  0.00     0.014 A 
ATOM     24  C   UNL     1       2.538  -3.958   0.314  1.00  0.00     0.014 A 
BRANCH  20  25
ATOM     25  O   UNL     1       0.387  -0.958   0.729  1.00  0.00    -0.497 OA
ATOM     26  C   UNL     1       1.043  -0.005  -0.098  1.00  0.00     0.278 C 
ENDBRANCH  20  25
ENDBRANCH  10  19
BRANCH  18  27
ATOM     27  C   UNL     1       5.645  -9.844   3.141  1.00  0.00     0.000 A 
ATOM     28  C   UNL     1       6.559 -10.611   2.410  1.00  0.00     0.011 A 
ATOM     29  C   UNL     1       5.633  -9.988   4.544  1.00  0.00     0.011 A 
ATOM     30  C   UNL     1       7.457 -11.466   3.063  1.00  0.00     0.014 A 
ATOM     31  C   UNL     1       6.524 -10.843   5.197  1.00  0.00     0.014 A 
ATOM     32  C   UNL     1       7.453 -11.588   4.462  1.00  0.00     0.056 A 
BRANCH  32  33
ATOM     33  C   UNL     1       8.431 -12.508   5.154  1.00  0.00     0.416 C 
ATOM     34  F   UNL     1       8.273 -13.809   4.783  1.00  0.00    -0.166 F 
ATOM     35  F   UNL     1       9.727 -12.192   4.889  1.00  0.00    -0.166 F 
ATOM     36  F   UNL     1       8.316 -12.495   6.513  1.00  0.00    -0.166 F 
ENDBRANCH  32  33
ENDBRANCH  18  27
ENDBRANCH   6   9
ENDBRANCH   4   5
ENDBRANCH   3   4
ENDBRANCH   2   3
ENDBRANCH   1   2
BRANCH   1  37
ATOM     37  C   UNL     1       7.595  -4.221   7.739  1.00  0.00     0.021 C 
BRANCH  37  38
ATOM     38  C   UNL     1       9.106  -4.169   7.829  1.00  0.00     0.116 C 
BRANCH  38  39
ATOM     39  N   UNL     1       9.581  -2.924   8.436  1.00  0.00    -0.352 N 
ATOM     40  C   UNL     1      10.886  -2.508   8.655  1.00  0.00     0.251 C 
ATOM     41  H   UNL     1       8.880  -2.298   8.729  1.00  0.00     0.163 HD
ATOM     42  O   UNL     1      11.134  -1.665   9.502  1.00  0.00    -0.269 OA
BRANCH  40  43
ATOM     43  C   UNL     1      11.953  -3.111   7.834  1.00  0.00     0.039 A 
ATOM     44  C   UNL     1      13.247  -3.346   8.304  1.00  0.00     0.014 A 
ATOM     45  C   UNL     1      11.599  -3.474   6.542  1.00  0.00     0.014 A 
ATOM     46  C   UNL     1      14.152  -3.971   7.446  1.00  0.00     0.010 A 
ATOM     47  C   UNL     1      12.361  -4.366   5.857  1.00  0.00     0.010 A 
ATOM     48  C   UNL     1      13.687  -4.468   6.218  1.00  0.00    -0.014 A 
BRANCH  48  49
ATOM     49  C   UNL     1      14.528  -5.128   5.241  1.00  0.00     0.031 A 
ATOM     50  C   UNL     1      15.123  -6.391   5.713  1.00  0.00     0.074 A 
ATOM     51  C   UNL     1      14.562  -4.753   3.942  1.00  0.00     0.049 A 
ATOM     52  N   UNL     1      16.341  -6.564   6.090  1.00  0.00    -0.248 NA
ATOM     53  C   UNL     1      14.247  -7.538   5.984  1.00  0.00     0.031 C 
ATOM     54  C   UNL     1      13.789  -3.717   3.244  1.00  0.00     0.029 A 
ATOM     55  N   UNL     1      15.267  -5.319   2.932  1.00  0.00    -0.354 N 
ATOM     56  C   UNL     1      16.456  -7.904   6.427  1.00  0.00     0.074 A 
ATOM     57  C   UNL     1      15.107  -8.389   6.552  1.00  0.00     0.031 C 
ATOM     58  C   UNL     1      13.917  -3.877   1.905  1.00  0.00     0.029 A 
ATOM     59  C   UNL     1      14.900  -4.917   1.652  1.00  0.00     0.049 A 
ATOM     60  H   UNL     1      15.989  -5.969   3.093  1.00  0.00     0.167 HD
ATOM     61  C   UNL     1      17.663  -8.531   6.361  1.00  0.00     0.034 A 
ATOM     62  C   UNL     1      15.370  -5.422   0.478  1.00  0.00     0.034 A 
ATOM     63  C   UNL     1      18.721  -7.566   6.127  1.00  0.00     0.049 A 
ATOM     64  C   UNL     1      16.698  -6.018   0.796  1.00  0.00     0.074 A 
ATOM     65  C   UNL     1      19.213  -6.487   6.836  1.00  0.00     0.029 A 
ATOM     66  N   UNL     1      19.134  -7.374   4.824  1.00  0.00    -0.354 N 
ATOM     67  N   UNL     1      17.711  -5.300   1.209  1.00  0.00    -0.248 NA
ATOM     68  C   UNL     1      16.747  -7.421   1.188  1.00  0.00     0.031 C 
ATOM     69  C   UNL     1      19.430  -5.476   5.852  1.00  0.00     0.029 A 
ATOM     70  C   UNL     1      19.161  -6.018   4.591  1.00  0.00     0.049 A 
ATOM     71  H   UNL     1      19.367  -8.080   4.178  1.00  0.00     0.167 HD
ATOM     72  C   UNL     1      18.268  -6.021   2.257  1.00  0.00     0.074 A 
ATOM     73  C   UNL     1      17.692  -7.362   2.135  1.00  0.00     0.031 C 
ATOM     74  C   UNL     1      18.900  -5.399   3.300  1.00  0.00     0.034 A 
BRANCH  61  75
ATOM     75  C   UNL     1      17.898 -10.008   6.174  1.00  0.00     0.023 A 
ATOM     76  C   UNL     1      19.238 -10.441   6.170  1.00  0.00     0.031 A 
ATOM     77  C   UNL     1      16.943 -10.957   5.751  1.00  0.00     0.131 A 
ATOM     78  C   UNL     1      19.591 -11.701   5.664  1.00  0.00     0.055 A 
ATOM     79  C   UNL     1      17.293 -12.238   5.311  1.00  0.00     0.041 A 
ATOM     80  F   UNL     1      15.640 -10.678   5.647  1.00  0.00    -0.206 F 
ATOM     81  C   UNL     1      18.625 -12.605   5.233  1.00  0.00     0.022 A 
BRANCH  78  82
ATOM     82  S   UNL     1      21.348 -12.059   5.415  1.00  0.00     0.124 S 
ATOM     83  O   UNL     1      21.769 -10.926   4.599  1.00  0.00    -0.237 OA
ATOM     84  O   UNL     1      21.846 -12.086   6.787  1.00  0.00    -0.237 OA
ATOM     85  O   UNL     1      21.335 -13.350   4.731  1.00  0.00    -0.744 OA
ENDBRANCH  78  82
ENDBRANCH  61  75
BRANCH  62  86
ATOM     86  C   UNL     1      14.568  -5.739  -0.744  1.00  0.00     0.023 A 
ATOM     87  C   UNL     1      15.139  -5.980  -2.015  1.00  0.00     0.031 A 
ATOM     88  C   UNL     1      13.193  -6.048  -0.608  1.00  0.00     0.131 A 
ATOM     89  C   UNL     1      14.346  -6.502  -3.071  1.00  0.00     0.055 A 
ATOM     90  C   UNL     1      12.419  -6.565  -1.650  1.00  0.00     0.041 A 
ATOM     91  F   UNL     1      12.568  -5.936   0.575  1.00  0.00    -0.206 F 
ATOM     92  C   UNL     1      12.995  -6.804  -2.885  1.00  0.00     0.022 A 
BRANCH  89  93
ATOM     93  S   UNL     1      15.079  -6.884  -4.700  1.00  0.00     0.124 S 
ATOM     94  O   UNL     1      15.352  -5.556  -5.237  1.00  0.00    -0.237 OA
ATOM     95  O   UNL     1      16.240  -7.691  -4.342  1.00  0.00    -0.237 OA
ATOM     96  O   UNL     1      14.017  -7.618  -5.390  1.00  0.00    -0.744 OA
ENDBRANCH  89  93
ENDBRANCH  62  86
BRANCH  74  97
ATOM     97  C   UNL     1      19.173  -3.905   3.194  1.00  0.00     0.023 A 
ATOM     98  C   UNL     1      18.182  -2.911   3.002  1.00  0.00     0.031 A 
ATOM     99  C   UNL     1      20.485  -3.466   3.444  1.00  0.00     0.131 A 
ATOM    100  C   UNL     1      18.527  -1.543   3.054  1.00  0.00     0.055 A 
ATOM    101  C   UNL     1      20.817  -2.114   3.522  1.00  0.00     0.041 A 
ATOM    102  F   UNL     1      21.468  -4.355   3.662  1.00  0.00    -0.206 F 
ATOM    103  C   UNL     1      19.840  -1.146   3.322  1.00  0.00     0.022 A 
BRANCH 100 104
ATOM    104  S   UNL     1      17.275  -0.251   2.753  1.00  0.00     0.124 S 
ATOM    105  O   UNL     1      16.623  -0.687   1.524  1.00  0.00    -0.237 OA
ATOM    106  O   UNL     1      16.459  -0.309   3.964  1.00  0.00    -0.237 OA
ATOM    107  O   UNL     1      18.072   0.970   2.618  1.00  0.00    -0.744 OA
ENDBRANCH 100 104
ENDBRANCH  74  97
ENDBRANCH  48  49
ENDBRANCH  40  43
ENDBRANCH  38  39
ENDBRANCH  37  38
ENDBRANCH   1  37
TORSDOF 20
