REMARK SMILES C[NH+]1CCC([NH+]2CCC(Oc3ccc4ccccc4c3)(C(=O)NCCCCCCNC(=O)c3ccc(-c4c5nc(c(-c6cc(S(=O)(=O)[O-])ccc6F)c6ccc([nH]6)c(-c6cc(S(=O)(=O)[O-])ccc6F)c6nc(c(-c7cc(S(=O)(=O)[O-])ccc7F)c7ccc4[nH]7)C=C6)C=C5)cc3)CC2)CC1
REMARK SMILES IDX 27 1 26 2 25 3 24 4 23 5 21 6 22 7 9 9 6 10 7 11 97 12 8 14
REMARK SMILES IDX 96 15 5 16 1 17 2 18 3 19 99 20 4 22 98 23 10 24 11 25 12 26
REMARK SMILES IDX 20 27 13 28 19 29 14 30 18 31 15 32 17 33 16 34 28 35 29 36
REMARK SMILES IDX 30 37 31 38 32 40 33 41 34 42 95 43 35 44 94 45 36 46 37 47
REMARK SMILES IDX 38 48 88 49 39 50 93 51 87 52 89 53 40 54 92 55 86 56 85 57
REMARK SMILES IDX 41 59 73 60 53 61 72 62 54 63 57 64 71 65 90 66 55 67 56 68
REMARK SMILES IDX 70 70 91 71 58 72 42 73 43 74 51 75 44 76 50 77 52 78 49 79
REMARK SMILES IDX 45 80 46 81 47 82 48 83 74 84 75 85 83 86 76 87 82 88 84 89
REMARK SMILES IDX 81 90 77 91 78 92 79 93 80 94 59 95 60 96 68 97 61 98 67 99
REMARK SMILES IDX 69 100 66 101 62 102 63 103 64 104 65 105
REMARK H PARENT 23 8 6 13 2 21 30 39 89 58 57 69
REMARK Flexibility Score: inf
ROOT
ATOM      1  C   UNL     1       5.009  -3.149   7.170  1.00  0.00     0.002 C 
ENDROOT
BRANCH   1   2
ATOM      2  C   UNL     1       3.966  -2.487   6.264  1.00  0.00     0.002 C 
BRANCH   2   3
ATOM      3  C   UNL     1       4.485  -1.302   5.440  1.00  0.00     0.021 C 
BRANCH   3   4
ATOM      4  C   UNL     1       5.691  -1.639   4.562  1.00  0.00     0.116 C 
BRANCH   4   5
ATOM      5  N   UNL     1       5.309  -2.538   3.490  1.00  0.00    -0.353 N 
ATOM      6  C   UNL     1       5.245  -2.333   2.142  1.00  0.00     0.264 C 
ATOM      7  O   UNL     1       4.919  -3.314   1.463  1.00  0.00    -0.270 OA
ATOM      8  H   UNL     1       5.054  -3.442   3.782  1.00  0.00     0.163 HD
BRANCH   6   9
ATOM      9  C   UNL     1       5.576  -0.948   1.510  1.00  0.00     0.197 C 
ATOM     10  N   UNL     1       3.083  -0.108   0.182  1.00  0.00    -0.332 N 
ATOM     11  C   UNL     1       3.197  -0.131   1.643  1.00  0.00     0.267 C 
ATOM     12  C   UNL     1       3.921  -1.151  -0.435  1.00  0.00     0.267 C 
ATOM     13  H   UNL     1       3.447   0.794  -0.125  1.00  0.00     0.348 HD
ATOM     14  C   UNL     1       4.639   0.149   2.029  1.00  0.00     0.120 C 
ATOM     15  C   UNL     1       5.401  -1.036  -0.023  1.00  0.00     0.120 C 
BRANCH  10  16
ATOM     16  C   UNL     1       1.680  -0.132  -0.302  1.00  0.00     0.195 C 
ATOM     17  C   UNL     1      -2.629   0.068  -0.238  1.00  0.00     0.332 C 
ATOM     18  N   UNL     1      -1.213   0.017   0.115  1.00  0.00    -0.337 N 
ATOM     19  C   UNL     1      -0.496   1.176  -0.429  1.00  0.00     0.268 C 
ATOM     20  C   UNL     1      -0.600  -1.236  -0.340  1.00  0.00     0.268 C 
ATOM     21  H   UNL     1      -1.143   0.049   1.132  1.00  0.00     0.347 HD
ATOM     22  C   UNL     1       0.953   1.182   0.053  1.00  0.00     0.126 C 
ATOM     23  C   UNL     1       0.844  -1.340   0.155  1.00  0.00     0.126 C 
ENDBRANCH  10  16
BRANCH   9  24
ATOM     24  O   UNL     1       6.966  -0.812   1.903  1.00  0.00    -0.477 OA
BRANCH  24  25
ATOM     25  C   UNL     1       7.680   0.269   1.486  1.00  0.00     0.121 A 
ATOM     26  C   UNL     1       7.448   1.550   1.971  1.00  0.00     0.047 A 
ATOM     27  C   UNL     1       8.788   0.024   0.675  1.00  0.00     0.055 A 
ATOM     28  C   UNL     1       8.247   2.614   1.550  1.00  0.00     0.012 A 
ATOM     29  C   UNL     1       9.628   1.075   0.274  1.00  0.00    -0.015 A 
ATOM     30  C   UNL     1       9.335   2.393   0.696  1.00  0.00    -0.018 A 
ATOM     31  C   UNL     1      10.759   0.850  -0.526  1.00  0.00     0.009 A 
ATOM     32  C   UNL     1      10.155   3.451   0.277  1.00  0.00     0.009 A 
ATOM     33  C   UNL     1      11.576   1.911  -0.921  1.00  0.00     0.001 A 
ATOM     34  C   UNL     1      11.268   3.211  -0.529  1.00  0.00     0.001 A 
ENDBRANCH  24  25
ENDBRANCH   9  24
ENDBRANCH   6   9
ENDBRANCH   4   5
ENDBRANCH   3   4
ENDBRANCH   2   3
ENDBRANCH   1   2
BRANCH   1  35
ATOM     35  C   UNL     1       5.750  -2.192   8.108  1.00  0.00     0.021 C 
BRANCH  35  36
ATOM     36  C   UNL     1       4.848  -1.427   9.069  1.00  0.00     0.116 C 
BRANCH  36  37
ATOM     37  N   UNL     1       4.171  -2.317   9.995  1.00  0.00    -0.352 N 
ATOM     38  C   UNL     1       4.102  -2.253  11.361  1.00  0.00     0.251 C 
ATOM     39  H   UNL     1       3.694  -3.073   9.583  1.00  0.00     0.163 HD
ATOM     40  O   UNL     1       3.677  -3.225  11.992  1.00  0.00    -0.269 OA
BRANCH  38  41
ATOM     41  C   UNL     1       4.548  -1.038  12.077  1.00  0.00     0.039 A 
ATOM     42  C   UNL     1       5.255  -1.180  13.274  1.00  0.00     0.014 A 
ATOM     43  C   UNL     1       4.240   0.238  11.595  1.00  0.00     0.014 A 
ATOM     44  C   UNL     1       5.673  -0.045  13.972  1.00  0.00     0.010 A 
ATOM     45  C   UNL     1       4.726   1.367  12.250  1.00  0.00     0.010 A 
ATOM     46  C   UNL     1       5.424   1.239  13.460  1.00  0.00    -0.014 A 
BRANCH  46  47
ATOM     47  C   UNL     1       5.835   2.453  14.212  1.00  0.00     0.031 A 
ATOM     48  C   UNL     1       4.786   3.396  14.742  1.00  0.00     0.074 A 
ATOM     49  C   UNL     1       7.142   2.722  14.393  1.00  0.00     0.049 A 
ATOM     50  N   UNL     1       4.933   4.522  15.392  1.00  0.00    -0.248 NA
ATOM     51  C   UNL     1       3.384   3.038  14.476  1.00  0.00     0.031 C 
ATOM     52  C   UNL     1       8.250   1.907  13.890  1.00  0.00     0.029 A 
ATOM     53  N   UNL     1       7.763   3.755  15.048  1.00  0.00    -0.354 N 
ATOM     54  C   UNL     1       3.647   5.012  15.600  1.00  0.00     0.074 A 
ATOM     55  C   UNL     1       2.740   4.096  14.942  1.00  0.00     0.031 C 
ATOM     56  C   UNL     1       9.412   2.454  14.283  1.00  0.00     0.029 A 
ATOM     57  C   UNL     1       9.136   3.677  15.030  1.00  0.00     0.049 A 
ATOM     58  H   UNL     1       7.271   4.485  15.490  1.00  0.00     0.167 HD
ATOM     59  C   UNL     1       3.256   6.107  16.299  1.00  0.00     0.034 A 
ATOM     60  C   UNL     1      10.066   4.499  15.556  1.00  0.00     0.034 A 
ATOM     61  C   UNL     1       4.175   7.002  16.962  1.00  0.00     0.049 A 
ATOM     62  C   UNL     1       9.608   5.711  16.329  1.00  0.00     0.074 A 
ATOM     63  C   UNL     1       3.892   8.117  17.731  1.00  0.00     0.029 A 
ATOM     64  N   UNL     1       5.559   6.883  16.934  1.00  0.00    -0.354 N 
ATOM     65  N   UNL     1       8.386   6.135  16.557  1.00  0.00    -0.248 NA
ATOM     66  C   UNL     1      10.657   6.540  16.934  1.00  0.00     0.031 C 
ATOM     67  C   UNL     1       5.102   8.708  18.112  1.00  0.00     0.029 A 
ATOM     68  C   UNL     1       6.143   7.917  17.652  1.00  0.00     0.049 A 
ATOM     69  H   UNL     1       6.055   6.169  16.471  1.00  0.00     0.167 HD
ATOM     70  C   UNL     1       8.521   7.263  17.363  1.00  0.00     0.074 A 
ATOM     71  C   UNL     1       9.941   7.434  17.597  1.00  0.00     0.031 C 
ATOM     72  C   UNL     1       7.562   8.082  17.867  1.00  0.00     0.034 A 
BRANCH  59  73
ATOM     73  C   UNL     1       1.774   6.401  16.355  1.00  0.00     0.023 A 
ATOM     74  C   UNL     1       0.862   5.500  16.934  1.00  0.00     0.031 A 
ATOM     75  C   UNL     1       1.257   7.579  15.786  1.00  0.00     0.131 A 
ATOM     76  C   UNL     1      -0.517   5.746  16.854  1.00  0.00     0.055 A 
ATOM     77  C   UNL     1      -0.111   7.861  15.789  1.00  0.00     0.041 A 
ATOM     78  F   UNL     1       2.071   8.469  15.198  1.00  0.00    -0.206 F 
ATOM     79  C   UNL     1      -1.009   6.934  16.309  1.00  0.00     0.022 A 
BRANCH  76  80
ATOM     80  S   UNL     1      -1.662   4.420  17.325  1.00  0.00     0.124 S 
ATOM     81  O   UNL     1      -1.268   3.352  16.410  1.00  0.00    -0.237 OA
ATOM     82  O   UNL     1      -1.340   4.209  18.731  1.00  0.00    -0.237 OA
ATOM     83  O   UNL     1      -2.980   4.997  17.066  1.00  0.00    -0.744 OA
ENDBRANCH  76  80
ENDBRANCH  59  73
BRANCH  60  84
ATOM     84  C   UNL     1      11.519   4.210  15.383  1.00  0.00     0.023 A 
ATOM     85  C   UNL     1      12.338   3.925  16.488  1.00  0.00     0.031 A 
ATOM     86  C   UNL     1      12.121   4.265  14.114  1.00  0.00     0.131 A 
ATOM     87  C   UNL     1      13.720   3.761  16.311  1.00  0.00     0.055 A 
ATOM     88  C   UNL     1      13.488   4.045  13.936  1.00  0.00     0.041 A 
ATOM     89  F   UNL     1      11.384   4.526  13.023  1.00  0.00    -0.206 F 
ATOM     90  C   UNL     1      14.299   3.806  15.041  1.00  0.00     0.022 A 
BRANCH  87  91
ATOM     91  S   UNL     1      14.768   3.578  17.781  1.00  0.00     0.124 S 
ATOM     92  O   UNL     1      14.464   4.800  18.516  1.00  0.00    -0.237 OA
ATOM     93  O   UNL     1      14.262   2.338  18.360  1.00  0.00    -0.237 OA
ATOM     94  O   UNL     1      16.118   3.500  17.228  1.00  0.00    -0.744 OA
ENDBRANCH  87  91
ENDBRANCH  60  84
BRANCH  72  95
ATOM     95  C   UNL     1       8.028   9.206  18.764  1.00  0.00     0.023 A 
ATOM     96  C   UNL     1       8.847  10.245  18.287  1.00  0.00     0.031 A 
ATOM     97  C   UNL     1       7.682   9.213  20.127  1.00  0.00     0.131 A 
ATOM     98  C   UNL     1       9.359  11.198  19.179  1.00  0.00     0.055 A 
ATOM     99  C   UNL     1       8.134  10.207  20.996  1.00  0.00     0.041 A 
ATOM    100  F   UNL     1       6.903   8.247  20.640  1.00  0.00    -0.206 F 
ATOM    101  C   UNL     1       8.995  11.195  20.528  1.00  0.00     0.022 A 
BRANCH  98 102
ATOM    102  S   UNL     1      10.617  12.360  18.581  1.00  0.00     0.124 S 
ATOM    103  O   UNL     1      11.629  11.460  18.038  1.00  0.00    -0.237 OA
ATOM    104  O   UNL     1       9.873  13.147  17.602  1.00  0.00    -0.237 OA
ATOM    105  O   UNL     1      11.015  13.085  19.786  1.00  0.00    -0.744 OA
ENDBRANCH  98 102
ENDBRANCH  72  95
ENDBRANCH  46  47
ENDBRANCH  38  41
ENDBRANCH  36  37
ENDBRANCH  35  36
ENDBRANCH   1  35
TORSDOF 19
