REMARK SMILES O=C(NCCCCCCNC(=O)[C@H]1C[C@](O)(c2ccc(F)cc2)[C@@H](c2ccc(F)cc2)O1)c1ccc(-c2c3nc(c(-c4cc(S(=O)(=O)[O-])ccc4F)c4ccc([nH]4)c(-c4cc(S(=O)(=O)[O-])ccc4F)c4nc(c(-c5cc(S(=O)(=O)[O-])ccc5F)c5ccc2[nH]5)C=C4)C=C3)cc1
REMARK SMILES IDX 5 1 4 2 3 3 1 4 2 5 33 7 34 8 95 9 35 10 94 11 36 12 37 13
REMARK SMILES IDX 38 14 88 15 39 16 93 17 87 18 89 19 40 20 92 21 86 22 85 23
REMARK SMILES IDX 41 25 73 26 53 27 72 28 54 29 57 30 71 31 90 32 55 33 56 34
REMARK SMILES IDX 70 36 91 37 58 38 42 39 43 40 51 41 44 42 50 43 52 44 49 45
REMARK SMILES IDX 45 46 46 47 47 48 48 49 74 50 75 51 83 52 76 53 82 54 84 55
REMARK SMILES IDX 81 56 77 57 78 58 79 59 80 60 59 61 60 62 68 63 61 64 67 65
REMARK SMILES IDX 69 66 66 67 62 68 63 69 64 70 65 71 6 72 7 73 8 74 9 75
REMARK SMILES IDX 10 76 11 77 12 79 13 80 14 81 32 82 15 83 24 84 17 85 18 86
REMARK SMILES IDX 23 87 19 88 22 89 20 90 21 91 16 92 25 94 26 95 31 96 27 97
REMARK SMILES IDX 30 98 28 99 29 100
REMARK H PARENT 3 6 89 24 57 35 10 78 16 93
REMARK Flexibility Score: inf
ROOT
ATOM      1  C   UNL     1       4.485   7.187   1.948  1.00  0.00     0.021 C 
ENDROOT
BRANCH   1   2
ATOM      2  C   UNL     1       4.246   8.685   1.844  1.00  0.00     0.116 C 
BRANCH   2   3
ATOM      3  N   UNL     1       4.157   9.136   0.465  1.00  0.00    -0.352 N 
ATOM      4  O   UNL     1       3.139   9.988  -1.359  1.00  0.00    -0.269 OA
ATOM      5  C   UNL     1       3.142   9.836  -0.144  1.00  0.00     0.251 C 
ATOM      6  H   UNL     1       4.924   8.910  -0.109  1.00  0.00     0.163 HD
BRANCH   5   7
ATOM      7  C   UNL     1       2.048  10.390   0.684  1.00  0.00     0.039 A 
ATOM      8  C   UNL     1       2.334  11.079   1.866  1.00  0.00     0.014 A 
ATOM      9  C   UNL     1       0.725  10.227   0.265  1.00  0.00     0.014 A 
ATOM     10  C   UNL     1       1.297  11.514   2.682  1.00  0.00     0.010 A 
ATOM     11  C   UNL     1      -0.315  10.740   1.044  1.00  0.00     0.010 A 
ATOM     12  C   UNL     1      -0.036  11.383   2.260  1.00  0.00    -0.014 A 
BRANCH  12  13
ATOM     13  C   UNL     1      -1.114  12.046   3.033  1.00  0.00     0.031 A 
ATOM     14  C   UNL     1      -2.180  11.258   3.731  1.00  0.00     0.074 A 
ATOM     15  C   UNL     1      -1.106  13.392   3.100  1.00  0.00     0.049 A 
ATOM     16  N   UNL     1      -3.217  11.693   4.401  1.00  0.00    -0.248 NA
ATOM     17  C   UNL     1      -2.072   9.794   3.670  1.00  0.00     0.031 C 
ATOM     18  C   UNL     1      -0.098  14.258   2.482  1.00  0.00     0.029 A 
ATOM     19  N   UNL     1      -1.952  14.266   3.730  1.00  0.00    -0.354 N 
ATOM     20  C   UNL     1      -3.888  10.560   4.845  1.00  0.00     0.074 A 
ATOM     21  C   UNL     1      -3.157   9.417   4.334  1.00  0.00     0.031 C 
ATOM     22  C   UNL     1      -0.350  15.531   2.811  1.00  0.00     0.029 A 
ATOM     23  C   UNL     1      -1.581  15.581   3.589  1.00  0.00     0.049 A 
ATOM     24  H   UNL     1      -2.747  13.979   4.234  1.00  0.00     0.167 HD
ATOM     25  C   UNL     1      -5.003  10.488   5.614  1.00  0.00     0.034 A 
ATOM     26  C   UNL     1      -2.175  16.710   4.016  1.00  0.00     0.034 A 
ATOM     27  C   UNL     1      -5.730  11.642   6.091  1.00  0.00     0.049 A 
ATOM     28  C   UNL     1      -3.462  16.608   4.779  1.00  0.00     0.074 A 
ATOM     29  C   UNL     1      -6.888  11.680   6.850  1.00  0.00     0.029 A 
ATOM     30  N   UNL     1      -5.373  12.965   5.854  1.00  0.00    -0.354 N 
ATOM     31  N   UNL     1      -4.123  15.532   5.134  1.00  0.00    -0.248 NA
ATOM     32  C   UNL     1      -4.084  17.870   5.190  1.00  0.00     0.031 C 
ATOM     33  C   UNL     1      -7.263  13.018   7.018  1.00  0.00     0.029 A 
ATOM     34  C   UNL     1      -6.297  13.823   6.435  1.00  0.00     0.049 A 
ATOM     35  H   UNL     1      -4.579  13.252   5.348  1.00  0.00     0.167 HD
ATOM     36  C   UNL     1      -5.232  15.986   5.838  1.00  0.00     0.074 A 
ATOM     37  C   UNL     1      -5.147  17.434   5.854  1.00  0.00     0.031 C 
ATOM     38  C   UNL     1      -6.219  15.266   6.427  1.00  0.00     0.034 A 
BRANCH  25  39
ATOM     39  C   UNL     1      -5.526   9.112   5.951  1.00  0.00     0.023 A 
ATOM     40  C   UNL     1      -4.795   8.226   6.762  1.00  0.00     0.031 A 
ATOM     41  C   UNL     1      -6.768   8.678   5.455  1.00  0.00     0.131 A 
ATOM     42  C   UNL     1      -5.286   6.934   7.008  1.00  0.00     0.055 A 
ATOM     43  C   UNL     1      -7.284   7.417   5.762  1.00  0.00     0.041 A 
ATOM     44  F   UNL     1      -7.502   9.472   4.660  1.00  0.00    -0.206 F 
ATOM     45  C   UNL     1      -6.537   6.532   6.534  1.00  0.00     0.022 A 
BRANCH  42  46
ATOM     46  S   UNL     1      -4.216   5.747   7.866  1.00  0.00     0.124 S 
ATOM     47  O   UNL     1      -3.079   5.660   6.952  1.00  0.00    -0.237 OA
ATOM     48  O   UNL     1      -3.962   6.411   9.139  1.00  0.00    -0.237 OA
ATOM     49  O   UNL     1      -5.036   4.540   7.945  1.00  0.00    -0.744 OA
ENDBRANCH  42  46
ENDBRANCH  25  39
BRANCH  26  50
ATOM     50  C   UNL     1      -1.543  18.021   3.718  1.00  0.00     0.023 A 
ATOM     51  C   UNL     1      -0.936  18.768   4.737  1.00  0.00     0.031 A 
ATOM     52  C   UNL     1      -1.479  18.511   2.401  1.00  0.00     0.131 A 
ATOM     53  C   UNL     1      -0.288  19.972   4.423  1.00  0.00     0.055 A 
ATOM     54  C   UNL     1      -0.803  19.690   2.089  1.00  0.00     0.041 A 
ATOM     55  F   UNL     1      -2.030  17.818   1.392  1.00  0.00    -0.206 F 
ATOM     56  C   UNL     1      -0.205  20.430   3.105  1.00  0.00     0.022 A 
BRANCH  53  57
ATOM     57  S   UNL     1       0.454  20.934   5.768  1.00  0.00     0.124 S 
ATOM     58  O   UNL     1      -0.722  21.331   6.533  1.00  0.00    -0.237 OA
ATOM     59  O   UNL     1       1.331  19.952   6.399  1.00  0.00    -0.237 OA
ATOM     60  O   UNL     1       1.142  22.018   5.070  1.00  0.00    -0.744 OA
ENDBRANCH  53  57
ENDBRANCH  26  50
BRANCH  38  61
ATOM     61  C   UNL     1      -7.269  16.039   7.185  1.00  0.00     0.023 A 
ATOM     62  C   UNL     1      -8.199  16.865   6.532  1.00  0.00     0.031 A 
ATOM     63  C   UNL     1      -7.335  15.944   8.586  1.00  0.00     0.131 A 
ATOM     64  C   UNL     1      -9.127  17.601   7.285  1.00  0.00     0.055 A 
ATOM     65  C   UNL     1      -8.296  16.633   9.325  1.00  0.00     0.041 A 
ATOM     66  F   UNL     1      -6.467  15.171   9.260  1.00  0.00    -0.206 F 
ATOM     67  C   UNL     1      -9.193  17.476   8.675  1.00  0.00     0.022 A 
BRANCH  64  68
ATOM     68  S   UNL     1     -10.204  18.783   6.429  1.00  0.00     0.124 S 
ATOM     69  O   UNL     1      -9.236  19.716   5.860  1.00  0.00    -0.237 OA
ATOM     70  O   UNL     1     -10.907  17.933   5.474  1.00  0.00    -0.237 OA
ATOM     71  O   UNL     1     -11.035  19.328   7.501  1.00  0.00    -0.744 OA
ENDBRANCH  64  68
ENDBRANCH  38  61
ENDBRANCH  12  13
ENDBRANCH   5   7
ENDBRANCH   2   3
ENDBRANCH   1   2
BRANCH   1  72
ATOM     72  C   UNL     1       5.829   6.712   1.404  1.00  0.00     0.002 C 
BRANCH  72  73
ATOM     73  C   UNL     1       7.067   7.383   2.007  1.00  0.00     0.002 C 
BRANCH  73  74
ATOM     74  C   UNL     1       7.181   7.366   3.536  1.00  0.00     0.021 C 
BRANCH  74  75
ATOM     75  C   UNL     1       6.997   6.010   4.212  1.00  0.00     0.116 C 
BRANCH  75  76
ATOM     76  N   UNL     1       7.790   4.960   3.612  1.00  0.00    -0.354 N 
ATOM     77  C   UNL     1       8.567   4.021   4.221  1.00  0.00     0.249 C 
ATOM     78  H   UNL     1       7.765   4.918   2.628  1.00  0.00     0.163 HD
ATOM     79  O   UNL     1       8.924   3.058   3.538  1.00  0.00    -0.272 OA
BRANCH  77  80
ATOM     80  C   UNL     1       8.976   4.207   5.696  1.00  0.00     0.211 C 
ATOM     81  C   UNL     1       9.658   2.974   6.269  1.00  0.00     0.085 C 
ATOM     82  O   UNL     1       9.855   5.325   5.836  1.00  0.00    -0.357 OA
ATOM     83  C   UNL     1      11.027   3.421   6.792  1.00  0.00     0.123 C 
ATOM     84  C   UNL     1      11.164   4.872   6.228  1.00  0.00     0.186 C 
BRANCH  83  85
ATOM     85  C   UNL     1      11.085   3.211   8.315  1.00  0.00    -0.013 A 
ATOM     86  C   UNL     1      10.905   1.898   8.816  1.00  0.00     0.010 A 
ATOM     87  C   UNL     1      11.321   4.228   9.256  1.00  0.00     0.010 A 
ATOM     88  C   UNL     1      10.938   1.617  10.184  1.00  0.00     0.039 A 
ATOM     89  C   UNL     1      11.368   3.944  10.629  1.00  0.00     0.039 A 
ATOM     90  C   UNL     1      11.173   2.646  11.079  1.00  0.00     0.123 A 
ATOM     91  F   UNL     1      11.220   2.385  12.392  1.00  0.00    -0.207 F 
ENDBRANCH  83  85
BRANCH  83  92
ATOM     92  O   UNL     1      12.011   2.508   6.275  1.00  0.00    -0.382 OA
ATOM     93  H   UNL     1      12.040   2.577   5.308  1.00  0.00     0.212 HD
ENDBRANCH  83  92
BRANCH  84  94
ATOM     94  C   UNL     1      12.130   5.113   5.071  1.00  0.00    -0.016 A 
ATOM     95  C   UNL     1      11.964   4.500   3.818  1.00  0.00     0.009 A 
ATOM     96  C   UNL     1      13.218   5.989   5.238  1.00  0.00     0.009 A 
ATOM     97  C   UNL     1      12.824   4.784   2.755  1.00  0.00     0.039 A 
ATOM     98  C   UNL     1      14.091   6.260   4.179  1.00  0.00     0.039 A 
ATOM     99  C   UNL     1      13.878   5.664   2.943  1.00  0.00     0.123 A 
ATOM    100  F   UNL     1      14.703   5.937   1.924  1.00  0.00    -0.207 F 
ENDBRANCH  84  94
ENDBRANCH  77  80
ENDBRANCH  75  76
ENDBRANCH  74  75
ENDBRANCH  73  74
ENDBRANCH  72  73
ENDBRANCH   1  72
TORSDOF 19
