REMARK SMILES CC1(C)S[C@@H](c2cccc3c2sc2ccccc23)[NH2+][C@@H]1C(=O)NCCCCCCNC(=O)c1ccc(-c2c3nc(c(-c4cc(S(=O)(=O)[O-])ccc4F)c4ccc([nH]4)c(-c4cc(S(=O)(=O)[O-])ccc4F)c4nc(c(-c5cc(S(=O)(=O)[O-])ccc5F)c5ccc2[nH]5)C=C4)C=C3)cc1
REMARK SMILES IDX 27 1 26 2 25 3 24 4 23 5 21 6 22 7 20 9 1 10 2 11 3 12 4 13
REMARK SMILES IDX 5 14 19 15 6 18 7 19 11 20 8 21 10 22 12 23 9 24 18 25 13 26
REMARK SMILES IDX 17 27 14 28 16 29 15 30 28 31 29 32 30 33 31 34 32 36 33 37
REMARK SMILES IDX 34 38 95 39 35 40 94 41 36 42 37 43 38 44 88 45 39 46 93 47
REMARK SMILES IDX 87 48 89 49 40 50 92 51 86 52 85 53 41 55 73 56 53 57 72 58
REMARK SMILES IDX 54 59 57 60 71 61 90 62 55 63 56 64 70 66 91 67 58 68 42 69
REMARK SMILES IDX 43 70 51 71 44 72 50 73 52 74 49 75 45 76 46 77 47 78 48 79
REMARK SMILES IDX 74 80 75 81 83 82 76 83 82 84 84 85 81 86 77 87 78 88 79 89
REMARK SMILES IDX 80 90 59 91 60 92 68 93 61 94 67 95 69 96 66 97 62 98 63 99
REMARK SMILES IDX 64 100 65 101
REMARK H PARENT 23 8 19 16 19 17 30 35 89 54 57 65
REMARK Flexibility Score: inf
ROOT
ATOM      1  C   UNL     1      -4.422   2.153  -4.459  1.00  0.00     0.002 C 
ENDROOT
BRANCH   1   2
ATOM      2  C   UNL     1      -3.365   3.243  -4.267  1.00  0.00     0.002 C 
BRANCH   2   3
ATOM      3  C   UNL     1      -2.974   3.547  -2.818  1.00  0.00     0.021 C 
BRANCH   3   4
ATOM      4  C   UNL     1      -2.491   2.356  -1.994  1.00  0.00     0.116 C 
BRANCH   4   5
ATOM      5  N   UNL     1      -1.348   1.701  -2.599  1.00  0.00    -0.351 N 
ATOM      6  C   UNL     1      -0.245   1.129  -2.038  1.00  0.00     0.279 C 
ATOM      7  O   UNL     1       0.581   0.683  -2.838  1.00  0.00    -0.268 OA
ATOM      8  H   UNL     1      -1.373   1.663  -3.583  1.00  0.00     0.163 HD
BRANCH   6   9
ATOM      9  C   UNL     1       0.008   1.170  -0.502  1.00  0.00     0.289 C 
ATOM     10  C   UNL     1       1.576   0.613   1.433  1.00  0.00     0.030 C 
ATOM     11  C   UNL     1       1.025   0.140   0.071  1.00  0.00     0.077 C 
ATOM     12  C   UNL     1       2.220  -0.233  -0.809  1.00  0.00     0.030 C 
ATOM     13  S   UNL     1      -0.001  -1.347   0.387  1.00  0.00    -0.081 SA
ATOM     14  C   UNL     1      -1.574  -0.446   0.248  1.00  0.00     0.276 C 
ATOM     15  N   UNL     1      -1.257   0.986   0.268  1.00  0.00    -0.320 N 
ATOM     16  H   UNL     1      -1.129   1.302   1.229  1.00  0.00     0.348 HD
ATOM     17  H   UNL     1      -2.014   1.530  -0.145  1.00  0.00     0.348 HD
BRANCH  14  18
ATOM     18  C   UNL     1      -2.579  -0.798   1.332  1.00  0.00     0.038 A 
ATOM     19  C   UNL     1      -2.217  -0.706   2.698  1.00  0.00     0.012 A 
ATOM     20  C   UNL     1      -3.925  -1.183   1.056  1.00  0.00     0.046 A 
ATOM     21  C   UNL     1      -3.106  -0.993   3.720  1.00  0.00     0.001 A 
ATOM     22  C   UNL     1      -4.838  -1.493   2.071  1.00  0.00     0.001 A 
ATOM     23  S   UNL     1      -4.682  -1.330  -0.489  1.00  0.00    -0.135 S 
ATOM     24  C   UNL     1      -4.403  -1.390   3.416  1.00  0.00     0.010 A 
ATOM     25  C   UNL     1      -6.136  -1.891   1.553  1.00  0.00     0.000 A 
ATOM     26  C   UNL     1      -6.181  -1.833   0.163  1.00  0.00     0.036 A 
ATOM     27  C   UNL     1      -7.310  -2.305   2.236  1.00  0.00     0.010 A 
ATOM     28  C   UNL     1      -7.350  -2.160  -0.555  1.00  0.00     0.019 A 
ATOM     29  C   UNL     1      -8.469  -2.640   1.531  1.00  0.00     0.001 A 
ATOM     30  C   UNL     1      -8.488  -2.563   0.147  1.00  0.00     0.002 A 
ENDBRANCH  14  18
ENDBRANCH   6   9
ENDBRANCH   4   5
ENDBRANCH   3   4
ENDBRANCH   2   3
ENDBRANCH   1   2
BRANCH   1  31
ATOM     31  C   UNL     1      -5.733   2.360  -3.699  1.00  0.00     0.021 C 
BRANCH  31  32
ATOM     32  C   UNL     1      -6.409   3.711  -3.909  1.00  0.00     0.116 C 
BRANCH  32  33
ATOM     33  N   UNL     1      -6.742   3.961  -5.300  1.00  0.00    -0.352 N 
ATOM     34  C   UNL     1      -7.894   4.470  -5.840  1.00  0.00     0.251 C 
ATOM     35  H   UNL     1      -6.039   3.730  -5.950  1.00  0.00     0.163 HD
ATOM     36  O   UNL     1      -8.039   4.458  -7.066  1.00  0.00    -0.269 OA
BRANCH  34  37
ATOM     37  C   UNL     1      -8.967   5.005  -4.972  1.00  0.00     0.039 A 
ATOM     38  C   UNL     1     -10.296   4.733  -5.308  1.00  0.00     0.014 A 
ATOM     39  C   UNL     1      -8.682   5.801  -3.858  1.00  0.00     0.014 A 
ATOM     40  C   UNL     1     -11.332   5.228  -4.513  1.00  0.00     0.010 A 
ATOM     41  C   UNL     1      -9.713   6.232  -3.023  1.00  0.00     0.010 A 
ATOM     42  C   UNL     1     -11.051   5.967  -3.353  1.00  0.00    -0.014 A 
BRANCH  42  43
ATOM     43  C   UNL     1     -12.152   6.502  -2.509  1.00  0.00     0.031 A 
ATOM     44  C   UNL     1     -12.354   7.990  -2.383  1.00  0.00     0.074 A 
ATOM     45  C   UNL     1     -12.957   5.652  -1.842  1.00  0.00     0.049 A 
ATOM     46  N   UNL     1     -13.252   8.650  -1.696  1.00  0.00    -0.248 NA
ATOM     47  C   UNL     1     -11.399   8.848  -3.101  1.00  0.00     0.031 C 
ATOM     48  C   UNL     1     -12.832   4.192  -1.847  1.00  0.00     0.029 A 
ATOM     49  N   UNL     1     -14.041   5.888  -1.034  1.00  0.00    -0.354 N 
ATOM     50  C   UNL     1     -12.965   9.998  -1.893  1.00  0.00     0.074 A 
ATOM     51  C   UNL     1     -11.768  10.056  -2.704  1.00  0.00     0.031 C 
ATOM     52  C   UNL     1     -13.821   3.664  -1.108  1.00  0.00     0.029 A 
ATOM     53  C   UNL     1     -14.628   4.743  -0.547  1.00  0.00     0.049 A 
ATOM     54  H   UNL     1     -14.368   6.792  -0.824  1.00  0.00     0.167 HD
ATOM     55  C   UNL     1     -13.652  11.086  -1.461  1.00  0.00     0.034 A 
ATOM     56  C   UNL     1     -15.695   4.582   0.260  1.00  0.00     0.034 A 
ATOM     57  C   UNL     1     -14.853  11.010  -0.664  1.00  0.00     0.049 A 
ATOM     58  C   UNL     1     -16.442   5.805   0.729  1.00  0.00     0.074 A 
ATOM     59  C   UNL     1     -15.658  12.042  -0.214  1.00  0.00     0.029 A 
ATOM     60  N   UNL     1     -15.420   9.833  -0.190  1.00  0.00    -0.354 N 
ATOM     61  N   UNL     1     -16.193   7.072   0.485  1.00  0.00    -0.248 NA
ATOM     62  C   UNL     1     -17.625   5.574   1.565  1.00  0.00     0.031 C 
ATOM     63  C   UNL     1     -16.671  11.496   0.583  1.00  0.00     0.029 A 
ATOM     64  C   UNL     1     -16.546  10.116   0.570  1.00  0.00     0.049 A 
ATOM     65  H   UNL     1     -15.073   8.929  -0.367  1.00  0.00     0.167 HD
ATOM     66  C   UNL     1     -17.206   7.786   1.119  1.00  0.00     0.074 A 
ATOM     67  C   UNL     1     -18.082   6.806   1.729  1.00  0.00     0.031 C 
ATOM     68  C   UNL     1     -17.398   9.129   1.192  1.00  0.00     0.034 A 
BRANCH  55  69
ATOM     69  C   UNL     1     -13.100  12.445  -1.828  1.00  0.00     0.023 A 
ATOM     70  C   UNL     1     -12.978  12.857  -3.168  1.00  0.00     0.031 A 
ATOM     71  C   UNL     1     -12.657  13.329  -0.829  1.00  0.00     0.131 A 
ATOM     72  C   UNL     1     -12.352  14.075  -3.474  1.00  0.00     0.055 A 
ATOM     73  C   UNL     1     -12.114  14.579  -1.137  1.00  0.00     0.041 A 
ATOM     74  F   UNL     1     -12.727  12.988   0.468  1.00  0.00    -0.206 F 
ATOM     75  C   UNL     1     -11.943  14.951  -2.467  1.00  0.00     0.022 A 
BRANCH  72  76
ATOM     76  S   UNL     1     -11.943  14.426  -5.206  1.00  0.00     0.124 S 
ATOM     77  O   UNL     1     -11.078  13.296  -5.539  1.00  0.00    -0.237 OA
ATOM     78  O   UNL     1     -13.254  14.438  -5.845  1.00  0.00    -0.237 OA
ATOM     79  O   UNL     1     -11.267  15.720  -5.143  1.00  0.00    -0.744 OA
ENDBRANCH  72  76
ENDBRANCH  55  69
BRANCH  56  80
ATOM     80  C   UNL     1     -16.130   3.218   0.677  1.00  0.00     0.023 A 
ATOM     81  C   UNL     1     -17.378   2.704   0.289  1.00  0.00     0.031 A 
ATOM     82  C   UNL     1     -15.322   2.425   1.512  1.00  0.00     0.131 A 
ATOM     83  C   UNL     1     -17.804   1.458   0.775  1.00  0.00     0.055 A 
ATOM     84  C   UNL     1     -15.727   1.163   1.949  1.00  0.00     0.041 A 
ATOM     85  F   UNL     1     -14.117   2.866   1.908  1.00  0.00    -0.206 F 
ATOM     86  C   UNL     1     -16.982   0.679   1.592  1.00  0.00     0.022 A 
BRANCH  83  87
ATOM     87  S   UNL     1     -19.489   0.906   0.393  1.00  0.00     0.124 S 
ATOM     88  O   UNL     1     -20.290   1.994   0.942  1.00  0.00    -0.237 OA
ATOM     89  O   UNL     1     -19.452   0.806  -1.062  1.00  0.00    -0.237 OA
ATOM     90  O   UNL     1     -19.598  -0.369   1.100  1.00  0.00    -0.744 OA
ENDBRANCH  83  87
ENDBRANCH  56  80
BRANCH  68  91
ATOM     91  C   UNL     1     -18.624   9.601   1.937  1.00  0.00     0.023 A 
ATOM     92  C   UNL     1     -18.778   9.380   3.317  1.00  0.00     0.031 A 
ATOM     93  C   UNL     1     -19.670  10.243   1.251  1.00  0.00     0.131 A 
ATOM     94  C   UNL     1     -19.980   9.728   3.952  1.00  0.00     0.055 A 
ATOM     95  C   UNL     1     -20.835  10.650   1.902  1.00  0.00     0.041 A 
ATOM     96  F   UNL     1     -19.579  10.479  -0.068  1.00  0.00    -0.206 F 
ATOM     97  C   UNL     1     -21.003  10.377   3.256  1.00  0.00     0.022 A 
BRANCH  94  98
ATOM     98  S   UNL     1     -20.237   9.208   5.670  1.00  0.00     0.124 S 
ATOM     99  O   UNL     1     -20.042   7.764   5.583  1.00  0.00    -0.237 OA
ATOM    100  O   UNL     1     -19.199   9.950   6.379  1.00  0.00    -0.237 OA
ATOM    101  O   UNL     1     -21.607   9.632   5.956  1.00  0.00    -0.744 OA
ENDBRANCH  94  98
ENDBRANCH  68  91
ENDBRANCH  42  43
ENDBRANCH  34  37
ENDBRANCH  32  33
ENDBRANCH  31  32
ENDBRANCH   1  31
TORSDOF 17
