REMARK SMILES CC1=C([C@H](NC(=O)[C@@H]2[C@H](C)c3cc(F)ccc3N2C)C(=O)NCCCCCCNC(=O)c2ccc(-c3c4nc(c(-c5cc(S(=O)(=O)[O-])ccc5F)c5ccc([nH]5)c(-c5cc(S(=O)(=O)[O-])ccc5F)c5nc(c(-c6cc(S(=O)(=O)[O-])ccc6F)c6ccc3[nH]6)C=C5)C=C4)cc2)[C@@H](C)N=N1
REMARK SMILES IDX 26 1 25 2 24 3 23 4 22 5 20 6 21 7 4 9 3 10 1 11 2 12 98 13
REMARK SMILES IDX 95 14 97 15 96 16 5 17 6 18 7 20 8 21 9 22 18 23 11 24 10 25
REMARK SMILES IDX 17 26 19 27 12 28 16 29 13 30 15 31 14 32 27 33 28 34 29 35
REMARK SMILES IDX 30 36 31 38 32 39 33 40 94 41 34 42 93 43 35 44 36 45 37 46
REMARK SMILES IDX 87 47 38 48 92 49 86 50 88 51 39 52 91 53 85 54 84 55 40 57
REMARK SMILES IDX 72 58 52 59 71 60 53 61 56 62 70 63 89 64 54 65 55 66 69 68
REMARK SMILES IDX 90 69 57 70 41 71 42 72 50 73 43 74 49 75 51 76 48 77 44 78
REMARK SMILES IDX 45 79 46 80 47 81 73 82 74 83 82 84 75 85 81 86 83 87 80 88
REMARK SMILES IDX 76 89 77 90 78 91 79 92 58 93 59 94 67 95 60 96 66 97 68 98
REMARK SMILES IDX 65 99 61 100 62 101 63 102 64 103
REMARK H PARENT 22 8 5 19 29 37 88 56 56 67
REMARK Flexibility Score: inf
ROOT
ATOM      1  C   UNL     1       2.122   8.077   4.483  1.00  0.00     0.002 C 
ENDROOT
BRANCH   1   2
ATOM      2  C   UNL     1       2.298   6.785   3.688  1.00  0.00     0.002 C 
BRANCH   2   3
ATOM      3  C   UNL     1       1.054   6.375   2.886  1.00  0.00     0.021 C 
BRANCH   3   4
ATOM      4  C   UNL     1       1.272   6.357   1.378  1.00  0.00     0.116 C 
BRANCH   4   5
ATOM      5  N   UNL     1       2.336   5.496   0.911  1.00  0.00    -0.354 N 
ATOM      6  C   UNL     1       2.279   4.339   0.202  1.00  0.00     0.247 C 
ATOM      7  O   UNL     1       3.280   4.049  -0.470  1.00  0.00    -0.272 OA
ATOM      8  H   UNL     1       3.244   5.795   1.143  1.00  0.00     0.163 HD
BRANCH   6   9
ATOM      9  C   UNL     1       1.071   3.360   0.204  1.00  0.00     0.202 C 
BRANCH   9  10
ATOM     10  C   UNL     1      -0.110   3.951  -0.512  1.00  0.00     0.011 C 
ATOM     11  C   UNL     1       0.943   4.695  -2.725  1.00  0.00     0.069 C 
ATOM     12  C   UNL     1      -0.161   4.484  -1.743  1.00  0.00     0.064 C 
ATOM     13  N   UNL     1      -1.434   4.837  -2.110  1.00  0.00    -0.160 NA
ATOM     14  C   UNL     1      -1.534   3.947  -0.043  1.00  0.00     0.156 C 
ATOM     15  N   UNL     1      -2.252   4.544  -1.200  1.00  0.00    -0.181 NA
ATOM     16  C   UNL     1      -1.876   4.769   1.194  1.00  0.00     0.040 C 
ENDBRANCH   9  10
BRANCH   9  17
ATOM     17  N   UNL     1       0.628   2.685   1.433  1.00  0.00    -0.339 N 
ATOM     18  C   UNL     1       1.366   2.143   2.462  1.00  0.00     0.244 C 
ATOM     19  H   UNL     1      -0.348   2.608   1.536  1.00  0.00     0.164 HD
ATOM     20  O   UNL     1       0.968   1.073   2.926  1.00  0.00    -0.273 OA
BRANCH  18  21
ATOM     21  C   UNL     1       2.492   2.973   3.084  1.00  0.00     0.178 C 
ATOM     22  C   UNL     1       3.899   2.850   2.474  1.00  0.00     0.050 C 
ATOM     23  N   UNL     1       2.677   2.834   4.561  1.00  0.00    -0.362 N 
ATOM     24  C   UNL     1       4.675   3.491   3.587  1.00  0.00    -0.016 A 
ATOM     25  C   UNL     1       4.322   1.446   2.091  1.00  0.00     0.015 C 
ATOM     26  C   UNL     1       3.911   3.471   4.767  1.00  0.00     0.041 A 
ATOM     27  C   UNL     1       1.570   3.000   5.478  1.00  0.00     0.144 C 
ATOM     28  C   UNL     1       5.851   4.214   3.477  1.00  0.00     0.045 A 
ATOM     29  C   UNL     1       4.365   4.148   5.888  1.00  0.00     0.029 A 
ATOM     30  C   UNL     1       6.264   4.933   4.589  1.00  0.00     0.123 A 
ATOM     31  C   UNL     1       5.542   4.903   5.787  1.00  0.00     0.041 A 
ATOM     32  F   UNL     1       7.353   5.708   4.496  1.00  0.00    -0.207 F 
ENDBRANCH  18  21
ENDBRANCH   9  17
ENDBRANCH   6   9
ENDBRANCH   4   5
ENDBRANCH   3   4
ENDBRANCH   2   3
ENDBRANCH   1   2
BRANCH   1  33
ATOM     33  C   UNL     1       0.969   8.073   5.487  1.00  0.00     0.021 C 
BRANCH  33  34
ATOM     34  C   UNL     1       1.049   7.000   6.573  1.00  0.00     0.116 C 
BRANCH  34  35
ATOM     35  N   UNL     1       2.056   7.200   7.595  1.00  0.00    -0.352 N 
ATOM     36  C   UNL     1       2.123   8.032   8.685  1.00  0.00     0.251 C 
ATOM     37  H   UNL     1       2.848   6.627   7.487  1.00  0.00     0.163 HD
ATOM     38  O   UNL     1       3.022   7.820   9.501  1.00  0.00    -0.269 OA
BRANCH  36  39
ATOM     39  C   UNL     1       1.264   9.234   8.839  1.00  0.00     0.039 A 
ATOM     40  C   UNL     1       0.017   9.394   8.237  1.00  0.00     0.014 A 
ATOM     41  C   UNL     1       1.824  10.312   9.542  1.00  0.00     0.014 A 
ATOM     42  C   UNL     1      -0.527  10.661   8.105  1.00  0.00     0.010 A 
ATOM     43  C   UNL     1       1.235  11.568   9.488  1.00  0.00     0.010 A 
ATOM     44  C   UNL     1       0.116  11.757   8.684  1.00  0.00    -0.014 A 
BRANCH  44  45
ATOM     45  C   UNL     1      -0.476  13.073   8.462  1.00  0.00     0.031 A 
ATOM     46  C   UNL     1      -1.892  13.196   8.900  1.00  0.00     0.074 A 
ATOM     47  C   UNL     1       0.211  14.120   7.964  1.00  0.00     0.049 A 
ATOM     48  N   UNL     1      -2.942  13.394   8.171  1.00  0.00    -0.248 NA
ATOM     49  C   UNL     1      -2.188  12.899  10.308  1.00  0.00     0.031 C 
ATOM     50  C   UNL     1       1.659  14.217   7.749  1.00  0.00     0.029 A 
ATOM     51  N   UNL     1      -0.232  15.371   7.650  1.00  0.00    -0.354 N 
ATOM     52  C   UNL     1      -4.022  13.434   9.056  1.00  0.00     0.074 A 
ATOM     53  C   UNL     1      -3.519  12.963  10.320  1.00  0.00     0.031 C 
ATOM     54  C   UNL     1       1.998  15.516   7.595  1.00  0.00     0.029 A 
ATOM     55  C   UNL     1       0.782  16.307   7.528  1.00  0.00     0.049 A 
ATOM     56  H   UNL     1      -1.184  15.588   7.522  1.00  0.00     0.167 HD
ATOM     57  C   UNL     1      -5.195  14.048   8.730  1.00  0.00     0.034 A 
ATOM     58  C   UNL     1       0.642  17.651   7.447  1.00  0.00     0.034 A 
ATOM     59  C   UNL     1      -5.238  14.373   7.332  1.00  0.00     0.049 A 
ATOM     60  C   UNL     1      -0.736  17.957   7.010  1.00  0.00     0.074 A 
ATOM     61  C   UNL     1      -5.495  13.706   6.158  1.00  0.00     0.029 A 
ATOM     62  N   UNL     1      -4.661  15.574   7.011  1.00  0.00    -0.354 N 
ATOM     63  N   UNL     1      -1.192  17.698   5.817  1.00  0.00    -0.248 NA
ATOM     64  C   UNL     1      -1.752  18.259   8.012  1.00  0.00     0.031 C 
ATOM     65  C   UNL     1      -4.831  14.446   5.140  1.00  0.00     0.029 A 
ATOM     66  C   UNL     1      -4.206  15.552   5.721  1.00  0.00     0.049 A 
ATOM     67  H   UNL     1      -4.584  16.342   7.621  1.00  0.00     0.167 HD
ATOM     68  C   UNL     1      -2.515  17.357   6.027  1.00  0.00     0.074 A 
ATOM     69  C   UNL     1      -2.847  17.904   7.336  1.00  0.00     0.031 C 
ATOM     70  C   UNL     1      -3.121  16.402   5.265  1.00  0.00     0.034 A 
BRANCH  57  71
ATOM     71  C   UNL     1      -6.126  14.730   9.712  1.00  0.00     0.023 A 
ATOM     72  C   UNL     1      -5.789  14.961  11.056  1.00  0.00     0.031 A 
ATOM     73  C   UNL     1      -7.279  15.404   9.246  1.00  0.00     0.131 A 
ATOM     74  C   UNL     1      -6.542  15.822  11.868  1.00  0.00     0.055 A 
ATOM     75  C   UNL     1      -7.997  16.309  10.039  1.00  0.00     0.041 A 
ATOM     76  F   UNL     1      -7.711  15.250   7.985  1.00  0.00    -0.206 F 
ATOM     77  C   UNL     1      -7.625  16.528  11.357  1.00  0.00     0.022 A 
BRANCH  74  78
ATOM     78  S   UNL     1      -6.090  16.053  13.609  1.00  0.00     0.124 S 
ATOM     79  O   UNL     1      -5.777  17.483  13.649  1.00  0.00    -0.237 OA
ATOM     80  O   UNL     1      -7.326  15.661  14.289  1.00  0.00    -0.237 OA
ATOM     81  O   UNL     1      -4.969  15.151  13.796  1.00  0.00    -0.744 OA
ENDBRANCH  74  78
ENDBRANCH  57  71
BRANCH  58  82
ATOM     82  C   UNL     1       1.497  18.656   8.109  1.00  0.00     0.023 A 
ATOM     83  C   UNL     1       2.045  18.363   9.372  1.00  0.00     0.031 A 
ATOM     84  C   UNL     1       1.534  19.990   7.676  1.00  0.00     0.131 A 
ATOM     85  C   UNL     1       2.552  19.387  10.180  1.00  0.00     0.055 A 
ATOM     86  C   UNL     1       2.061  21.010   8.476  1.00  0.00     0.041 A 
ATOM     87  F   UNL     1       1.000  20.337   6.495  1.00  0.00    -0.206 F 
ATOM     88  C   UNL     1       2.558  20.712   9.743  1.00  0.00     0.022 A 
BRANCH  85  89
ATOM     89  S   UNL     1       3.120  19.030  11.865  1.00  0.00     0.124 S 
ATOM     90  O   UNL     1       4.446  19.643  11.876  1.00  0.00    -0.237 OA
ATOM     91  O   UNL     1       2.107  19.708  12.668  1.00  0.00    -0.237 OA
ATOM     92  O   UNL     1       3.111  17.573  11.930  1.00  0.00    -0.744 OA
ENDBRANCH  85  89
ENDBRANCH  58  82
BRANCH  70  93
ATOM     93  C   UNL     1      -2.500  16.049   3.939  1.00  0.00     0.023 A 
ATOM     94  C   UNL     1      -3.329  16.135   2.808  1.00  0.00     0.031 A 
ATOM     95  C   UNL     1      -1.230  15.469   3.779  1.00  0.00     0.131 A 
ATOM     96  C   UNL     1      -2.908  15.607   1.585  1.00  0.00     0.055 A 
ATOM     97  C   UNL     1      -0.782  15.014   2.536  1.00  0.00     0.041 A 
ATOM     98  F   UNL     1      -0.421  15.254   4.825  1.00  0.00    -0.206 F 
ATOM     99  C   UNL     1      -1.630  15.064   1.434  1.00  0.00     0.022 A 
BRANCH  96 100
ATOM    100  S   UNL     1      -4.077  15.457   0.211  1.00  0.00     0.124 S 
ATOM    101  O   UNL     1      -3.499  16.354  -0.786  1.00  0.00    -0.237 OA
ATOM    102  O   UNL     1      -3.997  14.032  -0.107  1.00  0.00    -0.237 OA
ATOM    103  O   UNL     1      -5.350  15.889   0.780  1.00  0.00    -0.744 OA
ENDBRANCH  96 100
ENDBRANCH  70  93
ENDBRANCH  44  45
ENDBRANCH  36  39
ENDBRANCH  34  35
ENDBRANCH  33  34
ENDBRANCH   1  33
TORSDOF 19
