REMARK SMILES O=C(Cc1ccccc1-c1ccn(C(F)F)c(=O)c1)NCCCCCCNC(=O)c1ccc(-c2c3nc(c(-c4cc(S(=O)(=O)[O-])ccc4F)c4ccc([nH]4)c(-c4cc(S(=O)(=O)[O-])ccc4F)c4nc(c(-c5cc(S(=O)(=O)[O-])ccc5F)c5ccc2[nH]5)C=C4)C=C3)cc1
REMARK SMILES IDX 23 1 22 2 21 3 20 4 1 5 2 6 3 8 4 9 5 10 9 11 6 12 8 13 7 14
REMARK SMILES IDX 10 15 11 16 19 17 12 18 17 19 13 20 18 21 14 22 15 23 16 24
REMARK SMILES IDX 24 25 25 26 26 27 27 28 28 29 29 31 30 32 31 33 92 34 32 35
REMARK SMILES IDX 91 36 33 37 34 38 35 39 85 40 36 41 90 42 84 43 86 44 37 45
REMARK SMILES IDX 89 46 83 47 82 48 38 50 70 51 50 52 69 53 51 54 54 55 68 56
REMARK SMILES IDX 87 57 52 58 53 59 67 61 88 62 55 63 39 64 40 65 48 66 41 67
REMARK SMILES IDX 47 68 49 69 46 70 42 71 43 72 44 73 45 74 71 75 72 76 80 77
REMARK SMILES IDX 73 78 79 79 81 80 78 81 74 82 75 83 76 84 77 85 56 86 57 87
REMARK SMILES IDX 65 88 58 89 64 90 66 91 63 92 59 93 60 94 61 95 62 96
REMARK H PARENT 20 7 27 30 86 49 54 60
REMARK Flexibility Score: inf
ROOT
ATOM      1  C   UNL     1       4.261  -0.578   3.746  1.00  0.00     0.002 C 
ENDROOT
BRANCH   1   2
ATOM      2  C   UNL     1       2.773  -0.795   3.448  1.00  0.00     0.021 C 
BRANCH   2   3
ATOM      3  C   UNL     1       2.183   0.189   2.446  1.00  0.00     0.116 C 
BRANCH   3   4
ATOM      4  N   UNL     1       2.836   0.128   1.153  1.00  0.00    -0.356 N 
ATOM      5  O   UNL     1       1.115  -0.932   0.075  1.00  0.00    -0.275 OA
ATOM      6  C   UNL     1       2.205  -0.364   0.031  1.00  0.00     0.224 C 
ATOM      7  H   UNL     1       3.762   0.451   1.073  1.00  0.00     0.163 HD
BRANCH   6   8
ATOM      8  C   UNL     1       2.963  -0.214  -1.278  1.00  0.00     0.136 C 
BRANCH   8   9
ATOM      9  C   UNL     1       3.773   1.062  -1.447  1.00  0.00    -0.031 A 
ATOM     10  C   UNL     1       5.167   0.942  -1.609  1.00  0.00     0.005 A 
ATOM     11  C   UNL     1       3.190   2.351  -1.488  1.00  0.00    -0.014 A 
ATOM     12  C   UNL     1       5.968   2.068  -1.792  1.00  0.00     0.000 A 
ATOM     13  C   UNL     1       4.013   3.476  -1.657  1.00  0.00     0.009 A 
ATOM     14  C   UNL     1       5.393   3.334  -1.810  1.00  0.00     0.001 A 
BRANCH  11  15
ATOM     15  C   UNL     1       1.731   2.563  -1.381  1.00  0.00    -0.011 A 
ATOM     16  C   UNL     1       1.020   2.539  -0.120  1.00  0.00     0.027 A 
ATOM     17  C   UNL     1       1.032   2.731  -2.516  1.00  0.00     0.080 A 
ATOM     18  C   UNL     1      -0.314   2.459  -0.095  1.00  0.00     0.095 A 
ATOM     19  C   UNL     1      -0.458   2.781  -2.492  1.00  0.00     0.255 A 
ATOM     20  N   UNL     1      -1.047   2.521  -1.265  1.00  0.00    -0.258 N 
ATOM     21  O   UNL     1      -1.052   3.005  -3.542  1.00  0.00    -0.269 OA
BRANCH  20  22
ATOM     22  C   UNL     1      -2.480   2.390  -1.229  1.00  0.00     0.451 C 
ATOM     23  F   UNL     1      -3.079   3.585  -1.446  1.00  0.00    -0.185 F 
ATOM     24  F   UNL     1      -2.922   1.525  -2.176  1.00  0.00    -0.185 F 
ENDBRANCH  20  22
ENDBRANCH  11  15
ENDBRANCH   8   9
ENDBRANCH   6   8
ENDBRANCH   3   4
ENDBRANCH   2   3
ENDBRANCH   1   2
BRANCH   1  25
ATOM     25  C   UNL     1       4.633   0.812   4.271  1.00  0.00     0.002 C 
BRANCH  25  26
ATOM     26  C   UNL     1       3.909   1.251   5.545  1.00  0.00     0.021 C 
BRANCH  26  27
ATOM     27  C   UNL     1       4.058   0.306   6.734  1.00  0.00     0.116 C 
BRANCH  27  28
ATOM     28  N   UNL     1       5.441   0.153   7.153  1.00  0.00    -0.352 N 
ATOM     29  C   UNL     1       5.990   0.267   8.407  1.00  0.00     0.251 C 
ATOM     30  H   UNL     1       6.077  -0.063   6.434  1.00  0.00     0.163 HD
ATOM     31  O   UNL     1       7.213   0.277   8.535  1.00  0.00    -0.269 OA
BRANCH  29  32
ATOM     32  C   UNL     1       5.114   0.407   9.592  1.00  0.00     0.039 A 
ATOM     33  C   UNL     1       5.446   1.348  10.571  1.00  0.00     0.014 A 
ATOM     34  C   UNL     1       3.971  -0.383   9.742  1.00  0.00     0.014 A 
ATOM     35  C   UNL     1       4.596   1.542  11.663  1.00  0.00     0.010 A 
ATOM     36  C   UNL     1       3.087  -0.134  10.789  1.00  0.00     0.010 A 
ATOM     37  C   UNL     1       3.389   0.830  11.763  1.00  0.00    -0.014 A 
BRANCH  37  38
ATOM     38  C   UNL     1       2.435   1.082  12.876  1.00  0.00     0.031 A 
ATOM     39  C   UNL     1       2.112  -0.010  13.861  1.00  0.00     0.074 A 
ATOM     40  C   UNL     1       1.817   2.276  12.967  1.00  0.00     0.049 A 
ATOM     41  N   UNL     1       1.271   0.000  14.864  1.00  0.00    -0.248 NA
ATOM     42  C   UNL     1       2.806  -1.292  13.671  1.00  0.00     0.031 C 
ATOM     43  C   UNL     1       2.021   3.404  12.055  1.00  0.00     0.029 A 
ATOM     44  N   UNL     1       0.892   2.743  13.867  1.00  0.00    -0.354 N 
ATOM     45  C   UNL     1       1.325  -1.275  15.417  1.00  0.00     0.074 A 
ATOM     46  C   UNL     1       2.229  -2.048  14.592  1.00  0.00     0.031 C 
ATOM     47  C   UNL     1       1.276   4.442  12.467  1.00  0.00     0.029 A 
ATOM     48  C   UNL     1       0.501   4.042  13.637  1.00  0.00     0.049 A 
ATOM     49  H   UNL     1       0.541   2.199  14.609  1.00  0.00     0.167 HD
ATOM     50  C   UNL     1       0.696  -1.750  16.522  1.00  0.00     0.034 A 
ATOM     51  C   UNL     1      -0.385   4.821  14.289  1.00  0.00     0.034 A 
ATOM     52  C   UNL     1      -0.200  -0.962  17.335  1.00  0.00     0.049 A 
ATOM     53  C   UNL     1      -1.111   4.255  15.484  1.00  0.00     0.074 A 
ATOM     54  C   UNL     1      -0.843  -1.322  18.507  1.00  0.00     0.029 A 
ATOM     55  N   UNL     1      -0.596   0.340  17.053  1.00  0.00    -0.354 N 
ATOM     56  N   UNL     1      -1.005   3.066  16.031  1.00  0.00    -0.248 NA
ATOM     57  C   UNL     1      -2.069   5.143  16.154  1.00  0.00     0.031 C 
ATOM     58  C   UNL     1      -1.689  -0.273  18.885  1.00  0.00     0.029 A 
ATOM     59  C   UNL     1      -1.507   0.780  18.003  1.00  0.00     0.049 A 
ATOM     60  H   UNL     1      -0.276   0.873  16.289  1.00  0.00     0.167 HD
ATOM     61  C   UNL     1      -1.857   3.078  17.133  1.00  0.00     0.074 A 
ATOM     62  C   UNL     1      -2.457   4.396  17.177  1.00  0.00     0.031 C 
ATOM     63  C   UNL     1      -2.113   2.092  18.031  1.00  0.00     0.034 A 
BRANCH  50  64
ATOM     64  C   UNL     1       0.933  -3.200  16.886  1.00  0.00     0.023 A 
ATOM     65  C   UNL     1       2.218  -3.688  17.184  1.00  0.00     0.031 A 
ATOM     66  C   UNL     1      -0.133  -4.117  16.893  1.00  0.00     0.131 A 
ATOM     67  C   UNL     1       2.419  -5.064  17.377  1.00  0.00     0.055 A 
ATOM     68  C   UNL     1       0.059  -5.470  17.182  1.00  0.00     0.041 A 
ATOM     69  F   UNL     1      -1.380  -3.719  16.597  1.00  0.00    -0.206 F 
ATOM     70  C   UNL     1       1.344  -5.955  17.405  1.00  0.00     0.022 A 
BRANCH  67  71
ATOM     71  S   UNL     1       4.121  -5.692  17.406  1.00  0.00     0.124 S 
ATOM     72  O   UNL     1       4.635  -5.211  16.126  1.00  0.00    -0.237 OA
ATOM     73  O   UNL     1       4.671  -5.054  18.596  1.00  0.00    -0.237 OA
ATOM     74  O   UNL     1       3.950  -7.141  17.495  1.00  0.00    -0.744 OA
ENDBRANCH  67  71
ENDBRANCH  50  64
BRANCH  51  75
ATOM     75  C   UNL     1      -0.640   6.220  13.839  1.00  0.00     0.023 A 
ATOM     76  C   UNL     1      -0.329   7.308  14.669  1.00  0.00     0.031 A 
ATOM     77  C   UNL     1      -1.236   6.490  12.594  1.00  0.00     0.131 A 
ATOM     78  C   UNL     1      -0.657   8.612  14.268  1.00  0.00     0.055 A 
ATOM     79  C   UNL     1      -1.509   7.793  12.175  1.00  0.00     0.041 A 
ATOM     80  F   UNL     1      -1.552   5.487  11.760  1.00  0.00    -0.206 F 
ATOM     81  C   UNL     1      -1.232   8.863  13.020  1.00  0.00     0.022 A 
BRANCH  78  82
ATOM     82  S   UNL     1      -0.402   9.971  15.441  1.00  0.00     0.124 S 
ATOM     83  O   UNL     1      -1.233   9.552  16.564  1.00  0.00    -0.237 OA
ATOM     84  O   UNL     1       1.040   9.920  15.654  1.00  0.00    -0.237 OA
ATOM     85  O   UNL     1      -0.882  11.143  14.712  1.00  0.00    -0.744 OA
ENDBRANCH  78  82
ENDBRANCH  51  75
BRANCH  63  86
ATOM     86  C   UNL     1      -3.050   2.425  19.168  1.00  0.00     0.023 A 
ATOM     87  C   UNL     1      -4.407   2.723  18.951  1.00  0.00     0.031 A 
ATOM     88  C   UNL     1      -2.571   2.463  20.490  1.00  0.00     0.131 A 
ATOM     89  C   UNL     1      -5.221   3.106  20.029  1.00  0.00     0.055 A 
ATOM     90  C   UNL     1      -3.402   2.776  21.567  1.00  0.00     0.041 A 
ATOM     91  F   UNL     1      -1.284   2.193  20.759  1.00  0.00    -0.206 F 
ATOM     92  C   UNL     1      -4.732   3.115  21.337  1.00  0.00     0.022 A 
BRANCH  89  93
ATOM     93  S   UNL     1      -6.901   3.697  19.684  1.00  0.00     0.124 S 
ATOM     94  O   UNL     1      -6.650   4.817  18.783  1.00  0.00    -0.237 OA
ATOM     95  O   UNL     1      -7.529   2.524  19.084  1.00  0.00    -0.237 OA
ATOM     96  O   UNL     1      -7.412   4.066  21.004  1.00  0.00    -0.744 OA
ENDBRANCH  89  93
ENDBRANCH  63  86
ENDBRANCH  37  38
ENDBRANCH  29  32
ENDBRANCH  27  28
ENDBRANCH  26  27
ENDBRANCH  25  26
ENDBRANCH   1  25
TORSDOF 19
