REMARK SMILES CN(C)S(=O)(=O)c1ccc(-n2c(CCC(=O)NCCCCCCNC(=O)c3ccc(-c4c5nc(c(-c6cc(S(=O)(=O)[O-])ccc6F)c6ccc([nH]6)c(-c6cc(S(=O)(=O)[O-])ccc6F)c6nc(c(-c7cc(S(=O)(=O)[O-])ccc7F)c7ccc4[nH]7)C=C6)C=C5)cc3)ccc2-c2ccc(F)cc2)cc1
REMARK SMILES IDX 19 1 18 2 17 3 15 4 16 5 14 7 13 8 12 9 11 10 92 11 90 12
REMARK SMILES IDX 91 13 10 14 7 15 8 16 101 17 9 18 100 19 4 20 5 21 6 22 2 23
REMARK SMILES IDX 1 24 3 25 93 26 94 27 99 28 95 29 98 30 96 31 97 32 20 33
REMARK SMILES IDX 21 34 22 35 23 36 24 37 25 38 26 40 27 41 28 42 89 43 29 44
REMARK SMILES IDX 88 45 30 46 31 47 32 48 82 49 33 50 87 51 81 52 83 53 34 54
REMARK SMILES IDX 86 55 80 56 79 57 35 59 67 60 47 61 66 62 48 63 51 64 65 65
REMARK SMILES IDX 84 66 49 67 50 68 64 70 85 71 52 72 36 73 37 74 45 75 38 76
REMARK SMILES IDX 44 77 46 78 43 79 39 80 40 81 41 82 42 83 68 84 69 85 77 86
REMARK SMILES IDX 70 87 76 88 78 89 75 90 71 91 72 92 73 93 74 94 53 95 54 96
REMARK SMILES IDX 62 97 55 98 61 99 63 100 60 101 56 102 57 103 58 104 59 105
REMARK H PARENT 17 6 24 39 83 58 51 69
REMARK Flexibility Score: inf
ROOT
ATOM      1  C   UNL     1       1.902  -4.164  -7.476  1.00  0.00     0.021 C 
ENDROOT
BRANCH   1   2
ATOM      2  C   UNL     1       2.078  -5.491  -6.732  1.00  0.00     0.116 C 
BRANCH   2   3
ATOM      3  N   UNL     1       1.592  -5.459  -5.360  1.00  0.00    -0.356 N 
ATOM      4  C   UNL     1       0.413  -5.897  -4.830  1.00  0.00     0.220 C 
ATOM      5  O   UNL     1       0.277  -5.847  -3.603  1.00  0.00    -0.275 OA
ATOM      6  H   UNL     1       2.214  -5.058  -4.711  1.00  0.00     0.163 HD
BRANCH   4   7
ATOM      7  C   UNL     1      -0.731  -6.366  -5.711  1.00  0.00     0.106 C 
BRANCH   7   8
ATOM      8  C   UNL     1      -1.885  -5.352  -5.855  1.00  0.00     0.064 C 
BRANCH   8   9
ATOM      9  C   UNL     1      -1.753  -4.439  -7.055  1.00  0.00     0.024 A 
ATOM     10  N   UNL     1      -1.542  -3.042  -7.069  1.00  0.00    -0.314 N 
ATOM     11  C   UNL     1      -1.508  -2.642  -8.426  1.00  0.00     0.053 A 
ATOM     12  C   UNL     1      -1.928  -4.855  -8.366  1.00  0.00     0.024 A 
ATOM     13  C   UNL     1      -1.781  -3.746  -9.211  1.00  0.00     0.029 A 
BRANCH  10  14
ATOM     14  C   UNL     1      -1.215  -2.176  -5.956  1.00  0.00     0.046 A 
ATOM     15  C   UNL     1      -0.099  -0.486  -4.007  1.00  0.00     0.082 A 
ATOM     16  C   UNL     1      -0.851   0.061  -5.041  1.00  0.00     0.024 A 
ATOM     17  C   UNL     1       0.044  -1.861  -3.896  1.00  0.00     0.024 A 
ATOM     18  C   UNL     1      -1.423  -0.788  -6.002  1.00  0.00     0.028 A 
ATOM     19  C   UNL     1      -0.528  -2.684  -4.857  1.00  0.00     0.028 A 
BRANCH  15  20
ATOM     20  S   UNL     1       0.663   0.525  -2.774  1.00  0.00     0.242 S 
ATOM     21  O   UNL     1      -0.040   1.798  -2.721  1.00  0.00    -0.207 OA
ATOM     22  O   UNL     1       2.086   0.456  -2.982  1.00  0.00    -0.207 OA
BRANCH  20  23
ATOM     23  N   UNL     1       0.292  -0.313  -1.321  1.00  0.00    -0.204 NA
ATOM     24  C   UNL     1       1.069   0.174  -0.163  1.00  0.00     0.124 C 
ATOM     25  C   UNL     1      -1.151  -0.435  -1.015  1.00  0.00     0.124 C 
ENDBRANCH  20  23
ENDBRANCH  15  20
ENDBRANCH  10  14
BRANCH  11  26
ATOM     26  C   UNL     1      -1.021  -1.343  -8.914  1.00  0.00    -0.001 A 
ATOM     27  C   UNL     1      -1.852  -0.435  -9.576  1.00  0.00     0.013 A 
ATOM     28  C   UNL     1       0.313  -0.984  -8.673  1.00  0.00     0.013 A 
ATOM     29  C   UNL     1      -1.360   0.830  -9.927  1.00  0.00     0.040 A 
ATOM     30  C   UNL     1       0.809   0.268  -9.023  1.00  0.00     0.040 A 
ATOM     31  C   UNL     1      -0.040   1.172  -9.639  1.00  0.00     0.123 A 
ATOM     32  F   UNL     1       0.437   2.368 -10.004  1.00  0.00    -0.207 F 
ENDBRANCH  11  26
ENDBRANCH   8   9
ENDBRANCH   7   8
ENDBRANCH   4   7
ENDBRANCH   2   3
ENDBRANCH   1   2
BRANCH   1  33
ATOM     33  C   UNL     1       2.966  -3.101  -7.173  1.00  0.00     0.002 C 
BRANCH  33  34
ATOM     34  C   UNL     1       3.877  -2.575  -8.313  1.00  0.00     0.002 C 
BRANCH  34  35
ATOM     35  C   UNL     1       3.791  -3.132  -9.750  1.00  0.00     0.021 C 
BRANCH  35  36
ATOM     36  C   UNL     1       2.943  -2.335 -10.774  1.00  0.00     0.116 C 
BRANCH  36  37
ATOM     37  N   UNL     1       3.548  -1.048 -11.101  1.00  0.00    -0.352 N 
ATOM     38  C   UNL     1       3.331  -0.127 -12.102  1.00  0.00     0.251 C 
ATOM     39  H   UNL     1       4.260  -0.783 -10.476  1.00  0.00     0.163 HD
ATOM     40  O   UNL     1       4.257   0.661 -12.316  1.00  0.00    -0.269 OA
BRANCH  38  41
ATOM     41  C   UNL     1       2.086   0.012 -12.920  1.00  0.00     0.039 A 
ATOM     42  C   UNL     1       2.188   0.662 -14.165  1.00  0.00     0.014 A 
ATOM     43  C   UNL     1       0.812  -0.328 -12.473  1.00  0.00     0.014 A 
ATOM     44  C   UNL     1       1.054   0.927 -14.951  1.00  0.00     0.010 A 
ATOM     45  C   UNL     1      -0.337   0.003 -13.223  1.00  0.00     0.010 A 
ATOM     46  C   UNL     1      -0.224   0.587 -14.494  1.00  0.00    -0.014 A 
BRANCH  46  47
ATOM     47  C   UNL     1      -1.357   0.527 -15.479  1.00  0.00     0.031 A 
ATOM     48  C   UNL     1      -1.411  -0.862 -16.173  1.00  0.00     0.074 A 
ATOM     49  C   UNL     1      -2.138   1.631 -15.727  1.00  0.00     0.049 A 
ATOM     50  N   UNL     1      -1.774  -1.184 -17.379  1.00  0.00    -0.248 NA
ATOM     51  C   UNL     1      -0.868  -2.053 -15.459  1.00  0.00     0.031 C 
ATOM     52  C   UNL     1      -2.029   2.929 -15.022  1.00  0.00     0.029 A 
ATOM     53  N   UNL     1      -3.177   1.900 -16.613  1.00  0.00    -0.354 N 
ATOM     54  C   UNL     1      -1.703  -2.597 -17.487  1.00  0.00     0.074 A 
ATOM     55  C   UNL     1      -0.997  -3.050 -16.334  1.00  0.00     0.031 C 
ATOM     56  C   UNL     1      -2.889   3.843 -15.538  1.00  0.00     0.029 A 
ATOM     57  C   UNL     1      -3.665   3.245 -16.612  1.00  0.00     0.049 A 
ATOM     58  H   UNL     1      -3.553   1.208 -17.203  1.00  0.00     0.167 HD
ATOM     59  C   UNL     1      -2.359  -3.327 -18.438  1.00  0.00     0.034 A 
ATOM     60  C   UNL     1      -4.603   3.844 -17.423  1.00  0.00     0.034 A 
ATOM     61  C   UNL     1      -3.083  -2.455 -19.295  1.00  0.00     0.049 A 
ATOM     62  C   UNL     1      -5.160   2.759 -18.243  1.00  0.00     0.074 A 
ATOM     63  C   UNL     1      -2.709  -1.543 -20.243  1.00  0.00     0.029 A 
ATOM     64  N   UNL     1      -4.418  -2.289 -19.011  1.00  0.00    -0.354 N 
ATOM     65  N   UNL     1      -5.996   1.867 -17.813  1.00  0.00    -0.248 NA
ATOM     66  C   UNL     1      -4.793   2.683 -19.664  1.00  0.00     0.031 C 
ATOM     67  C   UNL     1      -3.709  -0.557 -20.155  1.00  0.00     0.029 A 
ATOM     68  C   UNL     1      -4.717  -0.983 -19.277  1.00  0.00     0.049 A 
ATOM     69  H   UNL     1      -5.038  -2.978 -18.679  1.00  0.00     0.167 HD
ATOM     70  C   UNL     1      -6.002   0.948 -18.831  1.00  0.00     0.074 A 
ATOM     71  C   UNL     1      -5.536   1.636 -20.016  1.00  0.00     0.031 C 
ATOM     72  C   UNL     1      -5.776  -0.351 -18.516  1.00  0.00     0.034 A 
BRANCH  59  73
ATOM     73  C   UNL     1      -2.657  -4.802 -18.592  1.00  0.00     0.023 A 
ATOM     74  C   UNL     1      -3.227  -5.199 -19.833  1.00  0.00     0.031 A 
ATOM     75  C   UNL     1      -2.716  -5.748 -17.561  1.00  0.00     0.131 A 
ATOM     76  C   UNL     1      -3.933  -6.400 -19.973  1.00  0.00     0.055 A 
ATOM     77  C   UNL     1      -3.357  -6.987 -17.727  1.00  0.00     0.041 A 
ATOM     78  F   UNL     1      -2.243  -5.490 -16.336  1.00  0.00    -0.206 F 
ATOM     79  C   UNL     1      -4.002  -7.303 -18.921  1.00  0.00     0.022 A 
BRANCH  76  80
ATOM     80  S   UNL     1      -4.908  -6.655 -21.485  1.00  0.00     0.124 S 
ATOM     81  O   UNL     1      -5.713  -5.439 -21.543  1.00  0.00    -0.237 OA
ATOM     82  O   UNL     1      -3.867  -6.781 -22.501  1.00  0.00    -0.237 OA
ATOM     83  O   UNL     1      -5.652  -7.880 -21.204  1.00  0.00    -0.744 OA
ENDBRANCH  76  80
ENDBRANCH  59  73
BRANCH  60  84
ATOM     84  C   UNL     1      -5.210   5.216 -17.757  1.00  0.00     0.023 A 
ATOM     85  C   UNL     1      -4.851   6.455 -17.203  1.00  0.00     0.031 A 
ATOM     86  C   UNL     1      -6.189   5.309 -18.809  1.00  0.00     0.131 A 
ATOM     87  C   UNL     1      -5.384   7.665 -17.748  1.00  0.00     0.055 A 
ATOM     88  C   UNL     1      -6.623   6.494 -19.402  1.00  0.00     0.041 A 
ATOM     89  F   UNL     1      -6.789   4.230 -19.330  1.00  0.00    -0.206 F 
ATOM     90  C   UNL     1      -6.207   7.689 -18.878  1.00  0.00     0.022 A 
BRANCH  87  91
ATOM     91  S   UNL     1      -5.041   9.291 -17.012  1.00  0.00     0.124 S 
ATOM     92  O   UNL     1      -6.257   9.533 -16.241  1.00  0.00    -0.237 OA
ATOM     93  O   UNL     1      -3.828   9.060 -16.236  1.00  0.00    -0.237 OA
ATOM     94  O   UNL     1      -4.870  10.148 -18.185  1.00  0.00    -0.744 OA
ENDBRANCH  87  91
ENDBRANCH  60  84
BRANCH  72  95
ATOM     95  C   UNL     1      -6.278  -0.742 -17.127  1.00  0.00     0.023 A 
ATOM     96  C   UNL     1      -7.630  -0.533 -16.779  1.00  0.00     0.031 A 
ATOM     97  C   UNL     1      -5.437  -1.178 -16.089  1.00  0.00     0.131 A 
ATOM     98  C   UNL     1      -8.078  -0.725 -15.456  1.00  0.00     0.055 A 
ATOM     99  C   UNL     1      -5.883  -1.387 -14.777  1.00  0.00     0.041 A 
ATOM    100  F   UNL     1      -4.141  -1.396 -16.302  1.00  0.00    -0.206 F 
ATOM    101  C   UNL     1      -7.210  -1.154 -14.453  1.00  0.00     0.022 A 
BRANCH  98 102
ATOM    102  S   UNL     1      -9.821  -0.421 -15.048  1.00  0.00     0.124 S 
ATOM    103  O   UNL     1      -9.919   1.033 -15.115  1.00  0.00    -0.237 OA
ATOM    104  O   UNL     1     -10.526  -1.159 -16.092  1.00  0.00    -0.237 OA
ATOM    105  O   UNL     1      -9.960  -0.986 -13.705  1.00  0.00    -0.744 OA
ENDBRANCH  98 102
ENDBRANCH  72  95
ENDBRANCH  46  47
ENDBRANCH  38  41
ENDBRANCH  36  37
ENDBRANCH  35  36
ENDBRANCH  34  35
ENDBRANCH  33  34
ENDBRANCH   1  33
TORSDOF 22
