REMARK SMILES Cc1cc(C)n(CC(=O)N[C@H]2C=C[C@@H](C(=O)NCCCCCCNC(=O)c3ccc(-c4c5nc(c(-c6cc(S(=O)(=O)[O-])ccc6F)c6ccc([nH]6)c(-c6cc(S(=O)(=O)[O-])ccc6F)c6nc(c(-c7cc(S(=O)(=O)[O-])ccc7F)c7ccc4[nH]7)C=C6)C=C5)cc3)C2)n1
REMARK SMILES IDX 20 1 19 2 18 3 17 4 15 5 16 6 14 8 11 9 12 10 90 11 13 12
REMARK SMILES IDX 10 13 8 14 9 15 7 17 6 18 1 19 2 20 3 21 91 22 4 23 5 24
REMARK SMILES IDX 21 25 22 26 23 27 24 28 25 29 26 31 27 32 28 33 89 34 29 35
REMARK SMILES IDX 88 36 30 37 31 38 32 39 82 40 33 41 87 42 81 43 83 44 34 45
REMARK SMILES IDX 86 46 80 47 79 48 35 50 67 51 47 52 66 53 48 54 51 55 65 56
REMARK SMILES IDX 84 57 49 58 50 59 64 61 85 62 52 63 36 64 37 65 45 66 38 67
REMARK SMILES IDX 44 68 46 69 43 70 39 71 40 72 41 73 42 74 68 75 69 76 77 77
REMARK SMILES IDX 70 78 76 79 78 80 75 81 71 82 72 83 73 84 74 85 53 86 54 87
REMARK SMILES IDX 62 88 55 89 61 90 63 91 60 92 56 93 57 94 58 95 59 96
REMARK H PARENT 17 7 10 16 24 30 83 49 51 60
REMARK Flexibility Score: inf
ROOT
ATOM      1  C   UNL     1      -1.488   2.031   8.081  1.00  0.00     0.002 C 
ENDROOT
BRANCH   1   2
ATOM      2  C   UNL     1      -1.796   1.187   6.844  1.00  0.00     0.021 C 
BRANCH   2   3
ATOM      3  C   UNL     1      -2.772   1.817   5.855  1.00  0.00     0.116 C 
BRANCH   3   4
ATOM      4  N   UNL     1      -2.201   2.931   5.128  1.00  0.00    -0.356 N 
ATOM      5  C   UNL     1      -2.288   3.255   3.808  1.00  0.00     0.227 C 
ATOM      6  O   UNL     1      -1.863   4.365   3.470  1.00  0.00    -0.274 OA
ATOM      7  H   UNL     1      -1.665   3.551   5.673  1.00  0.00     0.163 HD
BRANCH   5   8
ATOM      8  C   UNL     1      -2.834   2.290   2.745  1.00  0.00     0.103 C 
ATOM      9  C   UNL     1      -2.939  -0.195   2.736  1.00  0.00     0.106 C 
ATOM     10  C   UNL     1      -4.295   0.459   2.832  1.00  0.00    -0.006 C 
ATOM     11  C   UNL     1      -2.003   1.014   2.632  1.00  0.00     0.047 C 
ATOM     12  C   UNL     1      -4.234   1.795   2.892  1.00  0.00    -0.016 C 
BRANCH   9  13
ATOM     13  N   UNL     1      -2.832  -1.059   3.904  1.00  0.00    -0.348 N 
ATOM     14  C   UNL     1      -1.801  -1.658   4.557  1.00  0.00     0.242 C 
ATOM     15  O   UNL     1      -2.131  -2.480   5.422  1.00  0.00    -0.273 OA
ATOM     16  H   UNL     1      -3.706  -1.254   4.314  1.00  0.00     0.164 HD
BRANCH  14  17
ATOM     17  C   UNL     1      -0.348  -1.287   4.388  1.00  0.00     0.244 C 
BRANCH  17  18
ATOM     18  N   UNL     1       0.167  -1.536   3.061  1.00  0.00    -0.260 N 
ATOM     19  C   UNL     1       1.196  -0.139  -0.017  1.00  0.00     0.069 C 
ATOM     20  C   UNL     1       0.854  -1.022   1.122  1.00  0.00     0.060 A 
ATOM     21  C   UNL     1       0.841  -2.432   1.184  1.00  0.00     0.048 A 
ATOM     22  N   UNL     1       0.504  -0.484   2.291  1.00  0.00    -0.178 NA
ATOM     23  C   UNL     1       0.430  -2.739   2.465  1.00  0.00     0.036 A 
ATOM     24  C   UNL     1       0.269  -4.040   3.160  1.00  0.00     0.066 C 
ENDBRANCH  17  18
ENDBRANCH  14  17
ENDBRANCH   9  13
ENDBRANCH   5   8
ENDBRANCH   3   4
ENDBRANCH   2   3
ENDBRANCH   1   2
BRANCH   1  25
ATOM     25  C   UNL     1      -2.702   2.507   8.888  1.00  0.00     0.002 C 
BRANCH  25  26
ATOM     26  C   UNL     1      -3.721   1.435   9.299  1.00  0.00     0.021 C 
BRANCH  26  27
ATOM     27  C   UNL     1      -3.150   0.321  10.164  1.00  0.00     0.116 C 
BRANCH  27  28
ATOM     28  N   UNL     1      -2.676   0.801  11.458  1.00  0.00    -0.352 N 
ATOM     29  C   UNL     1      -2.083   0.073  12.475  1.00  0.00     0.251 C 
ATOM     30  H   UNL     1      -2.792   1.764  11.629  1.00  0.00     0.163 HD
ATOM     31  O   UNL     1      -2.100   0.492  13.621  1.00  0.00    -0.269 OA
BRANCH  29  32
ATOM     32  C   UNL     1      -1.442  -1.218  12.146  1.00  0.00     0.039 A 
ATOM     33  C   UNL     1      -1.524  -2.309  13.012  1.00  0.00     0.014 A 
ATOM     34  C   UNL     1      -0.756  -1.326  10.938  1.00  0.00     0.014 A 
ATOM     35  C   UNL     1      -0.977  -3.527  12.610  1.00  0.00     0.010 A 
ATOM     36  C   UNL     1      -0.359  -2.557  10.476  1.00  0.00     0.010 A 
ATOM     37  C   UNL     1      -0.415  -3.651  11.327  1.00  0.00    -0.014 A 
BRANCH  37  38
ATOM     38  C   UNL     1       0.009  -4.952  10.815  1.00  0.00     0.031 A 
ATOM     39  C   UNL     1      -1.026  -6.010  10.919  1.00  0.00     0.074 A 
ATOM     40  C   UNL     1       1.155  -5.171  10.133  1.00  0.00     0.049 A 
ATOM     41  N   UNL     1      -1.052  -6.994  11.754  1.00  0.00    -0.248 NA
ATOM     42  C   UNL     1      -2.259  -5.871  10.129  1.00  0.00     0.031 C 
ATOM     43  C   UNL     1       2.157  -4.197   9.688  1.00  0.00     0.029 A 
ATOM     44  N   UNL     1       1.625  -6.338   9.609  1.00  0.00    -0.354 N 
ATOM     45  C   UNL     1      -2.170  -7.748  11.423  1.00  0.00     0.074 A 
ATOM     46  C   UNL     1      -2.976  -6.902  10.584  1.00  0.00     0.031 C 
ATOM     47  C   UNL     1       2.990  -4.773   8.792  1.00  0.00     0.029 A 
ATOM     48  C   UNL     1       2.697  -6.194   8.731  1.00  0.00     0.049 A 
ATOM     49  H   UNL     1       1.238  -7.214   9.834  1.00  0.00     0.167 HD
ATOM     50  C   UNL     1      -2.203  -9.088  11.668  1.00  0.00     0.034 A 
ATOM     51  C   UNL     1       3.312  -7.171   8.011  1.00  0.00     0.034 A 
ATOM     52  C   UNL     1      -1.164  -9.466  12.606  1.00  0.00     0.049 A 
ATOM     53  C   UNL     1       3.053  -8.444   8.726  1.00  0.00     0.074 A 
ATOM     54  C   UNL     1      -0.836  -9.065  13.889  1.00  0.00     0.029 A 
ATOM     55  N   UNL     1      -0.024 -10.060  12.111  1.00  0.00    -0.354 N 
ATOM     56  N   UNL     1       3.513  -8.694   9.922  1.00  0.00    -0.248 NA
ATOM     57  C   UNL     1       1.887  -9.223   8.338  1.00  0.00     0.031 C 
ATOM     58  C   UNL     1       0.587  -8.953  13.883  1.00  0.00     0.029 A 
ATOM     59  C   UNL     1       1.054  -9.389  12.641  1.00  0.00     0.049 A 
ATOM     60  H   UNL     1       0.013 -10.825  11.493  1.00  0.00     0.167 HD
ATOM     61  C   UNL     1       2.461  -9.300  10.590  1.00  0.00     0.074 A 
ATOM     62  C   UNL     1       1.525  -9.692   9.537  1.00  0.00     0.031 C 
ATOM     63  C   UNL     1       2.313  -9.180  11.944  1.00  0.00     0.034 A 
BRANCH  50  64
ATOM     64  C   UNL     1      -2.918 -10.104  10.803  1.00  0.00     0.023 A 
ATOM     65  C   UNL     1      -2.863 -11.453  11.205  1.00  0.00     0.031 A 
ATOM     66  C   UNL     1      -3.405  -9.877   9.495  1.00  0.00     0.131 A 
ATOM     67  C   UNL     1      -3.184 -12.489  10.310  1.00  0.00     0.055 A 
ATOM     68  C   UNL     1      -3.788 -10.908   8.633  1.00  0.00     0.041 A 
ATOM     69  F   UNL     1      -3.450  -8.663   8.936  1.00  0.00    -0.206 F 
ATOM     70  C   UNL     1      -3.649 -12.226   9.026  1.00  0.00     0.022 A 
BRANCH  67  71
ATOM     71  S   UNL     1      -2.810 -14.193  10.796  1.00  0.00     0.124 S 
ATOM     72  O   UNL     1      -1.395 -14.097  11.139  1.00  0.00    -0.237 OA
ATOM     73  O   UNL     1      -3.731 -14.396  11.909  1.00  0.00    -0.237 OA
ATOM     74  O   UNL     1      -3.110 -14.963   9.591  1.00  0.00    -0.744 OA
ENDBRANCH  67  71
ENDBRANCH  50  64
BRANCH  51  75
ATOM     75  C   UNL     1       3.818  -7.098   6.611  1.00  0.00     0.023 A 
ATOM     76  C   UNL     1       4.720  -8.041   6.067  1.00  0.00     0.031 A 
ATOM     77  C   UNL     1       3.198  -6.218   5.696  1.00  0.00     0.131 A 
ATOM     78  C   UNL     1       4.957  -8.081   4.671  1.00  0.00     0.055 A 
ATOM     79  C   UNL     1       3.436  -6.264   4.320  1.00  0.00     0.041 A 
ATOM     80  F   UNL     1       2.268  -5.338   6.099  1.00  0.00    -0.206 F 
ATOM     81  C   UNL     1       4.307  -7.205   3.800  1.00  0.00     0.022 A 
BRANCH  78  82
ATOM     82  S   UNL     1       6.054  -9.346   3.944  1.00  0.00     0.124 S 
ATOM     83  O   UNL     1       7.368  -8.924   4.414  1.00  0.00    -0.237 OA
ATOM     84  O   UNL     1       5.527 -10.582   4.509  1.00  0.00    -0.237 OA
ATOM     85  O   UNL     1       5.841  -9.195   2.504  1.00  0.00    -0.744 OA
ENDBRANCH  78  82
ENDBRANCH  51  75
BRANCH  63  86
ATOM     86  C   UNL     1       3.469  -8.607  12.752  1.00  0.00     0.023 A 
ATOM     87  C   UNL     1       4.077  -7.348  12.533  1.00  0.00     0.031 A 
ATOM     88  C   UNL     1       3.900  -9.346  13.869  1.00  0.00     0.131 A 
ATOM     89  C   UNL     1       5.083  -6.884  13.409  1.00  0.00     0.055 A 
ATOM     90  C   UNL     1       4.875  -8.873  14.746  1.00  0.00     0.041 A 
ATOM     91  F   UNL     1       3.351 -10.540  14.148  1.00  0.00    -0.206 F 
ATOM     92  C   UNL     1       5.476  -7.642  14.516  1.00  0.00     0.022 A 
BRANCH  89  93
ATOM     93  S   UNL     1       5.924  -5.292  13.113  1.00  0.00     0.124 S 
ATOM     94  O   UNL     1       6.266  -5.341  11.697  1.00  0.00    -0.237 OA
ATOM     95  O   UNL     1       4.903  -4.318  13.491  1.00  0.00    -0.237 OA
ATOM     96  O   UNL     1       7.075  -5.343  14.018  1.00  0.00    -0.744 OA
ENDBRANCH  89  93
ENDBRANCH  63  86
ENDBRANCH  37  38
ENDBRANCH  29  32
ENDBRANCH  27  28
ENDBRANCH  26  27
ENDBRANCH  25  26
ENDBRANCH   1  25
TORSDOF 19
