REMARK SMILES CN(Cc1ncc(C(=O)NCCCCCCNC(=O)c2ccc(-c3c4nc(c(-c5cc(S(=O)(=O)[O-])ccc5F)c5ccc([nH]5)c(-c5cc(S(=O)(=O)[O-])ccc5F)c5nc(c(-c6cc(S(=O)(=O)[O-])ccc6F)c6ccc3[nH]6)C=C5)C=C4)cc2)cn1)S(=O)(=O)c1ccc(Cl)cc1
REMARK SMILES IDX 13 1 12 2 11 3 10 4 8 5 9 6 7 8 4 9 5 10 84 11 6 12 83 13
REMARK SMILES IDX 3 14 2 15 1 16 85 17 86 18 87 19 88 20 89 21 94 22 90 23
REMARK SMILES IDX 93 24 91 25 92 26 14 27 15 28 16 29 17 30 18 31 19 33 20 34
REMARK SMILES IDX 21 35 82 36 22 37 81 38 23 39 24 40 25 41 75 42 26 43 80 44
REMARK SMILES IDX 74 45 76 46 27 47 79 48 73 49 72 50 28 52 60 53 40 54 59 55
REMARK SMILES IDX 41 56 44 57 58 58 77 59 42 60 43 61 57 63 78 64 45 65 29 66
REMARK SMILES IDX 30 67 38 68 31 69 37 70 39 71 36 72 32 73 33 74 34 75 35 76
REMARK SMILES IDX 61 77 62 78 70 79 63 80 69 81 71 82 68 83 64 84 65 85 66 86
REMARK SMILES IDX 67 87 46 88 47 89 55 90 48 91 54 92 56 93 53 94 49 95 50 96
REMARK SMILES IDX 51 97 52 98
REMARK H PARENT 10 7 17 32 76 51 44 62
REMARK Flexibility Score: inf
ROOT
ATOM      1  C   UNL     1      -0.275  -6.076   4.472  1.00  0.00     0.002 C 
ENDROOT
BRANCH   1   2
ATOM      2  C   UNL     1      -0.307  -4.897   3.489  1.00  0.00     0.021 C 
BRANCH   2   3
ATOM      3  C   UNL     1      -1.726  -4.418   3.178  1.00  0.00     0.116 C 
BRANCH   3   4
ATOM      4  N   UNL     1      -2.178  -3.445   4.154  1.00  0.00    -0.352 N 
ATOM      5  C   UNL     1      -2.364  -2.090   4.153  1.00  0.00     0.254 C 
ATOM      6  O   UNL     1      -2.816  -1.599   5.191  1.00  0.00    -0.269 OA
ATOM      7  H   UNL     1      -2.402  -3.856   5.020  1.00  0.00     0.163 HD
BRANCH   5   8
ATOM      8  C   UNL     1      -2.079  -1.179   3.025  1.00  0.00     0.076 A 
ATOM      9  C   UNL     1      -1.484   0.717   1.145  1.00  0.00     0.143 A 
ATOM     10  N   UNL     1      -1.208  -0.568   0.863  1.00  0.00    -0.239 NA
ATOM     11  N   UNL     1      -2.122   1.129   2.255  1.00  0.00    -0.239 NA
ATOM     12  C   UNL     1      -1.474  -1.474   1.829  1.00  0.00     0.128 A 
ATOM     13  C   UNL     1      -2.401   0.161   3.166  1.00  0.00     0.128 A 
BRANCH   9  14
ATOM     14  C   UNL     1      -0.815   1.755   0.264  1.00  0.00     0.179 C 
BRANCH  14  15
ATOM     15  N   UNL     1       0.692   1.768   0.298  1.00  0.00    -0.193 NA
ATOM     16  C   UNL     1       1.279   0.573  -0.363  1.00  0.00     0.125 C 
BRANCH  15  17
ATOM     17  S   UNL     1       1.407   2.076   1.821  1.00  0.00     0.243 S 
ATOM     18  O   UNL     1       0.918   1.126   2.789  1.00  0.00    -0.207 OA
ATOM     19  O   UNL     1       2.835   2.234   1.609  1.00  0.00    -0.207 OA
BRANCH  17  20
ATOM     20  C   UNL     1       0.773   3.686   2.225  1.00  0.00     0.082 A 
ATOM     21  C   UNL     1       1.275   4.795   1.538  1.00  0.00     0.023 A 
ATOM     22  C   UNL     1      -0.191   3.836   3.227  1.00  0.00     0.023 A 
ATOM     23  C   UNL     1       0.792   6.068   1.844  1.00  0.00     0.022 A 
ATOM     24  C   UNL     1      -0.673   5.112   3.525  1.00  0.00     0.022 A 
ATOM     25  C   UNL     1      -0.181   6.220   2.833  1.00  0.00     0.041 A 
ATOM     26  Cl  UNL     1      -0.777   7.791   3.204  1.00  0.00    -0.084 Cl
ENDBRANCH  17  20
ENDBRANCH  15  17
ENDBRANCH  14  15
ENDBRANCH   9  14
ENDBRANCH   5   8
ENDBRANCH   3   4
ENDBRANCH   2   3
ENDBRANCH   1   2
BRANCH   1  27
ATOM     27  C   UNL     1      -1.030  -7.329   4.004  1.00  0.00     0.002 C 
BRANCH  27  28
ATOM     28  C   UNL     1      -0.633  -7.846   2.618  1.00  0.00     0.021 C 
BRANCH  28  29
ATOM     29  C   UNL     1       0.822  -8.292   2.511  1.00  0.00     0.116 C 
BRANCH  29  30
ATOM     30  N   UNL     1       1.096  -9.422   3.385  1.00  0.00    -0.352 N 
ATOM     31  C   UNL     1       1.554 -10.675   3.067  1.00  0.00     0.251 C 
ATOM     32  H   UNL     1       0.928  -9.264   4.342  1.00  0.00     0.163 HD
ATOM     33  O   UNL     1       1.473 -11.581   3.892  1.00  0.00    -0.269 OA
BRANCH  31  34
ATOM     34  C   UNL     1       2.131 -10.929   1.730  1.00  0.00     0.039 A 
ATOM     35  C   UNL     1       1.782 -12.098   1.049  1.00  0.00     0.014 A 
ATOM     36  C   UNL     1       3.031 -10.024   1.159  1.00  0.00     0.014 A 
ATOM     37  C   UNL     1       2.293 -12.332  -0.229  1.00  0.00     0.010 A 
ATOM     38  C   UNL     1       3.487 -10.226  -0.140  1.00  0.00     0.010 A 
ATOM     39  C   UNL     1       3.126 -11.385  -0.846  1.00  0.00    -0.014 A 
BRANCH  39  40
ATOM     40  C   UNL     1       3.639 -11.589  -2.225  1.00  0.00     0.031 A 
ATOM     41  C   UNL     1       5.116 -11.749  -2.462  1.00  0.00     0.074 A 
ATOM     42  C   UNL     1       2.782 -11.563  -3.265  1.00  0.00     0.049 A 
ATOM     43  N   UNL     1       5.768 -11.844  -3.592  1.00  0.00    -0.248 NA
ATOM     44  C   UNL     1       5.974 -11.773  -1.268  1.00  0.00     0.031 C 
ATOM     45  C   UNL     1       1.333 -11.379  -3.160  1.00  0.00     0.029 A 
ATOM     46  N   UNL     1       3.004 -11.677  -4.614  1.00  0.00    -0.354 N 
ATOM     47  C   UNL     1       7.113 -11.926  -3.247  1.00  0.00     0.074 A 
ATOM     48  C   UNL     1       7.184 -11.808  -1.806  1.00  0.00     0.031 C 
ATOM     49  C   UNL     1       0.795 -11.413  -4.390  1.00  0.00     0.029 A 
ATOM     50  C   UNL     1       1.862 -11.572  -5.373  1.00  0.00     0.049 A 
ATOM     51  H   UNL     1       3.897 -11.821  -5.002  1.00  0.00     0.167 HD
ATOM     52  C   UNL     1       8.187 -12.106  -4.057  1.00  0.00     0.034 A 
ATOM     53  C   UNL     1       1.695 -11.586  -6.710  1.00  0.00     0.034 A 
ATOM     54  C   UNL     1       8.095 -12.233  -5.491  1.00  0.00     0.049 A 
ATOM     55  C   UNL     1       2.905 -11.761  -7.592  1.00  0.00     0.074 A 
ATOM     56  C   UNL     1       9.109 -12.472  -6.403  1.00  0.00     0.029 A 
ATOM     57  N   UNL     1       6.920 -12.124  -6.226  1.00  0.00    -0.354 N 
ATOM     58  N   UNL     1       4.167 -11.884  -7.248  1.00  0.00    -0.248 NA
ATOM     59  C   UNL     1       2.668 -11.807  -9.040  1.00  0.00     0.031 C 
ATOM     60  C   UNL     1       8.559 -12.440  -7.690  1.00  0.00     0.029 A 
ATOM     61  C   UNL     1       7.190 -12.258  -7.580  1.00  0.00     0.049 A 
ATOM     62  H   UNL     1       6.027 -11.973  -5.841  1.00  0.00     0.167 HD
ATOM     63  C   UNL     1       4.869 -12.054  -8.438  1.00  0.00     0.074 A 
ATOM     64  C   UNL     1       3.889 -12.030  -9.505  1.00  0.00     0.031 C 
ATOM     65  C   UNL     1       6.202 -12.220  -8.633  1.00  0.00     0.034 A 
BRANCH  52  66
ATOM     66  C   UNL     1       9.550 -12.146  -3.405  1.00  0.00     0.023 A 
ATOM     67  C   UNL     1       9.896 -13.145  -2.478  1.00  0.00     0.031 A 
ATOM     68  C   UNL     1      10.507 -11.157  -3.692  1.00  0.00     0.131 A 
ATOM     69  C   UNL     1      11.130 -13.088  -1.814  1.00  0.00     0.055 A 
ATOM     70  C   UNL     1      11.767 -11.154  -3.090  1.00  0.00     0.041 A 
ATOM     71  F   UNL     1      10.229 -10.165  -4.553  1.00  0.00    -0.206 F 
ATOM     72  C   UNL     1      12.079 -12.114  -2.132  1.00  0.00     0.022 A 
BRANCH  69  73
ATOM     73  S   UNL     1      11.417 -14.216  -0.423  1.00  0.00     0.124 S 
ATOM     74  O   UNL     1      10.319 -13.863   0.474  1.00  0.00    -0.237 OA
ATOM     75  O   UNL     1      11.328 -15.527  -1.057  1.00  0.00    -0.237 OA
ATOM     76  O   UNL     1      12.746 -13.842   0.054  1.00  0.00    -0.744 OA
ENDBRANCH  69  73
ENDBRANCH  52  66
BRANCH  53  77
ATOM     77  C   UNL     1       0.337 -11.420  -7.303  1.00  0.00     0.023 A 
ATOM     78  C   UNL     1      -0.264 -12.456  -8.035  1.00  0.00     0.031 A 
ATOM     79  C   UNL     1      -0.365 -10.208  -7.179  1.00  0.00     0.131 A 
ATOM     80  C   UNL     1      -1.506 -12.247  -8.654  1.00  0.00     0.055 A 
ATOM     81  C   UNL     1      -1.624 -10.022  -7.752  1.00  0.00     0.041 A 
ATOM     82  F   UNL     1       0.161  -9.186  -6.484  1.00  0.00    -0.206 F 
ATOM     83  C   UNL     1      -2.196 -11.041  -8.507  1.00  0.00     0.022 A 
BRANCH  80  84
ATOM     84  S   UNL     1      -2.171 -13.548  -9.727  1.00  0.00     0.124 S 
ATOM     85  O   UNL     1      -1.105 -13.696 -10.711  1.00  0.00    -0.237 OA
ATOM     86  O   UNL     1      -2.340 -14.655  -8.791  1.00  0.00    -0.237 OA
ATOM     87  O   UNL     1      -3.413 -12.969 -10.234  1.00  0.00    -0.744 OA
ENDBRANCH  80  84
ENDBRANCH  53  77
BRANCH  65  88
ATOM     88  C   UNL     1       6.665 -12.433 -10.053  1.00  0.00     0.023 A 
ATOM     89  C   UNL     1       6.582 -11.416 -11.020  1.00  0.00     0.031 A 
ATOM     90  C   UNL     1       7.191 -13.678 -10.444  1.00  0.00     0.131 A 
ATOM     91  C   UNL     1       6.967 -11.678 -12.343  1.00  0.00     0.055 A 
ATOM     92  C   UNL     1       7.628 -13.914 -11.748  1.00  0.00     0.041 A 
ATOM     93  F   UNL     1       7.291 -14.685  -9.562  1.00  0.00    -0.206 F 
ATOM     94  C   UNL     1       7.505 -12.914 -12.709  1.00  0.00     0.022 A 
BRANCH  91  95
ATOM     95  S   UNL     1       6.674 -10.407 -13.603  1.00  0.00     0.124 S 
ATOM     96  O   UNL     1       5.228 -10.227 -13.523  1.00  0.00    -0.237 OA
ATOM     97  O   UNL     1       7.483  -9.293 -13.118  1.00  0.00    -0.237 OA
ATOM     98  O   UNL     1       7.154 -11.028 -14.836  1.00  0.00    -0.744 OA
ENDBRANCH  91  95
ENDBRANCH  65  88
ENDBRANCH  39  40
ENDBRANCH  31  34
ENDBRANCH  29  30
ENDBRANCH  28  29
ENDBRANCH  27  28
ENDBRANCH   1  27
TORSDOF 20
