REMARK SMILES Cc1ccc(NC(=O)C[C@@H]2C[NH2+]CCO2)c(C(=O)NCCCCCCNC(=O)c2ccc(-c3c4nc(c(-c5cc(S(=O)(=O)[O-])ccc5F)c5ccc([nH]5)c(-c5cc(S(=O)(=O)[O-])ccc5F)c5nc(c(-c6cc(S(=O)(=O)[O-])ccc6F)c6ccc3[nH]6)C=C5)C=C4)cc2)c1
REMARK SMILES IDX 22 1 21 2 20 3 19 4 17 5 18 6 16 8 1 9 2 10 3 11 92 12 4 13
REMARK SMILES IDX 5 14 6 15 7 16 8 18 9 19 10 20 11 21 15 22 12 23 14 24 13 25
REMARK SMILES IDX 23 28 24 29 25 30 26 31 27 32 28 34 29 35 30 36 91 37 31 38
REMARK SMILES IDX 90 39 32 40 33 41 34 42 84 43 35 44 89 45 83 46 85 47 36 48
REMARK SMILES IDX 88 49 82 50 81 51 37 53 69 54 49 55 68 56 50 57 53 58 67 59
REMARK SMILES IDX 86 60 51 61 52 62 66 64 87 65 54 66 38 67 39 68 47 69 40 70
REMARK SMILES IDX 46 71 48 72 45 73 41 74 42 75 43 76 44 77 70 78 71 79 79 80
REMARK SMILES IDX 72 81 78 82 80 83 77 84 73 85 74 86 75 87 76 88 55 89 56 90
REMARK SMILES IDX 64 91 57 92 63 93 65 94 62 95 58 96 59 97 60 98 61 99
REMARK H PARENT 19 7 6 17 12 26 12 27 26 33 85 52 53 63
REMARK Flexibility Score: inf
ROOT
ATOM      1  C   UNL     1       0.284   6.139  -0.869  1.00  0.00     0.002 C 
ENDROOT
BRANCH   1   2
ATOM      2  C   UNL     1       0.720   4.674  -0.725  1.00  0.00     0.021 C 
BRANCH   2   3
ATOM      3  C   UNL     1      -0.004   3.928   0.397  1.00  0.00     0.116 C 
BRANCH   3   4
ATOM      4  N   UNL     1      -1.296   3.447  -0.062  1.00  0.00    -0.352 N 
ATOM      5  C   UNL     1      -1.821   2.189  -0.211  1.00  0.00     0.253 C 
ATOM      6  O   UNL     1      -3.017   2.102  -0.497  1.00  0.00    -0.269 OA
ATOM      7  H   UNL     1      -1.918   4.167  -0.316  1.00  0.00     0.163 HD
BRANCH   5   8
ATOM      8  C   UNL     1      -1.031   0.949   0.060  1.00  0.00     0.063 A 
ATOM      9  C   UNL     1       2.589  -0.247  -0.125  1.00  0.00     0.044 C 
ATOM     10  C   UNL     1       1.123  -0.203   0.185  1.00  0.00    -0.050 A 
ATOM     11  C   UNL     1       0.501  -1.268   0.832  1.00  0.00     0.005 A 
ATOM     12  C   UNL     1       0.344   0.891  -0.215  1.00  0.00     0.019 A 
ATOM     13  C   UNL     1      -0.886  -1.276   0.997  1.00  0.00     0.027 A 
ATOM     14  C   UNL     1      -1.674  -0.219   0.529  1.00  0.00     0.054 A 
BRANCH  14  15
ATOM     15  N   UNL     1      -3.083  -0.322   0.433  1.00  0.00    -0.325 N 
ATOM     16  C   UNL     1      -3.888  -1.367   0.068  1.00  0.00     0.227 C 
ATOM     17  H   UNL     1      -3.568   0.501   0.671  1.00  0.00     0.169 HD
ATOM     18  O   UNL     1      -5.110  -1.182   0.015  1.00  0.00    -0.275 OA
BRANCH  16  19
ATOM     19  C   UNL     1      -3.349  -2.741  -0.274  1.00  0.00     0.138 C 
BRANCH  19  20
ATOM     20  C   UNL     1      -2.572  -2.878  -1.596  1.00  0.00     0.182 C 
ATOM     21  C   UNL     1      -1.701  -4.161  -1.519  1.00  0.00     0.293 C 
ATOM     22  O   UNL     1      -1.757  -1.733  -1.850  1.00  0.00    -0.366 OA
ATOM     23  N   UNL     1      -0.788  -4.343  -2.662  1.00  0.00    -0.342 N 
ATOM     24  C   UNL     1      -0.901  -1.885  -2.983  1.00  0.00     0.222 C 
ATOM     25  C   UNL     1       0.006  -3.107  -2.814  1.00  0.00     0.289 C 
ATOM     26  H   UNL     1      -1.327  -4.514  -3.511  1.00  0.00     0.346 HD
ATOM     27  H   UNL     1      -0.174  -5.141  -2.501  1.00  0.00     0.346 HD
ENDBRANCH  19  20
ENDBRANCH  16  19
ENDBRANCH  14  15
ENDBRANCH   5   8
ENDBRANCH   3   4
ENDBRANCH   2   3
ENDBRANCH   1   2
BRANCH   1  28
ATOM     28  C   UNL     1       0.449   7.005   0.392  1.00  0.00     0.002 C 
BRANCH  28  29
ATOM     29  C   UNL     1       1.830   6.969   1.047  1.00  0.00     0.021 C 
BRANCH  29  30
ATOM     30  C   UNL     1       2.917   7.624   0.200  1.00  0.00     0.116 C 
BRANCH  30  31
ATOM     31  N   UNL     1       3.367   8.912   0.717  1.00  0.00    -0.352 N 
ATOM     32  C   UNL     1       4.352   9.751   0.220  1.00  0.00     0.251 C 
ATOM     33  H   UNL     1       2.908   9.228   1.528  1.00  0.00     0.163 HD
ATOM     34  O   UNL     1       4.662  10.783   0.782  1.00  0.00    -0.269 OA
BRANCH  32  35
ATOM     35  C   UNL     1       4.933   9.428  -1.107  1.00  0.00     0.039 A 
ATOM     36  C   UNL     1       4.777  10.386  -2.114  1.00  0.00     0.014 A 
ATOM     37  C   UNL     1       5.366   8.140  -1.411  1.00  0.00     0.014 A 
ATOM     38  C   UNL     1       4.819   9.984  -3.446  1.00  0.00     0.010 A 
ATOM     39  C   UNL     1       5.329   7.722  -2.729  1.00  0.00     0.010 A 
ATOM     40  C   UNL     1       4.982   8.628  -3.737  1.00  0.00    -0.014 A 
BRANCH  40  41
ATOM     41  C   UNL     1       4.613   8.064  -5.032  1.00  0.00     0.031 A 
ATOM     42  C   UNL     1       5.632   7.645  -6.011  1.00  0.00     0.074 A 
ATOM     43  C   UNL     1       3.310   7.945  -5.371  1.00  0.00     0.049 A 
ATOM     44  N   UNL     1       5.455   7.710  -7.289  1.00  0.00    -0.248 NA
ATOM     45  C   UNL     1       6.947   7.145  -5.630  1.00  0.00     0.031 C 
ATOM     46  C   UNL     1       2.755   7.251  -6.530  1.00  0.00     0.029 A 
ATOM     47  N   UNL     1       2.235   8.659  -4.849  1.00  0.00    -0.354 N 
ATOM     48  C   UNL     1       6.482   7.023  -7.882  1.00  0.00     0.074 A 
ATOM     49  C   UNL     1       7.424   6.752  -6.817  1.00  0.00     0.031 C 
ATOM     50  C   UNL     1       1.540   7.754  -6.794  1.00  0.00     0.029 A 
ATOM     51  C   UNL     1       1.318   8.870  -5.893  1.00  0.00     0.049 A 
ATOM     52  H   UNL     1       2.135   8.961  -3.917  1.00  0.00     0.167 HD
ATOM     53  C   UNL     1       6.382   6.628  -9.181  1.00  0.00     0.034 A 
ATOM     54  C   UNL     1       0.955  10.133  -6.260  1.00  0.00     0.034 A 
ATOM     55  C   UNL     1       5.112   7.004  -9.795  1.00  0.00     0.049 A 
ATOM     56  C   UNL     1       1.321  10.500  -7.687  1.00  0.00     0.074 A 
ATOM     57  C   UNL     1       3.951   6.319 -10.114  1.00  0.00     0.029 A 
ATOM     58  N   UNL     1       4.815   8.346  -9.953  1.00  0.00    -0.354 N 
ATOM     59  N   UNL     1       1.934   9.712  -8.527  1.00  0.00    -0.248 NA
ATOM     60  C   UNL     1       1.113  11.838  -8.241  1.00  0.00     0.031 C 
ATOM     61  C   UNL     1       2.959   7.271 -10.489  1.00  0.00     0.029 A 
ATOM     62  C   UNL     1       3.524   8.529 -10.410  1.00  0.00     0.049 A 
ATOM     63  H   UNL     1       5.445   9.079  -9.764  1.00  0.00     0.167 HD
ATOM     64  C   UNL     1       2.286  10.422  -9.651  1.00  0.00     0.074 A 
ATOM     65  C   UNL     1       1.738  11.747  -9.427  1.00  0.00     0.031 C 
ATOM     66  C   UNL     1       3.055   9.886 -10.647  1.00  0.00     0.034 A 
BRANCH  53  67
ATOM     67  C   UNL     1       7.356   5.665  -9.803  1.00  0.00     0.023 A 
ATOM     68  C   UNL     1       6.892   4.681 -10.694  1.00  0.00     0.031 A 
ATOM     69  C   UNL     1       8.739   5.659  -9.540  1.00  0.00     0.131 A 
ATOM     70  C   UNL     1       7.752   3.692 -11.198  1.00  0.00     0.055 A 
ATOM     71  C   UNL     1       9.588   4.643  -9.997  1.00  0.00     0.041 A 
ATOM     72  F   UNL     1       9.319   6.649  -8.842  1.00  0.00    -0.206 F 
ATOM     73  C   UNL     1       9.091   3.641 -10.820  1.00  0.00     0.022 A 
BRANCH  70  74
ATOM     74  S   UNL     1       7.087   2.465 -12.356  1.00  0.00     0.124 S 
ATOM     75  O   UNL     1       5.986   1.884 -11.594  1.00  0.00    -0.237 OA
ATOM     76  O   UNL     1       6.713   3.292 -13.499  1.00  0.00    -0.237 OA
ATOM     77  O   UNL     1       8.218   1.568 -12.586  1.00  0.00    -0.744 OA
ENDBRANCH  70  74
ENDBRANCH  53  67
BRANCH  54  78
ATOM     78  C   UNL     1       0.912  11.079  -5.107  1.00  0.00     0.023 A 
ATOM     79  C   UNL     1       0.026  10.782  -4.048  1.00  0.00     0.031 A 
ATOM     80  C   UNL     1       1.937  12.004  -4.864  1.00  0.00     0.131 A 
ATOM     81  C   UNL     1       0.263  11.292  -2.763  1.00  0.00     0.055 A 
ATOM     82  C   UNL     1       2.135  12.554  -3.592  1.00  0.00     0.041 A 
ATOM     83  F   UNL     1       2.837  12.295  -5.814  1.00  0.00    -0.206 F 
ATOM     84  C   UNL     1       1.324  12.166  -2.526  1.00  0.00     0.022 A 
BRANCH  81  85
ATOM     85  S   UNL     1      -0.658  10.610  -1.354  1.00  0.00     0.124 S 
ATOM     86  O   UNL     1      -1.750  11.564  -1.210  1.00  0.00    -0.237 OA
ATOM     87  O   UNL     1      -1.035   9.278  -1.823  1.00  0.00    -0.237 OA
ATOM     88  O   UNL     1       0.331  10.613  -0.277  1.00  0.00    -0.744 OA
ENDBRANCH  81  85
ENDBRANCH  54  78
BRANCH  66  89
ATOM     89  C   UNL     1       3.479  10.613 -11.908  1.00  0.00     0.023 A 
ATOM     90  C   UNL     1       2.704  11.622 -12.502  1.00  0.00     0.031 A 
ATOM     91  C   UNL     1       4.663  10.263 -12.606  1.00  0.00     0.131 A 
ATOM     92  C   UNL     1       3.150  12.297 -13.655  1.00  0.00     0.055 A 
ATOM     93  C   UNL     1       5.068  10.886 -13.790  1.00  0.00     0.041 A 
ATOM     94  F   UNL     1       5.498   9.314 -12.161  1.00  0.00    -0.206 F 
ATOM     95  C   UNL     1       4.320  11.926 -14.313  1.00  0.00     0.022 A 
BRANCH  92  96
ATOM     96  S   UNL     1       2.197  13.718 -14.252  1.00  0.00     0.124 S 
ATOM     97  O   UNL     1       0.862  13.153 -14.423  1.00  0.00    -0.237 OA
ATOM     98  O   UNL     1       2.350  14.662 -13.148  1.00  0.00    -0.237 OA
ATOM     99  O   UNL     1       2.876  14.095 -15.489  1.00  0.00    -0.744 OA
ENDBRANCH  92  96
ENDBRANCH  66  89
ENDBRANCH  40  41
ENDBRANCH  32  35
ENDBRANCH  30  31
ENDBRANCH  29  30
ENDBRANCH  28  29
ENDBRANCH   1  28
TORSDOF 19
