REMARK SMILES CN1C(=O)C[C@H](C(=O)Nc2ccc(C(=O)NCCCCCCNC(=O)c3ccc(-c4c5nc(c(-c6cc(S(=O)(=O)[O-])ccc6F)c6ccc([nH]6)c(-c6cc(S(=O)(=O)[O-])ccc6F)c6nc(c(-c7cc(S(=O)(=O)[O-])ccc7F)c7ccc4[nH]7)C=C6)C=C5)cc3)cc2)S/C1=[NH+]\c1cccc(C(F)(F)F)c1
REMARK SMILES IDX 19 1 18 2 17 3 16 4 14 5 15 6 13 8 10 9 11 10 90 11 12 12
REMARK SMILES IDX 89 13 9 14 7 15 8 16 6 18 1 19 2 20 3 21 92 22 4 23 5 24
REMARK SMILES IDX 91 25 93 26 94 28 95 29 103 30 96 31 98 32 97 33 99 34
REMARK SMILES IDX 100 35 101 36 102 37 20 38 21 39 22 40 23 41 24 42 25 44
REMARK SMILES IDX 26 45 27 46 88 47 28 48 87 49 29 50 30 51 31 52 81 53 32 54
REMARK SMILES IDX 86 55 80 56 82 57 33 58 85 59 79 60 78 61 34 63 66 64 46 65
REMARK SMILES IDX 65 66 47 67 50 68 64 69 83 70 48 71 49 72 63 74 84 75 51 76
REMARK SMILES IDX 35 77 36 78 44 79 37 80 43 81 45 82 42 83 38 84 39 85 40 86
REMARK SMILES IDX 41 87 67 88 68 89 76 90 69 91 75 92 77 93 74 94 70 95 71 96
REMARK SMILES IDX 72 97 73 98 52 99 53 100 61 101 54 102 60 103 62 104 59 105
REMARK SMILES IDX 55 106 56 107 57 108 58 109
REMARK H PARENT 16 7 9 17 93 27 23 43 82 62 50 73
REMARK Flexibility Score: inf
ROOT
ATOM      1  C   UNL     1       4.425   0.149  -3.085  1.00  0.00     0.002 C 
ENDROOT
BRANCH   1   2
ATOM      2  C   UNL     1       3.778   0.123  -1.696  1.00  0.00     0.021 C 
BRANCH   2   3
ATOM      3  C   UNL     1       3.819  -1.256  -1.035  1.00  0.00     0.116 C 
BRANCH   3   4
ATOM      4  N   UNL     1       5.015  -1.418  -0.235  1.00  0.00    -0.352 N 
ATOM      5  C   UNL     1       5.251  -1.244   1.109  1.00  0.00     0.251 C 
ATOM      6  O   UNL     1       6.383  -1.510   1.519  1.00  0.00    -0.269 OA
ATOM      7  H   UNL     1       5.805  -1.706  -0.747  1.00  0.00     0.163 HD
BRANCH   5   8
ATOM      8  C   UNL     1       4.194  -0.860   2.103  1.00  0.00     0.039 A 
ATOM      9  C   UNL     1       2.054  -0.838   3.948  1.00  0.00     0.041 A 
ATOM     10  C   UNL     1       3.338  -1.223   4.352  1.00  0.00     0.027 A 
ATOM     11  C   UNL     1       1.937  -0.178   2.737  1.00  0.00     0.027 A 
ATOM     12  C   UNL     1       4.385  -1.286   3.422  1.00  0.00     0.016 A 
ATOM     13  C   UNL     1       3.019  -0.160   1.830  1.00  0.00     0.016 A 
BRANCH   9  14
ATOM     14  N   UNL     1       1.010  -1.097   4.843  1.00  0.00    -0.325 N 
ATOM     15  C   UNL     1      -0.247  -1.613   4.812  1.00  0.00     0.238 C 
ATOM     16  O   UNL     1      -0.811  -1.581   5.922  1.00  0.00    -0.273 OA
ATOM     17  H   UNL     1       1.257  -0.829   5.758  1.00  0.00     0.169 HD
BRANCH  15  18
ATOM     18  C   UNL     1      -1.014  -2.308   3.683  1.00  0.00     0.160 C 
ATOM     19  C   UNL     1       0.364  -1.272  -0.302  1.00  0.00     0.301 C 
ATOM     20  N   UNL     1      -0.094  -1.793   0.976  1.00  0.00    -0.194 N 
ATOM     21  C   UNL     1      -1.047  -0.967   1.580  1.00  0.00     0.311 C 
ATOM     22  C   UNL     1       0.579  -2.883   1.563  1.00  0.00     0.319 C 
ATOM     23  O   UNL     1      -1.253   0.191   1.206  1.00  0.00    -0.247 OA
ATOM     24  C   UNL     1      -1.830  -1.496   2.730  1.00  0.00     0.153 C 
ATOM     25  S   UNL     1      -0.232  -3.680   2.882  1.00  0.00    -0.024 SA
ATOM     26  N   UNL     1       1.737  -3.280   1.123  1.00  0.00    -0.235 N 
ATOM     27  H   UNL     1       2.109  -2.852   0.318  1.00  0.00     0.313 HD
BRANCH  26  28
ATOM     28  C   UNL     1       2.485  -4.304   1.758  1.00  0.00     0.126 A 
ATOM     29  C   UNL     1       2.873  -4.248   3.106  1.00  0.00     0.052 A 
ATOM     30  C   UNL     1       2.913  -5.405   1.023  1.00  0.00     0.064 A 
ATOM     31  C   UNL     1       3.669  -5.218   3.710  1.00  0.00     0.005 A 
ATOM     32  C   UNL     1       3.670  -6.432   1.626  1.00  0.00     0.060 A 
ATOM     33  C   UNL     1       4.068  -6.314   2.967  1.00  0.00     0.013 A 
BRANCH  32  34
ATOM     34  C   UNL     1       4.023  -7.683   0.871  1.00  0.00     0.416 C 
ATOM     35  F   UNL     1       5.367  -7.877   0.773  1.00  0.00    -0.166 F 
ATOM     36  F   UNL     1       3.531  -8.800   1.480  1.00  0.00    -0.166 F 
ATOM     37  F   UNL     1       3.542  -7.712  -0.402  1.00  0.00    -0.166 F 
ENDBRANCH  32  34
ENDBRANCH  26  28
ENDBRANCH  15  18
ENDBRANCH   9  14
ENDBRANCH   5   8
ENDBRANCH   3   4
ENDBRANCH   2   3
ENDBRANCH   1   2
BRANCH   1  38
ATOM     38  C   UNL     1       3.586  -0.498  -4.195  1.00  0.00     0.002 C 
BRANCH  38  39
ATOM     39  C   UNL     1       2.212   0.134  -4.447  1.00  0.00     0.021 C 
BRANCH  39  40
ATOM     40  C   UNL     1       2.223   1.627  -4.771  1.00  0.00     0.116 C 
BRANCH  40  41
ATOM     41  N   UNL     1       2.957   1.919  -5.990  1.00  0.00    -0.352 N 
ATOM     42  C   UNL     1       2.563   2.600  -7.118  1.00  0.00     0.251 C 
ATOM     43  H   UNL     1       3.880   1.576  -6.013  1.00  0.00     0.163 HD
ATOM     44  O   UNL     1       3.266   2.554  -8.120  1.00  0.00    -0.269 OA
BRANCH  42  45
ATOM     45  C   UNL     1       1.292   3.364  -7.134  1.00  0.00     0.039 A 
ATOM     46  C   UNL     1       0.499   3.320  -8.285  1.00  0.00     0.014 A 
ATOM     47  C   UNL     1       0.893   4.147  -6.047  1.00  0.00     0.014 A 
ATOM     48  C   UNL     1      -0.714   4.013  -8.322  1.00  0.00     0.010 A 
ATOM     49  C   UNL     1      -0.352   4.777  -6.058  1.00  0.00     0.010 A 
ATOM     50  C   UNL     1      -1.170   4.719  -7.196  1.00  0.00    -0.014 A 
BRANCH  50  51
ATOM     51  C   UNL     1      -2.497   5.397  -7.207  1.00  0.00     0.031 A 
ATOM     52  C   UNL     1      -2.591   6.894  -7.074  1.00  0.00     0.074 A 
ATOM     53  C   UNL     1      -3.620   4.658  -7.318  1.00  0.00     0.049 A 
ATOM     54  N   UNL     1      -3.655   7.656  -7.034  1.00  0.00    -0.248 NA
ATOM     55  C   UNL     1      -1.324   7.631  -6.947  1.00  0.00     0.031 C 
ATOM     56  C   UNL     1      -3.662   3.197  -7.420  1.00  0.00     0.029 A 
ATOM     57  N   UNL     1      -4.942   5.028  -7.366  1.00  0.00    -0.354 N 
ATOM     58  C   UNL     1      -3.188   8.958  -6.892  1.00  0.00     0.074 A 
ATOM     59  C   UNL     1      -1.748   8.874  -6.772  1.00  0.00     0.031 C 
ATOM     60  C   UNL     1      -4.938   2.801  -7.552  1.00  0.00     0.029 A 
ATOM     61  C   UNL     1      -5.811   3.968  -7.492  1.00  0.00     0.049 A 
ATOM     62  H   UNL     1      -5.240   5.965  -7.315  1.00  0.00     0.167 HD
ATOM     63  C   UNL     1      -3.889  10.120  -6.895  1.00  0.00     0.034 A 
ATOM     64  C   UNL     1      -7.159   3.937  -7.543  1.00  0.00     0.034 A 
ATOM     65  C   UNL     1      -5.325  10.194  -7.010  1.00  0.00     0.049 A 
ATOM     66  C   UNL     1      -7.917   5.243  -7.487  1.00  0.00     0.074 A 
ATOM     67  C   UNL     1      -6.132  11.318  -7.033  1.00  0.00     0.029 A 
ATOM     68  N   UNL     1      -6.172   9.099  -7.123  1.00  0.00    -0.354 N 
ATOM     69  N   UNL     1      -7.450   6.467  -7.391  1.00  0.00    -0.248 NA
ATOM     70  C   UNL     1      -9.381   5.162  -7.563  1.00  0.00     0.031 C 
ATOM     71  C   UNL     1      -7.466  10.903  -7.094  1.00  0.00     0.029 A 
ATOM     72  C   UNL     1      -7.492   9.522  -7.193  1.00  0.00     0.049 A 
ATOM     73  H   UNL     1      -5.879   8.159  -7.149  1.00  0.00     0.167 HD
ATOM     74  C   UNL     1      -8.566   7.301  -7.437  1.00  0.00     0.074 A 
ATOM     75  C   UNL     1      -9.719   6.441  -7.596  1.00  0.00     0.031 C 
ATOM     76  C   UNL     1      -8.634   8.654  -7.353  1.00  0.00     0.034 A 
BRANCH  63  77
ATOM     77  C   UNL     1      -3.107  11.406  -6.768  1.00  0.00     0.023 A 
ATOM     78  C   UNL     1      -2.185  11.800  -7.754  1.00  0.00     0.031 A 
ATOM     79  C   UNL     1      -3.282  12.250  -5.658  1.00  0.00     0.131 A 
ATOM     80  C   UNL     1      -1.430  12.970  -7.582  1.00  0.00     0.055 A 
ATOM     81  C   UNL     1      -2.587  13.454  -5.531  1.00  0.00     0.041 A 
ATOM     82  F   UNL     1      -4.133  11.917  -4.673  1.00  0.00    -0.206 F 
ATOM     83  C   UNL     1      -1.645  13.815  -6.491  1.00  0.00     0.022 A 
BRANCH  80  84
ATOM     84  S   UNL     1      -0.077  13.306  -8.741  1.00  0.00     0.124 S 
ATOM     85  O   UNL     1       0.773  12.133  -8.548  1.00  0.00    -0.237 OA
ATOM     86  O   UNL     1      -0.770  13.389 -10.021  1.00  0.00    -0.237 OA
ATOM     87  O   UNL     1       0.487  14.563  -8.254  1.00  0.00    -0.744 OA
ENDBRANCH  80  84
ENDBRANCH  63  77
BRANCH  64  88
ATOM     88  C   UNL     1      -7.895   2.641  -7.634  1.00  0.00     0.023 A 
ATOM     89  C   UNL     1      -8.753   2.369  -8.712  1.00  0.00     0.031 A 
ATOM     90  C   UNL     1      -7.827   1.693  -6.597  1.00  0.00     0.131 A 
ATOM     91  C   UNL     1      -9.567   1.226  -8.690  1.00  0.00     0.055 A 
ATOM     92  C   UNL     1      -8.583   0.519  -6.616  1.00  0.00     0.041 A 
ATOM     93  F   UNL     1      -7.024   1.897  -5.540  1.00  0.00    -0.206 F 
ATOM     94  C   UNL     1      -9.477   0.291  -7.657  1.00  0.00     0.022 A 
BRANCH  91  95
ATOM     95  S   UNL     1     -10.855   1.055  -9.957  1.00  0.00     0.124 S 
ATOM     96  O   UNL     1     -11.579   2.313  -9.813  1.00  0.00    -0.237 OA
ATOM     97  O   UNL     1     -10.063   0.905 -11.173  1.00  0.00    -0.237 OA
ATOM     98  O   UNL     1     -11.586  -0.139  -9.539  1.00  0.00    -0.744 OA
ENDBRANCH  91  95
ENDBRANCH  64  88
BRANCH  76  99
ATOM     99  C   UNL     1     -10.001   9.282  -7.490  1.00  0.00     0.023 A 
ATOM    100  C   UNL     1     -11.021   9.052  -6.550  1.00  0.00     0.031 A 
ATOM    101  C   UNL     1     -10.296  10.099  -8.597  1.00  0.00     0.131 A 
ATOM    102  C   UNL     1     -12.307   9.567  -6.772  1.00  0.00     0.055 A 
ATOM    103  C   UNL     1     -11.557  10.670  -8.774  1.00  0.00     0.041 A 
ATOM    104  F   UNL     1      -9.363  10.353  -9.528  1.00  0.00    -0.206 F 
ATOM    105  C   UNL     1     -12.576  10.391  -7.868  1.00  0.00     0.022 A 
BRANCH 102 106
ATOM    106  S   UNL     1     -13.652   9.049  -5.671  1.00  0.00     0.124 S 
ATOM    107  O   UNL     1     -13.614   7.597  -5.808  1.00  0.00    -0.237 OA
ATOM    108  O   UNL     1     -13.221   9.579  -4.382  1.00  0.00    -0.237 OA
ATOM    109  O   UNL     1     -14.832   9.696  -6.244  1.00  0.00    -0.744 OA
ENDBRANCH 102 106
ENDBRANCH  76  99
ENDBRANCH  50  51
ENDBRANCH  42  45
ENDBRANCH  40  41
ENDBRANCH  39  40
ENDBRANCH  38  39
ENDBRANCH   1  38
TORSDOF 20
