REMARK SMILES CS(=O)(=O)c1ccc(/C=C(/C(=O)NCCCCCCNC(=O)c2ccc(-c3c4nc(c(-c5cc(S(=O)(=O)[O-])ccc5F)c5ccc([nH]5)c(-c5cc(S(=O)(=O)[O-])ccc5F)c5nc(c(-c6cc(S(=O)(=O)[O-])ccc6F)c6ccc3[nH]6)C=C5)C=C4)cc2)c2ccc(-c3ccc(S(C)(=O)=O)cc3)cc2)cc1
REMARK SMILES IDX 16 1 15 2 14 3 13 4 11 5 12 6 10 8 9 9 8 10 5 11 6 12 103 13
REMARK SMILES IDX 7 14 102 15 2 16 1 17 3 18 4 19 86 20 87 21 101 22 88 23
REMARK SMILES IDX 100 24 89 25 90 26 91 27 99 28 92 29 98 30 93 31 94 32 95 33
REMARK SMILES IDX 96 34 97 35 17 36 18 37 19 38 20 39 21 40 22 42 23 43 24 44
REMARK SMILES IDX 85 45 25 46 84 47 26 48 27 49 28 50 78 51 29 52 83 53 77 54
REMARK SMILES IDX 79 55 30 56 82 57 76 58 75 59 31 61 63 62 43 63 62 64 44 65
REMARK SMILES IDX 47 66 61 67 80 68 45 69 46 70 60 72 81 73 48 74 32 75 33 76
REMARK SMILES IDX 41 77 34 78 40 79 42 80 39 81 35 82 36 83 37 84 38 85 64 86
REMARK SMILES IDX 65 87 73 88 66 89 72 90 74 91 71 92 67 93 68 94 69 95 70 96
REMARK SMILES IDX 49 97 50 98 58 99 51 100 57 101 59 102 56 103 52 104 53 105
REMARK SMILES IDX 54 106 55 107
REMARK H PARENT 13 7 20 41 79 60 47 71
REMARK Flexibility Score: inf
ROOT
ATOM      1  C   UNL     1       2.056   5.712  10.072  1.00  0.00     0.002 C 
ENDROOT
BRANCH   1   2
ATOM      2  C   UNL     1       1.814   5.211   8.638  1.00  0.00     0.021 C 
BRANCH   2   3
ATOM      3  C   UNL     1       2.979   4.394   8.071  1.00  0.00     0.116 C 
BRANCH   3   4
ATOM      4  N   UNL     1       3.030   3.101   8.726  1.00  0.00    -0.352 N 
ATOM      5  C   UNL     1       2.646   1.848   8.376  1.00  0.00     0.251 C 
ATOM      6  O   UNL     1       2.757   0.984   9.251  1.00  0.00    -0.269 OA
ATOM      7  H   UNL     1       3.432   3.142   9.624  1.00  0.00     0.163 HD
BRANCH   5   8
ATOM      8  C   UNL     1       2.199   1.466   6.984  1.00  0.00     0.047 C 
ATOM      9  C   UNL     1       1.480   2.291   6.188  1.00  0.00     0.022 C 
BRANCH   9  10
ATOM     10  C   UNL     1       1.074   2.098   4.776  1.00  0.00    -0.025 A 
ATOM     11  C   UNL     1       0.487   1.822   2.042  1.00  0.00     0.067 A 
ATOM     12  C   UNL     1       0.165   0.794   2.929  1.00  0.00     0.021 A 
ATOM     13  C   UNL     1       1.050   3.009   2.511  1.00  0.00     0.021 A 
ATOM     14  C   UNL     1       0.444   0.944   4.292  1.00  0.00     0.009 A 
ATOM     15  C   UNL     1       1.340   3.141   3.873  1.00  0.00     0.009 A 
BRANCH  11  16
ATOM     16  S   UNL     1       0.165   1.622   0.305  1.00  0.00     0.175 S 
ATOM     17  C   UNL     1       1.030   0.140  -0.145  1.00  0.00     0.163 C 
ATOM     18  O   UNL     1       0.806   2.715  -0.393  1.00  0.00    -0.224 OA
ATOM     19  O   UNL     1      -1.260   1.370   0.170  1.00  0.00    -0.224 OA
ENDBRANCH  11  16
ENDBRANCH   9  10
BRANCH   8  20
ATOM     20  C   UNL     1       2.412   0.052   6.587  1.00  0.00    -0.013 A 
ATOM     21  C   UNL     1       1.662  -0.937   7.238  1.00  0.00     0.009 A 
ATOM     22  C   UNL     1       3.243  -0.320   5.526  1.00  0.00     0.009 A 
ATOM     23  C   UNL     1       1.683  -2.258   6.793  1.00  0.00     0.009 A 
ATOM     24  C   UNL     1       3.250  -1.646   5.072  1.00  0.00     0.009 A 
ATOM     25  C   UNL     1       2.442  -2.628   5.674  1.00  0.00    -0.018 A 
BRANCH  25  26
ATOM     26  C   UNL     1       2.330  -3.989   5.118  1.00  0.00    -0.018 A 
ATOM     27  C   UNL     1       1.061  -4.568   4.918  1.00  0.00     0.010 A 
ATOM     28  C   UNL     1       3.461  -4.734   4.747  1.00  0.00     0.010 A 
ATOM     29  C   UNL     1       0.921  -5.843   4.370  1.00  0.00     0.021 A 
ATOM     30  C   UNL     1       3.333  -6.014   4.198  1.00  0.00     0.021 A 
ATOM     31  C   UNL     1       2.062  -6.563   4.021  1.00  0.00     0.067 A 
BRANCH  31  32
ATOM     32  S   UNL     1       1.873  -8.180   3.314  1.00  0.00     0.175 S 
ATOM     33  C   UNL     1       1.276  -9.160   4.667  1.00  0.00     0.163 C 
ATOM     34  O   UNL     1       0.822  -8.091   2.319  1.00  0.00    -0.224 OA
ATOM     35  O   UNL     1       3.192  -8.671   2.964  1.00  0.00    -0.224 OA
ENDBRANCH  31  32
ENDBRANCH  25  26
ENDBRANCH   8  20
ENDBRANCH   5   8
ENDBRANCH   3   4
ENDBRANCH   2   3
ENDBRANCH   1   2
BRANCH   1  36
ATOM     36  C   UNL     1       3.230   6.685  10.232  1.00  0.00     0.002 C 
BRANCH  36  37
ATOM     37  C   UNL     1       3.183   7.912   9.318  1.00  0.00     0.021 C 
BRANCH  37  38
ATOM     38  C   UNL     1       1.947   8.789   9.501  1.00  0.00     0.116 C 
BRANCH  38  39
ATOM     39  N   UNL     1       1.937   9.444  10.800  1.00  0.00    -0.352 N 
ATOM     40  C   UNL     1       1.907  10.787  11.088  1.00  0.00     0.251 C 
ATOM     41  H   UNL     1       1.954   8.842  11.579  1.00  0.00     0.163 HD
ATOM     42  O   UNL     1       2.123  11.177  12.232  1.00  0.00    -0.269 OA
BRANCH  40  43
ATOM     43  C   UNL     1       1.635  11.756  10.005  1.00  0.00     0.039 A 
ATOM     44  C   UNL     1       2.481  12.856   9.845  1.00  0.00     0.014 A 
ATOM     45  C   UNL     1       0.555  11.562   9.138  1.00  0.00     0.014 A 
ATOM     46  C   UNL     1       2.291  13.722   8.765  1.00  0.00     0.010 A 
ATOM     47  C   UNL     1       0.402  12.393   8.031  1.00  0.00     0.010 A 
ATOM     48  C   UNL     1       1.274  13.474   7.828  1.00  0.00    -0.014 A 
BRANCH  48  49
ATOM     49  C   UNL     1       1.112  14.316   6.615  1.00  0.00     0.031 A 
ATOM     50  C   UNL     1      -0.130  15.143   6.435  1.00  0.00     0.074 A 
ATOM     51  C   UNL     1       2.039  14.262   5.639  1.00  0.00     0.049 A 
ATOM     52  N   UNL     1      -0.520  15.836   5.396  1.00  0.00    -0.248 NA
ATOM     53  C   UNL     1      -1.067  15.170   7.567  1.00  0.00     0.031 C 
ATOM     54  C   UNL     1       3.273  13.474   5.688  1.00  0.00     0.029 A 
ATOM     55  N   UNL     1       2.081  14.864   4.406  1.00  0.00    -0.354 N 
ATOM     56  C   UNL     1      -1.756  16.372   5.742  1.00  0.00     0.074 A 
ATOM     57  C   UNL     1      -2.069  15.878   7.067  1.00  0.00     0.031 C 
ATOM     58  C   UNL     1       3.952  13.648   4.542  1.00  0.00     0.029 A 
ATOM     59  C   UNL     1       3.182  14.517   3.658  1.00  0.00     0.049 A 
ATOM     60  H   UNL     1       1.388  15.486   4.087  1.00  0.00     0.167 HD
ATOM     61  C   UNL     1      -2.545  17.213   5.027  1.00  0.00     0.034 A 
ATOM     62  C   UNL     1       3.520  14.839   2.394  1.00  0.00     0.034 A 
ATOM     63  C   UNL     1      -2.212  17.701   3.711  1.00  0.00     0.049 A 
ATOM     64  C   UNL     1       2.601  15.729   1.597  1.00  0.00     0.074 A 
ATOM     65  C   UNL     1      -2.903  18.608   2.927  1.00  0.00     0.029 A 
ATOM     66  N   UNL     1      -1.098  17.312   2.978  1.00  0.00    -0.354 N 
ATOM     67  N   UNL     1       1.458  16.266   1.956  1.00  0.00    -0.248 NA
ATOM     68  C   UNL     1       3.017  16.055   0.227  1.00  0.00     0.031 C 
ATOM     69  C   UNL     1      -2.244  18.716   1.696  1.00  0.00     0.029 A 
ATOM     70  C   UNL     1      -1.105  17.929   1.736  1.00  0.00     0.049 A 
ATOM     71  H   UNL     1      -0.404  16.688   3.294  1.00  0.00     0.167 HD
ATOM     72  C   UNL     1       1.029  17.010   0.860  1.00  0.00     0.074 A 
ATOM     73  C   UNL     1       2.042  16.863  -0.165  1.00  0.00     0.031 C 
ATOM     74  C   UNL     1      -0.098  17.753   0.716  1.00  0.00     0.034 A 
BRANCH  61  75
ATOM     75  C   UNL     1      -3.855  17.628   5.650  1.00  0.00     0.023 A 
ATOM     76  C   UNL     1      -3.902  18.378   6.838  1.00  0.00     0.031 A 
ATOM     77  C   UNL     1      -5.075  17.245   5.066  1.00  0.00     0.131 A 
ATOM     78  C   UNL     1      -5.136  18.651   7.447  1.00  0.00     0.055 A 
ATOM     79  C   UNL     1      -6.304  17.589   5.634  1.00  0.00     0.041 A 
ATOM     80  F   UNL     1      -5.094  16.513   3.941  1.00  0.00    -0.206 F 
ATOM     81  C   UNL     1      -6.339  18.282   6.840  1.00  0.00     0.022 A 
BRANCH  78  82
ATOM     82  S   UNL     1      -5.139  19.366   9.113  1.00  0.00     0.124 S 
ATOM     83  O   UNL     1      -4.388  18.364   9.866  1.00  0.00    -0.237 OA
ATOM     84  O   UNL     1      -4.471  20.646   8.908  1.00  0.00    -0.237 OA
ATOM     85  O   UNL     1      -6.560  19.450   9.448  1.00  0.00    -0.744 OA
ENDBRANCH  78  82
ENDBRANCH  61  75
BRANCH  62  86
ATOM     86  C   UNL     1       4.767  14.296   1.786  1.00  0.00     0.023 A 
ATOM     87  C   UNL     1       5.831  15.144   1.442  1.00  0.00     0.031 A 
ATOM     88  C   UNL     1       4.899  12.924   1.508  1.00  0.00     0.131 A 
ATOM     89  C   UNL     1       6.966  14.619   0.806  1.00  0.00     0.055 A 
ATOM     90  C   UNL     1       6.049  12.399   0.916  1.00  0.00     0.041 A 
ATOM     91  F   UNL     1       3.912  12.069   1.823  1.00  0.00    -0.206 F 
ATOM     92  C   UNL     1       7.087  13.251   0.551  1.00  0.00     0.022 A 
BRANCH  89  93
ATOM     93  S   UNL     1       8.259  15.764   0.253  1.00  0.00     0.124 S 
ATOM     94  O   UNL     1       7.519  16.633  -0.655  1.00  0.00    -0.237 OA
ATOM     95  O   UNL     1       8.689  16.365   1.511  1.00  0.00    -0.237 OA
ATOM     96  O   UNL     1       9.240  14.886  -0.383  1.00  0.00    -0.744 OA
ENDBRANCH  89  93
ENDBRANCH  62  86
BRANCH  74  97
ATOM     97  C   UNL     1      -0.271  18.482  -0.591  1.00  0.00     0.023 A 
ATOM     98  C   UNL     1      -0.537  17.794  -1.788  1.00  0.00     0.031 A 
ATOM     99  C   UNL     1      -0.167  19.883  -0.639  1.00  0.00     0.131 A 
ATOM    100  C   UNL     1      -0.649  18.507  -2.991  1.00  0.00     0.055 A 
ATOM    101  C   UNL     1      -0.330  20.591  -1.830  1.00  0.00     0.041 A 
ATOM    102  F   UNL     1       0.088  20.587   0.476  1.00  0.00    -0.206 F 
ATOM    103  C   UNL     1      -0.563  19.902  -3.017  1.00  0.00     0.022 A 
BRANCH 100 104
ATOM    104  S   UNL     1      -0.847  17.581  -4.538  1.00  0.00     0.124 S 
ATOM    105  O   UNL     1       0.392  16.812  -4.591  1.00  0.00    -0.237 OA
ATOM    106  O   UNL     1      -2.064  16.814  -4.292  1.00  0.00    -0.237 OA
ATOM    107  O   UNL     1      -0.971  18.628  -5.551  1.00  0.00    -0.744 OA
ENDBRANCH 100 104
ENDBRANCH  74  97
ENDBRANCH  48  49
ENDBRANCH  40  43
ENDBRANCH  38  39
ENDBRANCH  37  38
ENDBRANCH  36  37
ENDBRANCH   1  36
TORSDOF 21
