REMARK SMILES C/C(=C\C(=O)NCCCCCCNC(=O)c1ccc(-c2c3nc(c(-c4cc(S(=O)(=O)[O-])ccc4F)c4ccc([nH]4)c(-c4cc(S(=O)(=O)[O-])ccc4F)c4nc(c(-c5cc(S(=O)(=O)[O-])ccc5F)c5ccc2[nH]5)C=C4)C=C3)cc1)CSc1ccc(N)c(C)c1
REMARK SMILES IDX 9 1 8 2 7 3 6 4 4 5 5 6 3 8 1 9 2 10 79 11 80 12 81 13 82 14
REMARK SMILES IDX 88 15 83 16 86 17 84 18 87 19 85 20 10 23 11 24 12 25 13 26
REMARK SMILES IDX 14 27 15 29 16 30 17 31 78 32 18 33 77 34 19 35 20 36 21 37
REMARK SMILES IDX 71 38 22 39 76 40 70 41 72 42 23 43 75 44 69 45 68 46 24 48
REMARK SMILES IDX 56 49 36 50 55 51 37 52 40 53 54 54 73 55 38 56 39 57 53 59
REMARK SMILES IDX 74 60 41 61 25 62 26 63 34 64 27 65 33 66 35 67 32 68 28 69
REMARK SMILES IDX 29 70 30 71 31 72 57 73 58 74 66 75 59 76 65 77 67 78 64 79
REMARK SMILES IDX 60 80 61 81 62 82 63 83 42 84 43 85 51 86 44 87 50 88 52 89
REMARK SMILES IDX 49 90 45 91 46 92 47 93 48 94
REMARK H PARENT 6 7 85 21 85 22 13 28 72 47 40 58
REMARK Flexibility Score: inf
ROOT
ATOM      1  C   UNL     1      -0.211  -3.066   2.429  1.00  0.00     0.002 C 
ENDROOT
BRANCH   1   2
ATOM      2  C   UNL     1       0.055  -1.837   1.551  1.00  0.00     0.021 C 
BRANCH   2   3
ATOM      3  C   UNL     1       0.804  -2.166   0.259  1.00  0.00     0.116 C 
BRANCH   3   4
ATOM      4  N   UNL     1      -0.078  -2.240  -0.879  1.00  0.00    -0.353 N 
ATOM      5  C   UNL     1      -0.408  -1.399  -1.875  1.00  0.00     0.243 C 
ATOM      6  O   UNL     1      -1.150  -1.861  -2.751  1.00  0.00    -0.270 OA
ATOM      7  H   UNL     1      -0.546  -3.103  -0.941  1.00  0.00     0.163 HD
BRANCH   5   8
ATOM      8  C   UNL     1      -0.030   0.037  -2.019  1.00  0.00     0.071 C 
ATOM      9  C   UNL     1       1.534   0.944  -0.202  1.00  0.00     0.040 C 
ATOM     10  C   UNL     1       0.671   1.030  -1.425  1.00  0.00    -0.058 C 
BRANCH  10  11
ATOM     11  C   UNL     1       0.567   2.427  -2.026  1.00  0.00     0.105 C 
BRANCH  11  12
ATOM     12  S   UNL     1       0.012   3.710  -0.838  1.00  0.00    -0.122 SA
BRANCH  12  13
ATOM     13  C   UNL     1      -1.709   3.346  -0.541  1.00  0.00     0.008 A 
ATOM     14  C   UNL     1      -2.594   4.419  -0.441  1.00  0.00     0.017 A 
ATOM     15  C   UNL     1      -2.206   2.067  -0.288  1.00  0.00     0.020 A 
ATOM     16  C   UNL     1      -3.944   4.206  -0.142  1.00  0.00     0.027 A 
ATOM     17  C   UNL     1      -3.568   1.832  -0.024  1.00  0.00    -0.027 A 
ATOM     18  C   UNL     1      -4.454   2.916   0.036  1.00  0.00     0.034 A 
ATOM     19  C   UNL     1      -4.024   0.416   0.202  1.00  0.00     0.046 C 
BRANCH  18  20
ATOM     20  N   UNL     1      -5.786   2.752   0.380  1.00  0.00    -0.399 N 
ATOM     21  H   UNL     1      -6.385   3.533   0.414  1.00  0.00     0.156 HD
ATOM     22  H   UNL     1      -6.134   1.855   0.589  1.00  0.00     0.156 HD
ENDBRANCH  18  20
ENDBRANCH  12  13
ENDBRANCH  11  12
ENDBRANCH  10  11
ENDBRANCH   5   8
ENDBRANCH   3   4
ENDBRANCH   2   3
ENDBRANCH   1   2
BRANCH   1  23
ATOM     23  C   UNL     1       1.048  -3.793   2.922  1.00  0.00     0.002 C 
BRANCH  23  24
ATOM     24  C   UNL     1       2.049  -2.924   3.690  1.00  0.00     0.021 C 
BRANCH  24  25
ATOM     25  C   UNL     1       1.502  -2.318   4.979  1.00  0.00     0.116 C 
BRANCH  25  26
ATOM     26  N   UNL     1       1.107  -3.351   5.923  1.00  0.00    -0.352 N 
ATOM     27  C   UNL     1       1.590  -3.621   7.178  1.00  0.00     0.251 C 
ATOM     28  H   UNL     1       0.385  -3.946   5.615  1.00  0.00     0.163 HD
ATOM     29  O   UNL     1       1.344  -4.707   7.696  1.00  0.00    -0.269 OA
BRANCH  27  30
ATOM     30  C   UNL     1       2.397  -2.614   7.901  1.00  0.00     0.039 A 
ATOM     31  C   UNL     1       3.477  -3.042   8.679  1.00  0.00     0.014 A 
ATOM     32  C   UNL     1       2.053  -1.259   7.868  1.00  0.00     0.014 A 
ATOM     33  C   UNL     1       4.227  -2.108   9.398  1.00  0.00     0.010 A 
ATOM     34  C   UNL     1       2.845  -0.322   8.527  1.00  0.00     0.010 A 
ATOM     35  C   UNL     1       3.926  -0.739   9.317  1.00  0.00    -0.014 A 
BRANCH  35  36
ATOM     36  C   UNL     1       4.699   0.264  10.094  1.00  0.00     0.031 A 
ATOM     37  C   UNL     1       4.019   1.048  11.186  1.00  0.00     0.074 A 
ATOM     38  C   UNL     1       5.990   0.498   9.790  1.00  0.00     0.049 A 
ATOM     39  N   UNL     1       4.493   2.010  11.936  1.00  0.00    -0.248 NA
ATOM     40  C   UNL     1       2.607   0.727  11.445  1.00  0.00     0.031 C 
ATOM     41  C   UNL     1       6.742  -0.175   8.729  1.00  0.00     0.029 A 
ATOM     42  N   UNL     1       6.897   1.369  10.338  1.00  0.00    -0.354 N 
ATOM     43  C   UNL     1       3.436   2.417  12.744  1.00  0.00     0.074 A 
ATOM     44  C   UNL     1       2.281   1.643  12.344  1.00  0.00     0.031 C 
ATOM     45  C   UNL     1       8.002   0.290   8.721  1.00  0.00     0.029 A 
ATOM     46  C   UNL     1       8.138   1.321   9.746  1.00  0.00     0.049 A 
ATOM     47  H   UNL     1       6.680   1.972  11.086  1.00  0.00     0.167 HD
ATOM     48  C   UNL     1       3.436   3.335  13.744  1.00  0.00     0.034 A 
ATOM     49  C   UNL     1       9.254   2.032   9.998  1.00  0.00     0.034 A 
ATOM     50  C   UNL     1       4.603   4.086  14.138  1.00  0.00     0.049 A 
ATOM     51  C   UNL     1       9.229   3.049  11.112  1.00  0.00     0.074 A 
ATOM     52  C   UNL     1       4.730   5.013  15.158  1.00  0.00     0.029 A 
ATOM     53  N   UNL     1       5.848   3.997  13.527  1.00  0.00    -0.354 N 
ATOM     54  N   UNL     1       8.232   3.395  11.894  1.00  0.00    -0.248 NA
ATOM     55  C   UNL     1      10.486   3.756  11.389  1.00  0.00     0.031 C 
ATOM     56  C   UNL     1       6.032   5.526  15.126  1.00  0.00     0.029 A 
ATOM     57  C   UNL     1       6.742   4.864  14.136  1.00  0.00     0.049 A 
ATOM     58  H   UNL     1       6.064   3.403  12.772  1.00  0.00     0.167 HD
ATOM     59  C   UNL     1       8.755   4.332  12.781  1.00  0.00     0.074 A 
ATOM     60  C   UNL     1      10.156   4.484  12.444  1.00  0.00     0.031 C 
ATOM     61  C   UNL     1       8.136   5.004  13.786  1.00  0.00     0.034 A 
BRANCH  48  62
ATOM     62  C   UNL     1       2.126   3.585  14.456  1.00  0.00     0.023 A 
ATOM     63  C   UNL     1       1.473   2.571  15.180  1.00  0.00     0.031 A 
ATOM     64  C   UNL     1       1.504   4.844  14.386  1.00  0.00     0.131 A 
ATOM     65  C   UNL     1       0.206   2.807  15.733  1.00  0.00     0.055 A 
ATOM     66  C   UNL     1       0.281   5.098  15.012  1.00  0.00     0.041 A 
ATOM     67  F   UNL     1       2.066   5.847  13.693  1.00  0.00    -0.206 F 
ATOM     68  C   UNL     1      -0.384   4.072  15.677  1.00  0.00     0.022 A 
BRANCH  65  69
ATOM     69  S   UNL     1      -0.726   1.399  16.397  1.00  0.00     0.124 S 
ATOM     70  O   UNL     1      -0.836   0.539  15.222  1.00  0.00    -0.237 OA
ATOM     71  O   UNL     1       0.145   0.918  17.463  1.00  0.00    -0.237 OA
ATOM     72  O   UNL     1      -1.983   1.999  16.841  1.00  0.00    -0.744 OA
ENDBRANCH  65  69
ENDBRANCH  48  62
BRANCH  49  73
ATOM     73  C   UNL     1      10.491   1.811   9.195  1.00  0.00     0.023 A 
ATOM     74  C   UNL     1      11.660   1.312   9.791  1.00  0.00     0.031 A 
ATOM     75  C   UNL     1      10.537   2.139   7.828  1.00  0.00     0.131 A 
ATOM     76  C   UNL     1      12.840   1.205   9.037  1.00  0.00     0.055 A 
ATOM     77  C   UNL     1      11.698   1.979   7.069  1.00  0.00     0.041 A 
ATOM     78  F   UNL     1       9.445   2.612   7.206  1.00  0.00    -0.206 F 
ATOM     79  C   UNL     1      12.863   1.524   7.678  1.00  0.00     0.022 A 
BRANCH  76  80
ATOM     80  S   UNL     1      14.371   0.730   9.886  1.00  0.00     0.124 S 
ATOM     81  O   UNL     1      14.469   1.755  10.919  1.00  0.00    -0.237 OA
ATOM     82  O   UNL     1      14.055  -0.618  10.347  1.00  0.00    -0.237 OA
ATOM     83  O   UNL     1      15.381   0.806   8.832  1.00  0.00    -0.744 OA
ENDBRANCH  76  80
ENDBRANCH  49  73
BRANCH  61  84
ATOM     84  C   UNL     1       8.995   5.916  14.628  1.00  0.00     0.023 A 
ATOM     85  C   UNL     1       9.587   7.076  14.099  1.00  0.00     0.031 A 
ATOM     86  C   UNL     1       9.240   5.604  15.977  1.00  0.00     0.131 A 
ATOM     87  C   UNL     1      10.449   7.845  14.896  1.00  0.00     0.055 A 
ATOM     88  C   UNL     1      10.047   6.408  16.783  1.00  0.00     0.041 A 
ATOM     89  F   UNL     1       8.701   4.507  16.534  1.00  0.00    -0.206 F 
ATOM     90  C   UNL     1      10.669   7.527  16.239  1.00  0.00     0.022 A 
BRANCH  87  91
ATOM     91  S   UNL     1      11.364   9.208  14.124  1.00  0.00     0.124 S 
ATOM     92  O   UNL     1      12.072   8.526  13.046  1.00  0.00    -0.237 OA
ATOM     93  O   UNL     1      10.292  10.108  13.712  1.00  0.00    -0.237 OA
ATOM     94  O   UNL     1      12.212   9.707  15.204  1.00  0.00    -0.744 OA
ENDBRANCH  87  91
ENDBRANCH  61  84
ENDBRANCH  35  36
ENDBRANCH  27  30
ENDBRANCH  25  26
ENDBRANCH  24  25
ENDBRANCH  23  24
ENDBRANCH   1  23
TORSDOF 20
