REMARK SMILES O=C(NCCCCCCNC(=O)c1ccc2c(c1)[C@@H](C1CCOCC1)C(=O)N2)c1ccc(-c2c3nc(c(-c4cc(S(=O)(=O)[O-])ccc4F)c4ccc([nH]4)c(-c4cc(S(=O)(=O)[O-])ccc4F)c4nc(c(-c5cc(S(=O)(=O)[O-])ccc5F)c5ccc2[nH]5)C=C4)C=C3)cc1
REMARK SMILES IDX 5 1 4 2 3 3 1 4 2 5 29 7 30 8 91 9 31 10 90 11 32 12 33 13
REMARK SMILES IDX 34 14 84 15 35 16 89 17 83 18 85 19 36 20 88 21 82 22 81 23
REMARK SMILES IDX 37 25 69 26 49 27 68 28 50 29 53 30 67 31 86 32 51 33 52 34
REMARK SMILES IDX 66 36 87 37 54 38 38 39 39 40 47 41 40 42 46 43 48 44 45 45
REMARK SMILES IDX 41 46 42 47 43 48 44 49 70 50 71 51 79 52 72 53 78 54 80 55
REMARK SMILES IDX 77 56 73 57 74 58 75 59 76 60 55 61 56 62 64 63 57 64 63 65
REMARK SMILES IDX 65 66 62 67 58 68 59 69 60 70 61 71 6 72 7 73 8 74 9 75
REMARK SMILES IDX 10 76 11 77 12 79 13 80 14 81 18 82 15 83 17 84 16 85 19 86
REMARK SMILES IDX 28 87 26 88 27 90 20 91 21 92 25 93 22 94 24 95 23 96
REMARK H PARENT 3 6 85 24 53 35 10 78 28 89
REMARK Flexibility Score: inf
ROOT
ATOM      1  C   UNL     1       4.694   0.690  -2.548  1.00  0.00     0.021 C 
ENDROOT
BRANCH   1   2
ATOM      2  C   UNL     1       4.430   0.792  -1.054  1.00  0.00     0.116 C 
BRANCH   2   3
ATOM      3  N   UNL     1       3.012   0.802  -0.726  1.00  0.00    -0.352 N 
ATOM      4  O   UNL     1       1.103   0.032   0.212  1.00  0.00    -0.269 OA
ATOM      5  C   UNL     1       2.327  -0.010   0.151  1.00  0.00     0.251 C 
ATOM      6  H   UNL     1       2.470   1.480  -1.192  1.00  0.00     0.163 HD
BRANCH   5   7
ATOM      7  C   UNL     1       3.091  -0.950   1.000  1.00  0.00     0.039 A 
ATOM      8  C   UNL     1       4.255  -0.516   1.636  1.00  0.00     0.014 A 
ATOM      9  C   UNL     1       2.677  -2.279   1.122  1.00  0.00     0.014 A 
ATOM     10  C   UNL     1       5.097  -1.443   2.227  1.00  0.00     0.010 A 
ATOM     11  C   UNL     1       3.467  -3.188   1.837  1.00  0.00     0.010 A 
ATOM     12  C   UNL     1       4.700  -2.784   2.372  1.00  0.00    -0.014 A 
BRANCH  12  13
ATOM     13  C   UNL     1       5.571  -3.689   3.169  1.00  0.00     0.031 A 
ATOM     14  C   UNL     1       6.213  -4.909   2.570  1.00  0.00     0.074 A 
ATOM     15  C   UNL     1       5.837  -3.338   4.445  1.00  0.00     0.049 A 
ATOM     16  N   UNL     1       7.046  -5.753   3.126  1.00  0.00    -0.248 NA
ATOM     17  C   UNL     1       5.875  -5.233   1.177  1.00  0.00     0.031 C 
ATOM     18  C   UNL     1       5.254  -2.179   5.132  1.00  0.00     0.029 A 
ATOM     19  N   UNL     1       6.681  -3.880   5.378  1.00  0.00    -0.354 N 
ATOM     20  C   UNL     1       7.334  -6.707   2.156  1.00  0.00     0.074 A 
ATOM     21  C   UNL     1       6.548  -6.361   0.989  1.00  0.00     0.031 C 
ATOM     22  C   UNL     1       5.814  -2.054   6.341  1.00  0.00     0.029 A 
ATOM     23  C   UNL     1       6.715  -3.177   6.561  1.00  0.00     0.049 A 
ATOM     24  H   UNL     1       7.212  -4.693   5.217  1.00  0.00     0.167 HD
ATOM     25  C   UNL     1       8.184  -7.763   2.233  1.00  0.00     0.034 A 
ATOM     26  C   UNL     1       7.370  -3.421   7.711  1.00  0.00     0.034 A 
ATOM     27  C   UNL     1       8.950  -8.097   3.413  1.00  0.00     0.049 A 
ATOM     28  C   UNL     1       8.264  -4.628   7.779  1.00  0.00     0.074 A 
ATOM     29  C   UNL     1       9.839  -9.143   3.596  1.00  0.00     0.029 A 
ATOM     30  N   UNL     1       8.916  -7.397   4.613  1.00  0.00    -0.354 N 
ATOM     31  N   UNL     1       8.530  -5.512   6.845  1.00  0.00    -0.248 NA
ATOM     32  C   UNL     1       8.950  -4.867   9.053  1.00  0.00     0.031 C 
ATOM     33  C   UNL     1      10.284  -9.118   4.922  1.00  0.00     0.029 A 
ATOM     34  C   UNL     1       9.745  -8.005   5.546  1.00  0.00     0.049 A 
ATOM     35  H   UNL     1       8.382  -6.587   4.778  1.00  0.00     0.167 HD
ATOM     36  C   UNL     1       9.429  -6.405   7.418  1.00  0.00     0.074 A 
ATOM     37  C   UNL     1       9.691  -5.923   8.759  1.00  0.00     0.031 C 
ATOM     38  C   UNL     1       9.981  -7.527   6.889  1.00  0.00     0.034 A 
BRANCH  25  39
ATOM     39  C   UNL     1       8.310  -8.653   1.018  1.00  0.00     0.023 A 
ATOM     40  C   UNL     1       8.838  -8.178  -0.195  1.00  0.00     0.031 A 
ATOM     41  C   UNL     1       7.911 -10.002   1.075  1.00  0.00     0.131 A 
ATOM     42  C   UNL     1       8.905  -9.024  -1.313  1.00  0.00     0.055 A 
ATOM     43  C   UNL     1       8.051 -10.860  -0.018  1.00  0.00     0.041 A 
ATOM     44  F   UNL     1       7.379 -10.510   2.198  1.00  0.00    -0.206 F 
ATOM     45  C   UNL     1       8.541 -10.370  -1.225  1.00  0.00     0.022 A 
BRANCH  42  46
ATOM     46  S   UNL     1       9.364  -8.310  -2.916  1.00  0.00     0.124 S 
ATOM     47  O   UNL     1       8.330  -7.292  -3.094  1.00  0.00    -0.237 OA
ATOM     48  O   UNL     1      10.711  -7.811  -2.667  1.00  0.00    -0.237 OA
ATOM     49  O   UNL     1       9.277  -9.443  -3.835  1.00  0.00    -0.744 OA
ENDBRANCH  42  46
ENDBRANCH  25  39
BRANCH  26  50
ATOM     50  C   UNL     1       7.159  -2.546   8.900  1.00  0.00     0.023 A 
ATOM     51  C   UNL     1       8.225  -1.864   9.504  1.00  0.00     0.031 A 
ATOM     52  C   UNL     1       5.884  -2.424   9.486  1.00  0.00     0.131 A 
ATOM     53  C   UNL     1       8.011  -1.146  10.691  1.00  0.00     0.055 A 
ATOM     54  C   UNL     1       5.662  -1.645  10.620  1.00  0.00     0.041 A 
ATOM     55  F   UNL     1       4.826  -3.055   8.951  1.00  0.00    -0.206 F 
ATOM     56  C   UNL     1       6.734  -1.016  11.242  1.00  0.00     0.022 A 
BRANCH  53  57
ATOM     57  S   UNL     1       9.451  -0.491  11.577  1.00  0.00     0.124 S 
ATOM     58  O   UNL     1      10.266  -1.688  11.743  1.00  0.00    -0.237 OA
ATOM     59  O   UNL     1       9.956   0.504  10.636  1.00  0.00    -0.237 OA
ATOM     60  O   UNL     1       8.875   0.050  12.806  1.00  0.00    -0.744 OA
ENDBRANCH  53  57
ENDBRANCH  26  50
BRANCH  38  61
ATOM     61  C   UNL     1      10.947  -8.282   7.771  1.00  0.00     0.023 A 
ATOM     62  C   UNL     1      10.534  -8.870   8.981  1.00  0.00     0.031 A 
ATOM     63  C   UNL     1      12.308  -8.364   7.430  1.00  0.00     0.131 A 
ATOM     64  C   UNL     1      11.484  -9.432   9.845  1.00  0.00     0.055 A 
ATOM     65  C   UNL     1      13.237  -8.998   8.257  1.00  0.00     0.041 A 
ATOM     66  F   UNL     1      12.762  -7.818   6.290  1.00  0.00    -0.206 F 
ATOM     67  C   UNL     1      12.830  -9.518   9.482  1.00  0.00     0.022 A 
BRANCH  64  68
ATOM     68  S   UNL     1      10.957  -9.921  11.511  1.00  0.00     0.124 S 
ATOM     69  O   UNL     1      10.401  -8.675  12.028  1.00  0.00    -0.237 OA
ATOM     70  O   UNL     1       9.995 -10.983  11.235  1.00  0.00    -0.237 OA
ATOM     71  O   UNL     1      12.198 -10.358  12.148  1.00  0.00    -0.744 OA
ENDBRANCH  64  68
ENDBRANCH  38  61
ENDBRANCH  12  13
ENDBRANCH   5   7
ENDBRANCH   2   3
ENDBRANCH   1   2
BRANCH   1  72
ATOM     72  C   UNL     1       4.242   1.902  -3.357  1.00  0.00     0.002 C 
BRANCH  72  73
ATOM     73  C   UNL     1       4.815   3.245  -2.894  1.00  0.00     0.002 C 
BRANCH  73  74
ATOM     74  C   UNL     1       6.341   3.307  -2.774  1.00  0.00     0.021 C 
BRANCH  74  75
ATOM     75  C   UNL     1       7.103   2.917  -4.037  1.00  0.00     0.116 C 
BRANCH  75  76
ATOM     76  N   UNL     1       6.802   3.808  -5.146  1.00  0.00    -0.352 N 
ATOM     77  C   UNL     1       7.659   4.562  -5.904  1.00  0.00     0.251 C 
ATOM     78  H   UNL     1       5.850   3.881  -5.385  1.00  0.00     0.163 HD
ATOM     79  O   UNL     1       7.229   5.418  -6.672  1.00  0.00    -0.269 OA
BRANCH  77  80
ATOM     80  C   UNL     1       9.117   4.354  -5.782  1.00  0.00     0.040 A 
ATOM     81  C   UNL     1       9.665   3.058  -5.904  1.00  0.00     0.016 A 
ATOM     82  C   UNL     1       9.933   5.472  -5.561  1.00  0.00     0.020 A 
ATOM     83  C   UNL     1      11.035   2.851  -5.746  1.00  0.00     0.027 A 
ATOM     84  C   UNL     1      11.291   5.253  -5.407  1.00  0.00    -0.011 A 
ATOM     85  C   UNL     1      11.813   3.962  -5.498  1.00  0.00     0.045 A 
ATOM     86  C   UNL     1      12.411   6.228  -5.125  1.00  0.00     0.114 C 
ATOM     87  N   UNL     1      13.183   3.992  -5.314  1.00  0.00    -0.325 N 
ATOM     88  C   UNL     1      13.641   5.286  -5.115  1.00  0.00     0.232 C 
ATOM     89  H   UNL     1      13.761   3.196  -5.324  1.00  0.00     0.169 HD
ATOM     90  O   UNL     1      14.814   5.603  -4.989  1.00  0.00    -0.274 OA
BRANCH  86  91
ATOM     91  C   UNL     1      12.217   7.045  -3.829  1.00  0.00     0.010 C 
ATOM     92  C   UNL     1      13.366   8.040  -3.596  1.00  0.00     0.033 C 
ATOM     93  C   UNL     1      12.017   6.184  -2.568  1.00  0.00     0.033 C 
ATOM     94  C   UNL     1      13.181   8.802  -2.289  1.00  0.00     0.160 C 
ATOM     95  C   UNL     1      11.905   7.058  -1.324  1.00  0.00     0.160 C 
ATOM     96  O   UNL     1      13.045   7.902  -1.192  1.00  0.00    -0.381 OA
ENDBRANCH  86  91
ENDBRANCH  77  80
ENDBRANCH  75  76
ENDBRANCH  74  75
ENDBRANCH  73  74
ENDBRANCH  72  73
ENDBRANCH   1  72
TORSDOF 17
