REMARK SMILES CSCC[C@@H](C(=O)NCCCCCCNC(=O)c1ccc(-c2c3nc(c(-c4cc(S(=O)(=O)[O-])ccc4F)c4ccc([nH]4)c(-c4cc(S(=O)(=O)[O-])ccc4F)c4nc(c(-c5cc(S(=O)(=O)[O-])ccc5F)c5ccc2[nH]5)C=C4)C=C3)cc1)N1C(=O)/C(=C/c2ccc(Cl)cc2Cl)SC1=S
REMARK SMILES IDX 11 1 10 2 9 3 8 4 6 5 7 6 5 8 4 9 3 10 2 11 1 12 81 13 82 14
REMARK SMILES IDX 95 15 83 16 84 17 94 18 96 19 85 20 86 21 87 22 92 23 88 24
REMARK SMILES IDX 91 25 93 26 89 27 90 28 12 29 13 30 14 31 15 32 16 33 17 35
REMARK SMILES IDX 18 36 19 37 80 38 20 39 79 40 21 41 22 42 23 43 73 44 24 45
REMARK SMILES IDX 78 46 72 47 74 48 25 49 77 50 71 51 70 52 26 54 58 55 38 56
REMARK SMILES IDX 57 57 39 58 42 59 56 60 75 61 40 62 41 63 55 65 76 66 43 67
REMARK SMILES IDX 27 68 28 69 36 70 29 71 35 72 37 73 34 74 30 75 31 76 32 77
REMARK SMILES IDX 33 78 59 79 60 80 68 81 61 82 67 83 69 84 66 85 62 86 63 87
REMARK SMILES IDX 64 88 65 89 44 90 45 91 53 92 46 93 52 94 54 95 51 96 47 97
REMARK SMILES IDX 48 98 49 99 50 100
REMARK H PARENT 8 7 15 34 74 53 42 64
REMARK Flexibility Score: inf
ROOT
ATOM      1  C   UNL     1       4.931   2.490   1.925  1.00  0.00     0.002 C 
ENDROOT
BRANCH   1   2
ATOM      2  C   UNL     1       3.486   2.058   2.178  1.00  0.00     0.021 C 
BRANCH   2   3
ATOM      3  C   UNL     1       3.174   0.676   1.599  1.00  0.00     0.116 C 
BRANCH   3   4
ATOM      4  N   UNL     1       3.309  -0.326   2.630  1.00  0.00    -0.354 N 
ATOM      5  C   UNL     1       2.375  -1.071   3.280  1.00  0.00     0.243 C 
ATOM      6  O   UNL     1       2.783  -1.716   4.254  1.00  0.00    -0.273 OA
ATOM      7  H   UNL     1       4.236  -0.500   2.910  1.00  0.00     0.163 HD
BRANCH   5   8
ATOM      8  C   UNL     1       0.899  -1.171   2.792  1.00  0.00     0.182 C 
BRANCH   8   9
ATOM      9  C   UNL     1      -0.034  -0.005   3.169  1.00  0.00     0.046 C 
BRANCH   9  10
ATOM     10  C   UNL     1      -0.143   1.264   2.321  1.00  0.00     0.072 C 
BRANCH  10  11
ATOM     11  S   UNL     1      -1.159   1.208   0.806  1.00  0.00    -0.165 SA
ATOM     12  C   UNL     1      -0.219   0.134  -0.300  1.00  0.00     0.085 C 
ENDBRANCH  10  11
ENDBRANCH   9  10
ENDBRANCH   8   9
BRANCH   8  13
ATOM     13  N   UNL     1       0.452  -2.499   3.354  1.00  0.00    -0.280 N 
ATOM     14  C   UNL     1       0.837  -3.634   2.641  1.00  0.00     0.266 C 
ATOM     15  C   UNL     1      -0.085  -2.748   4.610  1.00  0.00     0.149 C 
ATOM     16  O   UNL     1       1.424  -3.643   1.571  1.00  0.00    -0.268 OA
ATOM     17  C   UNL     1       0.461  -4.877   3.373  1.00  0.00     0.081 C 
ATOM     18  S   UNL     1      -0.297  -4.479   4.854  1.00  0.00    -0.054 SA
ATOM     19  S   UNL     1      -0.541  -1.717   5.844  1.00  0.00    -0.052 S 
ATOM     20  C   UNL     1       0.684  -6.112   2.900  1.00  0.00     0.031 C 
BRANCH  20  21
ATOM     21  C   UNL     1       0.192  -7.343   3.545  1.00  0.00    -0.006 A 
ATOM     22  C   UNL     1       1.093  -8.154   4.251  1.00  0.00     0.011 A 
ATOM     23  C   UNL     1      -1.164  -7.722   3.495  1.00  0.00     0.049 A 
ATOM     24  C   UNL     1       0.646  -9.312   4.899  1.00  0.00     0.021 A 
ATOM     25  C   UNL     1      -1.611  -8.871   4.152  1.00  0.00     0.041 A 
ATOM     26  Cl  UNL     1      -2.338  -6.804   2.614  1.00  0.00    -0.084 Cl
ATOM     27  C   UNL     1      -0.703  -9.661   4.849  1.00  0.00     0.042 A 
ATOM     28  Cl  UNL     1      -1.252 -11.082   5.650  1.00  0.00    -0.084 Cl
ENDBRANCH  20  21
ENDBRANCH   8  13
ENDBRANCH   5   8
ENDBRANCH   3   4
ENDBRANCH   2   3
ENDBRANCH   1   2
BRANCH   1  29
ATOM     29  C   UNL     1       5.234   2.821   0.458  1.00  0.00     0.002 C 
BRANCH  29  30
ATOM     30  C   UNL     1       4.366   3.925  -0.156  1.00  0.00     0.021 C 
BRANCH  30  31
ATOM     31  C   UNL     1       4.371   5.245   0.612  1.00  0.00     0.116 C 
BRANCH  31  32
ATOM     32  N   UNL     1       5.717   5.777   0.757  1.00  0.00    -0.352 N 
ATOM     33  C   UNL     1       6.247   6.955   0.295  1.00  0.00     0.251 C 
ATOM     34  H   UNL     1       6.340   5.207   1.262  1.00  0.00     0.163 HD
ATOM     35  O   UNL     1       7.464   7.112   0.290  1.00  0.00    -0.269 OA
BRANCH  33  36
ATOM     36  C   UNL     1       5.353   8.019  -0.207  1.00  0.00     0.039 A 
ATOM     37  C   UNL     1       5.694   8.692  -1.382  1.00  0.00     0.014 A 
ATOM     38  C   UNL     1       4.187   8.360   0.486  1.00  0.00     0.014 A 
ATOM     39  C   UNL     1       4.831   9.662  -1.897  1.00  0.00     0.010 A 
ATOM     40  C   UNL     1       3.294   9.273  -0.067  1.00  0.00     0.010 A 
ATOM     41  C   UNL     1       3.606   9.931  -1.266  1.00  0.00    -0.014 A 
BRANCH  41  42
ATOM     42  C   UNL     1       2.630  10.881  -1.860  1.00  0.00     0.031 A 
ATOM     43  C   UNL     1       2.251  12.139  -1.131  1.00  0.00     0.074 A 
ATOM     44  C   UNL     1       2.038  10.572  -3.030  1.00  0.00     0.049 A 
ATOM     45  N   UNL     1       1.372  13.053  -1.457  1.00  0.00    -0.248 NA
ATOM     46  C   UNL     1       2.929  12.384   0.149  1.00  0.00     0.031 C 
ATOM     47  C   UNL     1       2.290   9.354  -3.804  1.00  0.00     0.029 A 
ATOM     48  N   UNL     1       1.096  11.244  -3.767  1.00  0.00    -0.354 N 
ATOM     49  C   UNL     1       1.389  13.981  -0.422  1.00  0.00     0.074 A 
ATOM     50  C   UNL     1       2.311  13.476   0.574  1.00  0.00     0.031 C 
ATOM     51  C   UNL     1       1.536   9.375  -4.914  1.00  0.00     0.029 A 
ATOM     52  C   UNL     1       0.710  10.578  -4.907  1.00  0.00     0.049 A 
ATOM     53  H   UNL     1       0.730  12.119  -3.504  1.00  0.00     0.167 HD
ATOM     54  C   UNL     1       0.720  15.158  -0.326  1.00  0.00     0.034 A 
ATOM     55  C   UNL     1      -0.220  10.888  -5.832  1.00  0.00     0.034 A 
ATOM     56  C   UNL     1      -0.206  15.635  -1.327  1.00  0.00     0.049 A 
ATOM     57  C   UNL     1      -0.989  12.174  -5.685  1.00  0.00     0.074 A 
ATOM     58  C   UNL     1      -0.902  16.830  -1.359  1.00  0.00     0.029 A 
ATOM     59  N   UNL     1      -0.581  14.930  -2.465  1.00  0.00    -0.354 N 
ATOM     60  N   UNL     1      -0.916  13.075  -4.733  1.00  0.00    -0.248 NA
ATOM     61  C   UNL     1      -1.959  12.488  -6.741  1.00  0.00     0.031 C 
ATOM     62  C   UNL     1      -1.756  16.812  -2.469  1.00  0.00     0.029 A 
ATOM     63  C   UNL     1      -1.531  15.645  -3.181  1.00  0.00     0.049 A 
ATOM     64  H   UNL     1      -0.224  14.050  -2.726  1.00  0.00     0.167 HD
ATOM     65  C   UNL     1      -1.820  14.074  -5.085  1.00  0.00     0.074 A 
ATOM     66  C   UNL     1      -2.407  13.672  -6.348  1.00  0.00     0.031 C 
ATOM     67  C   UNL     1      -2.133  15.219  -4.425  1.00  0.00     0.034 A 
BRANCH  54  68
ATOM     68  C   UNL     1       0.950  15.983   0.922  1.00  0.00     0.023 A 
ATOM     69  C   UNL     1       2.231  16.452   1.267  1.00  0.00     0.031 A 
ATOM     70  C   UNL     1      -0.107  16.258   1.807  1.00  0.00     0.131 A 
ATOM     71  C   UNL     1       2.441  17.075   2.507  1.00  0.00     0.055 A 
ATOM     72  C   UNL     1       0.091  16.967   2.995  1.00  0.00     0.041 A 
ATOM     73  F   UNL     1      -1.349  15.822   1.546  1.00  0.00    -0.206 F 
ATOM     74  C   UNL     1       1.375  17.361   3.361  1.00  0.00     0.022 A 
BRANCH  71  75
ATOM     75  S   UNL     1       4.148  17.334   3.063  1.00  0.00     0.124 S 
ATOM     76  O   UNL     1       4.687  15.976   3.000  1.00  0.00    -0.237 OA
ATOM     77  O   UNL     1       4.663  18.273   2.075  1.00  0.00    -0.237 OA
ATOM     78  O   UNL     1       3.991  17.870   4.414  1.00  0.00    -0.744 OA
ENDBRANCH  71  75
ENDBRANCH  54  68
BRANCH  55  79
ATOM     79  C   UNL     1      -0.489   9.949  -6.958  1.00  0.00     0.023 A 
ATOM     80  C   UNL     1      -0.201  10.300  -8.286  1.00  0.00     0.031 A 
ATOM     81  C   UNL     1      -1.044   8.679  -6.716  1.00  0.00     0.131 A 
ATOM     82  C   UNL     1      -0.497   9.402  -9.325  1.00  0.00     0.055 A 
ATOM     83  C   UNL     1      -1.289   7.771  -7.747  1.00  0.00     0.041 A 
ATOM     84  F   UNL     1      -1.332   8.291  -5.463  1.00  0.00    -0.206 F 
ATOM     85  C   UNL     1      -1.023   8.135  -9.062  1.00  0.00     0.022 A 
BRANCH  82  86
ATOM     86  S   UNL     1      -0.239   9.938 -11.038  1.00  0.00     0.124 S 
ATOM     87  O   UNL     1      -1.115  11.101 -11.121  1.00  0.00    -0.237 OA
ATOM     88  O   UNL     1       1.194  10.210 -11.059  1.00  0.00    -0.237 OA
ATOM     89  O   UNL     1      -0.662   8.780 -11.824  1.00  0.00    -0.744 OA
ENDBRANCH  82  86
ENDBRANCH  55  79
BRANCH  67  90
ATOM     90  C   UNL     1      -3.149  16.128  -5.077  1.00  0.00     0.023 A 
ATOM     91  C   UNL     1      -4.490  15.739  -5.242  1.00  0.00     0.031 A 
ATOM     92  C   UNL     1      -2.767  17.396  -5.549  1.00  0.00     0.131 A 
ATOM     93  C   UNL     1      -5.386  16.585  -5.913  1.00  0.00     0.055 A 
ATOM     94  C   UNL     1      -3.679  18.261  -6.155  1.00  0.00     0.041 A 
ATOM     95  F   UNL     1      -1.499  17.819  -5.425  1.00  0.00    -0.206 F 
ATOM     96  C   UNL     1      -4.995  17.852  -6.352  1.00  0.00     0.022 A 
BRANCH  93  97
ATOM     97  S   UNL     1      -7.049  15.967  -6.292  1.00  0.00     0.124 S 
ATOM     98  O   UNL     1      -6.756  14.786  -7.098  1.00  0.00    -0.237 OA
ATOM     99  O   UNL     1      -7.599  15.714  -4.965  1.00  0.00    -0.237 OA
ATOM    100  O   UNL     1      -7.669  17.075  -7.018  1.00  0.00    -0.744 OA
ENDBRANCH  93  97
ENDBRANCH  67  90
ENDBRANCH  41  42
ENDBRANCH  33  36
ENDBRANCH  31  32
ENDBRANCH  30  31
ENDBRANCH  29  30
ENDBRANCH   1  29
TORSDOF 21
