REMARK SMILES C#CCNC(=O)C[N@@H+](CC(=O)NCCCCCCNC(=O)c1ccc(-c2c3nc(c(-c4cc(S(=O)(=O)[O-])ccc4F)c4ccc([nH]4)c(-c4cc(S(=O)(=O)[O-])ccc4F)c4nc(c(-c5cc(S(=O)(=O)[O-])ccc5F)c5ccc2[nH]5)C=C4)C=C3)cc1)C(C)(C)C
REMARK SMILES IDX 14 1 13 2 12 3 10 4 11 5 9 7 8 8 7 10 5 11 4 12 6 14 3 15
REMARK SMILES IDX 2 16 1 17 85 18 86 19 87 20 88 21 15 22 16 23 17 24 18 25
REMARK SMILES IDX 19 26 20 27 21 29 22 30 23 31 84 32 24 33 83 34 25 35 26 36
REMARK SMILES IDX 27 37 77 38 28 39 82 40 76 41 78 42 29 43 81 44 75 45 74 46
REMARK SMILES IDX 30 48 62 49 42 50 61 51 43 52 46 53 60 54 79 55 44 56 45 57
REMARK SMILES IDX 59 59 80 60 47 61 31 62 32 63 40 64 33 65 39 66 41 67 38 68
REMARK SMILES IDX 34 69 35 70 36 71 37 72 63 73 64 74 72 75 65 76 71 77 73 78
REMARK SMILES IDX 70 79 66 80 67 81 68 82 69 83 48 84 49 85 57 86 50 87 56 88
REMARK SMILES IDX 58 89 55 90 51 91 52 92 53 93 54 94
REMARK H PARENT 12 6 8 9 4 13 19 28 78 47 46 58
REMARK Flexibility Score: inf
ROOT
ATOM      1  C   UNL     1      -6.063   2.802  -2.923  1.00  0.00     0.021 C 
ENDROOT
BRANCH   1   2
ATOM      2  C   UNL     1      -5.745   1.516  -3.687  1.00  0.00     0.116 C 
BRANCH   2   3
ATOM      3  N   UNL     1      -4.781   1.753  -4.745  1.00  0.00    -0.351 N 
ATOM      4  C   UNL     1      -3.453   1.458  -4.833  1.00  0.00     0.275 C 
ATOM      5  O   UNL     1      -2.905   1.686  -5.918  1.00  0.00    -0.269 OA
ATOM      6  H   UNL     1      -5.150   2.207  -5.537  1.00  0.00     0.163 HD
BRANCH   4   7
ATOM      7  C   UNL     1      -2.672   0.808  -3.682  1.00  0.00     0.364 C 
BRANCH   7   8
ATOM      8  N   UNL     1      -2.110   1.706  -2.632  1.00  0.00    -0.315 N 
ATOM      9  H   UNL     1      -1.440   1.132  -2.121  1.00  0.00     0.349 HD
BRANCH   8  10
ATOM     10  C   UNL     1      -3.141   2.095  -1.653  1.00  0.00     0.364 C 
BRANCH  10  11
ATOM     11  C   UNL     1      -2.689   2.280  -0.209  1.00  0.00     0.275 C 
ATOM     12  N   UNL     1      -2.163   1.242   0.491  1.00  0.00    -0.340 N 
ATOM     13  H   UNL     1      -2.061   1.389   1.459  1.00  0.00     0.164 HD
ATOM     14  O   UNL     1      -2.907   3.337   0.389  1.00  0.00    -0.268 OA
BRANCH  12  15
ATOM     15  C   UNL     1      -1.734  -0.043   0.008  1.00  0.00     0.206 C 
BRANCH  15  16
ATOM     16  C   UNL     1      -0.214  -0.043   0.008  1.00  0.00    -0.085 C 
ATOM     17  C   UNL     1       1.090  -0.043   0.008  1.00  0.00     0.006 C 
ENDBRANCH  15  16
ENDBRANCH  12  15
ENDBRANCH  10  11
ENDBRANCH   8  10
BRANCH   8  18
ATOM     18  C   UNL     1      -1.154   2.766  -3.070  1.00  0.00     0.090 C 
ATOM     19  C   UNL     1      -1.794   3.938  -3.847  1.00  0.00     0.078 C 
ATOM     20  C   UNL     1      -0.429   3.396  -1.855  1.00  0.00     0.078 C 
ATOM     21  C   UNL     1      -0.033   2.154  -3.945  1.00  0.00     0.078 C 
ENDBRANCH   8  18
ENDBRANCH   7   8
ENDBRANCH   4   7
ENDBRANCH   2   3
ENDBRANCH   1   2
BRANCH   1  22
ATOM     22  C   UNL     1      -7.321   3.543  -3.371  1.00  0.00     0.002 C 
BRANCH  22  23
ATOM     23  C   UNL     1      -8.643   2.812  -3.136  1.00  0.00     0.002 C 
BRANCH  23  24
ATOM     24  C   UNL     1      -8.881   2.287  -1.716  1.00  0.00     0.021 C 
BRANCH  24  25
ATOM     25  C   UNL     1      -8.713   3.307  -0.590  1.00  0.00     0.116 C 
BRANCH  25  26
ATOM     26  N   UNL     1      -9.566   4.467  -0.766  1.00  0.00    -0.352 N 
ATOM     27  C   UNL     1     -10.619   4.921  -0.013  1.00  0.00     0.251 C 
ATOM     28  H   UNL     1      -9.355   5.018  -1.555  1.00  0.00     0.163 HD
ATOM     29  O   UNL     1     -11.341   5.804  -0.470  1.00  0.00    -0.269 OA
BRANCH  27  30
ATOM     30  C   UNL     1     -10.901   4.354   1.325  1.00  0.00     0.039 A 
ATOM     31  C   UNL     1     -12.233   4.136   1.689  1.00  0.00     0.014 A 
ATOM     32  C   UNL     1      -9.879   4.100   2.245  1.00  0.00     0.014 A 
ATOM     33  C   UNL     1     -12.537   3.632   2.956  1.00  0.00     0.010 A 
ATOM     34  C   UNL     1     -10.179   3.534   3.485  1.00  0.00     0.010 A 
ATOM     35  C   UNL     1     -11.512   3.312   3.860  1.00  0.00    -0.014 A 
BRANCH  35  36
ATOM     36  C   UNL     1     -11.833   2.781   5.210  1.00  0.00     0.031 A 
ATOM     37  C   UNL     1     -11.524   3.594   6.439  1.00  0.00     0.074 A 
ATOM     38  C   UNL     1     -12.363   1.548   5.332  1.00  0.00     0.049 A 
ATOM     39  N   UNL     1     -11.722   3.301   7.699  1.00  0.00    -0.248 NA
ATOM     40  C   UNL     1     -10.875   4.894   6.219  1.00  0.00     0.031 C 
ATOM     41  C   UNL     1     -12.643   0.637   4.221  1.00  0.00     0.029 A 
ATOM     42  N   UNL     1     -12.751   0.845   6.444  1.00  0.00    -0.354 N 
ATOM     43  C   UNL     1     -11.207   4.372   8.424  1.00  0.00     0.074 A 
ATOM     44  C   UNL     1     -10.632   5.287   7.460  1.00  0.00     0.031 C 
ATOM     45  C   UNL     1     -13.168  -0.499   4.706  1.00  0.00     0.029 A 
ATOM     46  C   UNL     1     -13.242  -0.407   6.161  1.00  0.00     0.049 A 
ATOM     47  H   UNL     1     -12.684   1.204   7.359  1.00  0.00     0.167 HD
ATOM     48  C   UNL     1     -11.232   4.584   9.765  1.00  0.00     0.034 A 
ATOM     49  C   UNL     1     -13.699  -1.374   6.981  1.00  0.00     0.034 A 
ATOM     50  C   UNL     1     -11.823   3.665  10.709  1.00  0.00     0.049 A 
ATOM     51  C   UNL     1     -13.760  -1.106   8.461  1.00  0.00     0.074 A 
ATOM     52  C   UNL     1     -11.973   3.808  12.077  1.00  0.00     0.029 A 
ATOM     53  N   UNL     1     -12.354   2.422  10.382  1.00  0.00    -0.354 N 
ATOM     54  N   UNL     1     -13.346  -0.051   9.126  1.00  0.00    -0.248 NA
ATOM     55  C   UNL     1     -14.373  -2.145   9.296  1.00  0.00     0.031 C 
ATOM     56  C   UNL     1     -12.537   2.630  12.584  1.00  0.00     0.029 A 
ATOM     57  C   UNL     1     -12.806   1.778  11.525  1.00  0.00     0.049 A 
ATOM     58  H   UNL     1     -12.403   2.053   9.471  1.00  0.00     0.167 HD
ATOM     59  C   UNL     1     -13.669  -0.294  10.458  1.00  0.00     0.074 A 
ATOM     60  C   UNL     1     -14.330  -1.583  10.495  1.00  0.00     0.031 C 
ATOM     61  C   UNL     1     -13.442   0.480  11.551  1.00  0.00     0.034 A 
BRANCH  48  62
ATOM     62  C   UNL     1     -10.572   5.845  10.277  1.00  0.00     0.023 A 
ATOM     63  C   UNL     1     -11.016   7.122   9.891  1.00  0.00     0.031 A 
ATOM     64  C   UNL     1      -9.447   5.770  11.119  1.00  0.00     0.131 A 
ATOM     65  C   UNL     1     -10.286   8.262  10.262  1.00  0.00     0.055 A 
ATOM     66  C   UNL     1      -8.777   6.915  11.558  1.00  0.00     0.041 A 
ATOM     67  F   UNL     1      -8.963   4.581  11.510  1.00  0.00    -0.206 F 
ATOM     68  C   UNL     1      -9.183   8.169  11.113  1.00  0.00     0.022 A 
BRANCH  65  69
ATOM     69  S   UNL     1     -10.695   9.845   9.475  1.00  0.00     0.124 S 
ATOM     70  O   UNL     1     -10.550   9.516   8.058  1.00  0.00    -0.237 OA
ATOM     71  O   UNL     1     -12.056  10.085   9.940  1.00  0.00    -0.237 OA
ATOM     72  O   UNL     1      -9.685  10.761  10.000  1.00  0.00    -0.744 OA
ENDBRANCH  65  69
ENDBRANCH  48  62
BRANCH  49  73
ATOM     73  C   UNL     1     -14.137  -2.681   6.417  1.00  0.00     0.023 A 
ATOM     74  C   UNL     1     -15.486  -3.066   6.428  1.00  0.00     0.031 A 
ATOM     75  C   UNL     1     -13.199  -3.570   5.861  1.00  0.00     0.131 A 
ATOM     76  C   UNL     1     -15.858  -4.322   5.923  1.00  0.00     0.055 A 
ATOM     77  C   UNL     1     -13.579  -4.800   5.323  1.00  0.00     0.041 A 
ATOM     78  F   UNL     1     -11.898  -3.241   5.814  1.00  0.00    -0.206 F 
ATOM     79  C   UNL     1     -14.915  -5.186   5.361  1.00  0.00     0.022 A 
BRANCH  76  80
ATOM     80  S   UNL     1     -17.593  -4.834   6.054  1.00  0.00     0.124 S 
ATOM     81  O   UNL     1     -17.804  -4.809   7.496  1.00  0.00    -0.237 OA
ATOM     82  O   UNL     1     -18.273  -3.795   5.287  1.00  0.00    -0.237 OA
ATOM     83  O   UNL     1     -17.603  -6.161   5.442  1.00  0.00    -0.744 OA
ENDBRANCH  76  80
ENDBRANCH  49  73
BRANCH  61  84
ATOM     84  C   UNL     1     -13.944  -0.047  12.873  1.00  0.00     0.023 A 
ATOM     85  C   UNL     1     -13.400  -1.202  13.463  1.00  0.00     0.031 A 
ATOM     86  C   UNL     1     -15.003   0.597  13.537  1.00  0.00     0.131 A 
ATOM     87  C   UNL     1     -13.958  -1.714  14.644  1.00  0.00     0.055 A 
ATOM     88  C   UNL     1     -15.515   0.117  14.743  1.00  0.00     0.041 A 
ATOM     89  F   UNL     1     -15.563   1.702  13.019  1.00  0.00    -0.206 F 
ATOM     90  C   UNL     1     -15.002  -1.053  15.295  1.00  0.00     0.022 A 
BRANCH  87  91
ATOM     91  S   UNL     1     -13.373  -3.317  15.259  1.00  0.00     0.124 S 
ATOM     92  O   UNL     1     -13.597  -4.185  14.107  1.00  0.00    -0.237 OA
ATOM     93  O   UNL     1     -11.979  -3.036  15.585  1.00  0.00    -0.237 OA
ATOM     94  O   UNL     1     -14.238  -3.579  16.409  1.00  0.00    -0.744 OA
ENDBRANCH  87  91
ENDBRANCH  61  84
ENDBRANCH  35  36
ENDBRANCH  27  30
ENDBRANCH  25  26
ENDBRANCH  24  25
ENDBRANCH  23  24
ENDBRANCH  22  23
ENDBRANCH   1  22
TORSDOF 22
