REMARK SMILES CC(C)CSc1cc2c(cc1Cl)C=C(C(=O)NCCCCCCNC(=O)c1ccc(-c3c4nc(c(-c5cc(S(=O)(=O)[O-])ccc5F)c5ccc([nH]5)c(-c5cc(S(=O)(=O)[O-])ccc5F)c5nc(c(-c6cc(S(=O)(=O)[O-])ccc6F)c6ccc3[nH]6)C=C5)C=C4)cc1)[C@H](C(F)(F)F)O2
REMARK SMILES IDX 20 1 19 2 18 3 17 4 15 5 16 6 14 8 6 9 7 10 11 11 8 12 10 13
REMARK SMILES IDX 12 14 9 15 95 16 13 17 90 18 5 19 4 20 2 21 1 22 3 23 91 24
REMARK SMILES IDX 92 25 93 26 94 27 21 28 22 29 23 30 24 31 25 32 26 34 27 35
REMARK SMILES IDX 28 36 89 37 29 38 88 39 30 40 31 41 32 42 82 43 33 44 87 45
REMARK SMILES IDX 81 46 83 47 34 48 86 49 80 50 79 51 35 53 67 54 47 55 66 56
REMARK SMILES IDX 48 57 51 58 65 59 84 60 49 61 50 62 64 64 85 65 52 66 36 67
REMARK SMILES IDX 37 68 45 69 38 70 44 71 46 72 43 73 39 74 40 75 41 76 42 77
REMARK SMILES IDX 68 78 69 79 77 80 70 81 76 82 78 83 75 84 71 85 72 86 73 87
REMARK SMILES IDX 74 88 53 89 54 90 62 91 55 92 61 93 63 94 60 95 56 96 57 97
REMARK SMILES IDX 58 98 59 99
REMARK H PARENT 17 7 24 33 83 52 51 63
REMARK Flexibility Score: inf
ROOT
ATOM      1  C   UNL     1       1.255   5.378  10.076  1.00  0.00     0.002 C 
ENDROOT
BRANCH   1   2
ATOM      2  C   UNL     1       0.626   5.237   8.687  1.00  0.00     0.021 C 
BRANCH   2   3
ATOM      3  C   UNL     1       1.530   4.614   7.625  1.00  0.00     0.116 C 
BRANCH   3   4
ATOM      4  N   UNL     1       1.569   3.165   7.728  1.00  0.00    -0.352 N 
ATOM      5  C   UNL     1       1.195   2.100   6.983  1.00  0.00     0.251 C 
ATOM      6  O   UNL     1       1.425   1.000   7.499  1.00  0.00    -0.270 OA
ATOM      7  H   UNL     1       1.984   2.879   8.574  1.00  0.00     0.163 HD
BRANCH   5   8
ATOM      8  C   UNL     1       0.559   2.152   5.630  1.00  0.00     0.067 C 
ATOM      9  C   UNL     1      -1.363   0.895   1.123  1.00  0.00     0.030 A 
ATOM     10  C   UNL     1      -0.861   2.078   1.686  1.00  0.00     0.063 A 
ATOM     11  C   UNL     1      -1.406  -0.259   1.925  1.00  0.00     0.055 A 
ATOM     12  C   UNL     1      -0.360   2.090   2.986  1.00  0.00     0.129 A 
ATOM     13  C   UNL     1      -0.860  -0.248   3.218  1.00  0.00     0.033 A 
ATOM     14  Cl  UNL     1      -2.150  -1.736   1.419  1.00  0.00    -0.083 Cl
ATOM     15  C   UNL     1      -0.324   0.925   3.747  1.00  0.00     0.019 A 
ATOM     16  O   UNL     1       0.127   3.278   3.449  1.00  0.00    -0.475 OA
ATOM     17  C   UNL     1       0.300   0.957   5.064  1.00  0.00     0.025 C 
ATOM     18  C   UNL     1       0.185   3.413   4.898  1.00  0.00     0.314 C 
BRANCH   9  19
ATOM     19  S   UNL     1      -1.908   1.033  -0.576  1.00  0.00    -0.124 SA
BRANCH  19  20
ATOM     20  C   UNL     1      -0.940  -0.256  -1.447  1.00  0.00     0.078 C 
BRANCH  20  21
ATOM     21  C   UNL     1       0.574  -0.029  -1.622  1.00  0.00    -0.007 C 
ATOM     22  C   UNL     1       1.376  -0.080  -0.322  1.00  0.00     0.008 C 
ATOM     23  C   UNL     1       1.117  -1.109  -2.569  1.00  0.00     0.008 C 
ENDBRANCH  20  21
ENDBRANCH  19  20
ENDBRANCH   9  19
BRANCH  18  24
ATOM     24  C   UNL     1      -1.131   4.019   5.419  1.00  0.00     0.429 C 
ATOM     25  F   UNL     1      -2.224   3.418   4.895  1.00  0.00    -0.167 F 
ATOM     26  F   UNL     1      -1.244   3.921   6.764  1.00  0.00    -0.167 F 
ATOM     27  F   UNL     1      -1.206   5.338   5.120  1.00  0.00    -0.167 F 
ENDBRANCH  18  24
ENDBRANCH   5   8
ENDBRANCH   3   4
ENDBRANCH   2   3
ENDBRANCH   1   2
BRANCH   1  28
ATOM     28  C   UNL     1       2.540   6.209  10.153  1.00  0.00     0.002 C 
BRANCH  28  29
ATOM     29  C   UNL     1       2.508   7.557   9.432  1.00  0.00     0.021 C 
BRANCH  29  30
ATOM     30  C   UNL     1       1.375   8.489   9.844  1.00  0.00     0.116 C 
BRANCH  30  31
ATOM     31  N   UNL     1       1.494   8.950  11.217  1.00  0.00    -0.352 N 
ATOM     32  C   UNL     1       1.532  10.243  11.695  1.00  0.00     0.251 C 
ATOM     33  H   UNL     1       1.555   8.243  11.899  1.00  0.00     0.163 HD
ATOM     34  O   UNL     1       1.771  10.462  12.870  1.00  0.00    -0.269 OA
BRANCH  32  35
ATOM     35  C   UNL     1       1.323  11.359  10.744  1.00  0.00     0.039 A 
ATOM     36  C   UNL     1       0.231  11.349   9.874  1.00  0.00     0.014 A 
ATOM     37  C   UNL     1       2.271  12.383  10.678  1.00  0.00     0.014 A 
ATOM     38  C   UNL     1       0.182  12.261   8.826  1.00  0.00     0.010 A 
ATOM     39  C   UNL     1       2.174  13.348   9.671  1.00  0.00     0.010 A 
ATOM     40  C   UNL     1       1.161  13.262   8.703  1.00  0.00    -0.014 A 
BRANCH  40  41
ATOM     41  C   UNL     1       1.112  14.201   7.551  1.00  0.00     0.031 A 
ATOM     42  C   UNL     1       2.197  14.195   6.507  1.00  0.00     0.074 A 
ATOM     43  C   UNL     1       0.055  15.025   7.420  1.00  0.00     0.049 A 
ATOM     44  N   UNL     1       2.306  14.930   5.430  1.00  0.00    -0.248 NA
ATOM     45  C   UNL     1       3.304  13.242   6.693  1.00  0.00     0.031 C 
ATOM     46  C   UNL     1      -1.061  15.102   8.363  1.00  0.00     0.029 A 
ATOM     47  N   UNL     1      -0.270  15.934   6.444  1.00  0.00    -0.354 N 
ATOM     48  C   UNL     1       3.495  14.543   4.819  1.00  0.00     0.074 A 
ATOM     49  C   UNL     1       4.089  13.530   5.662  1.00  0.00     0.031 C 
ATOM     50  C   UNL     1      -1.971  15.967   7.894  1.00  0.00     0.029 A 
ATOM     51  C   UNL     1      -1.474  16.563   6.657  1.00  0.00     0.049 A 
ATOM     52  H   UNL     1       0.305  16.117   5.666  1.00  0.00     0.167 HD
ATOM     53  C   UNL     1       4.030  14.984   3.655  1.00  0.00     0.034 A 
ATOM     54  C   UNL     1      -2.106  17.521   5.948  1.00  0.00     0.034 A 
ATOM     55  C   UNL     1       3.415  15.982   2.817  1.00  0.00     0.049 A 
ATOM     56  C   UNL     1      -1.471  18.020   4.676  1.00  0.00     0.074 A 
ATOM     57  C   UNL     1       3.874  16.484   1.612  1.00  0.00     0.029 A 
ATOM     58  N   UNL     1       2.214  16.622   3.084  1.00  0.00    -0.354 N 
ATOM     59  N   UNL     1      -0.360  17.623   4.100  1.00  0.00    -0.248 NA
ATOM     60  C   UNL     1      -2.168  19.094   3.955  1.00  0.00     0.031 C 
ATOM     61  C   UNL     1       2.981  17.465   1.179  1.00  0.00     0.029 A 
ATOM     62  C   UNL     1       1.927  17.529   2.077  1.00  0.00     0.049 A 
ATOM     63  H   UNL     1       1.648  16.456   3.873  1.00  0.00     0.167 HD
ATOM     64  C   UNL     1      -0.235  18.384   2.943  1.00  0.00     0.074 A 
ATOM     65  C   UNL     1      -1.397  19.247   2.886  1.00  0.00     0.031 C 
ATOM     66  C   UNL     1       0.758  18.373   2.018  1.00  0.00     0.034 A 
BRANCH  53  67
ATOM     67  C   UNL     1       5.340  14.396   3.190  1.00  0.00     0.023 A 
ATOM     68  C   UNL     1       6.478  15.215   3.072  1.00  0.00     0.031 A 
ATOM     69  C   UNL     1       5.426  13.068   2.736  1.00  0.00     0.131 A 
ATOM     70  C   UNL     1       7.643  14.708   2.482  1.00  0.00     0.055 A 
ATOM     71  C   UNL     1       6.601  12.556   2.182  1.00  0.00     0.041 A 
ATOM     72  F   UNL     1       4.368  12.245   2.829  1.00  0.00    -0.206 F 
ATOM     73  C   UNL     1       7.712  13.382   2.042  1.00  0.00     0.022 A 
BRANCH  70  74
ATOM     74  S   UNL     1       9.093  15.763   2.205  1.00  0.00     0.124 S 
ATOM     75  O   UNL     1      10.124  15.058   2.964  1.00  0.00    -0.237 OA
ATOM     76  O   UNL     1       9.239  15.706   0.753  1.00  0.00    -0.237 OA
ATOM     77  O   UNL     1       8.696  17.056   2.750  1.00  0.00    -0.744 OA
ENDBRANCH  70  74
ENDBRANCH  53  67
BRANCH  54  78
ATOM     78  C   UNL     1      -3.430  18.019   6.422  1.00  0.00     0.023 A 
ATOM     79  C   UNL     1      -3.562  18.631   7.683  1.00  0.00     0.031 A 
ATOM     80  C   UNL     1      -4.597  17.780   5.679  1.00  0.00     0.131 A 
ATOM     81  C   UNL     1      -4.837  18.905   8.195  1.00  0.00     0.055 A 
ATOM     82  C   UNL     1      -5.861  18.125   6.162  1.00  0.00     0.041 A 
ATOM     83  F   UNL     1      -4.524  17.188   4.477  1.00  0.00    -0.206 F 
ATOM     84  C   UNL     1      -5.986  18.671   7.436  1.00  0.00     0.022 A 
BRANCH  81  85
ATOM     85  S   UNL     1      -5.049  19.427   9.920  1.00  0.00     0.124 S 
ATOM     86  O   UNL     1      -5.654  20.746   9.766  1.00  0.00    -0.237 OA
ATOM     87  O   UNL     1      -5.931  18.385  10.442  1.00  0.00    -0.237 OA
ATOM     88  O   UNL     1      -3.692  19.412  10.454  1.00  0.00    -0.744 OA
ENDBRANCH  81  85
ENDBRANCH  54  78
BRANCH  66  89
ATOM     89  C   UNL     1       0.658  19.312   0.840  1.00  0.00     0.023 A 
ATOM     90  C   UNL     1       0.558  18.794  -0.465  1.00  0.00     0.031 A 
ATOM     91  C   UNL     1       0.825  20.698   0.996  1.00  0.00     0.131 A 
ATOM     92  C   UNL     1       0.671  19.652  -1.566  1.00  0.00     0.055 A 
ATOM     93  C   UNL     1       0.891  21.555  -0.103  1.00  0.00     0.041 A 
ATOM     94  F   UNL     1       0.936  21.238   2.220  1.00  0.00    -0.206 F 
ATOM     95  C   UNL     1       0.830  21.030  -1.392  1.00  0.00     0.022 A 
BRANCH  92  96
ATOM     96  S   UNL     1       0.709  19.002  -3.259  1.00  0.00     0.124 S 
ATOM     97  O   UNL     1      -0.455  19.652  -3.857  1.00  0.00    -0.237 OA
ATOM     98  O   UNL     1       2.004  19.475  -3.741  1.00  0.00    -0.237 OA
ATOM     99  O   UNL     1       0.593  17.558  -3.086  1.00  0.00    -0.744 OA
ENDBRANCH  92  96
ENDBRANCH  66  89
ENDBRANCH  40  41
ENDBRANCH  32  35
ENDBRANCH  30  31
ENDBRANCH  29  30
ENDBRANCH  28  29
ENDBRANCH   1  28
TORSDOF 20
