REMARK SMILES O=C(NCCCCCCNC(=O)c1ccn(-c2cc(-c3ccncc3)nc(-c3ccccc3F)n2)n1)c1ccc(-c2c3nc(c(-c4cc(S(=O)(=O)[O-])ccc4F)c4ccc([nH]4)c(-c4cc(S(=O)(=O)[O-])ccc4F)c4nc(c(-c5cc(S(=O)(=O)[O-])ccc5F)c5ccc2[nH]5)C=C4)C=C3)cc1
REMARK SMILES IDX 6 1 5 2 4 3 3 4 1 5 2 6 37 8 38 9 99 10 39 11 98 12 40 13
REMARK SMILES IDX 41 14 42 15 92 16 43 17 97 18 91 19 93 20 44 21 96 22 90 23
REMARK SMILES IDX 89 24 45 26 77 27 57 28 76 29 58 30 61 31 75 32 94 33 59 34
REMARK SMILES IDX 60 35 74 37 95 38 62 39 46 40 47 41 55 42 48 43 54 44 56 45
REMARK SMILES IDX 53 46 49 47 50 48 51 49 52 50 78 51 79 52 87 53 80 54 86 55
REMARK SMILES IDX 88 56 85 57 81 58 82 59 83 60 84 61 63 62 64 63 72 64 65 65
REMARK SMILES IDX 71 66 73 67 70 68 66 69 67 70 68 71 69 72 7 73 8 74 9 75
REMARK SMILES IDX 10 76 11 77 12 79 13 80 14 81 36 82 15 83 16 84 17 85 18 86
REMARK SMILES IDX 35 87 19 88 27 89 26 90 20 91 21 92 25 93 22 94 24 95 23 96
REMARK SMILES IDX 28 97 29 98 33 99 30 100 32 101 34 102 31 103
REMARK H PARENT 3 7 93 25 61 36 10 78
REMARK Flexibility Score: inf
ROOT
ATOM      1  C   UNL     1       4.279  -3.472   1.122  1.00  0.00     0.002 C 
ENDROOT
BRANCH   1   2
ATOM      2  C   UNL     1       4.792  -2.034   1.261  1.00  0.00     0.021 C 
BRANCH   2   3
ATOM      3  C   UNL     1       4.612  -1.171   0.015  1.00  0.00     0.116 C 
BRANCH   3   4
ATOM      4  N   UNL     1       3.236  -0.959  -0.376  1.00  0.00    -0.352 N 
ATOM      5  O   UNL     1       1.232  -0.072  -0.658  1.00  0.00    -0.269 OA
ATOM      6  C   UNL     1       2.257  -0.094   0.029  1.00  0.00     0.251 C 
ATOM      7  H   UNL     1       2.939  -1.571  -1.088  1.00  0.00     0.163 HD
BRANCH   6   8
ATOM      8  C   UNL     1       2.314   0.731   1.268  1.00  0.00     0.039 A 
ATOM      9  C   UNL     1       3.470   1.092   1.963  1.00  0.00     0.014 A 
ATOM     10  C   UNL     1       1.069   1.158   1.766  1.00  0.00     0.014 A 
ATOM     11  C   UNL     1       3.378   1.776   3.175  1.00  0.00     0.010 A 
ATOM     12  C   UNL     1       0.971   1.847   2.970  1.00  0.00     0.010 A 
ATOM     13  C   UNL     1       2.127   2.133   3.692  1.00  0.00    -0.014 A 
BRANCH  13  14
ATOM     14  C   UNL     1       2.073   3.075   4.815  1.00  0.00     0.031 A 
ATOM     15  C   UNL     1       2.611   4.418   4.440  1.00  0.00     0.074 A 
ATOM     16  C   UNL     1       1.444   2.839   5.989  1.00  0.00     0.049 A 
ATOM     17  N   UNL     1       3.637   5.031   4.931  1.00  0.00    -0.248 NA
ATOM     18  C   UNL     1       2.046   5.082   3.247  1.00  0.00     0.031 C 
ATOM     19  C   UNL     1       0.680   1.647   6.360  1.00  0.00     0.029 A 
ATOM     20  N   UNL     1       1.265   3.651   7.078  1.00  0.00    -0.354 N 
ATOM     21  C   UNL     1       3.667   6.271   4.298  1.00  0.00     0.074 A 
ATOM     22  C   UNL     1       2.828   6.155   3.138  1.00  0.00     0.031 C 
ATOM     23  C   UNL     1      -0.057   1.906   7.466  1.00  0.00     0.029 A 
ATOM     24  C   UNL     1       0.253   3.240   7.955  1.00  0.00     0.049 A 
ATOM     25  H   UNL     1       1.805   4.460   7.231  1.00  0.00     0.167 HD
ATOM     26  C   UNL     1       4.113   7.377   4.953  1.00  0.00     0.034 A 
ATOM     27  C   UNL     1      -0.318   3.953   8.976  1.00  0.00     0.034 A 
ATOM     28  C   UNL     1       4.992   7.022   6.040  1.00  0.00     0.049 A 
ATOM     29  C   UNL     1       0.659   5.009   9.339  1.00  0.00     0.074 A 
ATOM     30  C   UNL     1       6.146   6.266   6.140  1.00  0.00     0.029 A 
ATOM     31  N   UNL     1       4.509   7.124   7.323  1.00  0.00    -0.354 N 
ATOM     32  N   UNL     1       1.837   4.760   9.842  1.00  0.00    -0.248 NA
ATOM     33  C   UNL     1       0.510   6.299   8.686  1.00  0.00     0.031 C 
ATOM     34  C   UNL     1       5.997   5.531   7.352  1.00  0.00     0.029 A 
ATOM     35  C   UNL     1       4.819   5.954   7.970  1.00  0.00     0.049 A 
ATOM     36  H   UNL     1       4.029   7.893   7.707  1.00  0.00     0.167 HD
ATOM     37  C   UNL     1       2.684   5.644   9.194  1.00  0.00     0.074 A 
ATOM     38  C   UNL     1       1.800   6.609   8.537  1.00  0.00     0.031 C 
ATOM     39  C   UNL     1       4.004   5.358   9.008  1.00  0.00     0.034 A 
BRANCH  26  40
ATOM     40  C   UNL     1       3.413   8.718   4.870  1.00  0.00     0.023 A 
ATOM     41  C   UNL     1       3.999   9.812   5.532  1.00  0.00     0.031 A 
ATOM     42  C   UNL     1       2.077   8.905   4.436  1.00  0.00     0.131 A 
ATOM     43  C   UNL     1       3.254  10.977   5.793  1.00  0.00     0.055 A 
ATOM     44  C   UNL     1       1.364  10.088   4.643  1.00  0.00     0.041 A 
ATOM     45  F   UNL     1       1.349   7.931   3.880  1.00  0.00    -0.206 F 
ATOM     46  C   UNL     1       1.943  11.124   5.349  1.00  0.00     0.022 A 
BRANCH  43  47
ATOM     47  S   UNL     1       3.984  12.254   6.849  1.00  0.00     0.124 S 
ATOM     48  O   UNL     1       4.188  11.522   8.094  1.00  0.00    -0.237 OA
ATOM     49  O   UNL     1       5.189  12.607   6.105  1.00  0.00    -0.237 OA
ATOM     50  O   UNL     1       2.955  13.290   6.889  1.00  0.00    -0.744 OA
ENDBRANCH  43  47
ENDBRANCH  26  40
BRANCH  27  51
ATOM     51  C   UNL     1      -1.757   4.010   9.416  1.00  0.00     0.023 A 
ATOM     52  C   UNL     1      -2.185   4.747  10.555  1.00  0.00     0.031 A 
ATOM     53  C   UNL     1      -2.784   3.559   8.559  1.00  0.00     0.131 A 
ATOM     54  C   UNL     1      -3.563   5.009  10.777  1.00  0.00     0.055 A 
ATOM     55  C   UNL     1      -4.140   3.823   8.782  1.00  0.00     0.041 A 
ATOM     56  F   UNL     1      -2.509   2.918   7.414  1.00  0.00    -0.206 F 
ATOM     57  C   UNL     1      -4.536   4.560   9.884  1.00  0.00     0.022 A 
BRANCH  54  58
ATOM     58  S   UNL     1      -4.127   6.048  12.173  1.00  0.00     0.124 S 
ATOM     59  O   UNL     1      -4.073   5.114  13.292  1.00  0.00    -0.237 OA
ATOM     60  O   UNL     1      -3.150   7.130  12.184  1.00  0.00    -0.237 OA
ATOM     61  O   UNL     1      -5.477   6.450  11.774  1.00  0.00    -0.744 OA
ENDBRANCH  54  58
ENDBRANCH  27  51
BRANCH  39  62
ATOM     62  C   UNL     1       4.649   4.245   9.803  1.00  0.00     0.023 A 
ATOM     63  C   UNL     1       4.365   2.865   9.681  1.00  0.00     0.031 A 
ATOM     64  C   UNL     1       5.753   4.623  10.588  1.00  0.00     0.131 A 
ATOM     65  C   UNL     1       5.198   1.923  10.328  1.00  0.00     0.055 A 
ATOM     66  C   UNL     1       6.582   3.691  11.204  1.00  0.00     0.041 A 
ATOM     67  F   UNL     1       6.082   5.920  10.715  1.00  0.00    -0.206 F 
ATOM     68  C   UNL     1       6.309   2.336  11.073  1.00  0.00     0.022 A 
BRANCH  65  69
ATOM     69  S   UNL     1       4.891   0.131  10.170  1.00  0.00     0.124 S 
ATOM     70  O   UNL     1       3.562  -0.031  10.747  1.00  0.00    -0.237 OA
ATOM     71  O   UNL     1       4.999  -0.093   8.731  1.00  0.00    -0.237 OA
ATOM     72  O   UNL     1       5.971  -0.474  10.954  1.00  0.00    -0.744 OA
ENDBRANCH  65  69
ENDBRANCH  39  62
ENDBRANCH  13  14
ENDBRANCH   6   8
ENDBRANCH   3   4
ENDBRANCH   2   3
ENDBRANCH   1   2
BRANCH   1  73
ATOM     73  C   UNL     1       4.852  -4.266  -0.058  1.00  0.00     0.002 C 
BRANCH  73  74
ATOM     74  C   UNL     1       6.382  -4.318  -0.129  1.00  0.00     0.021 C 
BRANCH  74  75
ATOM     75  C   UNL     1       7.048  -4.950   1.093  1.00  0.00     0.116 C 
BRANCH  75  76
ATOM     76  N   UNL     1       6.737  -6.365   1.172  1.00  0.00    -0.351 N 
ATOM     77  C   UNL     1       7.595  -7.421   1.014  1.00  0.00     0.271 C 
ATOM     78  H   UNL     1       5.799  -6.594   1.361  1.00  0.00     0.163 HD
ATOM     79  O   UNL     1       7.131  -8.556   0.845  1.00  0.00    -0.267 OA
BRANCH  77  80
ATOM     80  C   UNL     1       9.033  -7.168   1.107  1.00  0.00     0.150 A 
ATOM     81  C   UNL     1       9.724  -6.628   2.224  1.00  0.00     0.056 A 
ATOM     82  N   UNL     1       9.885  -7.455   0.105  1.00  0.00    -0.161 NA
ATOM     83  C   UNL     1      11.054  -6.748   1.912  1.00  0.00     0.118 A 
ATOM     84  N   UNL     1      11.114  -7.297   0.654  1.00  0.00    -0.222 N 
BRANCH  84  85
ATOM     85  C   UNL     1      12.296  -7.701  -0.021  1.00  0.00     0.158 A 
ATOM     86  C   UNL     1      12.305  -7.697  -1.400  1.00  0.00     0.078 A 
ATOM     87  N   UNL     1      13.358  -8.067   0.728  1.00  0.00    -0.209 NA
ATOM     88  C   UNL     1      13.499  -8.052  -1.992  1.00  0.00     0.077 A 
ATOM     89  C   UNL     1      14.439  -8.486   0.054  1.00  0.00     0.165 A 
ATOM     90  N   UNL     1      14.559  -8.493  -1.284  1.00  0.00    -0.228 NA
BRANCH  88  91
ATOM     91  C   UNL     1      13.717  -7.915  -3.434  1.00  0.00     0.003 A 
ATOM     92  C   UNL     1      13.635  -6.662  -4.056  1.00  0.00     0.030 A 
ATOM     93  C   UNL     1      14.040  -9.020  -4.226  1.00  0.00     0.030 A 
ATOM     94  C   UNL     1      13.865  -6.573  -5.419  1.00  0.00     0.111 A 
ATOM     95  C   UNL     1      14.243  -8.832  -5.583  1.00  0.00     0.111 A 
ATOM     96  N   UNL     1      14.159  -7.634  -6.199  1.00  0.00    -0.265 NA
ENDBRANCH  88  91
BRANCH  89  97
ATOM     97  C   UNL     1      15.513  -9.082   0.836  1.00  0.00     0.055 A 
ATOM     98  C   UNL     1      15.305 -10.269   1.564  1.00  0.00     0.015 A 
ATOM     99  C   UNL     1      16.778  -8.493   0.891  1.00  0.00     0.134 A 
ATOM    100  C   UNL     1      16.338 -10.847   2.309  1.00  0.00     0.001 A 
ATOM    101  C   UNL     1      17.810  -9.058   1.641  1.00  0.00     0.040 A 
ATOM    102  F   UNL     1      17.021  -7.347   0.238  1.00  0.00    -0.206 F 
ATOM    103  C   UNL     1      17.591 -10.239   2.347  1.00  0.00     0.003 A 
ENDBRANCH  89  97
ENDBRANCH  84  85
ENDBRANCH  77  80
ENDBRANCH  75  76
ENDBRANCH  74  75
ENDBRANCH  73  74
ENDBRANCH   1  73
TORSDOF 19
