REMARK SMILES COc1cc(OC)cc(-c2ccc(C(=O)NCCCCCCNC(=O)c3ccc(-c4c5nc(c(-c6cc(S(=O)(=O)[O-])ccc6F)c6ccc([nH]6)c(-c6cc(S(=O)(=O)[O-])ccc6F)c6nc(c(-c7cc(S(=O)(=O)[O-])ccc7F)c7ccc4[nH]7)C=C6)C=C5)cc3)o2)c1
REMARK SMILES IDX 20 1 19 2 18 3 17 4 16 5 14 6 15 7 13 9 10 10 11 11 89 12
REMARK SMILES IDX 12 13 9 14 3 15 4 16 90 17 5 18 8 19 2 20 1 21 6 22 7 23
REMARK SMILES IDX 21 24 22 25 23 26 24 27 25 29 26 30 27 31 88 32 28 33 87 34
REMARK SMILES IDX 29 35 30 36 31 37 81 38 32 39 86 40 80 41 82 42 33 43 85 44
REMARK SMILES IDX 79 45 78 46 34 48 66 49 46 50 65 51 47 52 50 53 64 54 83 55
REMARK SMILES IDX 48 56 49 57 63 59 84 60 51 61 35 62 36 63 44 64 37 65 43 66
REMARK SMILES IDX 45 67 42 68 38 69 39 70 40 71 41 72 67 73 68 74 76 75 69 76
REMARK SMILES IDX 75 77 77 78 74 79 70 80 71 81 72 82 73 83 52 84 53 85 61 86
REMARK SMILES IDX 54 87 60 88 62 89 59 90 55 91 56 92 57 93 58 94
REMARK H PARENT 16 8 23 28 82 47 50 58
REMARK Flexibility Score: inf
ROOT
ATOM      1  C   UNL     1      11.745  -0.732   5.838  1.00  0.00     0.002 C 
ENDROOT
BRANCH   1   2
ATOM      2  C   UNL     1      10.608  -0.213   6.729  1.00  0.00     0.002 C 
BRANCH   2   3
ATOM      3  C   UNL     1       9.455   0.465   5.975  1.00  0.00     0.021 C 
BRANCH   3   4
ATOM      4  C   UNL     1       8.765  -0.464   4.976  1.00  0.00     0.116 C 
BRANCH   4   5
ATOM      5  N   UNL     1       7.799  -1.310   5.644  1.00  0.00    -0.349 N 
ATOM      6  C   UNL     1       6.424  -1.273   5.681  1.00  0.00     0.287 C 
ATOM      7  O   UNL     1       5.886  -2.180   6.323  1.00  0.00    -0.266 OA
ATOM      8  H   UNL     1       8.197  -2.043   6.166  1.00  0.00     0.163 HD
BRANCH   6   9
ATOM      9  C   UNL     1       5.672  -0.244   4.985  1.00  0.00     0.192 A 
ATOM     10  C   UNL     1       3.815   0.563   4.097  1.00  0.00     0.135 A 
ATOM     11  C   UNL     1       4.795   1.487   3.830  1.00  0.00     0.052 A 
ATOM     12  O   UNL     1       4.325  -0.483   4.795  1.00  0.00    -0.451 OA
ATOM     13  C   UNL     1       5.966   1.002   4.454  1.00  0.00     0.057 A 
BRANCH  10  14
ATOM     14  C   UNL     1       2.392   0.557   3.836  1.00  0.00     0.025 A 
ATOM     15  C   UNL     1       0.561   0.677   2.258  1.00  0.00     0.123 A 
ATOM     16  C   UNL     1      -0.306   0.968   3.316  1.00  0.00     0.092 A 
ATOM     17  C   UNL     1       1.916   0.481   2.521  1.00  0.00     0.058 A 
ATOM     18  C   UNL     1       0.157   1.033   4.633  1.00  0.00     0.123 A 
ATOM     19  C   UNL     1       1.504   0.795   4.893  1.00  0.00     0.058 A 
BRANCH  15  20
ATOM     20  O   UNL     1      -0.018   0.674   1.019  1.00  0.00    -0.497 OA
ATOM     21  C   UNL     1       0.725   0.063  -0.030  1.00  0.00     0.278 C 
ENDBRANCH  15  20
BRANCH  18  22
ATOM     22  O   UNL     1      -0.786   1.360   5.569  1.00  0.00    -0.497 OA
ATOM     23  C   UNL     1      -0.294   1.744   6.849  1.00  0.00     0.278 C 
ENDBRANCH  18  22
ENDBRANCH  10  14
ENDBRANCH   6   9
ENDBRANCH   4   5
ENDBRANCH   3   4
ENDBRANCH   2   3
ENDBRANCH   1   2
BRANCH   1  24
ATOM     24  C   UNL     1      12.337   0.304   4.878  1.00  0.00     0.021 C 
BRANCH  24  25
ATOM     25  C   UNL     1      12.981   1.498   5.574  1.00  0.00     0.116 C 
BRANCH  25  26
ATOM     26  N   UNL     1      14.150   1.102   6.344  1.00  0.00    -0.352 N 
ATOM     27  C   UNL     1      15.435   1.587   6.271  1.00  0.00     0.251 C 
ATOM     28  H   UNL     1      14.001   0.390   7.007  1.00  0.00     0.163 HD
ATOM     29  O   UNL     1      16.351   0.991   6.816  1.00  0.00    -0.269 OA
BRANCH  27  30
ATOM     30  C   UNL     1      15.687   2.826   5.503  1.00  0.00     0.039 A 
ATOM     31  C   UNL     1      16.740   2.860   4.587  1.00  0.00     0.014 A 
ATOM     32  C   UNL     1      14.859   3.938   5.676  1.00  0.00     0.014 A 
ATOM     33  C   UNL     1      16.923   3.994   3.792  1.00  0.00     0.010 A 
ATOM     34  C   UNL     1      14.997   5.034   4.833  1.00  0.00     0.010 A 
ATOM     35  C   UNL     1      16.030   5.074   3.883  1.00  0.00    -0.014 A 
BRANCH  35  36
ATOM     36  C   UNL     1      16.151   6.264   3.001  1.00  0.00     0.031 A 
ATOM     37  C   UNL     1      16.409   7.616   3.604  1.00  0.00     0.074 A 
ATOM     38  C   UNL     1      15.929   6.142   1.679  1.00  0.00     0.049 A 
ATOM     39  N   UNL     1      16.408   8.794   3.035  1.00  0.00    -0.248 NA
ATOM     40  C   UNL     1      16.660   7.645   5.052  1.00  0.00     0.031 C 
ATOM     41  C   UNL     1      15.624   4.889   0.985  1.00  0.00     0.029 A 
ATOM     42  N   UNL     1      15.900   7.087   0.684  1.00  0.00    -0.354 N 
ATOM     43  C   UNL     1      16.637   9.707   4.058  1.00  0.00     0.074 A 
ATOM     44  C   UNL     1      16.698   8.946   5.289  1.00  0.00     0.031 C 
ATOM     45  C   UNL     1      15.446   5.142  -0.321  1.00  0.00     0.029 A 
ATOM     46  C   UNL     1      15.574   6.578  -0.550  1.00  0.00     0.049 A 
ATOM     47  H   UNL     1      16.095   8.040   0.841  1.00  0.00     0.167 HD
ATOM     48  C   UNL     1      16.805  11.052   3.975  1.00  0.00     0.034 A 
ATOM     49  C   UNL     1      15.374   7.198  -1.730  1.00  0.00     0.034 A 
ATOM     50  C   UNL     1      16.740  11.787   2.735  1.00  0.00     0.049 A 
ATOM     51  C   UNL     1      15.540   8.694  -1.804  1.00  0.00     0.074 A 
ATOM     52  C   UNL     1      16.949  13.138   2.519  1.00  0.00     0.029 A 
ATOM     53  N   UNL     1      16.428  11.235   1.497  1.00  0.00    -0.354 N 
ATOM     54  N   UNL     1      15.809   9.543  -0.839  1.00  0.00    -0.248 NA
ATOM     55  C   UNL     1      15.388   9.311  -3.127  1.00  0.00     0.031 C 
ATOM     56  C   UNL     1      16.690  13.414   1.172  1.00  0.00     0.029 A 
ATOM     57  C   UNL     1      16.404  12.223   0.523  1.00  0.00     0.049 A 
ATOM     58  H   UNL     1      16.250  10.280   1.335  1.00  0.00     0.167 HD
ATOM     59  C   UNL     1      15.885  10.794  -1.444  1.00  0.00     0.074 A 
ATOM     60  C   UNL     1      15.643  10.584  -2.858  1.00  0.00     0.031 C 
ATOM     61  C   UNL     1      16.142  12.004  -0.882  1.00  0.00     0.034 A 
BRANCH  48  62
ATOM     62  C   UNL     1      17.035  11.798   5.271  1.00  0.00     0.023 A 
ATOM     63  C   UNL     1      18.125  11.501   6.110  1.00  0.00     0.031 A 
ATOM     64  C   UNL     1      16.117  12.767   5.714  1.00  0.00     0.131 A 
ATOM     65  C   UNL     1      18.205  12.073   7.388  1.00  0.00     0.055 A 
ATOM     66  C   UNL     1      16.260  13.411   6.945  1.00  0.00     0.041 A 
ATOM     67  F   UNL     1      15.045  13.084   4.971  1.00  0.00    -0.206 F 
ATOM     68  C   UNL     1      17.295  13.048   7.802  1.00  0.00     0.022 A 
BRANCH  65  69
ATOM     69  S   UNL     1      19.389  11.374   8.572  1.00  0.00     0.124 S 
ATOM     70  O   UNL     1      18.997   9.966   8.583  1.00  0.00    -0.237 OA
ATOM     71  O   UNL     1      20.672  11.676   7.950  1.00  0.00    -0.237 OA
ATOM     72  O   UNL     1      19.106  12.100   9.809  1.00  0.00    -0.744 OA
ENDBRANCH  65  69
ENDBRANCH  48  62
BRANCH  49  73
ATOM     73  C   UNL     1      14.976   6.405  -2.926  1.00  0.00     0.023 A 
ATOM     74  C   UNL     1      15.842   6.250  -4.019  1.00  0.00     0.031 A 
ATOM     75  C   UNL     1      13.717   5.779  -2.987  1.00  0.00     0.131 A 
ATOM     76  C   UNL     1      15.429   5.511  -5.138  1.00  0.00     0.055 A 
ATOM     77  C   UNL     1      13.328   5.008  -4.083  1.00  0.00     0.041 A 
ATOM     78  F   UNL     1      12.855   5.887  -1.962  1.00  0.00    -0.206 F 
ATOM     79  C   UNL     1      14.185   4.877  -5.171  1.00  0.00     0.022 A 
BRANCH  76  80
ATOM     80  S   UNL     1      16.528   5.425  -6.579  1.00  0.00     0.124 S 
ATOM     81  O   UNL     1      16.633   6.830  -6.956  1.00  0.00    -0.237 OA
ATOM     82  O   UNL     1      17.728   4.822  -6.010  1.00  0.00    -0.237 OA
ATOM     83  O   UNL     1      15.793   4.579  -7.517  1.00  0.00    -0.744 OA
ENDBRANCH  76  80
ENDBRANCH  49  73
BRANCH  61  84
ATOM     84  C   UNL     1      16.216  13.192  -1.813  1.00  0.00     0.023 A 
ATOM     85  C   UNL     1      15.089  13.667  -2.506  1.00  0.00     0.031 A 
ATOM     86  C   UNL     1      17.441  13.856  -2.009  1.00  0.00     0.131 A 
ATOM     87  C   UNL     1      15.220  14.741  -3.400  1.00  0.00     0.055 A 
ATOM     88  C   UNL     1      17.552  14.963  -2.851  1.00  0.00     0.041 A 
ATOM     89  F   UNL     1      18.552  13.443  -1.377  1.00  0.00    -0.206 F 
ATOM     90  C   UNL     1      16.440  15.404  -3.563  1.00  0.00     0.022 A 
BRANCH  87  91
ATOM     91  S   UNL     1      13.795  15.205  -4.422  1.00  0.00     0.124 S 
ATOM     92  O   UNL     1      13.516  13.962  -5.134  1.00  0.00    -0.237 OA
ATOM     93  O   UNL     1      12.810  15.602  -3.421  1.00  0.00    -0.237 OA
ATOM     94  O   UNL     1      14.307  16.294  -5.252  1.00  0.00    -0.744 OA
ENDBRANCH  87  91
ENDBRANCH  61  84
ENDBRANCH  35  36
ENDBRANCH  27  30
ENDBRANCH  25  26
ENDBRANCH  24  25
ENDBRANCH   1  24
TORSDOF 19
