REMARK SMILES Cc1cc(C)c2c(O[C@@H](C)C(=O)NCCCCCCNC(=O)c3ccc(-c4c5nc(c(-c6cc(S(=O)(=O)[O-])ccc6F)c6ccc([nH]6)c(-c6cc(S(=O)(=O)[O-])ccc6F)c6nc(c(-c7cc(S(=O)(=O)[O-])ccc7F)c7ccc4[nH]7)C=C6)C=C5)cc3)nsc2n1
REMARK SMILES IDX 17 1 16 2 15 3 14 4 13 5 11 6 12 7 9 9 10 10 8 11 7 12 1 13
REMARK SMILES IDX 2 14 3 15 89 16 4 17 88 18 5 19 6 20 87 21 86 22 18 23 19 24
REMARK SMILES IDX 20 25 21 26 22 28 23 29 24 30 85 31 25 32 84 33 26 34 27 35
REMARK SMILES IDX 28 36 78 37 29 38 83 39 77 40 79 41 30 42 82 43 76 44 75 45
REMARK SMILES IDX 31 47 63 48 43 49 62 50 44 51 47 52 61 53 80 54 45 55 46 56
REMARK SMILES IDX 60 58 81 59 48 60 32 61 33 62 41 63 34 64 40 65 42 66 39 67
REMARK SMILES IDX 35 68 36 69 37 70 38 71 64 72 65 73 73 74 66 75 72 76 74 77
REMARK SMILES IDX 71 78 67 79 68 80 69 81 70 82 49 83 50 84 58 85 51 86 57 87
REMARK SMILES IDX 59 88 56 89 52 90 53 91 54 92 55 93
REMARK H PARENT 13 8 20 27 79 46 47 57
REMARK Flexibility Score: inf
ROOT
ATOM      1  C   UNL     1       2.101   0.767   3.100  1.00  0.00     0.002 C 
ENDROOT
BRANCH   1   2
ATOM      2  C   UNL     1       2.534   2.159   3.611  1.00  0.00     0.002 C 
BRANCH   2   3
ATOM      3  C   UNL     1       1.836   3.394   3.034  1.00  0.00     0.021 C 
BRANCH   3   4
ATOM      4  C   UNL     1       0.318   3.369   3.052  1.00  0.00     0.116 C 
BRANCH   4   5
ATOM      5  N   UNL     1      -0.371   4.053   4.115  1.00  0.00    -0.353 N 
ATOM      6  C   UNL     1      -1.590   4.676   4.023  1.00  0.00     0.260 C 
ATOM      7  O   UNL     1      -2.283   4.684   5.050  1.00  0.00    -0.271 OA
ATOM      8  H   UNL     1       0.076   4.077   4.992  1.00  0.00     0.163 HD
BRANCH   6   9
ATOM      9  C   UNL     1      -2.099   5.434   2.729  1.00  0.00     0.260 C 
ATOM     10  C   UNL     1      -3.581   5.229   2.383  1.00  0.00     0.064 C 
BRANCH   9  11
ATOM     11  O   UNL     1      -1.364   5.830   1.612  1.00  0.00    -0.463 OA
BRANCH  11  12
ATOM     12  C   UNL     1      -1.102   5.075   0.519  1.00  0.00     0.235 A 
ATOM     13  C   UNL     1       0.082  -0.105  -1.471  1.00  0.00     0.067 C 
ATOM     14  C   UNL     1      -0.453   1.204  -0.968  1.00  0.00     0.039 A 
ATOM     15  C   UNL     1      -1.407   1.222   0.035  1.00  0.00     0.027 A 
ATOM     16  N   UNL     1       0.064   2.313  -1.499  1.00  0.00    -0.240 NA
ATOM     17  C   UNL     1      -1.797   2.433   0.656  1.00  0.00    -0.034 A 
ATOM     18  C   UNL     1      -0.340   3.463  -0.928  1.00  0.00     0.147 A 
ATOM     19  C   UNL     1      -2.788   2.253   1.776  1.00  0.00     0.045 C 
ATOM     20  C   UNL     1      -1.209   3.648   0.162  1.00  0.00     0.078 A 
ATOM     21  S   UNL     1       0.263   4.945  -1.495  1.00  0.00    -0.012 S 
ATOM     22  N   UNL     1      -0.449   5.858  -0.337  1.00  0.00    -0.153 NA
ENDBRANCH  11  12
ENDBRANCH   9  11
ENDBRANCH   6   9
ENDBRANCH   4   5
ENDBRANCH   3   4
ENDBRANCH   2   3
ENDBRANCH   1   2
BRANCH   1  23
ATOM     23  C   UNL     1       1.993   0.547   1.585  1.00  0.00     0.021 C 
BRANCH  23  24
ATOM     24  C   UNL     1       3.277   0.777   0.813  1.00  0.00     0.116 C 
BRANCH  24  25
ATOM     25  N   UNL     1       4.288  -0.269   0.965  1.00  0.00    -0.352 N 
ATOM     26  C   UNL     1       5.469  -0.421   0.254  1.00  0.00     0.251 C 
ATOM     27  H   UNL     1       4.110  -0.946   1.657  1.00  0.00     0.163 HD
ATOM     28  O   UNL     1       6.046  -1.518   0.262  1.00  0.00    -0.269 OA
BRANCH  26  29
ATOM     29  C   UNL     1       6.021   0.711  -0.525  1.00  0.00     0.039 A 
ATOM     30  C   UNL     1       6.838   0.540  -1.645  1.00  0.00     0.014 A 
ATOM     31  C   UNL     1       5.715   2.001  -0.106  1.00  0.00     0.014 A 
ATOM     32  C   UNL     1       7.282   1.675  -2.330  1.00  0.00     0.010 A 
ATOM     33  C   UNL     1       5.916   3.079  -0.917  1.00  0.00     0.010 A 
ATOM     34  C   UNL     1       6.804   2.946  -1.959  1.00  0.00    -0.014 A 
BRANCH  34  35
ATOM     35  C   UNL     1       7.144   4.161  -2.686  1.00  0.00     0.031 A 
ATOM     36  C   UNL     1       6.906   4.047  -4.136  1.00  0.00     0.074 A 
ATOM     37  C   UNL     1       7.470   5.344  -2.115  1.00  0.00     0.049 A 
ATOM     38  N   UNL     1       7.794   3.797  -5.037  1.00  0.00    -0.248 NA
ATOM     39  C   UNL     1       5.521   3.978  -4.622  1.00  0.00     0.031 C 
ATOM     40  C   UNL     1       7.490   5.713  -0.693  1.00  0.00     0.029 A 
ATOM     41  N   UNL     1       7.801   6.517  -2.724  1.00  0.00    -0.354 N 
ATOM     42  C   UNL     1       7.116   3.837  -6.243  1.00  0.00     0.074 A 
ATOM     43  C   UNL     1       5.723   3.696  -5.912  1.00  0.00     0.031 C 
ATOM     44  C   UNL     1       7.626   7.054  -0.564  1.00  0.00     0.029 A 
ATOM     45  C   UNL     1       7.880   7.621  -1.876  1.00  0.00     0.049 A 
ATOM     46  H   UNL     1       7.972   6.580  -3.692  1.00  0.00     0.167 HD
ATOM     47  C   UNL     1       7.748   4.282  -7.363  1.00  0.00     0.034 A 
ATOM     48  C   UNL     1       8.190   8.901  -2.217  1.00  0.00     0.034 A 
ATOM     49  C   UNL     1       9.188   4.294  -7.169  1.00  0.00     0.049 A 
ATOM     50  C   UNL     1       9.003   8.798  -3.453  1.00  0.00     0.074 A 
ATOM     51  C   UNL     1      10.129   3.340  -6.823  1.00  0.00     0.029 A 
ATOM     52  N   UNL     1       9.789   5.506  -6.908  1.00  0.00    -0.354 N 
ATOM     53  N   UNL     1      10.171   8.214  -3.496  1.00  0.00    -0.248 NA
ATOM     54  C   UNL     1       8.317   8.915  -4.729  1.00  0.00     0.031 C 
ATOM     55  C   UNL     1      11.018   4.004  -5.923  1.00  0.00     0.029 A 
ATOM     56  C   UNL     1      10.629   5.342  -5.832  1.00  0.00     0.049 A 
ATOM     57  H   UNL     1       9.643   6.343  -7.405  1.00  0.00     0.167 HD
ATOM     58  C   UNL     1      10.169   7.509  -4.689  1.00  0.00     0.074 A 
ATOM     59  C   UNL     1       9.044   8.055  -5.447  1.00  0.00     0.031 C 
ATOM     60  C   UNL     1      10.907   6.369  -4.842  1.00  0.00     0.034 A 
BRANCH  47  61
ATOM     61  C   UNL     1       7.075   5.087  -8.452  1.00  0.00     0.023 A 
ATOM     62  C   UNL     1       7.879   5.486  -9.536  1.00  0.00     0.031 A 
ATOM     63  C   UNL     1       5.810   5.714  -8.365  1.00  0.00     0.131 A 
ATOM     64  C   UNL     1       7.474   6.524 -10.392  1.00  0.00     0.055 A 
ATOM     65  C   UNL     1       5.388   6.705  -9.254  1.00  0.00     0.041 A 
ATOM     66  F   UNL     1       4.942   5.478  -7.376  1.00  0.00    -0.206 F 
ATOM     67  C   UNL     1       6.235   7.141 -10.255  1.00  0.00     0.022 A 
BRANCH  64  68
ATOM     68  S   UNL     1       8.670   7.154 -11.593  1.00  0.00     0.124 S 
ATOM     69  O   UNL     1       9.778   7.541 -10.727  1.00  0.00    -0.237 OA
ATOM     70  O   UNL     1       8.889   5.985 -12.438  1.00  0.00    -0.237 OA
ATOM     71  O   UNL     1       7.957   8.258 -12.232  1.00  0.00    -0.744 OA
ENDBRANCH  64  68
ENDBRANCH  47  61
BRANCH  48  72
ATOM     72  C   UNL     1       7.517  10.164  -1.788  1.00  0.00     0.023 A 
ATOM     73  C   UNL     1       8.025  11.440  -2.134  1.00  0.00     0.031 A 
ATOM     74  C   UNL     1       6.205  10.132  -1.269  1.00  0.00     0.131 A 
ATOM     75  C   UNL     1       7.225  12.599  -1.983  1.00  0.00     0.055 A 
ATOM     76  C   UNL     1       5.417  11.280  -1.128  1.00  0.00     0.041 A 
ATOM     77  F   UNL     1       5.606   8.971  -0.964  1.00  0.00    -0.206 F 
ATOM     78  C   UNL     1       5.919  12.517  -1.499  1.00  0.00     0.022 A 
BRANCH  75  79
ATOM     79  S   UNL     1       7.831  14.231  -2.533  1.00  0.00     0.124 S 
ATOM     80  O   UNL     1       8.736  14.601  -1.450  1.00  0.00    -0.237 OA
ATOM     81  O   UNL     1       8.449  13.927  -3.818  1.00  0.00    -0.237 OA
ATOM     82  O   UNL     1       6.612  15.035  -2.617  1.00  0.00    -0.744 OA
ENDBRANCH  75  79
ENDBRANCH  48  72
BRANCH  60  83
ATOM     83  C   UNL     1      11.986   6.063  -3.820  1.00  0.00     0.023 A 
ATOM     84  C   UNL     1      11.771   5.787  -2.448  1.00  0.00     0.031 A 
ATOM     85  C   UNL     1      13.294   5.920  -4.315  1.00  0.00     0.131 A 
ATOM     86  C   UNL     1      12.852   5.381  -1.634  1.00  0.00     0.055 A 
ATOM     87  C   UNL     1      14.354   5.501  -3.513  1.00  0.00     0.041 A 
ATOM     88  F   UNL     1      13.556   6.148  -5.613  1.00  0.00    -0.206 F 
ATOM     89  C   UNL     1      14.137   5.230  -2.168  1.00  0.00     0.022 A 
BRANCH  86  90
ATOM     90  S   UNL     1      12.608   5.014   0.138  1.00  0.00     0.124 S 
ATOM     91  O   UNL     1      12.082   6.264   0.671  1.00  0.00    -0.237 OA
ATOM     92  O   UNL     1      11.680   3.887   0.112  1.00  0.00    -0.237 OA
ATOM     93  O   UNL     1      13.954   4.674   0.608  1.00  0.00    -0.744 OA
ENDBRANCH  86  90
ENDBRANCH  60  83
ENDBRANCH  34  35
ENDBRANCH  26  29
ENDBRANCH  24  25
ENDBRANCH  23  24
ENDBRANCH   1  23
TORSDOF 18
