REMARK SMILES CC(=O)Nc1cnc(N2CC=C(c3ccccc3C)CC2)c(C(=O)NCCCCCCNC(=O)c2ccc(-c3c4nc(c(-c5cc(S(=O)(=O)[O-])ccc5F)c5ccc([nH]5)c(-c5cc(S(=O)(=O)[O-])ccc5F)c5nc(c(-c6cc(S(=O)(=O)[O-])ccc6F)c6ccc3[nH]6)C=C5)C=C4)cc2)c1
REMARK SMILES IDX 29 1 28 2 27 3 26 4 25 5 23 6 24 7 22 9 5 10 6 11 98 12 7 13
REMARK SMILES IDX 8 14 4 15 1 16 2 17 3 18 9 20 10 21 21 22 11 23 20 24 12 25
REMARK SMILES IDX 13 26 14 27 18 28 15 29 17 30 19 31 16 32 30 33 31 34 32 35
REMARK SMILES IDX 33 36 34 38 35 39 36 40 97 41 37 42 96 43 38 44 39 45 40 46
REMARK SMILES IDX 90 47 41 48 95 49 89 50 91 51 42 52 94 53 88 54 87 55 43 57
REMARK SMILES IDX 75 58 55 59 74 60 56 61 59 62 73 63 92 64 57 65 58 66 72 68
REMARK SMILES IDX 93 69 60 70 44 71 45 72 53 73 46 74 52 75 54 76 51 77 47 78
REMARK SMILES IDX 48 79 49 80 50 81 76 82 77 83 85 84 78 85 84 86 86 87 83 88
REMARK SMILES IDX 79 89 80 90 81 91 82 92 61 93 62 94 70 95 63 96 69 97 71 98
REMARK SMILES IDX 68 99 64 100 65 101 66 102 67 103
REMARK H PARENT 25 8 4 19 32 37 91 56 59 67
REMARK Flexibility Score: inf
ROOT
ATOM      1  C   UNL     1       6.814   0.504  -2.303  1.00  0.00     0.002 C 
ENDROOT
BRANCH   1   2
ATOM      2  C   UNL     1       6.954   0.721  -0.785  1.00  0.00     0.002 C 
BRANCH   2   3
ATOM      3  C   UNL     1       5.657   0.713   0.040  1.00  0.00     0.021 C 
BRANCH   3   4
ATOM      4  C   UNL     1       4.720  -0.458  -0.244  1.00  0.00     0.116 C 
BRANCH   4   5
ATOM      5  N   UNL     1       5.132  -1.693   0.392  1.00  0.00    -0.352 N 
ATOM      6  C   UNL     1       4.598  -2.589   1.284  1.00  0.00     0.255 C 
ATOM      7  O   UNL     1       5.090  -3.717   1.189  1.00  0.00    -0.269 OA
ATOM      8  H   UNL     1       6.036  -1.960   0.109  1.00  0.00     0.163 HD
BRANCH   6   9
ATOM      9  C   UNL     1       3.493  -2.339   2.273  1.00  0.00     0.084 A 
ATOM     10  C   UNL     1       1.467  -1.151   2.954  1.00  0.00     0.060 A 
ATOM     11  C   UNL     1       1.281  -2.124   3.914  1.00  0.00     0.139 A 
ATOM     12  C   UNL     1       2.616  -1.248   2.173  1.00  0.00     0.045 A 
ATOM     13  N   UNL     1       2.117  -3.163   4.093  1.00  0.00    -0.236 NA
ATOM     14  C   UNL     1       3.227  -3.267   3.308  1.00  0.00     0.141 A 
BRANCH  10  15
ATOM     15  N   UNL     1       0.520  -0.120   2.836  1.00  0.00    -0.325 N 
ATOM     16  C   UNL     1       0.622   0.283   0.375  1.00  0.00     0.114 C 
ATOM     17  C   UNL     1       0.157   0.643   1.761  1.00  0.00     0.221 C 
ATOM     18  O   UNL     1      -0.620   1.584   1.935  1.00  0.00    -0.275 OA
ATOM     19  H   UNL     1       0.035   0.088   3.667  1.00  0.00     0.169 HD
ENDBRANCH  10  15
BRANCH  14  20
ATOM     20  N   UNL     1       4.053  -4.289   3.706  1.00  0.00    -0.352 N 
ATOM     21  C   UNL     1       3.642  -5.643   3.384  1.00  0.00     0.146 C 
ATOM     22  C   UNL     1       5.446  -4.043   4.050  1.00  0.00     0.123 C 
ATOM     23  C   UNL     1       4.375  -6.639   4.245  1.00  0.00    -0.002 C 
ATOM     24  C   UNL     1       5.811  -4.886   5.276  1.00  0.00     0.057 C 
ATOM     25  C   UNL     1       5.346  -6.314   5.120  1.00  0.00    -0.041 C 
BRANCH  25  26
ATOM     26  C   UNL     1       6.008  -7.343   5.939  1.00  0.00    -0.020 A 
ATOM     27  C   UNL     1       6.850  -8.263   5.292  1.00  0.00     0.008 A 
ATOM     28  C   UNL     1       5.845  -7.419   7.336  1.00  0.00    -0.044 A 
ATOM     29  C   UNL     1       7.543  -9.231   6.018  1.00  0.00     0.001 A 
ATOM     30  C   UNL     1       6.564  -8.389   8.055  1.00  0.00     0.004 A 
ATOM     31  C   UNL     1       4.953  -6.473   8.093  1.00  0.00     0.045 C 
ATOM     32  C   UNL     1       7.405  -9.289   7.400  1.00  0.00     0.000 A 
ENDBRANCH  25  26
ENDBRANCH  14  20
ENDBRANCH   6   9
ENDBRANCH   4   5
ENDBRANCH   3   4
ENDBRANCH   2   3
ENDBRANCH   1   2
BRANCH   1  33
ATOM     33  C   UNL     1       5.732   1.326  -3.007  1.00  0.00     0.021 C 
BRANCH  33  34
ATOM     34  C   UNL     1       6.059   2.809  -3.122  1.00  0.00     0.116 C 
BRANCH  34  35
ATOM     35  N   UNL     1       6.424   3.221  -4.473  1.00  0.00    -0.352 N 
ATOM     36  C   UNL     1       6.727   4.495  -4.936  1.00  0.00     0.251 C 
ATOM     37  H   UNL     1       6.460   2.502  -5.145  1.00  0.00     0.163 HD
ATOM     38  O   UNL     1       6.989   4.716  -6.095  1.00  0.00    -0.269 OA
BRANCH  36  39
ATOM     39  C   UNL     1       6.827   5.576  -3.925  1.00  0.00     0.039 A 
ATOM     40  C   UNL     1       8.077   6.180  -3.758  1.00  0.00     0.014 A 
ATOM     41  C   UNL     1       5.804   5.770  -3.002  1.00  0.00     0.014 A 
ATOM     42  C   UNL     1       8.374   6.789  -2.543  1.00  0.00     0.010 A 
ATOM     43  C   UNL     1       6.129   6.290  -1.763  1.00  0.00     0.010 A 
ATOM     44  C   UNL     1       7.434   6.734  -1.513  1.00  0.00    -0.014 A 
BRANCH  44  45
ATOM     45  C   UNL     1       7.787   6.965  -0.114  1.00  0.00     0.031 A 
ATOM     46  C   UNL     1       7.309   8.166   0.601  1.00  0.00     0.074 A 
ATOM     47  C   UNL     1       8.537   6.054   0.546  1.00  0.00     0.049 A 
ATOM     48  N   UNL     1       7.865   8.659   1.655  1.00  0.00    -0.248 NA
ATOM     49  C   UNL     1       6.184   8.959   0.127  1.00  0.00     0.031 C 
ATOM     50  C   UNL     1       8.773   5.976   1.984  1.00  0.00     0.029 A 
ATOM     51  N   UNL     1       9.451   5.161  -0.006  1.00  0.00    -0.354 N 
ATOM     52  C   UNL     1       7.038   9.638   2.158  1.00  0.00     0.074 A 
ATOM     53  C   UNL     1       6.053   9.840   1.123  1.00  0.00     0.031 C 
ATOM     54  C   UNL     1       9.908   5.295   2.200  1.00  0.00     0.029 A 
ATOM     55  C   UNL     1      10.510   5.029   0.906  1.00  0.00     0.049 A 
ATOM     56  H   UNL     1       9.370   4.706  -0.875  1.00  0.00     0.167 HD
ATOM     57  C   UNL     1       7.215  10.061   3.445  1.00  0.00     0.034 A 
ATOM     58  C   UNL     1      11.788   5.353   0.557  1.00  0.00     0.034 A 
ATOM     59  C   UNL     1       8.438   9.498   4.029  1.00  0.00     0.049 A 
ATOM     60  C   UNL     1      12.386   6.460   1.393  1.00  0.00     0.074 A 
ATOM     61  C   UNL     1       8.676   8.468   4.924  1.00  0.00     0.029 A 
ATOM     62  N   UNL     1       9.676   9.840   3.491  1.00  0.00    -0.354 N 
ATOM     63  N   UNL     1      11.694   7.266   2.152  1.00  0.00    -0.248 NA
ATOM     64  C   UNL     1      13.814   6.753   1.428  1.00  0.00     0.031 C 
ATOM     65  C   UNL     1      10.060   8.153   4.875  1.00  0.00     0.029 A 
ATOM     66  C   UNL     1      10.670   9.011   3.976  1.00  0.00     0.049 A 
ATOM     67  H   UNL     1       9.824  10.574   2.852  1.00  0.00     0.167 HD
ATOM     68  C   UNL     1      12.533   8.178   2.744  1.00  0.00     0.074 A 
ATOM     69  C   UNL     1      13.854   7.790   2.281  1.00  0.00     0.031 C 
ATOM     70  C   UNL     1      12.058   9.176   3.553  1.00  0.00     0.034 A 
BRANCH  57  71
ATOM     71  C   UNL     1       6.143  10.744   4.282  1.00  0.00     0.023 A 
ATOM     72  C   UNL     1       6.188  10.621   5.690  1.00  0.00     0.031 A 
ATOM     73  C   UNL     1       5.029  11.453   3.791  1.00  0.00     0.131 A 
ATOM     74  C   UNL     1       5.135  11.076   6.511  1.00  0.00     0.055 A 
ATOM     75  C   UNL     1       3.958  11.863   4.598  1.00  0.00     0.041 A 
ATOM     76  F   UNL     1       4.939  11.844   2.516  1.00  0.00    -0.206 F 
ATOM     77  C   UNL     1       3.999  11.663   5.966  1.00  0.00     0.022 A 
BRANCH  74  78
ATOM     78  S   UNL     1       5.261  10.883   8.311  1.00  0.00     0.124 S 
ATOM     79  O   UNL     1       5.392   9.438   8.459  1.00  0.00    -0.237 OA
ATOM     80  O   UNL     1       6.444  11.677   8.625  1.00  0.00    -0.237 OA
ATOM     81  O   UNL     1       4.000  11.440   8.800  1.00  0.00    -0.744 OA
ENDBRANCH  74  78
ENDBRANCH  57  71
BRANCH  58  82
ATOM     82  C   UNL     1      12.099   5.076  -0.873  1.00  0.00     0.023 A 
ATOM     83  C   UNL     1      11.998   3.737  -1.303  1.00  0.00     0.031 A 
ATOM     84  C   UNL     1      12.090   6.082  -1.847  1.00  0.00     0.131 A 
ATOM     85  C   UNL     1      11.740   3.442  -2.649  1.00  0.00     0.055 A 
ATOM     86  C   UNL     1      11.889   5.779  -3.201  1.00  0.00     0.041 A 
ATOM     87  F   UNL     1      12.142   7.375  -1.496  1.00  0.00    -0.206 F 
ATOM     88  C   UNL     1      11.670   4.460  -3.601  1.00  0.00     0.022 A 
BRANCH  85  89
ATOM     89  S   UNL     1      11.233   1.751  -3.085  1.00  0.00     0.124 S 
ATOM     90  O   UNL     1      12.517   1.103  -3.324  1.00  0.00    -0.237 OA
ATOM     91  O   UNL     1      10.510   1.313  -1.893  1.00  0.00    -0.237 OA
ATOM     92  O   UNL     1      10.390   1.942  -4.263  1.00  0.00    -0.744 OA
ENDBRANCH  85  89
ENDBRANCH  58  82
BRANCH  70  93
ATOM     93  C   UNL     1      12.861  10.348   4.096  1.00  0.00     0.023 A 
ATOM     94  C   UNL     1      14.134  10.708   3.629  1.00  0.00     0.031 A 
ATOM     95  C   UNL     1      12.321  11.205   5.089  1.00  0.00     0.131 A 
ATOM     96  C   UNL     1      14.846  11.788   4.186  1.00  0.00     0.055 A 
ATOM     97  C   UNL     1      12.997  12.324   5.589  1.00  0.00     0.041 A 
ATOM     98  F   UNL     1      11.104  11.002   5.614  1.00  0.00    -0.206 F 
ATOM     99  C   UNL     1      14.278  12.613   5.151  1.00  0.00     0.022 A 
BRANCH  96 100
ATOM    100  S   UNL     1      16.561  12.050   3.660  1.00  0.00     0.124 S 
ATOM    101  O   UNL     1      17.201  10.810   4.091  1.00  0.00    -0.237 OA
ATOM    102  O   UNL     1      16.424  12.223   2.218  1.00  0.00    -0.237 OA
ATOM    103  O   UNL     1      16.970  13.246   4.394  1.00  0.00    -0.744 OA
ENDBRANCH  96 100
ENDBRANCH  70  93
ENDBRANCH  44  45
ENDBRANCH  36  39
ENDBRANCH  34  35
ENDBRANCH  33  34
ENDBRANCH   1  33
TORSDOF 19
