REMARK SMILES CCCCCCOC(=O)Nc1cccc(-c2ccc([C@@H](C)C(=O)NCCCCCCNC(=O)c3ccc(-c4c5nc(c(-c6cc(S(=O)(=O)[O-])ccc6F)c6ccc([nH]6)c(-c6cc(S(=O)(=O)[O-])ccc6F)c6nc(c(-c7cc(S(=O)(=O)[O-])ccc7F)c7ccc4[nH]7)C=C6)C=C5)cc3)cc2F)c1
REMARK SMILES IDX 22 1 23 2 24 3 20 5 21 6 19 7 16 8 17 9 98 10 18 11 97 12
REMARK SMILES IDX 99 13 15 14 11 15 12 16 100 17 13 18 14 19 10 20 8 21 9 22
REMARK SMILES IDX 7 24 6 25 5 26 4 27 3 28 2 29 1 30 25 31 26 32 27 33 28 34
REMARK SMILES IDX 29 35 30 36 31 37 32 38 33 40 34 41 35 42 96 43 36 44 95 45
REMARK SMILES IDX 37 46 38 47 39 48 89 49 40 50 94 51 88 52 90 53 41 54 93 55
REMARK SMILES IDX 87 56 86 57 42 59 74 60 54 61 73 62 55 63 58 64 72 65 91 66
REMARK SMILES IDX 56 67 57 68 71 70 92 71 59 72 43 73 44 74 52 75 45 76 51 77
REMARK SMILES IDX 53 78 50 79 46 80 47 81 48 82 49 83 75 84 76 85 84 86 77 87
REMARK SMILES IDX 83 88 85 89 82 90 78 91 79 92 80 93 81 94 60 95 61 96 69 97
REMARK SMILES IDX 62 98 68 99 70 100 67 101 63 102 64 103 65 104 66 105
REMARK H PARENT 24 4 10 23 31 39 90 58 58 69
REMARK Flexibility Score: inf
ROOT
ATOM      1  C   UNL     1      -6.970  -9.209   2.981  1.00  0.00     0.227 C 
ATOM      2  O   UNL     1      -6.878  -9.251   1.747  1.00  0.00    -0.274 OA
ATOM      3  N   UNL     1      -7.916  -8.375   3.490  1.00  0.00    -0.356 N 
ATOM      4  H   UNL     1      -8.489  -7.949   2.813  1.00  0.00     0.163 HD
ENDROOT
BRANCH   1   5
ATOM      5  C   UNL     1      -6.054 -10.087   3.847  1.00  0.00     0.105 C 
ATOM      6  C   UNL     1      -6.799 -11.107   4.706  1.00  0.00     0.023 C 
BRANCH   5   7
ATOM      7  C   UNL     1      -4.946  -9.315   4.546  1.00  0.00    -0.033 A 
ATOM      8  C   UNL     1      -2.862  -7.732   5.702  1.00  0.00     0.018 A 
ATOM      9  C   UNL     1      -4.069  -7.958   6.377  1.00  0.00     0.012 A 
ATOM     10  C   UNL     1      -2.710  -8.368   4.458  1.00  0.00     0.131 A 
ATOM     11  C   UNL     1      -5.075  -8.762   5.825  1.00  0.00     0.005 A 
ATOM     12  C   UNL     1      -3.731  -9.121   3.878  1.00  0.00     0.044 A 
ATOM     13  F   UNL     1      -1.558  -8.269   3.775  1.00  0.00    -0.206 F 
BRANCH   8  14
ATOM     14  C   UNL     1      -1.818  -6.855   6.269  1.00  0.00    -0.013 A 
ATOM     15  C   UNL     1      -0.018  -5.231   5.920  1.00  0.00     0.045 A 
ATOM     16  C   UNL     1       0.296  -5.266   7.274  1.00  0.00     0.026 A 
ATOM     17  C   UNL     1      -1.077  -6.004   5.434  1.00  0.00     0.035 A 
ATOM     18  C   UNL     1      -0.472  -6.044   8.139  1.00  0.00     0.003 A 
ATOM     19  C   UNL     1      -1.510  -6.838   7.639  1.00  0.00     0.009 A 
BRANCH  15  20
ATOM     20  N   UNL     1       0.814  -4.515   5.049  1.00  0.00    -0.291 N 
ATOM     21  C   UNL     1       0.501  -4.079   3.787  1.00  0.00     0.411 C 
ATOM     22  O   UNL     1       1.354  -3.946   2.930  1.00  0.00    -0.224 OA
ATOM     23  H   UNL     1       1.718  -4.303   5.377  1.00  0.00     0.173 HD
BRANCH  21  24
ATOM     24  O   UNL     1      -0.805  -3.714   3.672  1.00  0.00    -0.449 OA
BRANCH  24  25
ATOM     25  C   UNL     1      -1.241  -3.097   2.452  1.00  0.00     0.235 C 
BRANCH  25  26
ATOM     26  C   UNL     1      -0.993  -1.585   2.444  1.00  0.00     0.042 C 
BRANCH  26  27
ATOM     27  C   UNL     1       0.466  -1.153   2.254  1.00  0.00     0.003 C 
BRANCH  27  28
ATOM     28  C   UNL     1       1.117  -1.635   0.950  1.00  0.00    -0.000 C 
BRANCH  28  29
ATOM     29  C   UNL     1       0.584  -0.971  -0.319  1.00  0.00    -0.003 C 
ATOM     30  C   UNL     1       0.963   0.497  -0.414  1.00  0.00     0.004 C 
ENDBRANCH  28  29
ENDBRANCH  27  28
ENDBRANCH  26  27
ENDBRANCH  25  26
ENDBRANCH  24  25
ENDBRANCH  21  24
ENDBRANCH  15  20
ENDBRANCH   8  14
ENDBRANCH   5   7
ENDBRANCH   1   5
BRANCH   3  31
ATOM     31  C   UNL     1      -8.228  -8.005   4.854  1.00  0.00     0.116 C 
BRANCH  31  32
ATOM     32  C   UNL     1      -7.669  -6.624   5.204  1.00  0.00     0.021 C 
BRANCH  32  33
ATOM     33  C   UNL     1      -8.636  -5.476   4.896  1.00  0.00     0.002 C 
BRANCH  33  34
ATOM     34  C   UNL     1      -9.951  -5.512   5.686  1.00  0.00     0.002 C 
BRANCH  34  35
ATOM     35  C   UNL     1      -9.799  -5.565   7.210  1.00  0.00     0.021 C 
BRANCH  35  36
ATOM     36  C   UNL     1      -9.063  -4.371   7.814  1.00  0.00     0.116 C 
BRANCH  36  37
ATOM     37  N   UNL     1      -9.769  -3.126   7.559  1.00  0.00    -0.352 N 
ATOM     38  C   UNL     1     -10.323  -2.238   8.447  1.00  0.00     0.251 C 
ATOM     39  H   UNL     1      -9.864  -2.884   6.610  1.00  0.00     0.163 HD
ATOM     40  O   UNL     1     -11.116  -1.392   8.043  1.00  0.00    -0.269 OA
BRANCH  38  41
ATOM     41  C   UNL     1      -9.970  -2.307   9.882  1.00  0.00     0.039 A 
ATOM     42  C   UNL     1     -10.975  -2.137  10.837  1.00  0.00     0.014 A 
ATOM     43  C   UNL     1      -8.646  -2.507  10.284  1.00  0.00     0.014 A 
ATOM     44  C   UNL     1     -10.660  -2.219  12.196  1.00  0.00     0.010 A 
ATOM     45  C   UNL     1      -8.347  -2.661  11.635  1.00  0.00     0.010 A 
ATOM     46  C   UNL     1      -9.348  -2.512  12.606  1.00  0.00    -0.014 A 
BRANCH  46  47
ATOM     47  C   UNL     1      -9.007  -2.653  14.046  1.00  0.00     0.031 A 
ATOM     48  C   UNL     1      -8.048  -1.690  14.692  1.00  0.00     0.074 A 
ATOM     49  C   UNL     1      -9.517  -3.680  14.753  1.00  0.00     0.049 A 
ATOM     50  N   UNL     1      -7.573  -1.686  15.912  1.00  0.00    -0.248 NA
ATOM     51  C   UNL     1      -7.534  -0.604  13.845  1.00  0.00     0.031 C 
ATOM     52  C   UNL     1     -10.428  -4.698  14.225  1.00  0.00     0.029 A 
ATOM     53  N   UNL     1      -9.340  -4.044  16.065  1.00  0.00    -0.354 N 
ATOM     54  C   UNL     1      -6.698  -0.607  15.976  1.00  0.00     0.074 A 
ATOM     55  C   UNL     1      -6.660  -0.021  14.652  1.00  0.00     0.031 C 
ATOM     56  C   UNL     1     -10.751  -5.553  15.209  1.00  0.00     0.029 A 
ATOM     57  C   UNL     1     -10.034  -5.176  16.423  1.00  0.00     0.049 A 
ATOM     58  H   UNL     1      -8.770  -3.541  16.690  1.00  0.00     0.167 HD
ATOM     59  C   UNL     1      -6.011  -0.133  17.045  1.00  0.00     0.034 A 
ATOM     60  C   UNL     1     -10.079  -5.843  17.594  1.00  0.00     0.034 A 
ATOM     61  C   UNL     1      -6.068  -0.726  18.360  1.00  0.00     0.049 A 
ATOM     62  C   UNL     1      -9.281  -5.317  18.760  1.00  0.00     0.074 A 
ATOM     63  C   UNL     1      -5.452  -0.302  19.524  1.00  0.00     0.029 A 
ATOM     64  N   UNL     1      -6.778  -1.876  18.684  1.00  0.00    -0.354 N 
ATOM     65  N   UNL     1      -8.494  -4.266  18.817  1.00  0.00    -0.248 NA
ATOM     66  C   UNL     1      -9.386  -6.059  20.023  1.00  0.00     0.031 C 
ATOM     67  C   UNL     1      -5.729  -1.233  20.532  1.00  0.00     0.029 A 
ATOM     68  C   UNL     1      -6.587  -2.193  20.021  1.00  0.00     0.049 A 
ATOM     69  H   UNL     1      -7.335  -2.391  18.057  1.00  0.00     0.167 HD
ATOM     70  C   UNL     1      -8.039  -4.205  20.131  1.00  0.00     0.074 A 
ATOM     71  C   UNL     1      -8.651  -5.314  20.834  1.00  0.00     0.031 C 
ATOM     72  C   UNL     1      -7.195  -3.310  20.707  1.00  0.00     0.034 A 
BRANCH  59  73
ATOM     73  C   UNL     1      -5.119   1.067  16.824  1.00  0.00     0.023 A 
ATOM     74  C   UNL     1      -5.639   2.308  16.413  1.00  0.00     0.031 A 
ATOM     75  C   UNL     1      -3.728   0.966  17.000  1.00  0.00     0.131 A 
ATOM     76  C   UNL     1      -4.771   3.369  16.116  1.00  0.00     0.055 A 
ATOM     77  C   UNL     1      -2.877   2.053  16.787  1.00  0.00     0.041 A 
ATOM     78  F   UNL     1      -3.168  -0.197  17.370  1.00  0.00    -0.206 F 
ATOM     79  C   UNL     1      -3.395   3.259  16.326  1.00  0.00     0.022 A 
BRANCH  76  80
ATOM     80  S   UNL     1      -5.451   4.843  15.306  1.00  0.00     0.124 S 
ATOM     81  O   UNL     1      -6.029   4.271  14.092  1.00  0.00    -0.237 OA
ATOM     82  O   UNL     1      -6.402   5.336  16.296  1.00  0.00    -0.237 OA
ATOM     83  O   UNL     1      -4.278   5.688  15.091  1.00  0.00    -0.744 OA
ENDBRANCH  76  80
ENDBRANCH  59  73
BRANCH  60  84
ATOM     84  C   UNL     1     -10.897  -7.083  17.727  1.00  0.00     0.023 A 
ATOM     85  C   UNL     1     -11.988  -7.139  18.609  1.00  0.00     0.031 A 
ATOM     86  C   UNL     1     -10.573  -8.247  17.006  1.00  0.00     0.131 A 
ATOM     87  C   UNL     1     -12.684  -8.345  18.786  1.00  0.00     0.055 A 
ATOM     88  C   UNL     1     -11.305  -9.428  17.143  1.00  0.00     0.041 A 
ATOM     89  F   UNL     1      -9.543  -8.248  16.145  1.00  0.00    -0.206 F 
ATOM     90  C   UNL     1     -12.360  -9.485  18.049  1.00  0.00     0.022 A 
BRANCH  87  91
ATOM     91  S   UNL     1     -13.966  -8.426  20.067  1.00  0.00     0.124 S 
ATOM     92  O   UNL     1     -13.216  -8.060  21.262  1.00  0.00    -0.237 OA
ATOM     93  O   UNL     1     -14.933  -7.443  19.589  1.00  0.00    -0.237 OA
ATOM     94  O   UNL     1     -14.414  -9.816  20.011  1.00  0.00    -0.744 OA
ENDBRANCH  87  91
ENDBRANCH  60  84
BRANCH  72  95
ATOM     95  C   UNL     1      -6.926  -3.474  22.184  1.00  0.00     0.023 A 
ATOM     96  C   UNL     1      -6.239  -4.589  22.694  1.00  0.00     0.031 A 
ATOM     97  C   UNL     1      -7.377  -2.502  23.096  1.00  0.00     0.131 A 
ATOM     98  C   UNL     1      -6.077  -4.737  24.080  1.00  0.00     0.055 A 
ATOM     99  C   UNL     1      -7.155  -2.621  24.468  1.00  0.00     0.041 A 
ATOM    100  F   UNL     1      -8.041  -1.417  22.665  1.00  0.00    -0.206 F 
ATOM    101  C   UNL     1      -6.514  -3.751  24.969  1.00  0.00     0.022 A 
BRANCH  98 102
ATOM    102  S   UNL     1      -5.376  -6.284  24.715  1.00  0.00     0.124 S 
ATOM    103  O   UNL     1      -6.303  -7.278  24.183  1.00  0.00    -0.237 OA
ATOM    104  O   UNL     1      -4.038  -6.284  24.131  1.00  0.00    -0.237 OA
ATOM    105  O   UNL     1      -5.418  -6.110  26.166  1.00  0.00    -0.744 OA
ENDBRANCH  98 102
ENDBRANCH  72  95
ENDBRANCH  46  47
ENDBRANCH  38  41
ENDBRANCH  36  37
ENDBRANCH  35  36
ENDBRANCH  34  35
ENDBRANCH  33  34
ENDBRANCH  32  33
ENDBRANCH  31  32
ENDBRANCH   3  31
TORSDOF 25
