REMARK SMILES CCOc1ccc(-c2nc(C(=O)NCCCCCCNC(=O)c3ccc(-c4c5nc(c(-c6cc(S(=O)(=O)[O-])ccc6F)c6ccc([nH]6)c(-c6cc(S(=O)(=O)[O-])ccc6F)c6nc(c(-c7cc(S(=O)(=O)[O-])ccc7F)c7ccc4[nH]7)C=C6)C=C5)cc3)cc(=O)[nH]2)cc1
REMARK SMILES IDX 16 1 15 2 14 3 13 4 11 5 12 6 10 8 8 9 9 10 89 11 87 12
REMARK SMILES IDX 86 14 88 15 7 16 4 17 5 18 91 19 6 20 90 21 3 22 2 23 1 24
REMARK SMILES IDX 17 25 18 26 19 27 20 28 21 29 22 31 23 32 24 33 85 34 25 35
REMARK SMILES IDX 84 36 26 37 27 38 28 39 78 40 29 41 83 42 77 43 79 44 30 45
REMARK SMILES IDX 82 46 76 47 75 48 31 50 63 51 43 52 62 53 44 54 47 55 61 56
REMARK SMILES IDX 80 57 45 58 46 59 60 61 81 62 48 63 32 64 33 65 41 66 34 67
REMARK SMILES IDX 40 68 42 69 39 70 35 71 36 72 37 73 38 74 64 75 65 76 73 77
REMARK SMILES IDX 66 78 72 79 74 80 71 81 67 82 68 83 69 84 70 85 49 86 50 87
REMARK SMILES IDX 58 88 51 89 57 90 59 91 56 92 52 93 53 94 54 95 55 96
REMARK H PARENT 13 7 89 13 20 30 79 49 47 60
REMARK Flexibility Score: inf
ROOT
ATOM      1  C   UNL     1      13.552   4.100   0.842  1.00  0.00     0.002 C 
ENDROOT
BRANCH   1   2
ATOM      2  C   UNL     1      12.703   2.936   1.353  1.00  0.00     0.021 C 
BRANCH   2   3
ATOM      3  C   UNL     1      11.581   3.292   2.320  1.00  0.00     0.116 C 
BRANCH   3   4
ATOM      4  N   UNL     1      10.522   4.077   1.716  1.00  0.00    -0.351 N 
ATOM      5  C   UNL     1       9.161   3.993   1.784  1.00  0.00     0.270 C 
ATOM      6  O   UNL     1       8.521   4.818   1.125  1.00  0.00    -0.268 OA
ATOM      7  H   UNL     1      10.847   4.811   1.147  1.00  0.00     0.163 HD
BRANCH   5   8
ATOM      8  C   UNL     1       8.435   2.921   2.578  1.00  0.00     0.136 A 
ATOM      9  C   UNL     1       6.463   1.786   2.873  1.00  0.00     0.141 A 
ATOM     10  N   UNL     1       7.161   2.595   2.144  1.00  0.00    -0.225 NA
ATOM     11  N   UNL     1       6.977   1.136   3.961  1.00  0.00    -0.306 N 
ATOM     12  C   UNL     1       8.235   1.376   4.412  1.00  0.00     0.251 A 
ATOM     13  H   UNL     1       6.419   0.474   4.431  1.00  0.00     0.171 HD
ATOM     14  C   UNL     1       8.950   2.452   3.722  1.00  0.00     0.105 A 
ATOM     15  O   UNL     1       8.743   0.754   5.330  1.00  0.00    -0.269 OA
BRANCH   9  16
ATOM     16  C   UNL     1       5.035   1.530   2.587  1.00  0.00     0.018 A 
ATOM     17  C   UNL     1       2.326   1.179   2.053  1.00  0.00     0.119 A 
ATOM     18  C   UNL     1       2.754   1.300   3.373  1.00  0.00     0.047 A 
ATOM     19  C   UNL     1       3.236   1.284   1.000  1.00  0.00     0.047 A 
ATOM     20  C   UNL     1       4.112   1.472   3.643  1.00  0.00     0.016 A 
ATOM     21  C   UNL     1       4.595   1.454   1.265  1.00  0.00     0.016 A 
BRANCH  17  22
ATOM     22  O   UNL     1       0.984   1.083   1.814  1.00  0.00    -0.494 OA
BRANCH  22  23
ATOM     23  C   UNL     1       0.594  -0.231   1.398  1.00  0.00     0.226 C 
ATOM     24  C   UNL     1       0.628  -0.366  -0.116  1.00  0.00     0.049 C 
ENDBRANCH  22  23
ENDBRANCH  17  22
ENDBRANCH   9  16
ENDBRANCH   5   8
ENDBRANCH   3   4
ENDBRANCH   2   3
ENDBRANCH   1   2
BRANCH   1  25
ATOM     25  C   UNL     1      14.166   5.009   1.909  1.00  0.00     0.002 C 
BRANCH  25  26
ATOM     26  C   UNL     1      14.933   4.310   3.035  1.00  0.00     0.021 C 
BRANCH  26  27
ATOM     27  C   UNL     1      16.041   3.359   2.592  1.00  0.00     0.116 C 
BRANCH  27  28
ATOM     28  N   UNL     1      17.050   4.024   1.791  1.00  0.00    -0.352 N 
ATOM     29  C   UNL     1      18.413   4.055   1.938  1.00  0.00     0.251 C 
ATOM     30  H   UNL     1      16.703   4.532   1.023  1.00  0.00     0.163 HD
ATOM     31  O   UNL     1      19.065   4.849   1.265  1.00  0.00    -0.269 OA
BRANCH  29  32
ATOM     32  C   UNL     1      19.097   3.164   2.906  1.00  0.00     0.039 A 
ATOM     33  C   UNL     1      20.186   3.674   3.618  1.00  0.00     0.014 A 
ATOM     34  C   UNL     1      18.714   1.831   3.088  1.00  0.00     0.014 A 
ATOM     35  C   UNL     1      20.858   2.865   4.536  1.00  0.00     0.010 A 
ATOM     36  C   UNL     1      19.337   1.048   4.063  1.00  0.00     0.010 A 
ATOM     37  C   UNL     1      20.421   1.554   4.793  1.00  0.00    -0.014 A 
BRANCH  37  38
ATOM     38  C   UNL     1      21.102   0.728   5.829  1.00  0.00     0.031 A 
ATOM     39  C   UNL     1      21.837  -0.531   5.450  1.00  0.00     0.074 A 
ATOM     40  C   UNL     1      21.062   1.127   7.117  1.00  0.00     0.049 A 
ATOM     41  N   UNL     1      22.516  -1.351   6.213  1.00  0.00    -0.248 NA
ATOM     42  C   UNL     1      21.789  -0.933   4.036  1.00  0.00     0.031 C 
ATOM     43  C   UNL     1      20.346   2.305   7.612  1.00  0.00     0.029 A 
ATOM     44  N   UNL     1      21.645   0.601   8.243  1.00  0.00    -0.354 N 
ATOM     45  C   UNL     1      22.991  -2.352   5.371  1.00  0.00     0.074 A 
ATOM     46  C   UNL     1      22.455  -2.079   4.055  1.00  0.00     0.031 C 
ATOM     47  C   UNL     1      20.570   2.438   8.929  1.00  0.00     0.029 A 
ATOM     48  C   UNL     1      21.403   1.331   9.386  1.00  0.00     0.049 A 
ATOM     49  H   UNL     1      22.186  -0.222   8.235  1.00  0.00     0.167 HD
ATOM     50  C   UNL     1      23.823  -3.383   5.661  1.00  0.00     0.034 A 
ATOM     51  C   UNL     1      21.804   1.130  10.657  1.00  0.00     0.034 A 
ATOM     52  C   UNL     1      24.348  -3.648   6.979  1.00  0.00     0.049 A 
ATOM     53  C   UNL     1      22.695  -0.053  10.955  1.00  0.00     0.074 A 
ATOM     54  C   UNL     1      25.207  -4.659   7.378  1.00  0.00     0.029 A 
ATOM     55  N   UNL     1      24.065  -2.901   8.115  1.00  0.00    -0.354 N 
ATOM     56  N   UNL     1      23.172  -0.959  10.132  1.00  0.00    -0.248 NA
ATOM     57  C   UNL     1      23.118  -0.226  12.350  1.00  0.00     0.031 C 
ATOM     58  C   UNL     1      25.390  -4.562   8.761  1.00  0.00     0.029 A 
ATOM     59  C   UNL     1      24.714  -3.442   9.215  1.00  0.00     0.049 A 
ATOM     60  H   UNL     1      23.488  -2.104   8.136  1.00  0.00     0.167 HD
ATOM     61  C   UNL     1      23.980  -1.786  10.909  1.00  0.00     0.074 A 
ATOM     62  C   UNL     1      23.954  -1.246  12.251  1.00  0.00     0.031 C 
ATOM     63  C   UNL     1      24.675  -2.897  10.551  1.00  0.00     0.034 A 
BRANCH  50  64
ATOM     64  C   UNL     1      24.218  -4.302   4.529  1.00  0.00     0.023 A 
ATOM     65  C   UNL     1      24.977  -3.838   3.440  1.00  0.00     0.031 A 
ATOM     66  C   UNL     1      23.853  -5.660   4.545  1.00  0.00     0.131 A 
ATOM     67  C   UNL     1      25.301  -4.708   2.389  1.00  0.00     0.055 A 
ATOM     68  C   UNL     1      24.243  -6.539   3.532  1.00  0.00     0.041 A 
ATOM     69  F   UNL     1      23.110  -6.157   5.546  1.00  0.00    -0.206 F 
ATOM     70  C   UNL     1      24.964  -6.062   2.441  1.00  0.00     0.022 A 
BRANCH  67  71
ATOM     71  S   UNL     1      26.075  -4.020   0.900  1.00  0.00     0.124 S 
ATOM     72  O   UNL     1      25.057  -3.073   0.451  1.00  0.00    -0.237 OA
ATOM     73  O   UNL     1      27.304  -3.436   1.423  1.00  0.00    -0.237 OA
ATOM     74  O   UNL     1      26.255  -5.186   0.037  1.00  0.00    -0.744 OA
ENDBRANCH  67  71
ENDBRANCH  50  64
BRANCH  51  75
ATOM     75  C   UNL     1      21.369   2.044  11.756  1.00  0.00     0.023 A 
ATOM     76  C   UNL     1      22.308   2.734  12.540  1.00  0.00     0.031 A 
ATOM     77  C   UNL     1      20.012   2.163  12.105  1.00  0.00     0.131 A 
ATOM     78  C   UNL     1      21.888   3.435  13.681  1.00  0.00     0.055 A 
ATOM     79  C   UNL     1      19.592   2.928  13.194  1.00  0.00     0.041 A 
ATOM     80  F   UNL     1      19.067   1.528  11.392  1.00  0.00    -0.206 F 
ATOM     81  C   UNL     1      20.535   3.550  14.005  1.00  0.00     0.022 A 
BRANCH  78  82
ATOM     82  S   UNL     1      23.151   4.062  14.824  1.00  0.00     0.124 S 
ATOM     83  O   UNL     1      23.927   2.858  15.096  1.00  0.00    -0.237 OA
ATOM     84  O   UNL     1      23.810   5.082  14.016  1.00  0.00    -0.237 OA
ATOM     85  O   UNL     1      22.368   4.569  15.949  1.00  0.00    -0.744 OA
ENDBRANCH  78  82
ENDBRANCH  51  75
BRANCH  63  86
ATOM     86  C   UNL     1      25.496  -3.562  11.631  1.00  0.00     0.023 A 
ATOM     87  C   UNL     1      24.898  -4.119  12.775  1.00  0.00     0.031 A 
ATOM     88  C   UNL     1      26.899  -3.593  11.540  1.00  0.00     0.131 A 
ATOM     89  C   UNL     1      25.700  -4.595  13.823  1.00  0.00     0.055 A 
ATOM     90  C   UNL     1      27.689  -4.143  12.551  1.00  0.00     0.041 A 
ATOM     91  F   UNL     1      27.528  -3.077  10.472  1.00  0.00    -0.206 F 
ATOM     92  C   UNL     1      27.091  -4.628  13.710  1.00  0.00     0.022 A 
BRANCH  89  93
ATOM     93  S   UNL     1      24.902  -5.037  15.391  1.00  0.00     0.124 S 
ATOM     94  O   UNL     1      24.195  -3.807  15.729  1.00  0.00    -0.237 OA
ATOM     95  O   UNL     1      24.064  -6.168  15.006  1.00  0.00    -0.237 OA
ATOM     96  O   UNL     1      26.026  -5.368  16.265  1.00  0.00    -0.744 OA
ENDBRANCH  89  93
ENDBRANCH  63  86
ENDBRANCH  37  38
ENDBRANCH  29  32
ENDBRANCH  27  28
ENDBRANCH  26  27
ENDBRANCH  25  26
ENDBRANCH   1  25
TORSDOF 19
