REMARK SMILES CCN(C)C(=O)Cn1ccc2c(C(=O)NCCCCCCNC(=O)c3ccc(-c4c5nc(c(-c6cc(S(=O)(=O)[O-])ccc6F)c6ccc([nH]6)c(-c6cc(S(=O)(=O)[O-])ccc6F)c6nc(c(-c7cc(S(=O)(=O)[O-])ccc7F)c7ccc4[nH]7)C=C6)C=C5)cc3)cccc21
REMARK SMILES IDX 18 1 17 2 16 3 15 4 13 5 14 6 12 8 8 9 9 10 91 11 10 12
REMARK SMILES IDX 11 13 90 14 89 15 88 16 7 17 5 18 6 19 3 20 4 21 2 22 1 23
REMARK SMILES IDX 19 24 20 25 21 26 22 27 23 28 24 30 25 31 26 32 87 33 27 34
REMARK SMILES IDX 86 35 28 36 29 37 30 38 80 39 31 40 85 41 79 42 81 43 32 44
REMARK SMILES IDX 84 45 78 46 77 47 33 49 65 50 45 51 64 52 46 53 49 54 63 55
REMARK SMILES IDX 82 56 47 57 48 58 62 60 83 61 50 62 34 63 35 64 43 65 36 66
REMARK SMILES IDX 42 67 44 68 41 69 37 70 38 71 39 72 40 73 66 74 67 75 75 76
REMARK SMILES IDX 68 77 74 78 76 79 73 80 69 81 70 82 71 83 72 84 51 85 52 86
REMARK SMILES IDX 60 87 53 88 59 89 61 90 58 91 54 92 55 93 56 94 57 95
REMARK H PARENT 15 7 22 29 81 48 49 59
REMARK Flexibility Score: inf
ROOT
ATOM      1  C   UNL     1       1.179   8.331  -9.500  1.00  0.00     0.002 C 
ENDROOT
BRANCH   1   2
ATOM      2  C   UNL     1       1.559   8.403  -8.012  1.00  0.00     0.021 C 
BRANCH   2   3
ATOM      3  C   UNL     1       0.457   7.874  -7.092  1.00  0.00     0.116 C 
BRANCH   3   4
ATOM      4  N   UNL     1       0.549   6.432  -6.994  1.00  0.00    -0.352 N 
ATOM      5  C   UNL     1       1.067   5.539  -6.093  1.00  0.00     0.251 C 
ATOM      6  O   UNL     1       1.011   4.361  -6.457  1.00  0.00    -0.269 OA
ATOM      7  H   UNL     1       0.138   5.981  -7.766  1.00  0.00     0.163 HD
BRANCH   5   8
ATOM      8  C   UNL     1       1.627   5.880  -4.744  1.00  0.00     0.049 A 
ATOM      9  N   UNL     1       2.452   3.911  -1.841  1.00  0.00    -0.338 N 
ATOM     10  C   UNL     1       2.233   2.866  -2.696  1.00  0.00     0.087 A 
ATOM     11  C   UNL     1       2.312   5.111  -2.520  1.00  0.00     0.049 A 
ATOM     12  C   UNL     1       1.812   3.389  -3.894  1.00  0.00     0.029 A 
ATOM     13  C   UNL     1       1.879   4.816  -3.822  1.00  0.00     0.012 A 
ATOM     14  C   UNL     1       2.530   6.424  -2.084  1.00  0.00     0.027 A 
ATOM     15  C   UNL     1       2.365   7.448  -3.007  1.00  0.00     0.003 A 
ATOM     16  C   UNL     1       1.953   7.178  -4.313  1.00  0.00     0.014 A 
BRANCH   9  17
ATOM     17  C   UNL     1       2.811   3.803  -0.431  1.00  0.00     0.222 C 
BRANCH  17  18
ATOM     18  C   UNL     1       2.303   2.558   0.271  1.00  0.00     0.242 C 
ATOM     19  O   UNL     1       3.114   1.777   0.780  1.00  0.00    -0.273 OA
BRANCH  18  20
ATOM     20  N   UNL     1       0.929   2.341   0.357  1.00  0.00    -0.344 N 
ATOM     21  C   UNL     1      -0.079   3.270  -0.145  1.00  0.00     0.146 C 
BRANCH  20  22
ATOM     22  C   UNL     1       0.466   1.059   0.885  1.00  0.00     0.115 C 
ATOM     23  C   UNL     1       0.766  -0.108  -0.045  1.00  0.00     0.027 C 
ENDBRANCH  20  22
ENDBRANCH  18  20
ENDBRANCH  17  18
ENDBRANCH   9  17
ENDBRANCH   5   8
ENDBRANCH   3   4
ENDBRANCH   2   3
ENDBRANCH   1   2
BRANCH   1  24
ATOM     24  C   UNL     1      -0.032   9.189  -9.896  1.00  0.00     0.002 C 
BRANCH  24  25
ATOM     25  C   UNL     1       0.058  10.666  -9.489  1.00  0.00     0.021 C 
BRANCH  25  26
ATOM     26  C   UNL     1       1.278  11.385 -10.063  1.00  0.00     0.116 C 
BRANCH  26  27
ATOM     27  N   UNL     1       1.311  11.363 -11.509  1.00  0.00    -0.352 N 
ATOM     28  C   UNL     1       0.736  12.108 -12.500  1.00  0.00     0.251 C 
ATOM     29  H   UNL     1       1.881  10.643 -11.862  1.00  0.00     0.163 HD
ATOM     30  O   UNL     1       1.028  11.772 -13.652  1.00  0.00    -0.269 OA
BRANCH  28  31
ATOM     31  C   UNL     1      -0.231  13.222 -12.295  1.00  0.00     0.039 A 
ATOM     32  C   UNL     1      -0.590  13.780 -11.067  1.00  0.00     0.014 A 
ATOM     33  C   UNL     1      -0.849  13.716 -13.460  1.00  0.00     0.014 A 
ATOM     34  C   UNL     1      -1.605  14.730 -10.995  1.00  0.00     0.010 A 
ATOM     35  C   UNL     1      -1.848  14.681 -13.396  1.00  0.00     0.010 A 
ATOM     36  C   UNL     1      -2.260  15.150 -12.155  1.00  0.00    -0.014 A 
BRANCH  36  37
ATOM     37  C   UNL     1      -3.316  16.151 -12.018  1.00  0.00     0.031 A 
ATOM     38  C   UNL     1      -2.868  17.462 -11.463  1.00  0.00     0.074 A 
ATOM     39  C   UNL     1      -4.581  15.957 -12.443  1.00  0.00     0.049 A 
ATOM     40  N   UNL     1      -3.216  18.022 -10.351  1.00  0.00    -0.248 NA
ATOM     41  C   UNL     1      -1.799  18.175 -12.178  1.00  0.00     0.031 C 
ATOM     42  C   UNL     1      -5.098  14.874 -13.284  1.00  0.00     0.029 A 
ATOM     43  N   UNL     1      -5.664  16.769 -12.298  1.00  0.00    -0.354 N 
ATOM     44  C   UNL     1      -2.544  19.246 -10.299  1.00  0.00     0.074 A 
ATOM     45  C   UNL     1      -1.585  19.218 -11.375  1.00  0.00     0.031 C 
ATOM     46  C   UNL     1      -6.304  15.234 -13.780  1.00  0.00     0.029 A 
ATOM     47  C   UNL     1      -6.707  16.491 -13.171  1.00  0.00     0.049 A 
ATOM     48  H   UNL     1      -5.704  17.492 -11.631  1.00  0.00     0.167 HD
ATOM     49  C   UNL     1      -2.942  20.260  -9.476  1.00  0.00     0.034 A 
ATOM     50  C   UNL     1      -7.775  17.285 -13.441  1.00  0.00     0.034 A 
ATOM     51  C   UNL     1      -3.869  19.788  -8.486  1.00  0.00     0.049 A 
ATOM     52  C   UNL     1      -7.896  18.288 -12.355  1.00  0.00     0.074 A 
ATOM     53  C   UNL     1      -3.795  18.898  -7.435  1.00  0.00     0.029 A 
ATOM     54  N   UNL     1      -5.207  19.991  -8.719  1.00  0.00    -0.354 N 
ATOM     55  N   UNL     1      -8.260  18.006 -11.137  1.00  0.00    -0.248 NA
ATOM     56  C   UNL     1      -7.166  19.537 -12.519  1.00  0.00     0.031 C 
ATOM     57  C   UNL     1      -5.056  18.242  -7.426  1.00  0.00     0.029 A 
ATOM     58  C   UNL     1      -5.852  18.820  -8.418  1.00  0.00     0.049 A 
ATOM     59  H   UNL     1      -5.625  20.822  -9.042  1.00  0.00     0.167 HD
ATOM     60  C   UNL     1      -7.415  18.766 -10.344  1.00  0.00     0.074 A 
ATOM     61  C   UNL     1      -6.830  19.757 -11.246  1.00  0.00     0.031 C 
ATOM     62  C   UNL     1      -7.041  18.351  -9.099  1.00  0.00     0.034 A 
BRANCH  49  63
ATOM     63  C   UNL     1      -2.738  21.732  -9.745  1.00  0.00     0.023 A 
ATOM     64  C   UNL     1      -2.306  22.231 -10.986  1.00  0.00     0.031 A 
ATOM     65  C   UNL     1      -3.203  22.698  -8.824  1.00  0.00     0.131 A 
ATOM     66  C   UNL     1      -2.344  23.601 -11.281  1.00  0.00     0.055 A 
ATOM     67  C   UNL     1      -3.302  24.058  -9.142  1.00  0.00     0.041 A 
ATOM     68  F   UNL     1      -3.634  22.342  -7.604  1.00  0.00    -0.206 F 
ATOM     69  C   UNL     1      -2.875  24.517 -10.380  1.00  0.00     0.022 A 
BRANCH  66  70
ATOM     70  S   UNL     1      -1.717  24.215 -12.868  1.00  0.00     0.124 S 
ATOM     71  O   UNL     1      -2.901  24.842 -13.439  1.00  0.00    -0.237 OA
ATOM     72  O   UNL     1      -0.661  25.126 -12.435  1.00  0.00    -0.237 OA
ATOM     73  O   UNL     1      -1.249  23.003 -13.540  1.00  0.00    -0.744 OA
ENDBRANCH  66  70
ENDBRANCH  49  63
BRANCH  50  74
ATOM     74  C   UNL     1      -8.350  17.544 -14.784  1.00  0.00     0.023 A 
ATOM     75  C   UNL     1      -7.517  17.476 -15.916  1.00  0.00     0.031 A 
ATOM     76  C   UNL     1      -9.598  18.171 -14.938  1.00  0.00     0.131 A 
ATOM     77  C   UNL     1      -7.905  18.067 -17.125  1.00  0.00     0.055 A 
ATOM     78  C   UNL     1      -9.995  18.742 -16.154  1.00  0.00     0.041 A 
ATOM     79  F   UNL     1     -10.426  18.306 -13.890  1.00  0.00    -0.206 F 
ATOM     80  C   UNL     1      -9.139  18.706 -17.251  1.00  0.00     0.022 A 
BRANCH  77  81
ATOM     81  S   UNL     1      -6.760  18.105 -18.530  1.00  0.00     0.124 S 
ATOM     82  O   UNL     1      -7.609  17.661 -19.633  1.00  0.00    -0.237 OA
ATOM     83  O   UNL     1      -6.374  19.512 -18.559  1.00  0.00    -0.237 OA
ATOM     84  O   UNL     1      -5.711  17.166 -18.142  1.00  0.00    -0.744 OA
ENDBRANCH  77  81
ENDBRANCH  50  74
BRANCH  62  85
ATOM     85  C   UNL     1      -7.732  17.163  -8.469  1.00  0.00     0.023 A 
ATOM     86  C   UNL     1      -8.118  17.304  -7.124  1.00  0.00     0.031 A 
ATOM     87  C   UNL     1      -7.790  15.874  -9.030  1.00  0.00     0.131 A 
ATOM     88  C   UNL     1      -8.483  16.185  -6.369  1.00  0.00     0.055 A 
ATOM     89  C   UNL     1      -8.234  14.769  -8.294  1.00  0.00     0.041 A 
ATOM     90  F   UNL     1      -7.335  15.621 -10.265  1.00  0.00    -0.206 F 
ATOM     91  C   UNL     1      -8.561  14.918  -6.950  1.00  0.00     0.022 A 
BRANCH  88  92
ATOM     92  S   UNL     1      -8.673  16.329  -4.574  1.00  0.00     0.124 S 
ATOM     93  O   UNL     1     -10.103  16.100  -4.397  1.00  0.00    -0.237 OA
ATOM     94  O   UNL     1      -7.801  15.264  -4.081  1.00  0.00    -0.237 OA
ATOM     95  O   UNL     1      -8.214  17.683  -4.277  1.00  0.00    -0.744 OA
ENDBRANCH  88  92
ENDBRANCH  62  85
ENDBRANCH  36  37
ENDBRANCH  28  31
ENDBRANCH  26  27
ENDBRANCH  25  26
ENDBRANCH  24  25
ENDBRANCH   1  24
TORSDOF 20
