REMARK SMILES C[C@@](NC(=O)[C@H]1COc2ccccc21)(C(=O)NCCCCCCNC(=O)c1ccc(-c2c3nc(c(-c4cc(S(=O)(=O)[O-])ccc4F)c4ccc([nH]4)c(-c4cc(S(=O)(=O)[O-])ccc4F)c4nc(c(-c5cc(S(=O)(=O)[O-])ccc5F)c5ccc2[nH]5)C=C4)C=C3)cc1)C(F)(F)F
REMARK SMILES IDX 21 1 20 2 19 3 18 4 17 5 15 6 16 7 2 9 1 10 3 11 4 12 5 14
REMARK SMILES IDX 6 15 7 16 14 17 8 18 9 19 13 20 10 21 12 22 11 23 90 24
REMARK SMILES IDX 91 25 92 26 93 27 22 28 23 29 24 30 25 31 26 33 27 34 28 35
REMARK SMILES IDX 89 36 29 37 88 38 30 39 31 40 32 41 82 42 33 43 87 44 81 45
REMARK SMILES IDX 83 46 34 47 86 48 80 49 79 50 35 52 67 53 47 54 66 55 48 56
REMARK SMILES IDX 51 57 65 58 84 59 49 60 50 61 64 63 85 64 52 65 36 66 37 67
REMARK SMILES IDX 45 68 38 69 44 70 46 71 43 72 39 73 40 74 41 75 42 76 68 77
REMARK SMILES IDX 69 78 77 79 70 80 76 81 78 82 75 83 71 84 72 85 73 86 74 87
REMARK SMILES IDX 53 88 54 89 62 90 55 91 61 92 63 93 60 94 56 95 57 96 58 97
REMARK SMILES IDX 59 98
REMARK H PARENT 17 8 3 13 24 32 83 51 51 62
REMARK Flexibility Score: inf
ROOT
ATOM      1  C   UNL     1      -3.624   0.963   3.292  1.00  0.00     0.002 C 
ENDROOT
BRANCH   1   2
ATOM      2  C   UNL     1      -3.081   1.851   2.166  1.00  0.00     0.002 C 
BRANCH   2   3
ATOM      3  C   UNL     1      -1.566   1.773   1.940  1.00  0.00     0.021 C 
BRANCH   3   4
ATOM      4  C   UNL     1      -1.047   0.366   1.667  1.00  0.00     0.116 C 
BRANCH   4   5
ATOM      5  N   UNL     1      -1.506  -0.135   0.387  1.00  0.00    -0.354 N 
ATOM      6  C   UNL     1      -0.959  -1.061  -0.452  1.00  0.00     0.254 C 
ATOM      7  O   UNL     1      -1.638  -1.367  -1.435  1.00  0.00    -0.272 OA
ATOM      8  H   UNL     1      -2.351   0.258   0.070  1.00  0.00     0.163 HD
BRANCH   6   9
ATOM      9  C   UNL     1       0.459  -1.611  -0.229  1.00  0.00     0.212 C 
ATOM     10  C   UNL     1       1.452  -0.456  -0.500  1.00  0.00     0.056 C 
BRANCH   9  11
ATOM     11  N   UNL     1       0.720  -2.138   1.157  1.00  0.00    -0.334 N 
ATOM     12  C   UNL     1       0.107  -3.174   1.816  1.00  0.00     0.232 C 
ATOM     13  H   UNL     1       1.428  -1.675   1.660  1.00  0.00     0.164 HD
ATOM     14  O   UNL     1       0.840  -3.910   2.478  1.00  0.00    -0.274 OA
BRANCH  12  15
ATOM     15  C   UNL     1      -1.404  -3.312   1.826  1.00  0.00     0.150 C 
ATOM     16  C   UNL     1      -1.884  -4.704   1.408  1.00  0.00     0.248 C 
ATOM     17  C   UNL     1      -2.015  -3.269   3.192  1.00  0.00     0.010 A 
ATOM     18  O   UNL     1      -3.072  -5.048   2.168  1.00  0.00    -0.492 OA
ATOM     19  C   UNL     1      -2.995  -4.246   3.277  1.00  0.00     0.123 A 
ATOM     20  C   UNL     1      -1.807  -2.397   4.250  1.00  0.00     0.008 A 
ATOM     21  C   UNL     1      -3.824  -4.362   4.377  1.00  0.00     0.047 A 
ATOM     22  C   UNL     1      -2.633  -2.498   5.374  1.00  0.00     0.001 A 
ATOM     23  C   UNL     1      -3.645  -3.467   5.433  1.00  0.00     0.004 A 
ENDBRANCH  12  15
ENDBRANCH   9  11
BRANCH   9  24
ATOM     24  C   UNL     1       0.719  -2.682  -1.315  1.00  0.00     0.420 C 
ATOM     25  F   UNL     1       0.624  -2.200  -2.574  1.00  0.00    -0.168 F 
ATOM     26  F   UNL     1       1.988  -3.161  -1.191  1.00  0.00    -0.168 F 
ATOM     27  F   UNL     1      -0.106  -3.746  -1.195  1.00  0.00    -0.168 F 
ENDBRANCH   9  24
ENDBRANCH   6   9
ENDBRANCH   4   5
ENDBRANCH   3   4
ENDBRANCH   2   3
ENDBRANCH   1   2
BRANCH   1  28
ATOM     28  C   UNL     1      -2.932   1.138   4.644  1.00  0.00     0.021 C 
BRANCH  28  29
ATOM     29  C   UNL     1      -3.045   2.537   5.234  1.00  0.00     0.116 C 
BRANCH  29  30
ATOM     30  N   UNL     1      -4.407   2.835   5.640  1.00  0.00    -0.352 N 
ATOM     31  C   UNL     1      -4.893   3.200   6.872  1.00  0.00     0.251 C 
ATOM     32  H   UNL     1      -5.082   2.765   4.926  1.00  0.00     0.163 HD
ATOM     33  O   UNL     1      -6.103   3.156   7.074  1.00  0.00    -0.269 OA
BRANCH  31  34
ATOM     34  C   UNL     1      -3.969   3.626   7.950  1.00  0.00     0.039 A 
ATOM     35  C   UNL     1      -4.272   3.292   9.273  1.00  0.00     0.014 A 
ATOM     36  C   UNL     1      -2.830   4.387   7.673  1.00  0.00     0.014 A 
ATOM     37  C   UNL     1      -3.417   3.687  10.306  1.00  0.00     0.010 A 
ATOM     38  C   UNL     1      -1.928   4.692   8.689  1.00  0.00     0.010 A 
ATOM     39  C   UNL     1      -2.224   4.371  10.021  1.00  0.00    -0.014 A 
BRANCH  39  40
ATOM     40  C   UNL     1      -1.304   4.819  11.102  1.00  0.00     0.031 A 
ATOM     41  C   UNL     1      -1.022   6.290  11.277  1.00  0.00     0.074 A 
ATOM     42  C   UNL     1      -0.685   3.912  11.883  1.00  0.00     0.049 A 
ATOM     43  N   UNL     1      -0.171   6.885  12.074  1.00  0.00    -0.248 NA
ATOM     44  C   UNL     1      -1.770   7.211  10.407  1.00  0.00     0.031 C 
ATOM     45  C   UNL     1      -0.845   2.459  11.785  1.00  0.00     0.029 A 
ATOM     46  N   UNL     1       0.211   4.075  12.910  1.00  0.00    -0.354 N 
ATOM     47  C   UNL     1      -0.270   8.244  11.788  1.00  0.00     0.074 A 
ATOM     48  C   UNL     1      -1.201   8.373  10.689  1.00  0.00     0.031 C 
ATOM     49  C   UNL     1      -0.096   1.868  12.729  1.00  0.00     0.029 A 
ATOM     50  C   UNL     1       0.636   2.892  13.469  1.00  0.00     0.049 A 
ATOM     51  H   UNL     1       0.521   4.958  13.218  1.00  0.00     0.167 HD
ATOM     52  C   UNL     1       0.331   9.291  12.407  1.00  0.00     0.034 A 
ATOM     53  C   UNL     1       1.521   2.659  14.459  1.00  0.00     0.034 A 
ATOM     54  C   UNL     1       1.238   9.146  13.519  1.00  0.00     0.049 A 
ATOM     55  C   UNL     1       2.183   3.838  15.130  1.00  0.00     0.074 A 
ATOM     56  C   UNL     1       1.888  10.132  14.241  1.00  0.00     0.029 A 
ATOM     57  N   UNL     1       1.619   7.931  14.078  1.00  0.00    -0.354 N 
ATOM     58  N   UNL     1       2.057   5.119  14.864  1.00  0.00    -0.248 NA
ATOM     59  C   UNL     1       3.089   3.542  16.245  1.00  0.00     0.031 C 
ATOM     60  C   UNL     1       2.700   9.514  15.198  1.00  0.00     0.029 A 
ATOM     61  C   UNL     1       2.501   8.144  15.125  1.00  0.00     0.049 A 
ATOM     62  H   UNL     1       1.307   7.048  13.774  1.00  0.00     0.167 HD
ATOM     63  C   UNL     1       2.840   5.780  15.807  1.00  0.00     0.074 A 
ATOM     64  C   UNL     1       3.416   4.758  16.656  1.00  0.00     0.031 C 
ATOM     65  C   UNL     1       3.063   7.110  15.961  1.00  0.00     0.034 A 
BRANCH  52  66
ATOM     66  C   UNL     1       0.026  10.675  11.881  1.00  0.00     0.023 A 
ATOM     67  C   UNL     1      -1.281  11.196  11.896  1.00  0.00     0.031 A 
ATOM     68  C   UNL     1       1.041  11.472  11.323  1.00  0.00     0.131 A 
ATOM     69  C   UNL     1      -1.553  12.429  11.287  1.00  0.00     0.055 A 
ATOM     70  C   UNL     1       0.778  12.741  10.800  1.00  0.00     0.041 A 
ATOM     71  F   UNL     1       2.305  11.025  11.259  1.00  0.00    -0.206 F 
ATOM     72  C   UNL     1      -0.528  13.219  10.763  1.00  0.00     0.022 A 
BRANCH  69  73
ATOM     73  S   UNL     1      -3.286  12.911  11.049  1.00  0.00     0.124 S 
ATOM     74  O   UNL     1      -3.781  11.819  10.215  1.00  0.00    -0.237 OA
ATOM     75  O   UNL     1      -3.793  12.953  12.415  1.00  0.00    -0.237 OA
ATOM     76  O   UNL     1      -3.192  14.206  10.378  1.00  0.00    -0.744 OA
ENDBRANCH  69  73
ENDBRANCH  52  66
BRANCH  53  77
ATOM     77  C   UNL     1       1.844   1.264  14.880  1.00  0.00     0.023 A 
ATOM     78  C   UNL     1       1.557   0.816  16.179  1.00  0.00     0.031 A 
ATOM     79  C   UNL     1       2.498   0.375  14.008  1.00  0.00     0.131 A 
ATOM     80  C   UNL     1       1.977  -0.458  16.590  1.00  0.00     0.055 A 
ATOM     81  C   UNL     1       2.858  -0.915  14.402  1.00  0.00     0.041 A 
ATOM     82  F   UNL     1       2.791   0.748  12.752  1.00  0.00    -0.206 F 
ATOM     83  C   UNL     1       2.614  -1.332  15.707  1.00  0.00     0.022 A 
BRANCH  80  84
ATOM     84  S   UNL     1       1.776  -0.916  18.334  1.00  0.00     0.124 S 
ATOM     85  O   UNL     1       2.479   0.170  19.009  1.00  0.00    -0.237 OA
ATOM     86  O   UNL     1       0.324  -0.928  18.478  1.00  0.00    -0.237 OA
ATOM     87  O   UNL     1       2.421  -2.225  18.418  1.00  0.00    -0.744 OA
ENDBRANCH  80  84
ENDBRANCH  53  77
BRANCH  65  88
ATOM     88  C   UNL     1       3.921   7.528  17.131  1.00  0.00     0.023 A 
ATOM     89  C   UNL     1       5.285   7.197  17.206  1.00  0.00     0.031 A 
ATOM     90  C   UNL     1       3.356   8.249  18.197  1.00  0.00     0.131 A 
ATOM     91  C   UNL     1       6.021   7.527  18.353  1.00  0.00     0.055 A 
ATOM     92  C   UNL     1       4.109   8.632  19.307  1.00  0.00     0.041 A 
ATOM     93  F   UNL     1       2.058   8.592  18.178  1.00  0.00    -0.206 F 
ATOM     94  C   UNL     1       5.447   8.257  19.397  1.00  0.00     0.022 A 
BRANCH  91  95
ATOM     95  S   UNL     1       7.715   6.896  18.511  1.00  0.00     0.124 S 
ATOM     96  O   UNL     1       7.515   5.456  18.384  1.00  0.00    -0.237 OA
ATOM     97  O   UNL     1       8.394   7.545  17.394  1.00  0.00    -0.237 OA
ATOM     98  O   UNL     1       8.128   7.351  19.837  1.00  0.00    -0.744 OA
ENDBRANCH  91  95
ENDBRANCH  65  88
ENDBRANCH  39  40
ENDBRANCH  31  34
ENDBRANCH  29  30
ENDBRANCH  28  29
ENDBRANCH   1  28
TORSDOF 19
