REMARK SMILES CCO[C@@H]1CCC[C@]([NH3+])(C(=O)NCCCCCCNC(=O)c2ccc(-c3c4nc(c(-c5cc(S(=O)(=O)[O-])ccc5F)c5ccc([nH]5)c(-c5cc(S(=O)(=O)[O-])ccc5F)c5nc(c(-c6cc(S(=O)(=O)[O-])ccc6F)c6ccc3[nH]6)C=C5)C=C4)cc2)C1
REMARK SMILES IDX 16 1 15 2 14 3 13 4 12 5 10 6 11 7 8 9 4 10 5 11 85 12 6 13
REMARK SMILES IDX 7 14 3 15 2 16 1 17 9 18 17 22 18 23 19 24 20 25 21 27 22 28
REMARK SMILES IDX 23 29 84 30 24 31 83 32 25 33 26 34 27 35 77 36 28 37 82 38
REMARK SMILES IDX 76 39 78 40 29 41 81 42 75 43 74 44 30 46 62 47 42 48 61 49
REMARK SMILES IDX 43 50 46 51 60 52 79 53 44 54 45 55 59 57 80 58 47 59 31 60
REMARK SMILES IDX 32 61 40 62 33 63 39 64 41 65 38 66 34 67 35 68 36 69 37 70
REMARK SMILES IDX 63 71 64 72 72 73 65 74 71 75 73 76 70 77 66 78 67 79 68 80
REMARK SMILES IDX 69 81 48 82 49 83 57 84 50 85 56 86 58 87 55 88 51 89 52 90
REMARK SMILES IDX 53 91 54 92
REMARK H PARENT 12 8 9 19 9 20 9 21 19 26 78 45 46 56
REMARK Flexibility Score: inf
ROOT
ATOM      1  C   UNL     1       4.067   5.053   0.952  1.00  0.00     0.002 C 
ENDROOT
BRANCH   1   2
ATOM      2  C   UNL     1       3.503   4.123   2.033  1.00  0.00     0.002 C 
BRANCH   2   3
ATOM      3  C   UNL     1       2.937   2.800   1.499  1.00  0.00     0.021 C 
BRANCH   3   4
ATOM      4  C   UNL     1       3.990   1.933   0.806  1.00  0.00     0.116 C 
BRANCH   4   5
ATOM      5  N   UNL     1       4.883   1.350   1.794  1.00  0.00    -0.351 N 
ATOM      6  C   UNL     1       5.125   0.048   2.122  1.00  0.00     0.281 C 
ATOM      7  O   UNL     1       5.930  -0.157   3.036  1.00  0.00    -0.268 OA
ATOM      8  H   UNL     1       5.401   2.006   2.314  1.00  0.00     0.163 HD
BRANCH   6   9
ATOM      9  C   UNL     1       4.474  -1.125   1.321  1.00  0.00     0.176 C 
ATOM     10  C   UNL     1       2.292  -2.254   0.671  1.00  0.00     0.125 C 
ATOM     11  C   UNL     1       2.775  -3.592   1.240  1.00  0.00     0.032 C 
ATOM     12  C   UNL     1       2.942  -1.123   1.470  1.00  0.00     0.111 C 
ATOM     13  C   UNL     1       4.300  -3.703   1.253  1.00  0.00     0.010 C 
ATOM     14  C   UNL     1       4.983  -2.479   1.877  1.00  0.00     0.079 C 
BRANCH  10  15
ATOM     15  O   UNL     1       0.869  -2.193   0.797  1.00  0.00    -0.378 OA
BRANCH  15  16
ATOM     16  C   UNL     1       0.201  -1.552  -0.296  1.00  0.00     0.157 C 
ATOM     17  C   UNL     1       0.347  -0.040  -0.288  1.00  0.00     0.035 C 
ENDBRANCH  15  16
ENDBRANCH  10  15
BRANCH   9  18
ATOM     18  N   UNL     1       4.905  -0.980  -0.095  1.00  0.00    -0.345 N 
ATOM     19  H   UNL     1       4.499  -1.730  -0.653  1.00  0.00     0.345 HD
ATOM     20  H   UNL     1       5.922  -1.029  -0.147  1.00  0.00     0.345 HD
ATOM     21  H   UNL     1       4.590  -0.079  -0.456  1.00  0.00     0.345 HD
ENDBRANCH   9  18
ENDBRANCH   6   9
ENDBRANCH   4   5
ENDBRANCH   3   4
ENDBRANCH   2   3
ENDBRANCH   1   2
BRANCH   1  22
ATOM     22  C   UNL     1       3.057   5.472  -0.119  1.00  0.00     0.021 C 
BRANCH  22  23
ATOM     23  C   UNL     1       1.868   6.261   0.419  1.00  0.00     0.116 C 
BRANCH  23  24
ATOM     24  N   UNL     1       2.285   7.525   1.008  1.00  0.00    -0.352 N 
ATOM     25  C   UNL     1       1.877   8.801   0.706  1.00  0.00     0.251 C 
ATOM     26  H   UNL     1       2.955   7.455   1.725  1.00  0.00     0.163 HD
ATOM     27  O   UNL     1       2.510   9.760   1.135  1.00  0.00    -0.269 OA
BRANCH  25  28
ATOM     28  C   UNL     1       0.690   9.007  -0.151  1.00  0.00     0.039 A 
ATOM     29  C   UNL     1       0.739   9.975  -1.156  1.00  0.00     0.014 A 
ATOM     30  C   UNL     1      -0.469   8.249   0.040  1.00  0.00     0.014 A 
ATOM     31  C   UNL     1      -0.354  10.140  -2.009  1.00  0.00     0.010 A 
ATOM     32  C   UNL     1      -1.526   8.362  -0.859  1.00  0.00     0.010 A 
ATOM     33  C   UNL     1      -1.482   9.311  -1.891  1.00  0.00    -0.014 A 
BRANCH  33  34
ATOM     34  C   UNL     1      -2.623   9.424  -2.837  1.00  0.00     0.031 A 
ATOM     35  C   UNL     1      -3.985   9.820  -2.333  1.00  0.00     0.074 A 
ATOM     36  C   UNL     1      -2.444   9.117  -4.137  1.00  0.00     0.049 A 
ATOM     37  N   UNL     1      -5.116   9.907  -2.986  1.00  0.00    -0.248 NA
ATOM     38  C   UNL     1      -4.094  10.133  -0.900  1.00  0.00     0.031 C 
ATOM     39  C   UNL     1      -1.179   8.686  -4.735  1.00  0.00     0.029 A 
ATOM     40  N   UNL     1      -3.325   9.111  -5.189  1.00  0.00    -0.354 N 
ATOM     41  C   UNL     1      -6.071  10.274  -2.044  1.00  0.00     0.074 A 
ATOM     42  C   UNL     1      -5.396  10.328  -0.764  1.00  0.00     0.031 C 
ATOM     43  C   UNL     1      -1.359   8.488  -6.051  1.00  0.00     0.029 A 
ATOM     44  C   UNL     1      -2.760   8.722  -6.383  1.00  0.00     0.049 A 
ATOM     45  H   UNL     1      -4.273   9.363  -5.099  1.00  0.00     0.167 HD
ATOM     46  C   UNL     1      -7.383  10.562  -2.233  1.00  0.00     0.034 A 
ATOM     47  C   UNL     1      -3.311   8.557  -7.602  1.00  0.00     0.034 A 
ATOM     48  C   UNL     1      -8.037  10.508  -3.519  1.00  0.00     0.049 A 
ATOM     49  C   UNL     1      -4.781   8.844  -7.780  1.00  0.00     0.074 A 
ATOM     50  C   UNL     1      -9.347  10.827  -3.833  1.00  0.00     0.029 A 
ATOM     51  N   UNL     1      -7.436  10.098  -4.703  1.00  0.00    -0.354 N 
ATOM     52  N   UNL     1      -5.661   9.238  -6.887  1.00  0.00    -0.248 NA
ATOM     53  C   UNL     1      -5.330   8.673  -9.131  1.00  0.00     0.031 C 
ATOM     54  C   UNL     1      -9.559  10.534  -5.184  1.00  0.00     0.029 A 
ATOM     55  C   UNL     1      -8.358  10.120  -5.739  1.00  0.00     0.049 A 
ATOM     56  H   UNL     1      -6.493   9.830  -4.794  1.00  0.00     0.167 HD
ATOM     57  C   UNL     1      -6.859   9.395  -7.579  1.00  0.00     0.074 A 
ATOM     58  C   UNL     1      -6.584   9.068  -8.963  1.00  0.00     0.031 C 
ATOM     59  C   UNL     1      -8.075   9.780  -7.114  1.00  0.00     0.034 A 
BRANCH  46  60
ATOM     60  C   UNL     1      -8.199  10.931  -1.016  1.00  0.00     0.023 A 
ATOM     61  C   UNL     1      -7.902  12.068  -0.243  1.00  0.00     0.031 A 
ATOM     62  C   UNL     1      -9.277  10.126  -0.609  1.00  0.00     0.131 A 
ATOM     63  C   UNL     1      -8.620  12.323   0.935  1.00  0.00     0.055 A 
ATOM     64  C   UNL     1     -10.045  10.434   0.515  1.00  0.00     0.041 A 
ATOM     65  F   UNL     1      -9.597   9.015  -1.292  1.00  0.00    -0.206 F 
ATOM     66  C   UNL     1      -9.709  11.530   1.304  1.00  0.00     0.022 A 
BRANCH  63  67
ATOM     67  S   UNL     1      -8.016  13.615   2.055  1.00  0.00     0.124 S 
ATOM     68  O   UNL     1      -6.661  13.147   2.341  1.00  0.00    -0.237 OA
ATOM     69  O   UNL     1      -8.117  14.816   1.235  1.00  0.00    -0.237 OA
ATOM     70  O   UNL     1      -8.940  13.549   3.185  1.00  0.00    -0.744 OA
ENDBRANCH  63  67
ENDBRANCH  46  60
BRANCH  47  71
ATOM     71  C   UNL     1      -2.482   8.085  -8.749  1.00  0.00     0.023 A 
ATOM     72  C   UNL     1      -2.283   8.892  -9.880  1.00  0.00     0.031 A 
ATOM     73  C   UNL     1      -1.914   6.798  -8.752  1.00  0.00     0.131 A 
ATOM     74  C   UNL     1      -1.580   8.387 -10.986  1.00  0.00     0.055 A 
ATOM     75  C   UNL     1      -1.164   6.323  -9.829  1.00  0.00     0.041 A 
ATOM     76  F   UNL     1      -2.071   5.984  -7.695  1.00  0.00    -0.206 F 
ATOM     77  C   UNL     1      -1.006   7.115 -10.962  1.00  0.00     0.022 A 
BRANCH  74  78
ATOM     78  S   UNL     1      -1.512   9.385 -12.500  1.00  0.00     0.124 S 
ATOM     79  O   UNL     1      -2.927   9.565 -12.800  1.00  0.00    -0.237 OA
ATOM     80  O   UNL     1      -0.794  10.572 -12.048  1.00  0.00    -0.237 OA
ATOM     81  O   UNL     1      -0.778   8.533 -13.434  1.00  0.00    -0.744 OA
ENDBRANCH  74  78
ENDBRANCH  47  71
BRANCH  59  82
ATOM     82  C   UNL     1      -9.189   9.915  -8.126  1.00  0.00     0.023 A 
ATOM     83  C   UNL     1      -9.699   8.807  -8.824  1.00  0.00     0.031 A 
ATOM     84  C   UNL     1      -9.741  11.180  -8.402  1.00  0.00     0.131 A 
ATOM     85  C   UNL     1     -10.686   8.991  -9.804  1.00  0.00     0.055 A 
ATOM     86  C   UNL     1     -10.771  11.347  -9.328  1.00  0.00     0.041 A 
ATOM     87  F   UNL     1      -9.291  12.275  -7.770  1.00  0.00    -0.206 F 
ATOM     88  C   UNL     1     -11.240  10.251 -10.046  1.00  0.00     0.022 A 
BRANCH  85  89
ATOM     89  S   UNL     1     -11.166   7.577 -10.834  1.00  0.00     0.124 S 
ATOM     90  O   UNL     1      -9.892   7.192 -11.432  1.00  0.00    -0.237 OA
ATOM     91  O   UNL     1     -11.716   6.648  -9.852  1.00  0.00    -0.237 OA
ATOM     92  O   UNL     1     -12.141   8.145 -11.764  1.00  0.00    -0.744 OA
ENDBRANCH  85  89
ENDBRANCH  59  82
ENDBRANCH  33  34
ENDBRANCH  25  28
ENDBRANCH  23  24
ENDBRANCH  22  23
ENDBRANCH   1  22
TORSDOF 19
