REMARK SMILES Cc1ccc(-c2nc(NC(=O)[C@H]3[C@@H](C(=O)NCCCCCCNC(=O)c4ccc(-c5c6nc(c(-c7cc(S(=O)(=O)[O-])ccc7F)c7ccc([nH]7)c(-c7cc(S(=O)(=O)[O-])ccc7F)c7nc(c(-c8cc(S(=O)(=O)[O-])ccc8F)c8ccc5[nH]8)C=C7)C=C6)cc4)[C@@H]4CC[C@H]3O4)sc2C)cc1
REMARK SMILES IDX 19 1 18 2 17 3 16 4 14 5 15 6 13 8 12 9 92 10 89 11 91 12
REMARK SMILES IDX 93 13 90 14 10 15 9 16 11 18 8 19 6 20 7 21 95 22 94 23
REMARK SMILES IDX 96 24 5 25 1 26 2 27 3 28 98 29 4 30 97 31 20 32 21 33 22 34
REMARK SMILES IDX 23 35 24 36 25 38 26 39 27 40 88 41 28 42 87 43 29 44 30 45
REMARK SMILES IDX 31 46 81 47 32 48 86 49 80 50 82 51 33 52 85 53 79 54 78 55
REMARK SMILES IDX 34 57 66 58 46 59 65 60 47 61 50 62 64 63 83 64 48 65 49 66
REMARK SMILES IDX 63 68 84 69 51 70 35 71 36 72 44 73 37 74 43 75 45 76 42 77
REMARK SMILES IDX 38 78 39 79 40 80 41 81 67 82 68 83 76 84 69 85 75 86 77 87
REMARK SMILES IDX 74 88 70 89 71 90 72 91 73 92 52 93 53 94 61 95 54 96 60 97
REMARK SMILES IDX 62 98 59 99 55 100 56 101 57 102 58 103
REMARK H PARENT 16 7 9 17 23 37 82 56 50 67
REMARK Flexibility Score: inf
ROOT
ATOM      1  C   UNL     1      -4.843   1.192   0.361  1.00  0.00     0.002 C 
ENDROOT
BRANCH   1   2
ATOM      2  C   UNL     1      -5.505  -0.177   0.503  1.00  0.00     0.021 C 
BRANCH   2   3
ATOM      3  C   UNL     1      -6.504  -0.392   1.630  1.00  0.00     0.116 C 
BRANCH   3   4
ATOM      4  N   UNL     1      -7.477   0.658   1.845  1.00  0.00    -0.356 N 
ATOM      5  C   UNL     1      -8.807   0.610   1.551  1.00  0.00     0.226 C 
ATOM      6  O   UNL     1      -9.599   1.067   2.380  1.00  0.00    -0.275 OA
ATOM      7  H   UNL     1      -7.144   1.494   2.245  1.00  0.00     0.163 HD
BRANCH   5   8
ATOM      8  C   UNL     1      -9.270  -0.138   0.326  1.00  0.00     0.122 C 
ATOM      9  C   UNL     1      -8.685   0.009  -1.083  1.00  0.00     0.123 C 
ATOM     10  C   UNL     1      -9.918  -0.410  -1.908  1.00  0.00     0.132 C 
ATOM     11  C   UNL     1     -10.798  -0.061   0.044  1.00  0.00     0.132 C 
ATOM     12  C   UNL     1     -10.467  -1.800  -1.495  1.00  0.00     0.035 C 
ATOM     13  O   UNL     1     -10.885   0.476  -1.304  1.00  0.00    -0.373 OA
ATOM     14  C   UNL     1     -11.314  -1.463  -0.259  1.00  0.00     0.035 C 
BRANCH   9  15
ATOM     15  C   UNL     1      -7.987   1.146  -1.875  1.00  0.00     0.232 C 
ATOM     16  N   UNL     1      -7.880   2.484  -1.746  1.00  0.00    -0.302 N 
ATOM     17  H   UNL     1      -7.287   2.859  -2.437  1.00  0.00     0.172 HD
ATOM     18  O   UNL     1      -7.413   0.736  -2.911  1.00  0.00    -0.274 OA
BRANCH  16  19
ATOM     19  C   UNL     1      -8.359   3.467  -0.928  1.00  0.00     0.190 A 
ATOM     20  C   UNL     1      -8.551   5.454   0.081  1.00  0.00     0.086 A 
ATOM     21  N   UNL     1      -7.957   4.727  -0.963  1.00  0.00    -0.220 NA
ATOM     22  C   UNL     1      -9.468   4.713   0.815  1.00  0.00     0.031 A 
ATOM     23  S   UNL     1      -9.620   3.164   0.125  1.00  0.00    -0.101 S 
ATOM     24  C   UNL     1     -10.317   5.016   1.996  1.00  0.00     0.059 C 
BRANCH  20  25
ATOM     25  C   UNL     1      -8.264   6.873   0.357  1.00  0.00     0.001 A 
ATOM     26  C   UNL     1      -7.933  11.109   1.291  1.00  0.00     0.044 C 
ATOM     27  C   UNL     1      -8.024   9.646   0.961  1.00  0.00    -0.051 A 
ATOM     28  C   UNL     1      -8.034   9.196  -0.367  1.00  0.00     0.004 A 
ATOM     29  C   UNL     1      -8.073   8.698   1.982  1.00  0.00     0.004 A 
ATOM     30  C   UNL     1      -8.155   7.823  -0.667  1.00  0.00     0.010 A 
ATOM     31  C   UNL     1      -8.169   7.335   1.680  1.00  0.00     0.010 A 
ENDBRANCH  20  25
ENDBRANCH  16  19
ENDBRANCH   9  15
ENDBRANCH   5   8
ENDBRANCH   3   4
ENDBRANCH   2   3
ENDBRANCH   1   2
BRANCH   1  32
ATOM     32  C   UNL     1      -4.149   1.818   1.573  1.00  0.00     0.002 C 
BRANCH  32  33
ATOM     33  C   UNL     1      -3.324   0.918   2.489  1.00  0.00     0.021 C 
BRANCH  33  34
ATOM     34  C   UNL     1      -2.322   0.012   1.782  1.00  0.00     0.116 C 
BRANCH  34  35
ATOM     35  N   UNL     1      -0.966   0.141   2.299  1.00  0.00    -0.352 N 
ATOM     36  C   UNL     1       0.153  -0.640   2.062  1.00  0.00     0.251 C 
ATOM     37  H   UNL     1      -0.824   0.899   2.910  1.00  0.00     0.163 HD
ATOM     38  O   UNL     1       1.214  -0.399   2.603  1.00  0.00    -0.269 OA
BRANCH  36  39
ATOM     39  C   UNL     1       0.086  -1.692   1.013  1.00  0.00     0.039 A 
ATOM     40  C   UNL     1       1.091  -1.677   0.039  1.00  0.00     0.014 A 
ATOM     41  C   UNL     1      -1.020  -2.523   0.864  1.00  0.00     0.014 A 
ATOM     42  C   UNL     1       0.870  -2.303  -1.184  1.00  0.00     0.010 A 
ATOM     43  C   UNL     1      -1.284  -3.072  -0.376  1.00  0.00     0.010 A 
ATOM     44  C   UNL     1      -0.367  -2.905  -1.415  1.00  0.00    -0.014 A 
BRANCH  44  45
ATOM     45  C   UNL     1      -0.807  -3.291  -2.748  1.00  0.00     0.031 A 
ATOM     46  C   UNL     1      -0.646  -4.679  -3.207  1.00  0.00     0.074 A 
ATOM     47  C   UNL     1      -1.333  -2.361  -3.571  1.00  0.00     0.049 A 
ATOM     48  N   UNL     1      -0.417  -5.024  -4.428  1.00  0.00    -0.248 NA
ATOM     49  C   UNL     1      -0.688  -5.801  -2.281  1.00  0.00     0.031 C 
ATOM     50  C   UNL     1      -1.934  -2.564  -4.885  1.00  0.00     0.029 A 
ATOM     51  N   UNL     1      -1.167  -0.982  -3.469  1.00  0.00    -0.354 N 
ATOM     52  C   UNL     1      -0.561  -6.390  -4.504  1.00  0.00     0.074 A 
ATOM     53  C   UNL     1      -0.656  -6.832  -3.130  1.00  0.00     0.031 C 
ATOM     54  C   UNL     1      -1.843  -1.416  -5.578  1.00  0.00     0.029 A 
ATOM     55  C   UNL     1      -1.066  -0.484  -4.776  1.00  0.00     0.049 A 
ATOM     56  H   UNL     1      -1.128  -0.457  -2.637  1.00  0.00     0.167 HD
ATOM     57  C   UNL     1      -0.739  -6.984  -5.720  1.00  0.00     0.034 A 
ATOM     58  C   UNL     1       0.071   0.148  -5.184  1.00  0.00     0.034 A 
ATOM     59  C   UNL     1      -0.665  -6.009  -6.810  1.00  0.00     0.049 A 
ATOM     60  C   UNL     1       0.765  -0.551  -6.333  1.00  0.00     0.074 A 
ATOM     61  C   UNL     1      -1.639  -5.364  -7.556  1.00  0.00     0.029 A 
ATOM     62  N   UNL     1       0.528  -5.336  -7.062  1.00  0.00    -0.354 N 
ATOM     63  N   UNL     1       0.564  -1.794  -6.681  1.00  0.00    -0.248 NA
ATOM     64  C   UNL     1       1.753   0.113  -7.173  1.00  0.00     0.031 C 
ATOM     65  C   UNL     1      -1.034  -4.255  -8.204  1.00  0.00     0.029 A 
ATOM     66  C   UNL     1       0.313  -4.244  -7.883  1.00  0.00     0.049 A 
ATOM     67  H   UNL     1       1.406  -5.602  -6.705  1.00  0.00     0.167 HD
ATOM     68  C   UNL     1       1.378  -2.112  -7.742  1.00  0.00     0.074 A 
ATOM     69  C   UNL     1       2.076  -0.870  -8.030  1.00  0.00     0.031 C 
ATOM     70  C   UNL     1       1.413  -3.371  -8.286  1.00  0.00     0.034 A 
BRANCH  57  71
ATOM     71  C   UNL     1      -1.327  -8.373  -5.867  1.00  0.00     0.023 A 
ATOM     72  C   UNL     1      -2.170  -8.663  -6.961  1.00  0.00     0.031 A 
ATOM     73  C   UNL     1      -1.156  -9.424  -4.946  1.00  0.00     0.131 A 
ATOM     74  C   UNL     1      -2.890  -9.871  -7.033  1.00  0.00     0.055 A 
ATOM     75  C   UNL     1      -1.926 -10.595  -4.975  1.00  0.00     0.041 A 
ATOM     76  F   UNL     1      -0.202  -9.381  -4.005  1.00  0.00    -0.206 F 
ATOM     77  C   UNL     1      -2.816 -10.816  -6.014  1.00  0.00     0.022 A 
BRANCH  74  78
ATOM     78  S   UNL     1      -3.926 -10.199  -8.486  1.00  0.00     0.124 S 
ATOM     79  O   UNL     1      -4.844  -9.065  -8.479  1.00  0.00    -0.237 OA
ATOM     80  O   UNL     1      -2.942 -10.228  -9.563  1.00  0.00    -0.237 OA
ATOM     81  O   UNL     1      -4.541 -11.490  -8.180  1.00  0.00    -0.744 OA
ENDBRANCH  74  78
ENDBRANCH  57  71
BRANCH  58  82
ATOM     82  C   UNL     1       0.758   0.904  -4.092  1.00  0.00     0.023 A 
ATOM     83  C   UNL     1       0.015   1.892  -3.405  1.00  0.00     0.031 A 
ATOM     84  C   UNL     1       1.937   0.442  -3.493  1.00  0.00     0.131 A 
ATOM     85  C   UNL     1       0.370   2.271  -2.101  1.00  0.00     0.055 A 
ATOM     86  C   UNL     1       2.323   0.873  -2.217  1.00  0.00     0.041 A 
ATOM     87  F   UNL     1       2.669  -0.519  -4.074  1.00  0.00    -0.206 F 
ATOM     88  C   UNL     1       1.517   1.756  -1.497  1.00  0.00     0.022 A 
BRANCH  85  89
ATOM     89  S   UNL     1      -0.806   3.239  -1.104  1.00  0.00     0.124 S 
ATOM     90  O   UNL     1      -0.346   4.604  -1.332  1.00  0.00    -0.237 OA
ATOM     91  O   UNL     1      -2.098   2.895  -1.694  1.00  0.00    -0.237 OA
ATOM     92  O   UNL     1      -0.612   2.724   0.251  1.00  0.00    -0.744 OA
ENDBRANCH  85  89
ENDBRANCH  58  82
BRANCH  70  93
ATOM     93  C   UNL     1       2.410  -3.872  -9.322  1.00  0.00     0.023 A 
ATOM     94  C   UNL     1       3.567  -3.172  -9.695  1.00  0.00     0.031 A 
ATOM     95  C   UNL     1       2.246  -5.134  -9.950  1.00  0.00     0.131 A 
ATOM     96  C   UNL     1       4.429  -3.651 -10.701  1.00  0.00     0.055 A 
ATOM     97  C   UNL     1       3.148  -5.649 -10.889  1.00  0.00     0.041 A 
ATOM     98  F   UNL     1       1.207  -5.935  -9.672  1.00  0.00    -0.206 F 
ATOM     99  C   UNL     1       4.239  -4.896 -11.288  1.00  0.00     0.022 A 
BRANCH  96 100
ATOM    100  S   UNL     1       5.766  -2.567 -11.269  1.00  0.00     0.124 S 
ATOM    101  O   UNL     1       5.022  -1.437 -11.819  1.00  0.00    -0.237 OA
ATOM    102  O   UNL     1       6.500  -2.301 -10.036  1.00  0.00    -0.237 OA
ATOM    103  O   UNL     1       6.477  -3.381 -12.253  1.00  0.00    -0.744 OA
ENDBRANCH  96 100
ENDBRANCH  70  93
ENDBRANCH  44  45
ENDBRANCH  36  39
ENDBRANCH  34  35
ENDBRANCH  33  34
ENDBRANCH  32  33
ENDBRANCH   1  32
TORSDOF 19
