REMARK SMILES NS(=O)(=O)c1ccc(-n2nc(NC(=O)NCCCCCCCCCCC(=O)NCCCCCCNC(=O)c3ccc(-c4c5nc(c(-c6cc(S(=O)(=O)[O-])ccc6F)c6ccc([nH]6)c(-c6cc(S(=O)(=O)[O-])ccc6F)c6nc(c(-c7cc(S(=O)(=O)[O-])ccc7F)c7ccc4[nH]7)C=C6)C=C5)cc3)cc2-c2ccccc2)cc1
REMARK SMILES IDX 24 1 23 2 22 3 21 4 20 5 19 6 18 7 17 8 16 9 15 10 12 11
REMARK SMILES IDX 13 12 14 14 11 16 9 17 10 18 102 19 101 20 8 21 5 22 6 23
REMARK SMILES IDX 110 24 7 25 109 26 2 27 3 28 4 29 1 30 103 33 104 34 108 35
REMARK SMILES IDX 105 36 107 37 106 38 25 39 26 40 27 41 28 42 29 44 30 45
REMARK SMILES IDX 31 46 32 47 33 48 34 49 35 50 36 51 37 53 38 54 39 55 100 56
REMARK SMILES IDX 40 57 99 58 41 59 42 60 43 61 93 62 44 63 98 64 92 65 94 66
REMARK SMILES IDX 45 67 97 68 91 69 90 70 46 72 78 73 58 74 77 75 59 76 62 77
REMARK SMILES IDX 76 78 95 79 60 80 61 81 75 83 96 84 63 85 47 86 48 87 56 88
REMARK SMILES IDX 49 89 55 90 57 91 54 92 50 93 51 94 52 95 53 96 79 97 80 98
REMARK SMILES IDX 88 99 81 100 87 101 89 102 86 103 82 104 83 105 84 106
REMARK SMILES IDX 85 107 64 108 65 109 73 110 66 111 72 112 74 113 71 114
REMARK SMILES IDX 67 115 68 116 69 117 70 118
REMARK H PARENT 12 13 15 15 1 31 1 32 28 43 35 52 94 71 62 82
REMARK Flexibility Score: inf
ROOT
ATOM      1  C   UNL     1       3.180   0.915   2.358  1.00  0.00     0.010 C 
ENDROOT
BRANCH   1   2
ATOM      2  C   UNL     1       3.224   2.358   1.850  1.00  0.00     0.001 C 
BRANCH   2   3
ATOM      3  C   UNL     1       4.331   2.647   0.828  1.00  0.00     0.000 C 
BRANCH   3   4
ATOM      4  C   UNL     1       3.837   2.783  -0.604  1.00  0.00     0.000 C 
BRANCH   4   5
ATOM      5  C   UNL     1       2.950   3.998  -0.856  1.00  0.00     0.000 C 
BRANCH   5   6
ATOM      6  C   UNL     1       3.522   5.368  -0.469  1.00  0.00     0.000 C 
BRANCH   6   7
ATOM      7  C   UNL     1       4.866   5.764  -1.094  1.00  0.00     0.002 C 
BRANCH   7   8
ATOM      8  C   UNL     1       5.012   5.555  -2.602  1.00  0.00     0.021 C 
BRANCH   8   9
ATOM      9  C   UNL     1       3.846   6.027  -3.457  1.00  0.00     0.117 C 
BRANCH   9  10
ATOM     10  N   UNL     1       3.764   7.449  -3.679  1.00  0.00    -0.338 N 
ATOM     11  N   UNL     1       2.615   7.502  -5.765  1.00  0.00    -0.291 N 
ATOM     12  C   UNL     1       3.233   8.116  -4.730  1.00  0.00     0.320 C 
ATOM     13  H   UNL     1       2.599   8.032  -6.595  1.00  0.00     0.173 HD
ATOM     14  O   UNL     1       3.450   9.329  -4.807  1.00  0.00    -0.248 OA
ATOM     15  H   UNL     1       4.147   8.012  -2.968  1.00  0.00     0.165 HD
BRANCH  11  16
ATOM     16  C   UNL     1       2.003   6.273  -5.872  1.00  0.00     0.157 A 
ATOM     17  N   UNL     1       1.281   4.338  -5.364  1.00  0.00    -0.231 N 
ATOM     18  N   UNL     1       1.468   5.578  -4.869  1.00  0.00    -0.149 NA
ATOM     19  C   UNL     1       1.365   4.325  -6.752  1.00  0.00     0.076 A 
ATOM     20  C   UNL     1       1.836   5.582  -7.091  1.00  0.00     0.078 A 
BRANCH  17  21
ATOM     21  C   UNL     1       1.145   3.237  -4.474  1.00  0.00     0.065 A 
ATOM     22  C   UNL     1       0.764   1.038  -2.807  1.00  0.00     0.082 A 
ATOM     23  C   UNL     1       1.603   0.923  -3.917  1.00  0.00     0.024 A 
ATOM     24  C   UNL     1       0.157   2.259  -2.492  1.00  0.00     0.024 A 
ATOM     25  C   UNL     1       1.787   2.022  -4.756  1.00  0.00     0.030 A 
ATOM     26  C   UNL     1       0.370   3.372  -3.314  1.00  0.00     0.030 A 
BRANCH  22  27
ATOM     27  S   UNL     1       0.391  -0.400  -1.848  1.00  0.00     0.238 S 
ATOM     28  O   UNL     1       1.183  -1.512  -2.330  1.00  0.00    -0.207 OA
ATOM     29  O   UNL     1      -1.037  -0.492  -1.673  1.00  0.00    -0.207 OA
BRANCH  27  30
ATOM     30  N   UNL     1       1.032  -0.033  -0.346  1.00  0.00    -0.225 NA
ATOM     31  H   UNL     1       0.868  -0.811   0.293  1.00  0.00     0.137 HD
ATOM     32  H   UNL     1       0.583   0.807   0.019  1.00  0.00     0.137 HD
ENDBRANCH  27  30
ENDBRANCH  22  27
ENDBRANCH  17  21
BRANCH  19  33
ATOM     33  C   UNL     1       0.986   3.196  -7.602  1.00  0.00     0.000 A 
ATOM     34  C   UNL     1      -0.222   2.519  -7.380  1.00  0.00     0.010 A 
ATOM     35  C   UNL     1       1.829   2.760  -8.630  1.00  0.00     0.010 A 
ATOM     36  C   UNL     1      -0.566   1.406  -8.146  1.00  0.00     0.001 A 
ATOM     37  C   UNL     1       1.479   1.649  -9.403  1.00  0.00     0.001 A 
ATOM     38  C   UNL     1       0.286   0.971  -9.157  1.00  0.00     0.000 A 
ENDBRANCH  19  33
ENDBRANCH  11  16
ENDBRANCH   9  10
ENDBRANCH   8   9
ENDBRANCH   7   8
ENDBRANCH   6   7
ENDBRANCH   5   6
ENDBRANCH   4   5
ENDBRANCH   3   4
ENDBRANCH   2   3
ENDBRANCH   1   2
BRANCH   1  39
ATOM     39  C   UNL     1       4.458   0.356   2.986  1.00  0.00     0.100 C 
BRANCH  39  40
ATOM     40  C   UNL     1       4.631   0.680   4.455  1.00  0.00     0.219 C 
ATOM     41  O   UNL     1       4.229  -0.097   5.323  1.00  0.00    -0.275 OA
ATOM     42  N   UNL     1       5.267   1.819   4.845  1.00  0.00    -0.356 N 
ATOM     43  H   UNL     1       5.370   1.926   5.818  1.00  0.00     0.163 HD
BRANCH  42  44
ATOM     44  C   UNL     1       5.815   2.899   4.049  1.00  0.00     0.116 C 
BRANCH  44  45
ATOM     45  C   UNL     1       5.065   4.210   4.297  1.00  0.00     0.021 C 
BRANCH  45  46
ATOM     46  C   UNL     1       5.650   5.058   5.427  1.00  0.00     0.002 C 
BRANCH  46  47
ATOM     47  C   UNL     1       7.073   5.576   5.184  1.00  0.00     0.002 C 
BRANCH  47  48
ATOM     48  C   UNL     1       7.281   6.407   3.909  1.00  0.00     0.021 C 
BRANCH  48  49
ATOM     49  C   UNL     1       6.497   7.715   3.885  1.00  0.00     0.116 C 
BRANCH  49  50
ATOM     50  N   UNL     1       6.900   8.602   4.969  1.00  0.00    -0.352 N 
ATOM     51  C   UNL     1       6.389   9.828   5.327  1.00  0.00     0.251 C 
ATOM     52  H   UNL     1       7.644   8.277   5.525  1.00  0.00     0.163 HD
ATOM     53  O   UNL     1       7.051  10.573   6.043  1.00  0.00    -0.269 OA
BRANCH  51  54
ATOM     54  C   UNL     1       5.068  10.250   4.826  1.00  0.00     0.039 A 
ATOM     55  C   UNL     1       4.880  11.569   4.403  1.00  0.00     0.014 A 
ATOM     56  C   UNL     1       4.014   9.337   4.780  1.00  0.00     0.014 A 
ATOM     57  C   UNL     1       3.656  11.937   3.852  1.00  0.00     0.010 A 
ATOM     58  C   UNL     1       2.831   9.678   4.153  1.00  0.00     0.010 A 
ATOM     59  C   UNL     1       2.638  10.981   3.699  1.00  0.00    -0.014 A 
BRANCH  59  60
ATOM     60  C   UNL     1       1.450  11.315   2.909  1.00  0.00     0.031 A 
ATOM     61  C   UNL     1       1.736  11.852   1.551  1.00  0.00     0.074 A 
ATOM     62  C   UNL     1       0.182  10.990   3.241  1.00  0.00     0.049 A 
ATOM     63  N   UNL     1       1.503  13.043   1.111  1.00  0.00    -0.248 NA
ATOM     64  C   UNL     1       2.492  11.010   0.611  1.00  0.00     0.031 C 
ATOM     65  C   UNL     1      -0.269  10.211   4.396  1.00  0.00     0.029 A 
ATOM     66  N   UNL     1      -0.972  11.188   2.537  1.00  0.00    -0.354 N 
ATOM     67  C   UNL     1       1.847  13.029  -0.237  1.00  0.00     0.074 A 
ATOM     68  C   UNL     1       2.631  11.837  -0.427  1.00  0.00     0.031 C 
ATOM     69  C   UNL     1      -1.540   9.804   4.194  1.00  0.00     0.029 A 
ATOM     70  C   UNL     1      -2.044  10.415   2.975  1.00  0.00     0.049 A 
ATOM     71  H   UNL     1      -1.040  11.823   1.787  1.00  0.00     0.167 HD
ATOM     72  C   UNL     1       1.247  13.871  -1.125  1.00  0.00     0.034 A 
ATOM     73  C   UNL     1      -3.250  10.250   2.371  1.00  0.00     0.034 A 
ATOM     74  C   UNL     1       0.575  14.956  -0.440  1.00  0.00     0.049 A 
ATOM     75  C   UNL     1      -3.474  11.435   1.511  1.00  0.00     0.074 A 
ATOM     76  C   UNL     1       0.964  15.906   0.487  1.00  0.00     0.029 A 
ATOM     77  N   UNL     1      -0.802  14.946  -0.388  1.00  0.00    -0.354 N 
ATOM     78  N   UNL     1      -3.632  12.641   1.982  1.00  0.00    -0.248 NA
ATOM     79  C   UNL     1      -3.080  11.370   0.112  1.00  0.00     0.031 C 
ATOM     80  C   UNL     1      -0.136  16.009   1.390  1.00  0.00     0.029 A 
ATOM     81  C   UNL     1      -1.163  15.192   0.914  1.00  0.00     0.049 A 
ATOM     82  H   UNL     1      -1.414  14.792  -1.144  1.00  0.00     0.167 HD
ATOM     83  C   UNL     1      -2.922  13.457   1.117  1.00  0.00     0.074 A 
ATOM     84  C   UNL     1      -2.718  12.642  -0.079  1.00  0.00     0.031 C 
ATOM     85  C   UNL     1      -2.322  14.603   1.559  1.00  0.00     0.034 A 
BRANCH  72  86
ATOM     86  C   UNL     1       0.941  13.528  -2.571  1.00  0.00     0.023 A 
ATOM     87  C   UNL     1       0.287  14.513  -3.338  1.00  0.00     0.031 A 
ATOM     88  C   UNL     1       0.969  12.234  -3.139  1.00  0.00     0.131 A 
ATOM     89  C   UNL     1      -0.405  14.176  -4.514  1.00  0.00     0.055 A 
ATOM     90  C   UNL     1       0.354  11.922  -4.356  1.00  0.00     0.041 A 
ATOM     91  F   UNL     1       1.492  11.176  -2.510  1.00  0.00    -0.206 F 
ATOM     92  C   UNL     1      -0.375  12.885  -5.031  1.00  0.00     0.022 A 
BRANCH  89  93
ATOM     93  S   UNL     1      -1.523  15.410  -5.226  1.00  0.00     0.124 S 
ATOM     94  O   UNL     1      -2.356  15.743  -4.075  1.00  0.00    -0.237 OA
ATOM     95  O   UNL     1      -0.591  16.443  -5.666  1.00  0.00    -0.237 OA
ATOM     96  O   UNL     1      -2.197  14.681  -6.297  1.00  0.00    -0.744 OA
ENDBRANCH  89  93
ENDBRANCH  72  86
BRANCH  73  97
ATOM     97  C   UNL     1      -4.087   9.021   2.325  1.00  0.00     0.023 A 
ATOM     98  C   UNL     1      -5.445   9.042   1.943  1.00  0.00     0.031 A 
ATOM     99  C   UNL     1      -3.480   7.748   2.428  1.00  0.00     0.131 A 
ATOM    100  C   UNL     1      -6.130   7.833   1.677  1.00  0.00     0.055 A 
ATOM    101  C   UNL     1      -4.163   6.558   2.175  1.00  0.00     0.041 A 
ATOM    102  F   UNL     1      -2.169   7.619   2.690  1.00  0.00    -0.206 F 
ATOM    103  C   UNL     1      -5.491   6.596   1.786  1.00  0.00     0.022 A 
BRANCH 100 104
ATOM    104  S   UNL     1      -7.844   7.856   1.058  1.00  0.00     0.124 S 
ATOM    105  O   UNL     1      -8.604   8.176   2.261  1.00  0.00    -0.237 OA
ATOM    106  O   UNL     1      -7.796   8.885   0.026  1.00  0.00    -0.237 OA
ATOM    107  O   UNL     1      -8.039   6.496   0.552  1.00  0.00    -0.744 OA
ENDBRANCH 100 104
ENDBRANCH  73  97
BRANCH  85 108
ATOM    108  C   UNL     1      -2.730  15.165   2.910  1.00  0.00     0.023 A 
ATOM    109  C   UNL     1      -2.754  14.436   4.122  1.00  0.00     0.031 A 
ATOM    110  C   UNL     1      -3.034  16.537   2.978  1.00  0.00     0.131 A 
ATOM    111  C   UNL     1      -3.103  15.075   5.328  1.00  0.00     0.055 A 
ATOM    112  C   UNL     1      -3.352  17.173   4.178  1.00  0.00     0.041 A 
ATOM    113  F   UNL     1      -3.005  17.299   1.871  1.00  0.00    -0.206 F 
ATOM    114  C   UNL     1      -3.399  16.441   5.357  1.00  0.00     0.022 A 
BRANCH 111 115
ATOM    115  S   UNL     1      -3.225  14.131   6.881  1.00  0.00     0.124 S 
ATOM    116  O   UNL     1      -3.898  12.899   6.489  1.00  0.00    -0.237 OA
ATOM    117  O   UNL     1      -1.825  13.995   7.277  1.00  0.00    -0.237 OA
ATOM    118  O   UNL     1      -4.016  15.008   7.747  1.00  0.00    -0.744 OA
ENDBRANCH 111 115
ENDBRANCH  85 108
ENDBRANCH  59  60
ENDBRANCH  51  54
ENDBRANCH  49  50
ENDBRANCH  48  49
ENDBRANCH  47  48
ENDBRANCH  46  47
ENDBRANCH  45  46
ENDBRANCH  44  45
ENDBRANCH  42  44
ENDBRANCH  39  40
ENDBRANCH   1  39
TORSDOF 31
