REMARK SMILES CS(=O)(=O)N1C[C@@H]2CN(C(=O)C3CCOCC3)C[C@]2(C(=O)NCCCCCCNC(=O)c2ccc(-c3c4nc(c(-c5cc(S(=O)(=O)[O-])ccc5F)c5ccc([nH]5)c(-c5cc(S(=O)(=O)[O-])ccc5F)c5nc(c(-c6cc(S(=O)(=O)[O-])ccc6F)c6ccc3[nH]6)C=C5)C=C4)cc2)C1
REMARK SMILES IDX 26 1 25 2 24 3 23 4 22 5 20 6 21 7 19 9 5 10 6 11 95 12 7 13
REMARK SMILES IDX 8 14 18 15 9 16 2 17 1 18 3 19 4 20 10 21 11 22 12 23 13 24
REMARK SMILES IDX 17 25 14 26 16 27 15 28 27 29 28 30 29 31 30 32 31 34 32 35
REMARK SMILES IDX 33 36 94 37 34 38 93 39 35 40 36 41 37 42 87 43 38 44 92 45
REMARK SMILES IDX 86 46 88 47 39 48 91 49 85 50 84 51 40 53 72 54 52 55 71 56
REMARK SMILES IDX 53 57 56 58 70 59 89 60 54 61 55 62 69 64 90 65 57 66 41 67
REMARK SMILES IDX 42 68 50 69 43 70 49 71 51 72 48 73 44 74 45 75 46 76 47 77
REMARK SMILES IDX 73 78 74 79 82 80 75 81 81 82 83 83 80 84 76 85 77 86 78 87
REMARK SMILES IDX 79 88 58 89 59 90 67 91 60 92 66 93 68 94 65 95 61 96 62 97
REMARK SMILES IDX 63 98 64 99
REMARK H PARENT 22 8 29 33 88 52 56 63
REMARK Flexibility Score: inf
ROOT
ATOM      1  C   UNL     1       4.696   0.784   9.767  1.00  0.00     0.002 C 
ENDROOT
BRANCH   1   2
ATOM      2  C   UNL     1       5.597   0.391   8.594  1.00  0.00     0.002 C 
BRANCH   2   3
ATOM      3  C   UNL     1       4.924  -0.393   7.468  1.00  0.00     0.021 C 
BRANCH   3   4
ATOM      4  C   UNL     1       3.734   0.270   6.758  1.00  0.00     0.116 C 
BRANCH   4   5
ATOM      5  N   UNL     1       4.141   0.658   5.417  1.00  0.00    -0.356 N 
ATOM      6  C   UNL     1       4.035  -0.099   4.274  1.00  0.00     0.229 C 
ATOM      7  O   UNL     1       4.912   0.028   3.416  1.00  0.00    -0.274 OA
ATOM      8  H   UNL     1       4.531   1.556   5.317  1.00  0.00     0.163 HD
BRANCH   6   9
ATOM      9  C   UNL     1       2.765  -1.012   4.119  1.00  0.00     0.086 C 
ATOM     10  N   UNL     1       0.954  -0.059   2.658  1.00  0.00    -0.201 NA
ATOM     11  C   UNL     1       0.591  -1.432   2.928  1.00  0.00     0.108 C 
ATOM     12  C   UNL     1       2.398   0.083   2.958  1.00  0.00     0.121 C 
ATOM     13  C   UNL     1       1.948  -2.040   3.220  1.00  0.00     0.042 C 
ATOM     14  C   UNL     1       1.778  -3.338   3.966  1.00  0.00     0.125 C 
ATOM     15  C   UNL     1       3.786  -2.226   4.447  1.00  0.00     0.138 C 
ATOM     16  N   UNL     1       3.019  -3.454   4.654  1.00  0.00    -0.341 N 
BRANCH  10  17
ATOM     17  S   UNL     1       0.277   0.763   1.365  1.00  0.00     0.211 S 
ATOM     18  C   UNL     1       0.957  -0.068  -0.060  1.00  0.00     0.176 C 
ATOM     19  O   UNL     1       0.803   2.115   1.375  1.00  0.00    -0.213 OA
ATOM     20  O   UNL     1      -1.144   0.512   1.381  1.00  0.00    -0.213 OA
ENDBRANCH  10  17
BRANCH  16  21
ATOM     21  C   UNL     1       3.294  -4.628   5.320  1.00  0.00     0.225 C 
ATOM     22  O   UNL     1       2.519  -5.587   5.213  1.00  0.00    -0.275 OA
BRANCH  21  23
ATOM     23  C   UNL     1       4.436  -4.746   6.325  1.00  0.00     0.083 C 
ATOM     24  C   UNL     1       4.001  -4.052   7.614  1.00  0.00     0.042 C 
ATOM     25  C   UNL     1       5.836  -4.375   5.833  1.00  0.00     0.042 C 
ATOM     26  C   UNL     1       5.141  -3.911   8.600  1.00  0.00     0.161 C 
ATOM     27  C   UNL     1       6.818  -4.206   6.985  1.00  0.00     0.161 C 
ATOM     28  O   UNL     1       6.279  -3.329   7.971  1.00  0.00    -0.381 OA
ENDBRANCH  21  23
ENDBRANCH  16  21
ENDBRANCH   6   9
ENDBRANCH   4   5
ENDBRANCH   3   4
ENDBRANCH   2   3
ENDBRANCH   1   2
BRANCH   1  29
ATOM     29  C   UNL     1       4.000  -0.362  10.504  1.00  0.00     0.021 C 
BRANCH  29  30
ATOM     30  C   UNL     1       4.903  -1.329  11.269  1.00  0.00     0.116 C 
BRANCH  30  31
ATOM     31  N   UNL     1       5.737  -0.721  12.281  1.00  0.00    -0.352 N 
ATOM     32  C   UNL     1       6.082  -1.188  13.526  1.00  0.00     0.251 C 
ATOM     33  H   UNL     1       6.113   0.158  12.043  1.00  0.00     0.163 HD
ATOM     34  O   UNL     1       6.888  -0.551  14.199  1.00  0.00    -0.269 OA
BRANCH  32  35
ATOM     35  C   UNL     1       5.445  -2.402  14.094  1.00  0.00     0.039 A 
ATOM     36  C   UNL     1       4.955  -2.316  15.400  1.00  0.00     0.014 A 
ATOM     37  C   UNL     1       5.340  -3.609  13.395  1.00  0.00     0.014 A 
ATOM     38  C   UNL     1       4.325  -3.416  15.988  1.00  0.00     0.010 A 
ATOM     39  C   UNL     1       4.650  -4.689  13.961  1.00  0.00     0.010 A 
ATOM     40  C   UNL     1       4.144  -4.608  15.270  1.00  0.00    -0.014 A 
BRANCH  40  41
ATOM     41  C   UNL     1       3.466  -5.769  15.917  1.00  0.00     0.031 A 
ATOM     42  C   UNL     1       4.231  -7.035  16.203  1.00  0.00     0.074 A 
ATOM     43  C   UNL     1       2.168  -5.678  16.274  1.00  0.00     0.049 A 
ATOM     44  N   UNL     1       3.829  -8.130  16.800  1.00  0.00    -0.248 NA
ATOM     45  C   UNL     1       5.625  -7.083  15.741  1.00  0.00     0.031 C 
ATOM     46  C   UNL     1       1.307  -4.518  16.033  1.00  0.00     0.029 A 
ATOM     47  N   UNL     1       1.347  -6.566  16.928  1.00  0.00    -0.354 N 
ATOM     48  C   UNL     1       4.919  -8.994  16.787  1.00  0.00     0.074 A 
ATOM     49  C   UNL     1       5.973  -8.321  16.058  1.00  0.00     0.031 C 
ATOM     50  C   UNL     1       0.096  -4.749  16.566  1.00  0.00     0.029 A 
ATOM     51  C   UNL     1       0.075  -6.088  17.149  1.00  0.00     0.049 A 
ATOM     52  H   UNL     1       1.642  -7.461  17.211  1.00  0.00     0.167 HD
ATOM     53  C   UNL     1       5.042 -10.223  17.351  1.00  0.00     0.034 A 
ATOM     54  C   UNL     1      -0.988  -6.659  17.752  1.00  0.00     0.034 A 
ATOM     55  C   UNL     1       3.983 -10.885  18.076  1.00  0.00     0.049 A 
ATOM     56  C   UNL     1      -0.839  -8.042  18.340  1.00  0.00     0.074 A 
ATOM     57  C   UNL     1       4.011 -12.116  18.710  1.00  0.00     0.029 A 
ATOM     58  N   UNL     1       2.701 -10.379  18.258  1.00  0.00    -0.354 N 
ATOM     59  N   UNL     1       0.213  -8.828  18.354  1.00  0.00    -0.248 NA
ATOM     60  C   UNL     1      -2.017  -8.603  19.014  1.00  0.00     0.031 C 
ATOM     61  C   UNL     1       2.730 -12.388  19.203  1.00  0.00     0.029 A 
ATOM     62  C   UNL     1       1.926 -11.285  18.968  1.00  0.00     0.049 A 
ATOM     63  H   UNL     1       2.389  -9.504  17.931  1.00  0.00     0.167 HD
ATOM     64  C   UNL     1      -0.166  -9.957  19.078  1.00  0.00     0.074 A 
ATOM     65  C   UNL     1      -1.536  -9.740  19.494  1.00  0.00     0.031 C 
ATOM     66  C   UNL     1       0.557 -11.067  19.378  1.00  0.00     0.034 A 
BRANCH  53  67
ATOM     67  C   UNL     1       6.362 -10.941  17.174  1.00  0.00     0.023 A 
ATOM     68  C   UNL     1       7.565 -10.413  17.676  1.00  0.00     0.031 A 
ATOM     69  C   UNL     1       6.424 -12.156  16.470  1.00  0.00     0.131 A 
ATOM     70  C   UNL     1       8.783 -11.053  17.396  1.00  0.00     0.055 A 
ATOM     71  C   UNL     1       7.628 -12.836  16.274  1.00  0.00     0.041 A 
ATOM     72  F   UNL     1       5.314 -12.701  15.945  1.00  0.00    -0.206 F 
ATOM     73  C   UNL     1       8.820 -12.276  16.723  1.00  0.00     0.022 A 
BRANCH  70  74
ATOM     74  S   UNL     1      10.327 -10.182  17.780  1.00  0.00     0.124 S 
ATOM     75  O   UNL     1      10.171  -8.951  17.007  1.00  0.00    -0.237 OA
ATOM     76  O   UNL     1      10.258 -10.040  19.229  1.00  0.00    -0.237 OA
ATOM     77  O   UNL     1      11.363 -11.088  17.289  1.00  0.00    -0.744 OA
ENDBRANCH  70  74
ENDBRANCH  53  67
BRANCH  54  78
ATOM     78  C   UNL     1      -2.295  -5.939  17.831  1.00  0.00     0.023 A 
ATOM     79  C   UNL     1      -2.869  -5.599  19.067  1.00  0.00     0.031 A 
ATOM     80  C   UNL     1      -3.022  -5.637  16.665  1.00  0.00     0.131 A 
ATOM     81  C   UNL     1      -4.153  -5.031  19.112  1.00  0.00     0.055 A 
ATOM     82  C   UNL     1      -4.271  -5.015  16.713  1.00  0.00     0.041 A 
ATOM     83  F   UNL     1      -2.523  -5.940  15.456  1.00  0.00    -0.206 F 
ATOM     84  C   UNL     1      -4.850  -4.723  17.943  1.00  0.00     0.022 A 
BRANCH  81  85
ATOM     85  S   UNL     1      -4.946  -4.796  20.728  1.00  0.00     0.124 S 
ATOM     86  O   UNL     1      -4.942  -6.153  21.259  1.00  0.00    -0.237 OA
ATOM     87  O   UNL     1      -4.042  -3.850  21.373  1.00  0.00    -0.237 OA
ATOM     88  O   UNL     1      -6.262  -4.261  20.385  1.00  0.00    -0.744 OA
ENDBRANCH  81  85
ENDBRANCH  54  78
BRANCH  66  89
ATOM     89  C   UNL     1      -0.103 -12.103  20.262  1.00  0.00     0.023 A 
ATOM     90  C   UNL     1      -1.257 -12.802  19.865  1.00  0.00     0.031 A 
ATOM     91  C   UNL     1       0.418 -12.370  21.541  1.00  0.00     0.131 A 
ATOM     92  C   UNL     1      -1.896 -13.668  20.766  1.00  0.00     0.055 A 
ATOM     93  C   UNL     1      -0.177 -13.292  22.403  1.00  0.00     0.041 A 
ATOM     94  F   UNL     1       1.516 -11.733  21.980  1.00  0.00    -0.206 F 
ATOM     95  C   UNL     1      -1.352 -13.933  22.025  1.00  0.00     0.022 A 
BRANCH  92  96
ATOM     96  S   UNL     1      -3.522 -14.340  20.323  1.00  0.00     0.124 S 
ATOM     97  O   UNL     1      -4.282 -13.129  20.033  1.00  0.00    -0.237 OA
ATOM     98  O   UNL     1      -3.208 -15.184  19.175  1.00  0.00    -0.237 OA
ATOM     99  O   UNL     1      -3.936 -15.059  21.526  1.00  0.00    -0.744 OA
ENDBRANCH  92  96
ENDBRANCH  66  89
ENDBRANCH  40  41
ENDBRANCH  32  35
ENDBRANCH  30  31
ENDBRANCH  29  30
ENDBRANCH   1  29
TORSDOF 19
