REMARK SMILES O=C(NCCCCCCNC(=O)c1ccc(-c2c3nc(c(-c4cc(S(=O)(=O)[O-])ccc4F)c4ccc([nH]4)c(-c4cc(S(=O)(=O)[O-])ccc4F)c4nc(c(-c5cc(S(=O)(=O)[O-])ccc5F)c5ccc2[nH]5)C=C4)C=C3)cc1)c1ccc(NS(=O)(=O)C2=Cc3ccccc3CC2)cc1
REMARK SMILES IDX 6 1 5 2 4 3 3 4 1 5 2 6 76 8 77 9 95 10 78 11 94 12 79 13
REMARK SMILES IDX 80 14 81 16 82 17 83 18 84 19 85 20 93 21 86 22 92 23 87 24
REMARK SMILES IDX 91 25 88 26 90 27 89 28 7 29 8 30 9 31 10 32 11 33 12 35
REMARK SMILES IDX 13 36 14 37 75 38 15 39 74 40 16 41 17 42 18 43 68 44 19 45
REMARK SMILES IDX 73 46 67 47 69 48 20 49 72 50 66 51 65 52 21 54 53 55 33 56
REMARK SMILES IDX 52 57 34 58 37 59 51 60 70 61 35 62 36 63 50 65 71 66 38 67
REMARK SMILES IDX 22 68 23 69 31 70 24 71 30 72 32 73 29 74 25 75 26 76 27 77
REMARK SMILES IDX 28 78 54 79 55 80 63 81 56 82 62 83 64 84 61 85 57 86 58 87
REMARK SMILES IDX 59 88 60 89 39 90 40 91 48 92 41 93 47 94 49 95 46 96 42 97
REMARK SMILES IDX 43 98 44 99 45 100
REMARK H PARENT 3 7 80 15 10 34 69 53 37 64
REMARK Flexibility Score: inf
ROOT
ATOM      1  C   UNL     1       4.184   3.535   1.762  1.00  0.00     0.002 C 
ENDROOT
BRANCH   1   2
ATOM      2  C   UNL     1       4.639   2.675   0.578  1.00  0.00     0.021 C 
BRANCH   2   3
ATOM      3  C   UNL     1       4.234   1.205   0.653  1.00  0.00     0.116 C 
BRANCH   3   4
ATOM      4  N   UNL     1       2.793   1.039   0.581  1.00  0.00    -0.352 N 
ATOM      5  O   UNL     1       0.857   0.258  -0.277  1.00  0.00    -0.269 OA
ATOM      6  C   UNL     1       2.074   0.146  -0.168  1.00  0.00     0.251 C 
ATOM      7  H   UNL     1       2.264   1.648   1.145  1.00  0.00     0.163 HD
BRANCH   6   8
ATOM      8  C   UNL     1       2.764  -0.979  -0.833  1.00  0.00     0.039 A 
ATOM      9  C   UNL     1       3.592  -1.827  -0.095  1.00  0.00     0.016 A 
ATOM     10  C   UNL     1       2.482  -1.267  -2.171  1.00  0.00     0.016 A 
ATOM     11  C   UNL     1       4.141  -2.958  -0.699  1.00  0.00     0.027 A 
ATOM     12  C   UNL     1       3.053  -2.394  -2.777  1.00  0.00     0.027 A 
ATOM     13  C   UNL     1       3.889  -3.242  -2.042  1.00  0.00     0.049 A 
BRANCH  13  14
ATOM     14  N   UNL     1       4.278  -4.500  -2.599  1.00  0.00    -0.280 N 
ATOM     15  H   UNL     1       3.585  -5.137  -2.888  1.00  0.00     0.180 HD
BRANCH  14  16
ATOM     16  S   UNL     1       5.920  -4.915  -2.771  1.00  0.00     0.258 S 
ATOM     17  O   UNL     1       5.895  -6.349  -2.977  1.00  0.00    -0.202 OA
ATOM     18  O   UNL     1       6.404  -4.065  -3.844  1.00  0.00    -0.202 OA
BRANCH  16  19
ATOM     19  C   UNL     1       6.774  -4.518  -1.280  1.00  0.00     0.066 C 
ATOM     20  C   UNL     1       7.029  -5.546  -0.441  1.00  0.00     0.026 C 
ATOM     21  C   UNL     1       7.875  -3.496  -1.428  1.00  0.00     0.055 C 
ATOM     22  C   UNL     1       8.340  -6.215  -0.688  1.00  0.00    -0.021 A 
ATOM     23  C   UNL     1       9.143  -4.168  -1.974  1.00  0.00     0.041 C 
ATOM     24  C   UNL     1       8.561  -7.497  -0.175  1.00  0.00     0.008 A 
ATOM     25  C   UNL     1       9.351  -5.565  -1.427  1.00  0.00    -0.040 A 
ATOM     26  C   UNL     1       9.764  -8.153  -0.435  1.00  0.00     0.001 A 
ATOM     27  C   UNL     1      10.545  -6.245  -1.698  1.00  0.00     0.004 A 
ATOM     28  C   UNL     1      10.747  -7.534  -1.206  1.00  0.00     0.000 A 
ENDBRANCH  16  19
ENDBRANCH  14  16
ENDBRANCH  13  14
ENDBRANCH   6   8
ENDBRANCH   3   4
ENDBRANCH   2   3
ENDBRANCH   1   2
BRANCH   1  29
ATOM     29  C   UNL     1       4.668   3.074   3.139  1.00  0.00     0.002 C 
BRANCH  29  30
ATOM     30  C   UNL     1       6.182   2.906   3.288  1.00  0.00     0.021 C 
BRANCH  30  31
ATOM     31  C   UNL     1       7.022   4.119   2.893  1.00  0.00     0.116 C 
BRANCH  31  32
ATOM     32  N   UNL     1       6.693   5.305   3.663  1.00  0.00    -0.352 N 
ATOM     33  C   UNL     1       7.529   6.203   4.282  1.00  0.00     0.251 C 
ATOM     34  H   UNL     1       5.731   5.494   3.755  1.00  0.00     0.163 HD
ATOM     35  O   UNL     1       7.052   7.071   5.008  1.00  0.00    -0.269 OA
BRANCH  33  36
ATOM     36  C   UNL     1       8.995   6.104   4.104  1.00  0.00     0.039 A 
ATOM     37  C   UNL     1       9.817   6.227   5.228  1.00  0.00     0.014 A 
ATOM     38  C   UNL     1       9.563   5.903   2.842  1.00  0.00     0.014 A 
ATOM     39  C   UNL     1      11.201   6.086   5.098  1.00  0.00     0.010 A 
ATOM     40  C   UNL     1      10.938   5.703   2.723  1.00  0.00     0.010 A 
ATOM     41  C   UNL     1      11.771   5.790   3.849  1.00  0.00    -0.014 A 
BRANCH  41  42
ATOM     42  C   UNL     1      13.234   5.569   3.703  1.00  0.00     0.031 A 
ATOM     43  C   UNL     1      14.065   6.523   2.889  1.00  0.00     0.074 A 
ATOM     44  C   UNL     1      13.801   4.474   4.249  1.00  0.00     0.049 A 
ATOM     45  N   UNL     1      15.334   6.457   2.577  1.00  0.00    -0.248 NA
ATOM     46  C   UNL     1      13.368   7.690   2.329  1.00  0.00     0.031 C 
ATOM     47  C   UNL     1      13.094   3.459   5.033  1.00  0.00     0.029 A 
ATOM     48  N   UNL     1      15.098   4.026   4.221  1.00  0.00    -0.354 N 
ATOM     49  C   UNL     1      15.584   7.560   1.767  1.00  0.00     0.074 A 
ATOM     50  C   UNL     1      14.322   8.251   1.601  1.00  0.00     0.031 C 
ATOM     51  C   UNL     1      13.969   2.519   5.427  1.00  0.00     0.029 A 
ATOM     52  C   UNL     1      15.288   2.839   4.891  1.00  0.00     0.049 A 
ATOM     53  H   UNL     1      15.824   4.509   3.765  1.00  0.00     0.167 HD
ATOM     54  C   UNL     1      16.760   7.967   1.226  1.00  0.00     0.034 A 
ATOM     55  C   UNL     1      16.396   2.088   5.045  1.00  0.00     0.034 A 
ATOM     56  C   UNL     1      18.015   7.283   1.424  1.00  0.00     0.049 A 
ATOM     57  C   UNL     1      17.688   2.556   4.424  1.00  0.00     0.074 A 
ATOM     58  C   UNL     1      19.276   7.652   0.987  1.00  0.00     0.029 A 
ATOM     59  N   UNL     1      18.170   6.086   2.110  1.00  0.00    -0.354 N 
ATOM     60  N   UNL     1      17.918   3.631   3.707  1.00  0.00    -0.248 NA
ATOM     61  C   UNL     1      18.871   1.713   4.641  1.00  0.00     0.031 C 
ATOM     62  C   UNL     1      20.180   6.649   1.354  1.00  0.00     0.029 A 
ATOM     63  C   UNL     1      19.498   5.687   2.079  1.00  0.00     0.049 A 
ATOM     64  H   UNL     1      17.443   5.592   2.553  1.00  0.00     0.167 HD
ATOM     65  C   UNL     1      19.280   3.609   3.418  1.00  0.00     0.074 A 
ATOM     66  C   UNL     1      19.819   2.421   4.046  1.00  0.00     0.031 C 
ATOM     67  C   UNL     1      20.020   4.495   2.704  1.00  0.00     0.034 A 
BRANCH  54  68
ATOM     68  C   UNL     1      16.735   9.192   0.344  1.00  0.00     0.023 A 
ATOM     69  C   UNL     1      16.398  10.460   0.847  1.00  0.00     0.031 A 
ATOM     70  C   UNL     1      17.038   9.085  -1.025  1.00  0.00     0.131 A 
ATOM     71  C   UNL     1      16.302  11.556  -0.025  1.00  0.00     0.055 A 
ATOM     72  C   UNL     1      17.016  10.195  -1.873  1.00  0.00     0.041 A 
ATOM     73  F   UNL     1      17.348   7.896  -1.566  1.00  0.00    -0.206 F 
ATOM     74  C   UNL     1      16.633  11.437  -1.377  1.00  0.00     0.022 A 
BRANCH  71  75
ATOM     75  S   UNL     1      15.612  13.109   0.608  1.00  0.00     0.124 S 
ATOM     76  O   UNL     1      14.281  12.686   1.038  1.00  0.00    -0.237 OA
ATOM     77  O   UNL     1      16.546  13.459   1.672  1.00  0.00    -0.237 OA
ATOM     78  O   UNL     1      15.631  13.993  -0.556  1.00  0.00    -0.744 OA
ENDBRANCH  71  75
ENDBRANCH  54  68
BRANCH  55  79
ATOM     79  C   UNL     1      16.347   0.810   5.811  1.00  0.00     0.023 A 
ATOM     80  C   UNL     1      17.063   0.662   7.009  1.00  0.00     0.031 A 
ATOM     81  C   UNL     1      15.628  -0.298   5.330  1.00  0.00     0.131 A 
ATOM     82  C   UNL     1      17.087  -0.581   7.660  1.00  0.00     0.055 A 
ATOM     83  C   UNL     1      15.614  -1.518   6.009  1.00  0.00     0.041 A 
ATOM     84  F   UNL     1      14.921  -0.208   4.192  1.00  0.00    -0.206 F 
ATOM     85  C   UNL     1      16.359  -1.669   7.174  1.00  0.00     0.022 A 
BRANCH  82  86
ATOM     86  S   UNL     1      18.161  -0.779   9.109  1.00  0.00     0.124 S 
ATOM     87  O   UNL     1      19.466  -0.424   8.563  1.00  0.00    -0.237 OA
ATOM     88  O   UNL     1      17.577   0.172  10.049  1.00  0.00    -0.237 OA
ATOM     89  O   UNL     1      17.994  -2.187   9.465  1.00  0.00    -0.744 OA
ENDBRANCH  82  86
ENDBRANCH  55  79
BRANCH  67  90
ATOM     90  C   UNL     1      21.502   4.229   2.613  1.00  0.00     0.023 A 
ATOM     91  C   UNL     1      22.014   3.135   1.894  1.00  0.00     0.031 A 
ATOM     92  C   UNL     1      22.411   5.074   3.272  1.00  0.00     0.131 A 
ATOM     93  C   UNL     1      23.395   2.885   1.895  1.00  0.00     0.055 A 
ATOM     94  C   UNL     1      23.788   4.852   3.224  1.00  0.00     0.041 A 
ATOM     95  F   UNL     1      21.974   6.132   3.975  1.00  0.00    -0.206 F 
ATOM     96  C   UNL     1      24.285   3.744   2.543  1.00  0.00     0.022 A 
BRANCH  93  97
ATOM     97  S   UNL     1      24.005   1.369   1.109  1.00  0.00     0.124 S 
ATOM     98  O   UNL     1      23.301   0.333   1.857  1.00  0.00    -0.237 OA
ATOM     99  O   UNL     1      23.588   1.547  -0.279  1.00  0.00    -0.237 OA
ATOM    100  O   UNL     1      25.449   1.423   1.333  1.00  0.00    -0.744 OA
ENDBRANCH  93  97
ENDBRANCH  67  90
ENDBRANCH  41  42
ENDBRANCH  33  36
ENDBRANCH  31  32
ENDBRANCH  30  31
ENDBRANCH  29  30
ENDBRANCH   1  29
TORSDOF 19
