REMARK SMILES O=C(CCNC(=O)[C@H]1CCCN(S(=O)(=O)c2ccc(Cl)cc2)C1)NCCCCCCNC(=O)c1ccc(-c2c3nc(c(-c4cc(S(=O)(=O)[O-])ccc4F)c4ccc([nH]4)c(-c4cc(S(=O)(=O)[O-])ccc4F)c4nc(c(-c5cc(S(=O)(=O)[O-])ccc5F)c5ccc2[nH]5)C=C4)C=C3)cc1
REMARK SMILES IDX 26 1 25 2 24 3 1 4 2 5 3 7 4 8 5 9 6 10 7 12 8 13 9 14 23 15
REMARK SMILES IDX 10 16 12 17 11 18 13 19 14 20 15 21 16 22 17 23 22 24 18 25
REMARK SMILES IDX 21 26 19 27 20 28 27 29 28 30 29 31 30 32 31 33 32 34 33 36
REMARK SMILES IDX 34 37 35 38 96 39 36 40 95 41 37 42 38 43 39 44 89 45 40 46
REMARK SMILES IDX 94 47 88 48 90 49 41 50 93 51 87 52 86 53 42 55 74 56 54 57
REMARK SMILES IDX 73 58 55 59 58 60 72 61 91 62 56 63 57 64 71 66 92 67 59 68
REMARK SMILES IDX 43 69 44 70 52 71 45 72 51 73 53 74 50 75 46 76 47 77 48 78
REMARK SMILES IDX 49 79 75 80 76 81 84 82 77 83 83 84 85 85 82 86 78 87 79 88
REMARK SMILES IDX 80 89 81 90 60 91 61 92 69 93 62 94 68 95 70 96 67 97 63 98
REMARK SMILES IDX 64 99 65 100 66 101
REMARK H PARENT 24 6 5 11 31 35 90 54 58 65
REMARK Flexibility Score: inf
ROOT
ATOM      1  C   UNL     1      10.947  -2.733   7.132  1.00  0.00     0.021 C 
ENDROOT
BRANCH   1   2
ATOM      2  C   UNL     1      10.556  -3.545   5.898  1.00  0.00     0.116 C 
BRANCH   2   3
ATOM      3  N   UNL     1      10.251  -2.700   4.760  1.00  0.00    -0.356 N 
ATOM      4  O   UNL     1      11.109  -4.104   3.150  1.00  0.00    -0.275 OA
ATOM      5  C   UNL     1      10.542  -3.064   3.465  1.00  0.00     0.221 C 
ATOM      6  H   UNL     1       9.819  -1.830   4.920  1.00  0.00     0.163 HD
BRANCH   5   7
ATOM      7  C   UNL     1      10.053  -2.074   2.430  1.00  0.00     0.121 C 
BRANCH   7   8
ATOM      8  C   UNL     1       8.562  -2.266   2.170  1.00  0.00     0.125 C 
BRANCH   8   9
ATOM      9  N   UNL     1       7.762  -1.761   3.277  1.00  0.00    -0.355 N 
ATOM     10  C   UNL     1       7.074  -0.597   3.422  1.00  0.00     0.224 C 
ATOM     11  H   UNL     1       7.710  -2.365   4.053  1.00  0.00     0.163 HD
ATOM     12  O   UNL     1       6.627  -0.345   4.542  1.00  0.00    -0.275 OA
BRANCH  10  13
ATOM     13  C   UNL     1       6.857   0.330   2.231  1.00  0.00     0.093 C 
ATOM     14  C   UNL     1       5.715   1.308   2.544  1.00  0.00     0.016 C 
ATOM     15  C   UNL     1       8.123   1.117   1.897  1.00  0.00     0.116 C 
ATOM     16  C   UNL     1       5.509   2.281   1.394  1.00  0.00     0.018 C 
ATOM     17  N   UNL     1       7.887   2.060   0.740  1.00  0.00    -0.197 NA
ATOM     18  C   UNL     1       6.797   3.026   1.064  1.00  0.00     0.102 C 
BRANCH  17  19
ATOM     19  S   UNL     1       9.375   2.789   0.248  1.00  0.00     0.243 S 
ATOM     20  O   UNL     1       9.757   3.732   1.277  1.00  0.00    -0.207 OA
ATOM     21  O   UNL     1      10.267   1.716  -0.141  1.00  0.00    -0.207 OA
BRANCH  19  22
ATOM     22  C   UNL     1       8.989   3.725  -1.218  1.00  0.00     0.082 A 
ATOM     23  C   UNL     1       8.482   5.025  -1.090  1.00  0.00     0.023 A 
ATOM     24  C   UNL     1       9.329   3.224  -2.480  1.00  0.00     0.023 A 
ATOM     25  C   UNL     1       8.257   5.801  -2.229  1.00  0.00     0.022 A 
ATOM     26  C   UNL     1       9.126   4.014  -3.616  1.00  0.00     0.022 A 
ATOM     27  C   UNL     1       8.583   5.294  -3.486  1.00  0.00     0.041 A 
ATOM     28  Cl  UNL     1       8.336   6.265  -4.885  1.00  0.00    -0.084 Cl
ENDBRANCH  19  22
ENDBRANCH  17  19
ENDBRANCH  10  13
ENDBRANCH   8   9
ENDBRANCH   7   8
ENDBRANCH   5   7
ENDBRANCH   2   3
ENDBRANCH   1   2
BRANCH   1  29
ATOM     29  C   UNL     1       9.865  -1.784   7.664  1.00  0.00     0.002 C 
BRANCH  29  30
ATOM     30  C   UNL     1       8.545  -2.442   8.075  1.00  0.00     0.002 C 
BRANCH  30  31
ATOM     31  C   UNL     1       8.654  -3.532   9.146  1.00  0.00     0.021 C 
BRANCH  31  32
ATOM     32  C   UNL     1       9.312  -3.103  10.456  1.00  0.00     0.116 C 
BRANCH  32  33
ATOM     33  N   UNL     1       8.556  -2.079  11.159  1.00  0.00    -0.352 N 
ATOM     34  C   UNL     1       8.241  -2.000  12.496  1.00  0.00     0.251 C 
ATOM     35  H   UNL     1       8.224  -1.339  10.601  1.00  0.00     0.163 HD
ATOM     36  O   UNL     1       7.474  -1.127  12.893  1.00  0.00    -0.269 OA
BRANCH  34  37
ATOM     37  C   UNL     1       8.799  -2.990  13.446  1.00  0.00     0.039 A 
ATOM     38  C   UNL     1       7.942  -3.608  14.362  1.00  0.00     0.014 A 
ATOM     39  C   UNL     1      10.159  -3.312  13.434  1.00  0.00     0.014 A 
ATOM     40  C   UNL     1       8.433  -4.602  15.215  1.00  0.00     0.010 A 
ATOM     41  C   UNL     1      10.635  -4.340  14.246  1.00  0.00     0.010 A 
ATOM     42  C   UNL     1       9.776  -5.002  15.139  1.00  0.00    -0.014 A 
BRANCH  42  43
ATOM     43  C   UNL     1      10.311  -6.109  15.977  1.00  0.00     0.031 A 
ATOM     44  C   UNL     1      11.370  -5.823  17.008  1.00  0.00     0.074 A 
ATOM     45  C   UNL     1       9.915  -7.377  15.747  1.00  0.00     0.049 A 
ATOM     46  N   UNL     1      12.070  -6.660  17.730  1.00  0.00    -0.248 NA
ATOM     47  C   UNL     1      11.705  -4.409  17.233  1.00  0.00     0.031 C 
ATOM     48  C   UNL     1       8.915  -7.786  14.758  1.00  0.00     0.029 A 
ATOM     49  N   UNL     1      10.321  -8.562  16.312  1.00  0.00    -0.354 N 
ATOM     50  C   UNL     1      12.951  -5.879  18.470  1.00  0.00     0.074 A 
ATOM     51  C   UNL     1      12.715  -4.503  18.086  1.00  0.00     0.031 C 
ATOM     52  C   UNL     1       8.784  -9.122  14.789  1.00  0.00     0.029 A 
ATOM     53  C   UNL     1       9.722  -9.673  15.763  1.00  0.00     0.049 A 
ATOM     54  H   UNL     1      10.980  -8.611  17.042  1.00  0.00     0.167 HD
ATOM     55  C   UNL     1      13.864  -6.273  19.391  1.00  0.00     0.034 A 
ATOM     56  C   UNL     1       9.922 -10.986  15.999  1.00  0.00     0.034 A 
ATOM     57  C   UNL     1      14.061  -7.644  19.794  1.00  0.00     0.049 A 
ATOM     58  C   UNL     1      10.947 -11.395  17.029  1.00  0.00     0.074 A 
ATOM     59  C   UNL     1      14.902  -8.139  20.777  1.00  0.00     0.029 A 
ATOM     60  N   UNL     1      13.415  -8.738  19.236  1.00  0.00    -0.354 N 
ATOM     61  N   UNL     1      11.735 -10.638  17.757  1.00  0.00    -0.248 NA
ATOM     62  C   UNL     1      11.106 -12.836  17.273  1.00  0.00     0.031 C 
ATOM     63  C   UNL     1      14.805  -9.535  20.775  1.00  0.00     0.029 A 
ATOM     64  C   UNL     1      13.858  -9.907  19.835  1.00  0.00     0.049 A 
ATOM     65  H   UNL     1      12.741  -8.690  18.520  1.00  0.00     0.167 HD
ATOM     66  C   UNL     1      12.449 -11.510  18.574  1.00  0.00     0.074 A 
ATOM     67  C   UNL     1      11.998 -12.847  18.252  1.00  0.00     0.031 C 
ATOM     68  C   UNL     1      13.389 -11.231  19.511  1.00  0.00     0.034 A 
BRANCH  55  69
ATOM     69  C   UNL     1      14.743  -5.214  20.005  1.00  0.00     0.023 A 
ATOM     70  C   UNL     1      14.225  -4.216  20.848  1.00  0.00     0.031 A 
ATOM     71  C   UNL     1      16.126  -5.208  19.746  1.00  0.00     0.131 A 
ATOM     72  C   UNL     1      15.075  -3.222  21.357  1.00  0.00     0.055 A 
ATOM     73  C   UNL     1      16.977  -4.257  20.311  1.00  0.00     0.041 A 
ATOM     74  F   UNL     1      16.672  -6.127  18.933  1.00  0.00    -0.206 F 
ATOM     75  C   UNL     1      16.450  -3.250  21.114  1.00  0.00     0.022 A 
BRANCH  72  76
ATOM     76  S   UNL     1      14.341  -1.832  22.260  1.00  0.00     0.124 S 
ATOM     77  O   UNL     1      13.502  -1.222  21.230  1.00  0.00    -0.237 OA
ATOM     78  O   UNL     1      13.633  -2.498  23.347  1.00  0.00    -0.237 OA
ATOM     79  O   UNL     1      15.498  -1.036  22.664  1.00  0.00    -0.744 OA
ENDBRANCH  72  76
ENDBRANCH  55  69
BRANCH  56  80
ATOM     80  C   UNL     1       9.164 -12.023  15.241  1.00  0.00     0.023 A 
ATOM     81  C   UNL     1       8.287 -12.899  15.900  1.00  0.00     0.031 A 
ATOM     82  C   UNL     1       9.363 -12.204  13.861  1.00  0.00     0.131 A 
ATOM     83  C   UNL     1       7.689 -13.954  15.194  1.00  0.00     0.055 A 
ATOM     84  C   UNL     1       8.721 -13.221  13.151  1.00  0.00     0.041 A 
ATOM     85  F   UNL     1      10.188 -11.393  13.181  1.00  0.00    -0.206 F 
ATOM     86  C   UNL     1       7.891 -14.114  13.822  1.00  0.00     0.022 A 
BRANCH  83  87
ATOM     87  S   UNL     1       6.731 -15.184  16.121  1.00  0.00     0.124 S 
ATOM     88  O   UNL     1       7.695 -15.614  17.128  1.00  0.00    -0.237 OA
ATOM     89  O   UNL     1       5.608 -14.389  16.605  1.00  0.00    -0.237 OA
ATOM     90  O   UNL     1       6.396 -16.186  15.111  1.00  0.00    -0.744 OA
ENDBRANCH  83  87
ENDBRANCH  56  80
BRANCH  68  91
ATOM     91  C   UNL     1      13.936 -12.392  20.302  1.00  0.00     0.023 A 
ATOM     92  C   UNL     1      14.775 -13.357  19.721  1.00  0.00     0.031 A 
ATOM     93  C   UNL     1      13.607 -12.528  21.663  1.00  0.00     0.131 A 
ATOM     94  C   UNL     1      15.221 -14.444  20.487  1.00  0.00     0.055 A 
ATOM     95  C   UNL     1      14.095 -13.584  22.433  1.00  0.00     0.041 A 
ATOM     96  F   UNL     1      12.809 -11.632  22.265  1.00  0.00    -0.206 F 
ATOM     97  C   UNL     1      14.899 -14.555  21.843  1.00  0.00     0.022 A 
BRANCH  94  98
ATOM     98  S   UNL     1      16.180 -15.751  19.673  1.00  0.00     0.124 S 
ATOM     99  O   UNL     1      15.240 -16.236  18.668  1.00  0.00    -0.237 OA
ATOM    100  O   UNL     1      17.336 -15.020  19.164  1.00  0.00    -0.237 OA
ATOM    101  O   UNL     1      16.471 -16.689  20.756  1.00  0.00    -0.744 OA
ENDBRANCH  94  98
ENDBRANCH  68  91
ENDBRANCH  42  43
ENDBRANCH  34  37
ENDBRANCH  32  33
ENDBRANCH  31  32
ENDBRANCH  30  31
ENDBRANCH  29  30
ENDBRANCH   1  29
TORSDOF 21
