REMARK SMILES C#CC[C@@H](C(=O)NCCCCCCNC(=O)c1ccc(-c2c3nc(c(-c4cc(S(=O)(=O)[O-])ccc4F)c4ccc([nH]4)c(-c4cc(S(=O)(=O)[O-])ccc4F)c4nc(c(-c5cc(S(=O)(=O)[O-])ccc5F)c5ccc2[nH]5)C=C4)C=C3)cc1)[C@H]1CCS(=O)(=O)C1
REMARK SMILES IDX 11 1 10 2 9 3 8 4 7 5 5 6 6 7 4 9 3 10 2 11 1 12 80 13 81 14
REMARK SMILES IDX 86 15 82 16 83 17 84 18 85 19 12 20 13 21 14 22 15 23 16 25
REMARK SMILES IDX 17 26 18 27 79 28 19 29 78 30 20 31 21 32 22 33 72 34 23 35
REMARK SMILES IDX 77 36 71 37 73 38 24 39 76 40 70 41 69 42 25 44 57 45 37 46
REMARK SMILES IDX 56 47 38 48 41 49 55 50 74 51 39 52 40 53 54 55 75 56 42 57
REMARK SMILES IDX 26 58 27 59 35 60 28 61 34 62 36 63 33 64 29 65 30 66 31 67
REMARK SMILES IDX 32 68 58 69 59 70 67 71 60 72 66 73 68 74 65 75 61 76 62 77
REMARK SMILES IDX 63 78 64 79 43 80 44 81 52 82 45 83 51 84 53 85 50 86 46 87
REMARK SMILES IDX 47 88 48 89 49 90
REMARK H PARENT 7 8 14 24 73 43 41 54
REMARK Flexibility Score: inf
ROOT
ATOM      1  C   UNL     1      -6.195  -7.439   3.569  1.00  0.00     0.002 C 
ENDROOT
BRANCH   1   2
ATOM      2  C   UNL     1      -4.831  -6.756   3.423  1.00  0.00     0.002 C 
BRANCH   2   3
ATOM      3  C   UNL     1      -4.492  -6.330   1.988  1.00  0.00     0.021 C 
BRANCH   3   4
ATOM      4  C   UNL     1      -5.481  -5.311   1.411  1.00  0.00     0.116 C 
BRANCH   4   5
ATOM      5  N   UNL     1      -5.225  -4.019   2.011  1.00  0.00    -0.356 N 
ATOM      6  C   UNL     1      -4.378  -3.048   1.575  1.00  0.00     0.224 C 
ATOM      7  O   UNL     1      -3.868  -2.324   2.431  1.00  0.00    -0.275 OA
ATOM      8  H   UNL     1      -5.724  -3.819   2.836  1.00  0.00     0.163 HD
BRANCH   6   9
ATOM      9  C   UNL     1      -4.135  -2.840   0.077  1.00  0.00     0.094 C 
BRANCH   9  10
ATOM     10  C   UNL     1      -2.893  -3.629  -0.403  1.00  0.00     0.103 C 
BRANCH  10  11
ATOM     11  C   UNL     1      -3.138  -5.018  -0.826  1.00  0.00    -0.106 C 
ATOM     12  C   UNL     1      -3.272  -6.158  -1.171  1.00  0.00     0.004 C 
ENDBRANCH  10  11
ENDBRANCH   9  10
BRANCH   9  13
ATOM     13  C   UNL     1      -3.882  -1.329  -0.251  1.00  0.00     0.018 C 
ATOM     14  C   UNL     1      -4.442  -0.951  -1.640  1.00  0.00     0.021 C 
ATOM     15  C   UNL     1      -4.484  -0.262   0.678  1.00  0.00     0.141 C 
ATOM     16  C   UNL     1      -4.191   0.543  -1.838  1.00  0.00     0.137 C 
ATOM     17  S   UNL     1      -4.271   1.274  -0.212  1.00  0.00     0.150 S 
ATOM     18  O   UNL     1      -2.964   1.817   0.101  1.00  0.00    -0.229 OA
ATOM     19  O   UNL     1      -5.479   2.062  -0.100  1.00  0.00    -0.229 OA
ENDBRANCH   9  13
ENDBRANCH   6   9
ENDBRANCH   4   5
ENDBRANCH   3   4
ENDBRANCH   2   3
ENDBRANCH   1   2
BRANCH   1  20
ATOM     20  C   UNL     1      -6.404  -8.628   2.630  1.00  0.00     0.021 C 
BRANCH  20  21
ATOM     21  C   UNL     1      -5.377  -9.738   2.814  1.00  0.00     0.116 C 
BRANCH  21  22
ATOM     22  N   UNL     1      -5.481 -10.339   4.136  1.00  0.00    -0.352 N 
ATOM     23  C   UNL     1      -5.795 -11.636   4.461  1.00  0.00     0.251 C 
ATOM     24  H   UNL     1      -5.303  -9.738   4.895  1.00  0.00     0.163 HD
ATOM     25  O   UNL     1      -6.120 -11.928   5.606  1.00  0.00    -0.269 OA
BRANCH  23  26
ATOM     26  C   UNL     1      -5.750 -12.660   3.399  1.00  0.00     0.039 A 
ATOM     27  C   UNL     1      -6.815 -13.550   3.251  1.00  0.00     0.014 A 
ATOM     28  C   UNL     1      -4.660 -12.702   2.525  1.00  0.00     0.014 A 
ATOM     29  C   UNL     1      -6.816 -14.445   2.179  1.00  0.00     0.010 A 
ATOM     30  C   UNL     1      -4.707 -13.529   1.412  1.00  0.00     0.010 A 
ATOM     31  C   UNL     1      -5.781 -14.416   1.231  1.00  0.00    -0.014 A 
BRANCH  31  32
ATOM     32  C   UNL     1      -5.761 -15.321   0.054  1.00  0.00     0.031 A 
ATOM     33  C   UNL     1      -4.626 -16.293  -0.105  1.00  0.00     0.074 A 
ATOM     34  C   UNL     1      -6.691 -15.200  -0.912  1.00  0.00     0.049 A 
ATOM     35  N   UNL     1      -4.311 -17.041  -1.129  1.00  0.00    -0.248 NA
ATOM     36  C   UNL     1      -3.700 -16.401   1.032  1.00  0.00     0.031 C 
ATOM     37  C   UNL     1      -7.829 -14.281  -0.879  1.00  0.00     0.029 A 
ATOM     38  N   UNL     1      -6.810 -15.835  -2.124  1.00  0.00    -0.354 N 
ATOM     39  C   UNL     1      -3.133 -17.689  -0.772  1.00  0.00     0.074 A 
ATOM     40  C   UNL     1      -2.760 -17.187   0.534  1.00  0.00     0.031 C 
ATOM     41  C   UNL     1      -8.534 -14.417  -2.013  1.00  0.00     0.029 A 
ATOM     42  C   UNL     1      -7.864 -15.380  -2.883  1.00  0.00     0.049 A 
ATOM     43  H   UNL     1      -6.200 -16.548  -2.422  1.00  0.00     0.167 HD
ATOM     44  C   UNL     1      -2.439 -18.627  -1.463  1.00  0.00     0.034 A 
ATOM     45  C   UNL     1      -8.228 -15.672  -4.148  1.00  0.00     0.034 A 
ATOM     46  C   UNL     1      -2.832 -19.103  -2.766  1.00  0.00     0.049 A 
ATOM     47  C   UNL     1      -7.414 -16.671  -4.931  1.00  0.00     0.074 A 
ATOM     48  C   UNL     1      -2.237 -20.085  -3.538  1.00  0.00     0.029 A 
ATOM     49  N   UNL     1      -3.906 -18.616  -3.503  1.00  0.00    -0.354 N 
ATOM     50  N   UNL     1      -6.319 -17.302  -4.573  1.00  0.00    -0.248 NA
ATOM     51  C   UNL     1      -7.881 -17.001  -6.284  1.00  0.00     0.031 C 
ATOM     52  C   UNL     1      -2.883 -20.118  -4.776  1.00  0.00     0.029 A 
ATOM     53  C   UNL     1      -3.959 -19.243  -4.737  1.00  0.00     0.049 A 
ATOM     54  H   UNL     1      -4.536 -17.926  -3.193  1.00  0.00     0.167 HD
ATOM     55  C   UNL     1      -5.992 -18.136  -5.640  1.00  0.00     0.074 A 
ATOM     56  C   UNL     1      -6.998 -17.917  -6.660  1.00  0.00     0.031 C 
ATOM     57  C   UNL     1      -4.965 -19.016  -5.752  1.00  0.00     0.034 A 
BRANCH  44  58
ATOM     58  C   UNL     1      -1.164 -19.144  -0.837  1.00  0.00     0.023 A 
ATOM     59  C   UNL     1      -1.155 -19.756   0.429  1.00  0.00     0.031 A 
ATOM     60  C   UNL     1       0.072 -18.958  -1.481  1.00  0.00     0.131 A 
ATOM     61  C   UNL     1       0.065 -20.041   1.060  1.00  0.00     0.055 A 
ATOM     62  C   UNL     1       1.277 -19.352  -0.895  1.00  0.00     0.041 A 
ATOM     63  F   UNL     1       0.137 -18.360  -2.681  1.00  0.00    -0.206 F 
ATOM     64  C   UNL     1       1.280 -19.873   0.395  1.00  0.00     0.022 A 
BRANCH  61  65
ATOM     65  S   UNL     1       0.044 -20.418   2.835  1.00  0.00     0.124 S 
ATOM     66  O   UNL     1      -0.654 -19.253   3.375  1.00  0.00    -0.237 OA
ATOM     67  O   UNL     1      -0.687 -21.679   2.881  1.00  0.00    -0.237 OA
ATOM     68  O   UNL     1       1.461 -20.501   3.184  1.00  0.00    -0.744 OA
ENDBRANCH  61  65
ENDBRANCH  44  58
BRANCH  45  69
ATOM     69  C   UNL     1      -9.398 -14.977  -4.758  1.00  0.00     0.023 A 
ATOM     70  C   UNL     1     -10.568 -15.672  -5.099  1.00  0.00     0.031 A 
ATOM     71  C   UNL     1      -9.361 -13.590  -4.997  1.00  0.00     0.131 A 
ATOM     72  C   UNL     1     -11.645 -14.983  -5.679  1.00  0.00     0.055 A 
ATOM     73  C   UNL     1     -10.455 -12.901  -5.522  1.00  0.00     0.041 A 
ATOM     74  F   UNL     1      -8.266 -12.876  -4.689  1.00  0.00    -0.206 F 
ATOM     75  C   UNL     1     -11.604 -13.600  -5.874  1.00  0.00     0.022 A 
BRANCH  72  76
ATOM     76  S   UNL     1     -13.086 -15.931  -6.241  1.00  0.00     0.124 S 
ATOM     77  O   UNL     1     -12.486 -16.824  -7.226  1.00  0.00    -0.237 OA
ATOM     78  O   UNL     1     -13.543 -16.552  -5.003  1.00  0.00    -0.237 OA
ATOM     79  O   UNL     1     -13.974 -14.906  -6.787  1.00  0.00    -0.744 OA
ENDBRANCH  72  76
ENDBRANCH  45  69
BRANCH  57  80
ATOM     80  C   UNL     1      -4.905 -19.881  -6.990  1.00  0.00     0.023 A 
ATOM     81  C   UNL     1      -4.621 -19.362  -8.264  1.00  0.00     0.031 A 
ATOM     82  C   UNL     1      -5.077 -21.273  -6.866  1.00  0.00     0.131 A 
ATOM     83  C   UNL     1      -4.539 -20.229  -9.366  1.00  0.00     0.055 A 
ATOM     84  C   UNL     1      -4.931 -22.135  -7.952  1.00  0.00     0.041 A 
ATOM     85  F   UNL     1      -5.361 -21.823  -5.674  1.00  0.00    -0.206 F 
ATOM     86  C   UNL     1      -4.665 -21.613  -9.213  1.00  0.00     0.022 A 
BRANCH  83  87
ATOM     87  S   UNL     1      -4.327 -19.523 -11.024  1.00  0.00     0.124 S 
ATOM     88  O   UNL     1      -5.510 -18.676 -11.145  1.00  0.00    -0.237 OA
ATOM     89  O   UNL     1      -3.051 -18.824 -10.908  1.00  0.00    -0.237 OA
ATOM     90  O   UNL     1      -4.313 -20.695 -11.897  1.00  0.00    -0.744 OA
ENDBRANCH  83  87
ENDBRANCH  57  80
ENDBRANCH  31  32
ENDBRANCH  23  26
ENDBRANCH  21  22
ENDBRANCH  20  21
ENDBRANCH   1  20
TORSDOF 19
