REMARK SMILES Cc1nn(C(C)C)c(C)c1S(=O)(=O)Nc1cccc(C(=O)NCCCCCCNC(=O)c2ccc(-c3c4nc(c(-c5cc(S(=O)(=O)[O-])ccc5F)c5ccc([nH]5)c(-c5cc(S(=O)(=O)[O-])ccc5F)c5nc(c(-c6cc(S(=O)(=O)[O-])ccc6F)c6ccc3[nH]6)C=C5)C=C4)cc2)c1C
REMARK SMILES IDX 25 1 24 2 23 3 22 4 20 5 21 6 19 8 15 9 16 10 95 11 17 12
REMARK SMILES IDX 96 13 18 14 14 15 11 17 12 18 13 19 10 20 1 21 2 22 3 23
REMARK SMILES IDX 4 24 8 25 9 26 5 27 6 28 7 29 26 30 27 31 28 32 29 33 30 34
REMARK SMILES IDX 31 36 32 37 33 38 94 39 34 40 93 41 35 42 36 43 37 44 87 45
REMARK SMILES IDX 38 46 92 47 86 48 88 49 39 50 91 51 85 52 84 53 40 55 72 56
REMARK SMILES IDX 52 57 71 58 53 59 56 60 70 61 89 62 54 63 55 64 69 66 90 67
REMARK SMILES IDX 57 68 41 69 42 70 50 71 43 72 49 73 51 74 48 75 44 76 45 77
REMARK SMILES IDX 46 78 47 79 73 80 74 81 82 82 75 83 81 84 83 85 80 86 76 87
REMARK SMILES IDX 77 88 78 89 79 90 58 91 59 92 67 93 60 94 66 95 68 96 65 97
REMARK SMILES IDX 61 98 62 99 63 100 64 101
REMARK H PARENT 22 7 14 16 29 35 88 54 56 65
REMARK Flexibility Score: inf
ROOT
ATOM      1  C   UNL     1       5.010   0.115  -5.719  1.00  0.00     0.002 C 
ENDROOT
BRANCH   1   2
ATOM      2  C   UNL     1       3.715  -0.232  -4.966  1.00  0.00     0.021 C 
BRANCH   2   3
ATOM      3  C   UNL     1       3.818  -0.172  -3.438  1.00  0.00     0.116 C 
BRANCH   3   4
ATOM      4  N   UNL     1       3.974   1.198  -2.969  1.00  0.00    -0.352 N 
ATOM      5  C   UNL     1       3.183   2.080  -2.273  1.00  0.00     0.251 C 
ATOM      6  O   UNL     1       3.697   3.161  -1.989  1.00  0.00    -0.269 OA
ATOM      7  H   UNL     1       4.850   1.581  -3.206  1.00  0.00     0.163 HD
BRANCH   5   8
ATOM      8  C   UNL     1       1.784   1.762  -1.818  1.00  0.00     0.044 A 
ATOM      9  C   UNL     1       0.012   1.813  -0.141  1.00  0.00     0.053 A 
ATOM     10  C   UNL     1      -0.729   0.901  -0.897  1.00  0.00     0.027 A 
ATOM     11  C   UNL     1       1.240   2.322  -0.623  1.00  0.00    -0.014 A 
ATOM     12  C   UNL     1      -0.264   0.478  -2.134  1.00  0.00     0.003 A 
ATOM     13  C   UNL     1       1.952   3.424   0.123  1.00  0.00     0.047 C 
ATOM     14  C   UNL     1       0.979   0.912  -2.591  1.00  0.00     0.014 A 
BRANCH   9  15
ATOM     15  N   UNL     1      -0.604   2.215   1.083  1.00  0.00    -0.279 N 
ATOM     16  H   UNL     1      -1.391   2.806   1.054  1.00  0.00     0.180 HD
BRANCH  15  17
ATOM     17  S   UNL     1      -0.017   1.699   2.583  1.00  0.00     0.265 S 
ATOM     18  O   UNL     1      -1.003   2.150   3.531  1.00  0.00    -0.201 OA
ATOM     19  O   UNL     1       1.367   2.117   2.734  1.00  0.00    -0.201 OA
BRANCH  17  20
ATOM     20  C   UNL     1       0.051  -0.021   2.764  1.00  0.00     0.131 A 
ATOM     21  C   UNL     1       1.894  -0.645   0.974  1.00  0.00     0.070 C 
ATOM     22  C   UNL     1       0.874  -0.903   2.018  1.00  0.00     0.080 A 
ATOM     23  N   UNL     1       0.703  -2.171   2.405  1.00  0.00    -0.176 NA
ATOM     24  N   UNL     1      -0.066  -2.093   3.500  1.00  0.00    -0.266 N 
ATOM     25  C   UNL     1      -0.497  -0.814   3.774  1.00  0.00     0.056 A 
ATOM     26  C   UNL     1      -1.297  -0.503   4.989  1.00  0.00     0.068 C 
BRANCH  24  27
ATOM     27  C   UNL     1      -0.246  -3.306   4.300  1.00  0.00     0.101 C 
ATOM     28  C   UNL     1      -1.173  -4.299   3.603  1.00  0.00     0.033 C 
ATOM     29  C   UNL     1       1.100  -3.953   4.645  1.00  0.00     0.033 C 
ENDBRANCH  24  27
ENDBRANCH  17  20
ENDBRANCH  15  17
ENDBRANCH   9  15
ENDBRANCH   5   8
ENDBRANCH   3   4
ENDBRANCH   2   3
ENDBRANCH   1   2
BRANCH   1  30
ATOM     30  C   UNL     1       6.245  -0.736  -5.383  1.00  0.00     0.002 C 
BRANCH  30  31
ATOM     31  C   UNL     1       6.070  -2.251  -5.490  1.00  0.00     0.021 C 
BRANCH  31  32
ATOM     32  C   UNL     1       5.760  -2.748  -6.901  1.00  0.00     0.116 C 
BRANCH  32  33
ATOM     33  N   UNL     1       6.833  -3.542  -7.495  1.00  0.00    -0.352 N 
ATOM     34  C   UNL     1       6.811  -4.263  -8.683  1.00  0.00     0.251 C 
ATOM     35  H   UNL     1       7.678  -3.571  -6.990  1.00  0.00     0.163 HD
ATOM     36  O   UNL     1       7.764  -4.894  -9.085  1.00  0.00    -0.269 OA
BRANCH  34  37
ATOM     37  C   UNL     1       5.598  -4.134  -9.526  1.00  0.00     0.039 A 
ATOM     38  C   UNL     1       5.742  -3.464 -10.744  1.00  0.00     0.014 A 
ATOM     39  C   UNL     1       4.339  -4.394  -8.991  1.00  0.00     0.014 A 
ATOM     40  C   UNL     1       4.633  -2.841 -11.307  1.00  0.00     0.010 A 
ATOM     41  C   UNL     1       3.253  -3.707  -9.507  1.00  0.00     0.010 A 
ATOM     42  C   UNL     1       3.418  -2.868 -10.618  1.00  0.00    -0.014 A 
BRANCH  42  43
ATOM     43  C   UNL     1       2.362  -1.887 -10.874  1.00  0.00     0.031 A 
ATOM     44  C   UNL     1       1.086  -2.265 -11.514  1.00  0.00     0.074 A 
ATOM     45  C   UNL     1       2.546  -0.598 -10.509  1.00  0.00     0.049 A 
ATOM     46  N   UNL     1       0.332  -1.449 -12.173  1.00  0.00    -0.248 NA
ATOM     47  C   UNL     1       0.578  -3.629 -11.491  1.00  0.00     0.031 C 
ATOM     48  C   UNL     1       1.549   0.468 -10.476  1.00  0.00     0.029 A 
ATOM     49  N   UNL     1       3.764   0.061 -10.359  1.00  0.00    -0.354 N 
ATOM     50  C   UNL     1      -0.866  -2.081 -12.410  1.00  0.00     0.074 A 
ATOM     51  C   UNL     1      -0.635  -3.457 -12.025  1.00  0.00     0.031 C 
ATOM     52  C   UNL     1       2.178   1.647 -10.591  1.00  0.00     0.029 A 
ATOM     53  C   UNL     1       3.584   1.375 -10.827  1.00  0.00     0.049 A 
ATOM     54  H   UNL     1       4.595  -0.321  -9.993  1.00  0.00     0.167 HD
ATOM     55  C   UNL     1      -1.959  -1.350 -12.778  1.00  0.00     0.034 A 
ATOM     56  C   UNL     1       4.325   1.850 -11.870  1.00  0.00     0.034 A 
ATOM     57  C   UNL     1      -1.641   0.065 -12.991  1.00  0.00     0.049 A 
ATOM     58  C   UNL     1       3.512   2.240 -13.089  1.00  0.00     0.074 A 
ATOM     59  C   UNL     1      -1.846   1.227 -12.265  1.00  0.00     0.029 A 
ATOM     60  N   UNL     1      -0.786   0.412 -14.023  1.00  0.00    -0.354 N 
ATOM     61  N   UNL     1       2.216   2.124 -13.186  1.00  0.00    -0.248 NA
ATOM     62  C   UNL     1       4.122   2.702 -14.337  1.00  0.00     0.031 C 
ATOM     63  C   UNL     1      -1.076   2.268 -12.862  1.00  0.00     0.029 A 
ATOM     64  C   UNL     1      -0.416   1.742 -13.957  1.00  0.00     0.049 A 
ATOM     65  H   UNL     1      -0.479  -0.213 -14.720  1.00  0.00     0.167 HD
ATOM     66  C   UNL     1       1.833   2.397 -14.473  1.00  0.00     0.074 A 
ATOM     67  C   UNL     1       3.060   2.764 -15.156  1.00  0.00     0.031 C 
ATOM     68  C   UNL     1       0.549   2.254 -14.916  1.00  0.00     0.034 A 
BRANCH  55  69
ATOM     69  C   UNL     1      -3.377  -1.871 -12.682  1.00  0.00     0.023 A 
ATOM     70  C   UNL     1      -4.426  -0.972 -12.396  1.00  0.00     0.031 A 
ATOM     71  C   UNL     1      -3.761  -3.219 -12.808  1.00  0.00     0.131 A 
ATOM     72  C   UNL     1      -5.731  -1.425 -12.129  1.00  0.00     0.055 A 
ATOM     73  C   UNL     1      -5.042  -3.681 -12.473  1.00  0.00     0.041 A 
ATOM     74  F   UNL     1      -2.933  -4.141 -13.318  1.00  0.00    -0.206 F 
ATOM     75  C   UNL     1      -6.033  -2.782 -12.113  1.00  0.00     0.022 A 
BRANCH  72  76
ATOM     76  S   UNL     1      -7.037  -0.208 -11.809  1.00  0.00     0.124 S 
ATOM     77  O   UNL     1      -6.502   0.531 -10.671  1.00  0.00    -0.237 OA
ATOM     78  O   UNL     1      -7.101   0.512 -13.076  1.00  0.00    -0.237 OA
ATOM     79  O   UNL     1      -8.206  -1.036 -11.512  1.00  0.00    -0.744 OA
ENDBRANCH  72  76
ENDBRANCH  55  69
BRANCH  56  80
ATOM     80  C   UNL     1       5.712   1.301 -11.896  1.00  0.00     0.023 A 
ATOM     81  C   UNL     1       6.513   1.507 -10.751  1.00  0.00     0.031 A 
ATOM     82  C   UNL     1       6.115   0.319 -12.810  1.00  0.00     0.131 A 
ATOM     83  C   UNL     1       7.580   0.643 -10.472  1.00  0.00     0.055 A 
ATOM     84  C   UNL     1       7.228  -0.494 -12.562  1.00  0.00     0.041 A 
ATOM     85  F   UNL     1       5.375   0.044 -13.894  1.00  0.00    -0.206 F 
ATOM     86  C   UNL     1       7.938  -0.363 -11.369  1.00  0.00     0.022 A 
BRANCH  83  87
ATOM     87  S   UNL     1       8.342   0.663  -8.821  1.00  0.00     0.124 S 
ATOM     88  O   UNL     1       9.615   1.325  -9.080  1.00  0.00    -0.237 OA
ATOM     89  O   UNL     1       7.384   1.419  -8.018  1.00  0.00    -0.237 OA
ATOM     90  O   UNL     1       8.420  -0.757  -8.483  1.00  0.00    -0.744 OA
ENDBRANCH  83  87
ENDBRANCH  56  80
BRANCH  68  91
ATOM     91  C   UNL     1       0.138   2.576 -16.326  1.00  0.00     0.023 A 
ATOM     92  C   UNL     1       0.614   3.719 -16.990  1.00  0.00     0.031 A 
ATOM     93  C   UNL     1      -0.794   1.782 -17.027  1.00  0.00     0.131 A 
ATOM     94  C   UNL     1       0.227   3.993 -18.313  1.00  0.00     0.055 A 
ATOM     95  C   UNL     1      -1.242   2.104 -18.311  1.00  0.00     0.041 A 
ATOM     96  F   UNL     1      -1.273   0.641 -16.510  1.00  0.00    -0.206 F 
ATOM     97  C   UNL     1      -0.720   3.209 -18.969  1.00  0.00     0.022 A 
BRANCH  94  98
ATOM     98  S   UNL     1       1.051   5.345 -19.194  1.00  0.00     0.124 S 
ATOM     99  O   UNL     1       0.848   6.480 -18.300  1.00  0.00    -0.237 OA
ATOM    100  O   UNL     1       2.421   4.845 -19.285  1.00  0.00    -0.237 OA
ATOM    101  O   UNL     1       0.333   5.417 -20.465  1.00  0.00    -0.744 OA
ENDBRANCH  94  98
ENDBRANCH  68  91
ENDBRANCH  42  43
ENDBRANCH  34  37
ENDBRANCH  32  33
ENDBRANCH  31  32
ENDBRANCH  30  31
ENDBRANCH   1  30
TORSDOF 20
