REMARK SMILES Cc1c(C)c2c(c(C)c1O)CC[C@@](C)(C(=O)NCCCCCCNC(=O)c1ccc(-c3c4nc(c(-c5cc(S(=O)(=O)[O-])ccc5F)c5ccc([nH]5)c(-c5cc(S(=O)(=O)[O-])ccc5F)c5nc(c(-c6cc(S(=O)(=O)[O-])ccc6F)c6ccc3[nH]6)C=C5)C=C4)cc1)O2
REMARK SMILES IDX 21 1 20 2 19 3 18 4 17 5 15 6 16 7 13 9 1 10 2 11 3 12 9 13
REMARK SMILES IDX 4 14 5 15 7 16 6 17 90 18 8 19 11 20 12 21 14 22 10 23 22 25
REMARK SMILES IDX 23 26 24 27 25 28 26 30 27 31 28 32 89 33 29 34 88 35 30 36
REMARK SMILES IDX 31 37 32 38 82 39 33 40 87 41 81 42 83 43 34 44 86 45 80 46
REMARK SMILES IDX 79 47 35 49 67 50 47 51 66 52 48 53 51 54 65 55 84 56 49 57
REMARK SMILES IDX 50 58 64 60 85 61 52 62 36 63 37 64 45 65 38 66 44 67 46 68
REMARK SMILES IDX 43 69 39 70 40 71 41 72 42 73 68 74 69 75 77 76 70 77 76 78
REMARK SMILES IDX 78 79 75 80 71 81 72 82 73 83 74 84 53 85 54 86 62 87 55 88
REMARK SMILES IDX 61 89 63 90 60 91 56 92 57 93 58 94 59 95
REMARK H PARENT 17 8 10 24 24 29 83 48 51 59
REMARK Flexibility Score: inf
ROOT
ATOM      1  C   UNL     1       0.907  -8.952   8.404  1.00  0.00     0.002 C 
ENDROOT
BRANCH   1   2
ATOM      2  C   UNL     1      -0.300  -8.508   7.570  1.00  0.00     0.002 C 
BRANCH   2   3
ATOM      3  C   UNL     1      -0.363  -7.008   7.272  1.00  0.00     0.021 C 
BRANCH   3   4
ATOM      4  C   UNL     1       0.864  -6.470   6.540  1.00  0.00     0.116 C 
BRANCH   4   5
ATOM      5  N   UNL     1       0.856  -6.847   5.136  1.00  0.00    -0.353 N 
ATOM      6  C   UNL     1       0.776  -6.093   3.995  1.00  0.00     0.263 C 
ATOM      7  O   UNL     1       0.765  -6.714   2.928  1.00  0.00    -0.270 OA
ATOM      8  H   UNL     1       0.918  -7.817   4.977  1.00  0.00     0.163 HD
BRANCH   6   9
ATOM      9  C   UNL     1       0.729  -4.540   4.059  1.00  0.00     0.184 C 
ATOM     10  C   UNL     1       1.006  -0.033  -0.093  1.00  0.00     0.049 C 
ATOM     11  C   UNL     1       0.566  -0.680   1.197  1.00  0.00    -0.002 A 
ATOM     12  C   UNL     1       0.746  -2.078   1.364  1.00  0.00    -0.002 A 
ATOM     13  C   UNL     1       0.052   0.071   2.274  1.00  0.00     0.122 A 
ATOM     14  C   UNL     1       1.330  -2.914   0.250  1.00  0.00     0.049 C 
ATOM     15  C   UNL     1       0.384  -2.682   2.583  1.00  0.00     0.127 A 
ATOM     16  C   UNL     1      -0.328  -0.534   3.484  1.00  0.00    -0.002 A 
ATOM     17  C   UNL     1      -0.187  -1.929   3.625  1.00  0.00     0.001 A 
ATOM     18  O   UNL     1       0.638  -4.032   2.706  1.00  0.00    -0.477 OA
ATOM     19  C   UNL     1      -0.860   0.287   4.634  1.00  0.00     0.049 C 
ATOM     20  C   UNL     1      -0.593  -2.600   4.909  1.00  0.00     0.044 C 
ATOM     21  C   UNL     1      -0.554  -4.106   4.773  1.00  0.00     0.063 C 
ATOM     22  C   UNL     1       2.080  -4.055   4.628  1.00  0.00     0.067 C 
BRANCH  13  23
ATOM     23  O   UNL     1      -0.107   1.430   2.207  1.00  0.00    -0.507 OA
ATOM     24  H   UNL     1       0.129   1.891   1.426  1.00  0.00     0.293 HD
ENDBRANCH  13  23
ENDBRANCH   6   9
ENDBRANCH   4   5
ENDBRANCH   3   4
ENDBRANCH   2   3
ENDBRANCH   1   2
BRANCH   1  25
ATOM     25  C   UNL     1       1.119  -8.180   9.710  1.00  0.00     0.021 C 
BRANCH  25  26
ATOM     26  C   UNL     1      -0.070  -8.204  10.664  1.00  0.00     0.116 C 
BRANCH  26  27
ATOM     27  N   UNL     1      -0.386  -9.553  11.103  1.00  0.00    -0.352 N 
ATOM     28  C   UNL     1      -0.434 -10.061  12.376  1.00  0.00     0.251 C 
ATOM     29  H   UNL     1      -0.596 -10.192  10.384  1.00  0.00     0.163 HD
ATOM     30  O   UNL     1      -0.508 -11.275  12.546  1.00  0.00    -0.269 OA
BRANCH  28  31
ATOM     31  C   UNL     1      -0.374  -9.145  13.535  1.00  0.00     0.039 A 
ATOM     32  C   UNL     1       0.475  -9.456  14.598  1.00  0.00     0.014 A 
ATOM     33  C   UNL     1      -1.158  -7.987  13.573  1.00  0.00     0.014 A 
ATOM     34  C   UNL     1       0.578  -8.576  15.678  1.00  0.00     0.010 A 
ATOM     35  C   UNL     1      -1.003  -7.079  14.617  1.00  0.00     0.010 A 
ATOM     36  C   UNL     1      -0.139  -7.368  15.683  1.00  0.00    -0.014 A 
BRANCH  36  37
ATOM     37  C   UNL     1      -0.010  -6.413  16.812  1.00  0.00     0.031 A 
ATOM     38  C   UNL     1      -1.188  -6.150  17.711  1.00  0.00     0.074 A 
ATOM     39  C   UNL     1       1.158  -5.773  17.018  1.00  0.00     0.049 A 
ATOM     40  N   UNL     1      -1.281  -5.336  18.730  1.00  0.00    -0.248 NA
ATOM     41  C   UNL     1      -2.429  -6.882  17.412  1.00  0.00     0.031 C 
ATOM     42  C   UNL     1       2.362  -5.932  16.199  1.00  0.00     0.029 A 
ATOM     43  N   UNL     1       1.531  -4.871  17.982  1.00  0.00    -0.354 N 
ATOM     44  C   UNL     1      -2.584  -5.461  19.196  1.00  0.00     0.074 A 
ATOM     45  C   UNL     1      -3.264  -6.378  18.308  1.00  0.00     0.031 C 
ATOM     46  C   UNL     1       3.351  -5.189  16.723  1.00  0.00     0.029 A 
ATOM     47  C   UNL     1       2.843  -4.469  17.887  1.00  0.00     0.049 A 
ATOM     48  H   UNL     1       0.916  -4.542  18.677  1.00  0.00     0.167 HD
ATOM     49  C   UNL     1      -3.153  -4.887  20.283  1.00  0.00     0.034 A 
ATOM     50  C   UNL     1       3.557  -3.618  18.651  1.00  0.00     0.034 A 
ATOM     51  C   UNL     1      -2.462  -3.992  21.173  1.00  0.00     0.049 A 
ATOM     52  C   UNL     1       2.888  -2.954  19.825  1.00  0.00     0.074 A 
ATOM     53  C   UNL     1      -2.936  -3.389  22.325  1.00  0.00     0.029 A 
ATOM     54  N   UNL     1      -1.149  -3.572  21.014  1.00  0.00    -0.354 N 
ATOM     55  N   UNL     1       1.656  -3.094  20.257  1.00  0.00    -0.248 NA
ATOM     56  C   UNL     1       3.699  -2.016  20.613  1.00  0.00     0.031 C 
ATOM     57  C   UNL     1      -1.930  -2.560  22.830  1.00  0.00     0.029 A 
ATOM     58  C   UNL     1      -0.807  -2.694  22.029  1.00  0.00     0.049 A 
ATOM     59  H   UNL     1      -0.549  -3.856  20.287  1.00  0.00     0.167 HD
ATOM     60  C   UNL     1       1.552  -2.276  21.377  1.00  0.00     0.074 A 
ATOM     61  C   UNL     1       2.845  -1.649  21.559  1.00  0.00     0.031 C 
ATOM     62  C   UNL     1       0.483  -2.067  22.184  1.00  0.00     0.034 A 
BRANCH  49  63
ATOM     63  C   UNL     1      -4.596  -5.211  20.567  1.00  0.00     0.023 A 
ATOM     64  C   UNL     1      -4.991  -6.502  20.958  1.00  0.00     0.031 A 
ATOM     65  C   UNL     1      -5.585  -4.218  20.464  1.00  0.00     0.131 A 
ATOM     66  C   UNL     1      -6.347  -6.778  21.184  1.00  0.00     0.055 A 
ATOM     67  C   UNL     1      -6.924  -4.483  20.754  1.00  0.00     0.041 A 
ATOM     68  F   UNL     1      -5.264  -2.973  20.078  1.00  0.00    -0.206 F 
ATOM     69  C   UNL     1      -7.313  -5.772  21.109  1.00  0.00     0.022 A 
BRANCH  66  70
ATOM     70  S   UNL     1      -6.842  -8.494  21.497  1.00  0.00     0.124 S 
ATOM     71  O   UNL     1      -6.503  -9.132  20.227  1.00  0.00    -0.237 OA
ATOM     72  O   UNL     1      -6.012  -8.861  22.638  1.00  0.00    -0.237 OA
ATOM     73  O   UNL     1      -8.273  -8.392  21.774  1.00  0.00    -0.744 OA
ENDBRANCH  66  70
ENDBRANCH  49  63
BRANCH  50  74
ATOM     74  C   UNL     1       4.986  -3.348  18.332  1.00  0.00     0.023 A 
ATOM     75  C   UNL     1       6.010  -3.799  19.178  1.00  0.00     0.031 A 
ATOM     76  C   UNL     1       5.347  -2.636  17.174  1.00  0.00     0.131 A 
ATOM     77  C   UNL     1       7.349  -3.515  18.866  1.00  0.00     0.055 A 
ATOM     78  C   UNL     1       6.681  -2.388  16.849  1.00  0.00     0.041 A 
ATOM     79  F   UNL     1       4.403  -2.191  16.329  1.00  0.00    -0.206 F 
ATOM     80  C   UNL     1       7.692  -2.824  17.701  1.00  0.00     0.022 A 
BRANCH  77  81
ATOM     81  S   UNL     1       8.643  -4.040  20.023  1.00  0.00     0.124 S 
ATOM     82  O   UNL     1       8.320  -3.251  21.206  1.00  0.00    -0.237 OA
ATOM     83  O   UNL     1       8.402  -5.475  20.121  1.00  0.00    -0.237 OA
ATOM     84  O   UNL     1       9.880  -3.665  19.341  1.00  0.00    -0.744 OA
ENDBRANCH  77  81
ENDBRANCH  50  74
BRANCH  62  85
ATOM     85  C   UNL     1       0.663  -1.133  23.350  1.00  0.00     0.023 A 
ATOM     86  C   UNL     1       0.744   0.257  23.165  1.00  0.00     0.031 A 
ATOM     87  C   UNL     1       0.682  -1.635  24.663  1.00  0.00     0.131 A 
ATOM     88  C   UNL     1       0.859   1.101  24.279  1.00  0.00     0.055 A 
ATOM     89  C   UNL     1       0.754  -0.789  25.769  1.00  0.00     0.041 A 
ATOM     90  F   UNL     1       0.602  -2.956  24.889  1.00  0.00    -0.206 F 
ATOM     91  C   UNL     1       0.846   0.588  25.580  1.00  0.00     0.022 A 
BRANCH  88  92
ATOM     92  S   UNL     1       1.038   2.884  24.008  1.00  0.00     0.124 S 
ATOM     93  O   UNL     1       2.345   2.961  23.362  1.00  0.00    -0.237 OA
ATOM     94  O   UNL     1      -0.109   3.194  23.161  1.00  0.00    -0.237 OA
ATOM     95  O   UNL     1       0.979   3.444  25.357  1.00  0.00    -0.744 OA
ENDBRANCH  88  92
ENDBRANCH  62  85
ENDBRANCH  36  37
ENDBRANCH  28  31
ENDBRANCH  26  27
ENDBRANCH  25  26
ENDBRANCH   1  25
TORSDOF 17
