REMARK SMILES Cc1ccc(C(=O)NCCCCCCNC(=O)c2ccc(-c3c4nc(c(-c5cc(S(=O)(=O)[O-])ccc5F)c5ccc([nH]5)c(-c5cc(S(=O)(=O)[O-])ccc5F)c5nc(c(-c6cc(S(=O)(=O)[O-])ccc6F)c6ccc3[nH]6)C=C5)C=C4)cc2)c(N2CCC(C(N)=O)CC2)c1
REMARK SMILES IDX 12 1 11 2 10 3 9 4 8 5 6 6 7 7 5 9 1 10 2 11 3 12 91 13 4 14
REMARK SMILES IDX 81 15 82 16 83 17 90 18 84 19 89 20 85 21 86 22 87 23 88 24
REMARK SMILES IDX 13 27 14 28 15 29 16 30 17 32 18 33 19 34 80 35 20 36 79 37
REMARK SMILES IDX 21 38 22 39 23 40 73 41 24 42 78 43 72 44 74 45 25 46 77 47
REMARK SMILES IDX 71 48 70 49 26 51 58 52 38 53 57 54 39 55 42 56 56 57 75 58
REMARK SMILES IDX 40 59 41 60 55 62 76 63 43 64 27 65 28 66 36 67 29 68 35 69
REMARK SMILES IDX 37 70 34 71 30 72 31 73 32 74 33 75 59 76 60 77 68 78 61 79
REMARK SMILES IDX 67 80 69 81 66 82 62 83 63 84 64 85 65 86 44 87 45 88 53 89
REMARK SMILES IDX 46 90 52 91 54 92 51 93 47 94 48 95 49 96 50 97
REMARK H PARENT 8 8 87 25 87 26 15 31 74 50 42 61
REMARK Flexibility Score: inf
ROOT
ATOM      1  C   UNL     1      -6.636   4.171   0.916  1.00  0.00     0.002 C 
ENDROOT
BRANCH   1   2
ATOM      2  C   UNL     1      -6.412   3.234  -0.290  1.00  0.00     0.002 C 
BRANCH   2   3
ATOM      3  C   UNL     1      -5.170   2.340  -0.530  1.00  0.00     0.021 C 
BRANCH   3   4
ATOM      4  C   UNL     1      -4.537   1.564   0.629  1.00  0.00     0.116 C 
BRANCH   4   5
ATOM      5  N   UNL     1      -4.124   0.248   0.149  1.00  0.00    -0.352 N 
ATOM      6  C   UNL     1      -2.982  -0.370  -0.276  1.00  0.00     0.253 C 
ATOM      7  O   UNL     1      -3.184  -1.458  -0.842  1.00  0.00    -0.269 OA
ATOM      8  H   UNL     1      -4.889  -0.372   0.123  1.00  0.00     0.163 HD
BRANCH   6   9
ATOM      9  C   UNL     1      -1.548  -0.009  -0.016  1.00  0.00     0.063 A 
ATOM     10  C   UNL     1       2.807   0.084   0.152  1.00  0.00     0.044 C 
ATOM     11  C   UNL     1       1.310   0.045   0.200  1.00  0.00    -0.049 A 
ATOM     12  C   UNL     1       0.634  -1.160   0.284  1.00  0.00     0.004 A 
ATOM     13  C   UNL     1       0.558   1.212   0.046  1.00  0.00     0.030 A 
ATOM     14  C   UNL     1      -0.761  -1.176   0.205  1.00  0.00     0.016 A 
ATOM     15  C   UNL     1      -0.860   1.218  -0.125  1.00  0.00     0.050 A 
BRANCH  15  16
ATOM     16  N   UNL     1      -1.426   2.425  -0.579  1.00  0.00    -0.371 N 
ATOM     17  C   UNL     1      -1.502   3.509   0.401  1.00  0.00     0.117 C 
ATOM     18  C   UNL     1      -0.815   2.880  -1.838  1.00  0.00     0.117 C 
ATOM     19  C   UNL     1      -2.437   4.592  -0.126  1.00  0.00     0.035 C 
ATOM     20  C   UNL     1      -1.746   3.832  -2.531  1.00  0.00     0.035 C 
ATOM     21  C   UNL     1      -2.300   4.939  -1.632  1.00  0.00     0.081 C 
BRANCH  21  22
ATOM     22  C   UNL     1      -3.632   5.265  -2.257  1.00  0.00     0.220 C 
ATOM     23  N   UNL     1      -3.656   5.733  -3.516  1.00  0.00    -0.369 N 
ATOM     24  O   UNL     1      -4.714   5.071  -1.699  1.00  0.00    -0.275 OA
ATOM     25  H   UNL     1      -2.812   5.900  -3.994  1.00  0.00     0.159 HD
ATOM     26  H   UNL     1      -4.517   5.908  -3.959  1.00  0.00     0.159 HD
ENDBRANCH  21  22
ENDBRANCH  15  16
ENDBRANCH   6   9
ENDBRANCH   4   5
ENDBRANCH   3   4
ENDBRANCH   2   3
ENDBRANCH   1   2
BRANCH   1  27
ATOM     27  C   UNL     1      -5.846   5.455   1.242  1.00  0.00     0.021 C 
BRANCH  27  28
ATOM     28  C   UNL     1      -5.852   6.726   0.371  1.00  0.00     0.116 C 
BRANCH  28  29
ATOM     29  N   UNL     1      -7.047   7.546   0.320  1.00  0.00    -0.352 N 
ATOM     30  C   UNL     1      -7.164   8.826  -0.214  1.00  0.00     0.251 C 
ATOM     31  H   UNL     1      -7.864   7.154   0.706  1.00  0.00     0.163 HD
ATOM     32  O   UNL     1      -8.044   9.601   0.158  1.00  0.00    -0.269 OA
BRANCH  30  33
ATOM     33  C   UNL     1      -6.373   9.200  -1.430  1.00  0.00     0.039 A 
ATOM     34  C   UNL     1      -7.108   9.697  -2.520  1.00  0.00     0.014 A 
ATOM     35  C   UNL     1      -5.027   8.895  -1.606  1.00  0.00     0.014 A 
ATOM     36  C   UNL     1      -6.602   9.589  -3.815  1.00  0.00     0.010 A 
ATOM     37  C   UNL     1      -4.523   8.777  -2.895  1.00  0.00     0.010 A 
ATOM     38  C   UNL     1      -5.354   9.001  -3.996  1.00  0.00    -0.014 A 
BRANCH  38  39
ATOM     39  C   UNL     1      -4.946   8.431  -5.279  1.00  0.00     0.031 A 
ATOM     40  C   UNL     1      -4.002   9.148  -6.160  1.00  0.00     0.074 A 
ATOM     41  C   UNL     1      -5.416   7.220  -5.665  1.00  0.00     0.049 A 
ATOM     42  N   UNL     1      -3.988   9.029  -7.443  1.00  0.00    -0.248 NA
ATOM     43  C   UNL     1      -2.998  10.080  -5.659  1.00  0.00     0.031 C 
ATOM     44  C   UNL     1      -4.960   6.414  -6.802  1.00  0.00     0.029 A 
ATOM     45  N   UNL     1      -6.464   6.452  -5.169  1.00  0.00    -0.354 N 
ATOM     46  C   UNL     1      -2.832   9.610  -7.904  1.00  0.00     0.074 A 
ATOM     47  C   UNL     1      -2.294  10.326  -6.770  1.00  0.00     0.031 C 
ATOM     48  C   UNL     1      -5.907   5.508  -7.101  1.00  0.00     0.029 A 
ATOM     49  C   UNL     1      -7.052   5.810  -6.266  1.00  0.00     0.049 A 
ATOM     50  H   UNL     1      -6.740   6.374  -4.227  1.00  0.00     0.167 HD
ATOM     51  C   UNL     1      -2.371   9.300  -9.149  1.00  0.00     0.034 A 
ATOM     52  C   UNL     1      -8.311   6.068  -6.736  1.00  0.00     0.034 A 
ATOM     53  C   UNL     1      -3.247   8.347  -9.827  1.00  0.00     0.049 A 
ATOM     54  C   UNL     1      -8.321   6.511  -8.193  1.00  0.00     0.074 A 
ATOM     55  C   UNL     1      -3.181   6.975 -10.011  1.00  0.00     0.029 A 
ATOM     56  N   UNL     1      -4.537   8.727 -10.175  1.00  0.00    -0.354 N 
ATOM     57  N   UNL     1      -7.269   6.948  -8.833  1.00  0.00    -0.248 NA
ATOM     58  C   UNL     1      -9.512   6.511  -9.037  1.00  0.00     0.031 C 
ATOM     59  C   UNL     1      -4.458   6.528 -10.440  1.00  0.00     0.029 A 
ATOM     60  C   UNL     1      -5.288   7.630 -10.551  1.00  0.00     0.049 A 
ATOM     61  H   UNL     1      -4.870   9.653 -10.158  1.00  0.00     0.167 HD
ATOM     62  C   UNL     1      -7.602   7.283 -10.125  1.00  0.00     0.074 A 
ATOM     63  C   UNL     1      -9.021   6.976 -10.200  1.00  0.00     0.031 C 
ATOM     64  C   UNL     1      -6.669   7.788 -10.996  1.00  0.00     0.034 A 
BRANCH  51  65
ATOM     65  C   UNL     1      -0.970   9.613  -9.613  1.00  0.00     0.023 A 
ATOM     66  C   UNL     1      -0.296   8.698 -10.447  1.00  0.00     0.031 A 
ATOM     67  C   UNL     1      -0.239  10.759  -9.250  1.00  0.00     0.131 A 
ATOM     68  C   UNL     1       1.055   8.873 -10.790  1.00  0.00     0.055 A 
ATOM     69  C   UNL     1       1.122  10.914  -9.550  1.00  0.00     0.041 A 
ATOM     70  F   UNL     1      -0.823  11.787  -8.616  1.00  0.00    -0.206 F 
ATOM     71  C   UNL     1       1.782   9.959 -10.312  1.00  0.00     0.022 A 
BRANCH  68  72
ATOM     72  S   UNL     1       1.849   7.651 -11.870  1.00  0.00     0.124 S 
ATOM     73  O   UNL     1       1.715   6.423 -11.093  1.00  0.00    -0.237 OA
ATOM     74  O   UNL     1       1.042   7.739 -13.082  1.00  0.00    -0.237 OA
ATOM     75  O   UNL     1       3.216   8.152 -12.001  1.00  0.00    -0.744 OA
ENDBRANCH  68  72
ENDBRANCH  51  65
BRANCH  52  76
ATOM     76  C   UNL     1      -9.262   6.533  -5.688  1.00  0.00     0.023 A 
ATOM     77  C   UNL     1      -9.533   5.646  -4.625  1.00  0.00     0.031 A 
ATOM     78  C   UNL     1      -9.522   7.896  -5.494  1.00  0.00     0.131 A 
ATOM     79  C   UNL     1      -9.856   6.150  -3.357  1.00  0.00     0.055 A 
ATOM     80  C   UNL     1      -9.904   8.387  -4.240  1.00  0.00     0.041 A 
ATOM     81  F   UNL     1      -9.269   8.787  -6.464  1.00  0.00    -0.206 F 
ATOM     82  C   UNL     1     -10.014   7.521  -3.153  1.00  0.00     0.022 A 
BRANCH  79  83
ATOM     83  S   UNL     1      -9.802   5.052  -1.907  1.00  0.00     0.124 S 
ATOM     84  O   UNL     1     -11.218   4.814  -1.654  1.00  0.00    -0.237 OA
ATOM     85  O   UNL     1      -9.049   3.900  -2.392  1.00  0.00    -0.237 OA
ATOM     86  O   UNL     1      -9.110   5.871  -0.910  1.00  0.00    -0.744 OA
ENDBRANCH  79  83
ENDBRANCH  52  76
BRANCH  64  87
ATOM     87  C   UNL     1      -6.917   8.403 -12.370  1.00  0.00     0.023 A 
ATOM     88  C   UNL     1      -8.185   8.567 -12.938  1.00  0.00     0.031 A 
ATOM     89  C   UNL     1      -5.845   8.902 -13.161  1.00  0.00     0.131 A 
ATOM     90  C   UNL     1      -8.359   9.135 -14.216  1.00  0.00     0.055 A 
ATOM     91  C   UNL     1      -6.021   9.523 -14.403  1.00  0.00     0.041 A 
ATOM     92  F   UNL     1      -4.567   8.827 -12.765  1.00  0.00    -0.206 F 
ATOM     93  C   UNL     1      -7.287   9.634 -14.947  1.00  0.00     0.022 A 
BRANCH  90  94
ATOM     94  S   UNL     1     -10.028   9.153 -14.920  1.00  0.00     0.124 S 
ATOM     95  O   UNL     1     -10.337   7.728 -14.997  1.00  0.00    -0.237 OA
ATOM     96  O   UNL     1     -10.777   9.909 -13.921  1.00  0.00    -0.237 OA
ATOM     97  O   UNL     1      -9.854   9.823 -16.206  1.00  0.00    -0.744 OA
ENDBRANCH  90  94
ENDBRANCH  64  87
ENDBRANCH  38  39
ENDBRANCH  30  33
ENDBRANCH  28  29
ENDBRANCH  27  28
ENDBRANCH   1  27
TORSDOF 18
