REMARK SMILES O=C(NCCCCCCNC(=O)C1CCN(C2=[NH+]C(Cl)=[NH+]C3=[NH+]C=N[C@@H]32)CC1)c1ccc(-c2c3nc(c(-c4cc(S(=O)(=O)[O-])ccc4F)c4ccc([nH]4)c(-c4cc(S(=O)(=O)[O-])ccc4F)c4nc(c(-c5cc(S(=O)(=O)[O-])ccc5F)c5ccc2[nH]5)C=C4)C=C3)cc1
REMARK SMILES IDX 5 1 4 2 3 3 1 4 2 5 29 7 30 8 91 9 31 10 90 11 32 12 33 13
REMARK SMILES IDX 34 14 84 15 35 16 89 17 83 18 85 19 36 20 88 21 82 22 81 23
REMARK SMILES IDX 37 25 69 26 49 27 68 28 50 29 53 30 67 31 86 32 51 33 52 34
REMARK SMILES IDX 66 36 87 37 54 38 38 39 39 40 47 41 40 42 46 43 48 44 45 45
REMARK SMILES IDX 41 46 42 47 43 48 44 49 70 50 71 51 79 52 72 53 78 54 80 55
REMARK SMILES IDX 77 56 73 57 74 58 75 59 76 60 55 61 56 62 64 63 57 64 63 65
REMARK SMILES IDX 65 66 62 67 58 68 59 69 60 70 61 71 6 72 7 73 8 74 9 75
REMARK SMILES IDX 10 76 11 77 12 79 13 80 14 81 28 82 15 83 27 84 16 85 17 86
REMARK SMILES IDX 18 87 26 88 19 89 22 91 25 92 20 93 21 94 23 95 24 96
REMARK H PARENT 3 6 85 24 53 35 10 78 18 90 21 97 23 98
REMARK Flexibility Score: inf
ROOT
ATOM      1  C   UNL     1       4.538  -0.867   2.046  1.00  0.00     0.021 C 
ENDROOT
BRANCH   1   2
ATOM      2  C   UNL     1       4.533  -0.811   0.520  1.00  0.00     0.116 C 
BRANCH   2   3
ATOM      3  N   UNL     1       3.219  -0.867  -0.086  1.00  0.00    -0.352 N 
ATOM      4  O   UNL     1       1.190  -0.376  -0.818  1.00  0.00    -0.269 OA
ATOM      5  C   UNL     1       2.170   0.007  -0.174  1.00  0.00     0.251 C 
ATOM      6  H   UNL     1       3.041  -1.725  -0.533  1.00  0.00     0.163 HD
BRANCH   5   7
ATOM      7  C   UNL     1       2.121   1.337   0.489  1.00  0.00     0.039 A 
ATOM      8  C   UNL     1       3.234   2.100   0.845  1.00  0.00     0.014 A 
ATOM      9  C   UNL     1       0.838   1.864   0.723  1.00  0.00     0.014 A 
ATOM     10  C   UNL     1       3.071   3.331   1.478  1.00  0.00     0.010 A 
ATOM     11  C   UNL     1       0.670   3.105   1.333  1.00  0.00     0.010 A 
ATOM     12  C   UNL     1       1.790   3.835   1.725  1.00  0.00    -0.014 A 
BRANCH  12  13
ATOM     13  C   UNL     1       1.668   5.221   2.187  1.00  0.00     0.031 A 
ATOM     14  C   UNL     1       2.146   6.246   1.213  1.00  0.00     0.074 A 
ATOM     15  C   UNL     1       1.014   5.610   3.300  1.00  0.00     0.049 A 
ATOM     16  N   UNL     1       3.083   7.124   1.365  1.00  0.00    -0.248 NA
ATOM     17  C   UNL     1       1.570   6.222  -0.141  1.00  0.00     0.031 C 
ATOM     18  C   UNL     1       0.226   4.774   4.205  1.00  0.00     0.029 A 
ATOM     19  N   UNL     1       0.821   6.872   3.792  1.00  0.00    -0.354 N 
ATOM     20  C   UNL     1       3.075   7.904   0.209  1.00  0.00     0.074 A 
ATOM     21  C   UNL     1       2.247   7.204  -0.735  1.00  0.00     0.031 C 
ATOM     22  C   UNL     1      -0.530   5.568   4.996  1.00  0.00     0.029 A 
ATOM     23  C   UNL     1      -0.196   6.961   4.737  1.00  0.00     0.049 A 
ATOM     24  H   UNL     1       1.355   7.647   3.503  1.00  0.00     0.167 HD
ATOM     25  C   UNL     1       3.586   9.167   0.192  1.00  0.00     0.034 A 
ATOM     26  C   UNL     1      -0.776   8.090   5.226  1.00  0.00     0.034 A 
ATOM     27  C   UNL     1       4.478   9.388   1.307  1.00  0.00     0.049 A 
ATOM     28  C   UNL     1       0.170   9.210   5.010  1.00  0.00     0.074 A 
ATOM     29  C   UNL     1       5.626   8.771   1.768  1.00  0.00     0.029 A 
ATOM     30  N   UNL     1       4.051  10.181   2.348  1.00  0.00    -0.354 N 
ATOM     31  N   UNL     1       1.319   9.312   5.618  1.00  0.00    -0.248 NA
ATOM     32  C   UNL     1       0.041  10.004   3.798  1.00  0.00     0.031 C 
ATOM     33  C   UNL     1       5.522   8.816   3.189  1.00  0.00     0.029 A 
ATOM     34  C   UNL     1       4.355   9.512   3.507  1.00  0.00     0.049 A 
ATOM     35  H   UNL     1       3.611  11.058   2.275  1.00  0.00     0.167 HD
ATOM     36  C   UNL     1       2.186   9.816   4.663  1.00  0.00     0.074 A 
ATOM     37  C   UNL     1       1.322  10.328   3.603  1.00  0.00     0.031 C 
ATOM     38  C   UNL     1       3.519   9.522   4.691  1.00  0.00     0.034 A 
BRANCH  25  39
ATOM     39  C   UNL     1       3.022  10.319  -0.619  1.00  0.00     0.023 A 
ATOM     40  C   UNL     1       3.650  11.573  -0.477  1.00  0.00     0.031 A 
ATOM     41  C   UNL     1       1.761  10.339  -1.257  1.00  0.00     0.131 A 
ATOM     42  C   UNL     1       2.983  12.762  -0.820  1.00  0.00     0.055 A 
ATOM     43  C   UNL     1       1.136  11.520  -1.671  1.00  0.00     0.041 A 
ATOM     44  F   UNL     1       1.019   9.241  -1.434  1.00  0.00    -0.206 F 
ATOM     45  C   UNL     1       1.727  12.745  -1.417  1.00  0.00     0.022 A 
BRANCH  42  46
ATOM     46  S   UNL     1       3.699  14.332  -0.269  1.00  0.00     0.124 S 
ATOM     47  O   UNL     1       3.876  14.083   1.158  1.00  0.00    -0.237 OA
ATOM     48  O   UNL     1       4.918  14.403  -1.067  1.00  0.00    -0.237 OA
ATOM     49  O   UNL     1       2.671  15.312  -0.610  1.00  0.00    -0.744 OA
ENDBRANCH  42  46
ENDBRANCH  25  39
BRANCH  26  50
ATOM     50  C   UNL     1      -2.204   8.284   5.607  1.00  0.00     0.023 A 
ATOM     51  C   UNL     1      -2.642   9.347   6.426  1.00  0.00     0.031 A 
ATOM     52  C   UNL     1      -3.209   7.533   4.957  1.00  0.00     0.131 A 
ATOM     53  C   UNL     1      -4.025   9.611   6.573  1.00  0.00     0.055 A 
ATOM     54  C   UNL     1      -4.572   7.789   5.115  1.00  0.00     0.041 A 
ATOM     55  F   UNL     1      -2.898   6.572   4.073  1.00  0.00    -0.206 F 
ATOM     56  C   UNL     1      -4.987   8.837   5.919  1.00  0.00     0.022 A 
BRANCH  53  57
ATOM     57  S   UNL     1      -4.598  11.046   7.542  1.00  0.00     0.124 S 
ATOM     58  O   UNL     1      -4.293  10.636   8.911  1.00  0.00    -0.237 OA
ATOM     59  O   UNL     1      -3.801  12.134   6.997  1.00  0.00    -0.237 OA
ATOM     60  O   UNL     1      -6.027  11.118   7.230  1.00  0.00    -0.744 OA
ENDBRANCH  53  57
ENDBRANCH  26  50
BRANCH  38  61
ATOM     61  C   UNL     1       4.115   8.940   5.954  1.00  0.00     0.023 A 
ATOM     62  C   UNL     1       3.665   7.761   6.590  1.00  0.00     0.031 A 
ATOM     63  C   UNL     1       5.273   9.555   6.464  1.00  0.00     0.131 A 
ATOM     64  C   UNL     1       4.365   7.250   7.700  1.00  0.00     0.055 A 
ATOM     65  C   UNL     1       5.973   9.035   7.551  1.00  0.00     0.041 A 
ATOM     66  F   UNL     1       5.769  10.661   5.885  1.00  0.00    -0.206 F 
ATOM     67  C   UNL     1       5.517   7.883   8.178  1.00  0.00     0.022 A 
BRANCH  64  68
ATOM     68  S   UNL     1       3.782   5.750   8.553  1.00  0.00     0.124 S 
ATOM     69  O   UNL     1       2.354   5.985   8.728  1.00  0.00    -0.237 OA
ATOM     70  O   UNL     1       4.147   4.691   7.615  1.00  0.00    -0.237 OA
ATOM     71  O   UNL     1       4.554   5.745   9.798  1.00  0.00    -0.744 OA
ENDBRANCH  64  68
ENDBRANCH  38  61
ENDBRANCH  12  13
ENDBRANCH   5   7
ENDBRANCH   2   3
ENDBRANCH   1   2
BRANCH   1  72
ATOM     72  C   UNL     1       3.813  -2.074   2.654  1.00  0.00     0.002 C 
BRANCH  72  73
ATOM     73  C   UNL     1       4.285  -3.455   2.181  1.00  0.00     0.002 C 
BRANCH  73  74
ATOM     74  C   UNL     1       5.794  -3.694   2.258  1.00  0.00     0.021 C 
BRANCH  74  75
ATOM     75  C   UNL     1       6.372  -3.583   3.666  1.00  0.00     0.116 C 
BRANCH  75  76
ATOM     76  N   UNL     1       6.408  -4.855   4.349  1.00  0.00    -0.356 N 
ATOM     77  C   UNL     1       7.421  -5.617   4.819  1.00  0.00     0.223 C 
ATOM     78  H   UNL     1       5.517  -5.244   4.503  1.00  0.00     0.163 HD
ATOM     79  O   UNL     1       7.091  -6.658   5.402  1.00  0.00    -0.275 OA
BRANCH  77  80
ATOM     80  C   UNL     1       8.911  -5.296   4.667  1.00  0.00     0.087 C 
ATOM     81  C   UNL     1       9.442  -4.118   5.476  1.00  0.00     0.068 C 
ATOM     82  C   UNL     1       9.460  -5.365   3.248  1.00  0.00     0.068 C 
ATOM     83  C   UNL     1       9.592  -2.806   4.726  1.00  0.00     0.277 C 
ATOM     84  C   UNL     1       9.544  -4.039   2.517  1.00  0.00     0.277 C 
ATOM     85  N   UNL     1      10.081  -2.974   3.357  1.00  0.00    -0.230 N 
ATOM     86  C   UNL     1      10.763  -1.932   2.747  1.00  0.00     0.383 C 
ATOM     87  N   UNL     1      10.393  -1.451   1.591  1.00  0.00    -0.155 N 
ATOM     88  C   UNL     1      11.995  -1.366   3.423  1.00  0.00     0.523 C 
ATOM     89  C   UNL     1      11.142  -0.439   1.035  1.00  0.00     0.414 C 
ATOM     90  H   UNL     1       9.599  -1.804   1.129  1.00  0.00     0.367 HD
ATOM     91  C   UNL     1      12.864  -0.951   2.299  1.00  0.00     0.389 C 
ATOM     92  N   UNL     1      12.833  -2.409   4.058  1.00  0.00     0.003 NA
ATOM     93  Cl  UNL     1      10.357   0.491  -0.166  1.00  0.00     0.028 Cl
ATOM     94  N   UNL     1      12.372  -0.157   1.324  1.00  0.00    -0.155 N 
ATOM     95  N   UNL     1      14.011  -1.530   2.291  1.00  0.00    -0.169 N 
ATOM     96  C   UNL     1      13.929  -2.391   3.357  1.00  0.00     0.532 C 
ATOM     97  H   UNL     1      12.889   0.555   0.882  1.00  0.00     0.367 HD
ATOM     98  H   UNL     1      14.764  -1.390   1.672  1.00  0.00     0.365 HD
ENDBRANCH  77  80
ENDBRANCH  75  76
ENDBRANCH  74  75
ENDBRANCH  73  74
ENDBRANCH  72  73
ENDBRANCH   1  72
TORSDOF 16
