REMARK SMILES CN(CC(=O)NCC(=O)NCCCCCCNC(=O)c1ccc(-c2c3nc(c(-c4cc(S(=O)(=O)[O-])ccc4F)c4ccc([nH]4)c(-c4cc(S(=O)(=O)[O-])ccc4F)c4nc(c(-c5cc(S(=O)(=O)[O-])ccc5F)c5ccc2[nH]5)C=C4)C=C3)cc1)c1ncccn1
REMARK SMILES IDX 13 1 12 2 11 3 10 4 8 5 9 6 7 8 6 9 4 10 5 11 3 13 2 14 1 15
REMARK SMILES IDX 83 16 84 17 88 18 85 19 87 20 86 21 14 22 15 23 16 24 17 25
REMARK SMILES IDX 18 26 19 28 20 29 21 30 82 31 22 32 81 33 23 34 24 35 25 36
REMARK SMILES IDX 75 37 26 38 80 39 74 40 76 41 27 42 79 43 73 44 72 45 28 47
REMARK SMILES IDX 60 48 40 49 59 50 41 51 44 52 58 53 77 54 42 55 43 56 57 58
REMARK SMILES IDX 78 59 45 60 29 61 30 62 38 63 31 64 37 65 39 66 36 67 32 68
REMARK SMILES IDX 33 69 34 70 35 71 61 72 62 73 70 74 63 75 69 76 71 77 68 78
REMARK SMILES IDX 64 79 65 80 66 81 67 82 46 83 47 84 55 85 48 86 54 87 56 88
REMARK SMILES IDX 53 89 49 90 50 91 51 92 52 93
REMARK H PARENT 10 7 6 12 17 27 76 46 44 57
REMARK Flexibility Score: inf
ROOT
ATOM      1  C   UNL     1      -0.766  -1.923   5.240  1.00  0.00     0.002 C 
ENDROOT
BRANCH   1   2
ATOM      2  C   UNL     1      -1.092  -0.777   4.277  1.00  0.00     0.021 C 
BRANCH   2   3
ATOM      3  C   UNL     1      -0.665  -1.015   2.833  1.00  0.00     0.116 C 
BRANCH   3   4
ATOM      4  N   UNL     1      -1.581  -1.874   2.109  1.00  0.00    -0.355 N 
ATOM      5  C   UNL     1      -2.227  -1.629   0.931  1.00  0.00     0.239 C 
ATOM      6  O   UNL     1      -2.798  -2.574   0.379  1.00  0.00    -0.273 OA
ATOM      7  H   UNL     1      -1.761  -2.749   2.521  1.00  0.00     0.163 HD
BRANCH   5   8
ATOM      8  C   UNL     1      -2.108  -0.270   0.224  1.00  0.00     0.216 C 
BRANCH   8   9
ATOM      9  N   UNL     1      -2.383   0.890   1.052  1.00  0.00    -0.345 N 
ATOM     10  C   UNL     1      -1.698   2.072   1.144  1.00  0.00     0.240 C 
ATOM     11  O   UNL     1      -2.216   2.969   1.815  1.00  0.00    -0.273 OA
ATOM     12  H   UNL     1      -3.176   0.817   1.631  1.00  0.00     0.164 HD
BRANCH  10  13
ATOM     13  C   UNL     1      -0.394   2.288   0.353  1.00  0.00     0.219 C 
BRANCH  13  14
ATOM     14  N   UNL     1       0.730   1.460   0.800  1.00  0.00    -0.335 N 
ATOM     15  C   UNL     1       1.440   0.600  -0.121  1.00  0.00     0.147 C 
BRANCH  14  16
ATOM     16  C   UNL     1       1.349   1.765   1.998  1.00  0.00     0.225 A 
ATOM     17  N   UNL     1       0.698   2.526   2.887  1.00  0.00    -0.221 NA
ATOM     18  N   UNL     1       2.570   1.260   2.246  1.00  0.00    -0.221 NA
ATOM     19  C   UNL     1       1.322   2.826   4.043  1.00  0.00     0.117 A 
ATOM     20  C   UNL     1       3.174   1.610   3.400  1.00  0.00     0.117 A 
ATOM     21  C   UNL     1       2.586   2.400   4.353  1.00  0.00     0.040 A 
ENDBRANCH  14  16
ENDBRANCH  13  14
ENDBRANCH  10  13
ENDBRANCH   8   9
ENDBRANCH   5   8
ENDBRANCH   3   4
ENDBRANCH   2   3
ENDBRANCH   1   2
BRANCH   1  22
ATOM     22  C   UNL     1       0.710  -2.337   5.320  1.00  0.00     0.002 C 
BRANCH  22  23
ATOM     23  C   UNL     1       1.722  -1.201   5.499  1.00  0.00     0.021 C 
BRANCH  23  24
ATOM     24  C   UNL     1       1.577  -0.374   6.776  1.00  0.00     0.116 C 
BRANCH  24  25
ATOM     25  N   UNL     1       1.935  -1.132   7.960  1.00  0.00    -0.352 N 
ATOM     26  C   UNL     1       2.847  -0.866   8.951  1.00  0.00     0.251 C 
ATOM     27  H   UNL     1       1.442  -1.977   8.072  1.00  0.00     0.163 HD
ATOM     28  O   UNL     1       3.117  -1.762   9.753  1.00  0.00    -0.269 OA
BRANCH  26  29
ATOM     29  C   UNL     1       3.527   0.451   9.070  1.00  0.00     0.039 A 
ATOM     30  C   UNL     1       4.859   0.470   9.500  1.00  0.00     0.014 A 
ATOM     31  C   UNL     1       2.865   1.664   8.851  1.00  0.00     0.014 A 
ATOM     32  C   UNL     1       5.533   1.685   9.672  1.00  0.00     0.010 A 
ATOM     33  C   UNL     1       3.557   2.877   8.969  1.00  0.00     0.010 A 
ATOM     34  C   UNL     1       4.897   2.903   9.388  1.00  0.00    -0.014 A 
BRANCH  34  35
ATOM     35  C   UNL     1       5.623   4.197   9.542  1.00  0.00     0.031 A 
ATOM     36  C   UNL     1       5.200   5.197  10.588  1.00  0.00     0.074 A 
ATOM     37  C   UNL     1       6.655   4.490   8.726  1.00  0.00     0.049 A 
ATOM     38  N   UNL     1       5.687   6.387  10.842  1.00  0.00    -0.248 NA
ATOM     39  C   UNL     1       4.070   4.815  11.445  1.00  0.00     0.031 C 
ATOM     40  C   UNL     1       7.163   3.621   7.663  1.00  0.00     0.029 A 
ATOM     41  N   UNL     1       7.462   5.601   8.658  1.00  0.00    -0.354 N 
ATOM     42  C   UNL     1       4.920   6.899  11.884  1.00  0.00     0.074 A 
ATOM     43  C   UNL     1       3.901   5.910  12.171  1.00  0.00     0.031 C 
ATOM     44  C   UNL     1       8.205   4.221   7.065  1.00  0.00     0.029 A 
ATOM     45  C   UNL     1       8.415   5.534   7.668  1.00  0.00     0.049 A 
ATOM     46  H   UNL     1       7.367   6.372   9.262  1.00  0.00     0.167 HD
ATOM     47  C   UNL     1       5.063   8.072  12.555  1.00  0.00     0.034 A 
ATOM     48  C   UNL     1       9.345   6.429   7.277  1.00  0.00     0.034 A 
ATOM     49  C   UNL     1       6.085   9.052  12.267  1.00  0.00     0.049 A 
ATOM     50  C   UNL     1       9.453   7.747   8.000  1.00  0.00     0.074 A 
ATOM     51  C   UNL     1       6.341  10.247  12.918  1.00  0.00     0.029 A 
ATOM     52  N   UNL     1       7.012   8.961  11.236  1.00  0.00    -0.354 N 
ATOM     53  N   UNL     1       8.743   8.198   9.008  1.00  0.00    -0.248 NA
ATOM     54  C   UNL     1      10.496   8.674   7.537  1.00  0.00     0.031 C 
ATOM     55  C   UNL     1       7.372  10.909  12.241  1.00  0.00     0.029 A 
ATOM     56  C   UNL     1       7.816  10.093  11.213  1.00  0.00     0.049 A 
ATOM     57  H   UNL     1       7.089   8.203  10.613  1.00  0.00     0.167 HD
ATOM     58  C   UNL     1       9.277   9.447   9.319  1.00  0.00     0.074 A 
ATOM     59  C   UNL     1      10.373   9.672   8.400  1.00  0.00     0.031 C 
ATOM     60  C   UNL     1       8.898  10.323  10.284  1.00  0.00     0.034 A 
BRANCH  47  61
ATOM     61  C   UNL     1       4.063   8.371  13.649  1.00  0.00     0.023 A 
ATOM     62  C   UNL     1       3.955   7.562  14.793  1.00  0.00     0.031 A 
ATOM     63  C   UNL     1       3.186   9.466  13.535  1.00  0.00     0.131 A 
ATOM     64  C   UNL     1       2.943   7.808  15.734  1.00  0.00     0.055 A 
ATOM     65  C   UNL     1       2.237   9.756  14.518  1.00  0.00     0.041 A 
ATOM     66  F   UNL     1       3.228  10.266  12.458  1.00  0.00    -0.206 F 
ATOM     67  C   UNL     1       2.099   8.914  15.617  1.00  0.00     0.022 A 
BRANCH  64  68
ATOM     68  S   UNL     1       2.643   6.570  17.025  1.00  0.00     0.124 S 
ATOM     69  O   UNL     1       2.389   5.370  16.230  1.00  0.00    -0.237 OA
ATOM     70  O   UNL     1       3.896   6.586  17.773  1.00  0.00    -0.237 OA
ATOM     71  O   UNL     1       1.482   7.093  17.739  1.00  0.00    -0.744 OA
ENDBRANCH  64  68
ENDBRANCH  47  61
BRANCH  48  72
ATOM     72  C   UNL     1      10.246   6.122   6.128  1.00  0.00     0.023 A 
ATOM     73  C   UNL     1      11.630   5.980   6.311  1.00  0.00     0.031 A 
ATOM     74  C   UNL     1       9.736   6.008   4.823  1.00  0.00     0.131 A 
ATOM     75  C   UNL     1      12.463   5.773   5.200  1.00  0.00     0.055 A 
ATOM     76  C   UNL     1      10.563   5.752   3.728  1.00  0.00     0.041 A 
ATOM     77  F   UNL     1       8.418   6.131   4.595  1.00  0.00    -0.206 F 
ATOM     78  C   UNL     1      11.938   5.645   3.913  1.00  0.00     0.022 A 
BRANCH  75  79
ATOM     79  S   UNL     1      14.259   5.748   5.454  1.00  0.00     0.124 S 
ATOM     80  O   UNL     1      14.497   7.070   6.022  1.00  0.00    -0.237 OA
ATOM     81  O   UNL     1      14.420   4.620   6.365  1.00  0.00    -0.237 OA
ATOM     82  O   UNL     1      14.790   5.541   4.109  1.00  0.00    -0.744 OA
ENDBRANCH  75  79
ENDBRANCH  48  72
BRANCH  60  83
ATOM     83  C   UNL     1       9.708  11.591  10.421  1.00  0.00     0.023 A 
ATOM     84  C   UNL     1       9.719  12.579   9.421  1.00  0.00     0.031 A 
ATOM     85  C   UNL     1      10.496  11.805  11.567  1.00  0.00     0.131 A 
ATOM     86  C   UNL     1      10.541  13.709   9.560  1.00  0.00     0.055 A 
ATOM     87  C   UNL     1      11.266  12.958  11.727  1.00  0.00     0.041 A 
ATOM     88  F   UNL     1      10.528  10.895  12.553  1.00  0.00    -0.206 F 
ATOM     89  C   UNL     1      11.302  13.912  10.714  1.00  0.00     0.022 A 
BRANCH  86  90
ATOM     90  S   UNL     1      10.675  14.869   8.171  1.00  0.00     0.124 S 
ATOM     91  O   UNL     1      11.159  14.005   7.099  1.00  0.00    -0.237 OA
ATOM     92  O   UNL     1       9.305  15.350   8.033  1.00  0.00    -0.237 OA
ATOM     93  O   UNL     1      11.636  15.864   8.646  1.00  0.00    -0.744 OA
ENDBRANCH  86  90
ENDBRANCH  60  83
ENDBRANCH  34  35
ENDBRANCH  26  29
ENDBRANCH  24  25
ENDBRANCH  23  24
ENDBRANCH  22  23
ENDBRANCH   1  22
TORSDOF 20
