REMARK SMILES CC1(C)S[C@@H]2[C@H]([NH2+]Cn3nnc4ccccc43)C(=O)N2[C@@H]1C(=O)NCCCCCCNC(=O)c1ccc(-c2c3nc(c(-c4cc(S(=O)(=O)[O-])ccc4F)c4ccc([nH]4)c(-c4cc(S(=O)(=O)[O-])ccc4F)c4nc(c(-c5cc(S(=O)(=O)[O-])ccc5F)c5ccc2[nH]5)C=C4)C=C3)cc1
REMARK SMILES IDX 27 1 26 2 25 3 24 4 22 5 23 6 21 8 1 9 2 10 3 11 4 12 5 13
REMARK SMILES IDX 20 14 6 15 18 16 19 17 7 18 8 21 9 22 10 23 17 24 11 25
REMARK SMILES IDX 12 26 16 27 13 28 15 29 14 30 28 31 29 32 30 33 31 34 32 35
REMARK SMILES IDX 33 37 34 38 35 39 96 40 36 41 95 42 37 43 38 44 39 45 89 46
REMARK SMILES IDX 40 47 94 48 88 49 90 50 41 51 93 52 87 53 86 54 42 56 74 57
REMARK SMILES IDX 54 58 73 59 55 60 58 61 72 62 91 63 56 64 57 65 71 67 92 68
REMARK SMILES IDX 59 69 43 70 44 71 52 72 45 73 51 74 53 75 50 76 46 77 47 78
REMARK SMILES IDX 48 79 49 80 75 81 76 82 84 83 77 84 83 85 85 86 82 87 78 88
REMARK SMILES IDX 79 89 80 90 81 91 60 92 61 93 69 94 62 95 68 96 70 97 67 98
REMARK SMILES IDX 63 99 64 100 65 101 66 102
REMARK H PARENT 24 7 7 19 7 20 31 36 90 55 58 66
REMARK Flexibility Score: inf
ROOT
ATOM      1  C   UNL     1      -2.247  -0.093  -4.676  1.00  0.00     0.002 C 
ENDROOT
BRANCH   1   2
ATOM      2  C   UNL     1      -1.843  -0.364  -3.223  1.00  0.00     0.021 C 
BRANCH   2   3
ATOM      3  C   UNL     1      -0.454   0.128  -2.814  1.00  0.00     0.116 C 
BRANCH   3   4
ATOM      4  N   UNL     1      -0.445   1.495  -2.323  1.00  0.00    -0.354 N 
ATOM      5  C   UNL     1      -0.139   2.006  -1.095  1.00  0.00     0.244 C 
ATOM      6  O   UNL     1       0.049   3.229  -1.036  1.00  0.00    -0.273 OA
ATOM      7  H   UNL     1      -0.704   2.169  -2.992  1.00  0.00     0.163 HD
BRANCH   5   8
ATOM      8  C   UNL     1       0.137   1.151   0.167  1.00  0.00     0.191 C 
ATOM      9  C   UNL     1       2.537   0.914  -0.872  1.00  0.00     0.026 C 
ATOM     10  C   UNL     1       1.617   0.659   0.326  1.00  0.00     0.042 C 
ATOM     11  C   UNL     1       2.279   1.227   1.591  1.00  0.00     0.026 C 
ATOM     12  S   UNL     1       1.542  -1.202   0.658  1.00  0.00    -0.121 SA
ATOM     13  C   UNL     1      -0.198  -1.135   1.138  1.00  0.00     0.213 C 
ATOM     14  N   UNL     1      -0.658  -0.046   0.293  1.00  0.00    -0.306 N 
ATOM     15  C   UNL     1      -1.444  -1.930   0.631  1.00  0.00     0.307 C 
ATOM     16  C   UNL     1      -1.933  -0.442   0.263  1.00  0.00     0.285 C 
ATOM     17  O   UNL     1      -2.952   0.151  -0.019  1.00  0.00    -0.268 OA
BRANCH  15  18
ATOM     18  N   UNL     1      -1.398  -2.856  -0.534  1.00  0.00    -0.315 N 
ATOM     19  H   UNL     1      -1.835  -2.386  -1.327  1.00  0.00     0.348 HD
ATOM     20  H   UNL     1      -1.885  -3.703  -0.242  1.00  0.00     0.348 HD
BRANCH  18  21
ATOM     21  C   UNL     1      -0.070  -3.275  -0.938  1.00  0.00     0.415 C 
BRANCH  21  22
ATOM     22  N   UNL     1      -0.032  -4.053  -2.172  1.00  0.00    -0.194 N 
ATOM     23  N   UNL     1      -0.983  -4.927  -2.544  1.00  0.00    -0.061 NA
ATOM     24  C   UNL     1       0.986  -3.971  -3.094  1.00  0.00     0.095 A 
ATOM     25  N   UNL     1      -0.584  -5.471  -3.692  1.00  0.00    -0.130 NA
ATOM     26  C   UNL     1       0.608  -4.893  -4.057  1.00  0.00     0.113 A 
ATOM     27  C   UNL     1       2.151  -3.196  -3.183  1.00  0.00     0.030 A 
ATOM     28  C   UNL     1       1.420  -5.052  -5.188  1.00  0.00     0.032 A 
ATOM     29  C   UNL     1       2.925  -3.347  -4.335  1.00  0.00     0.002 A 
ATOM     30  C   UNL     1       2.564  -4.255  -5.327  1.00  0.00     0.002 A 
ENDBRANCH  21  22
ENDBRANCH  18  21
ENDBRANCH  15  18
ENDBRANCH   5   8
ENDBRANCH   3   4
ENDBRANCH   2   3
ENDBRANCH   1   2
BRANCH   1  31
ATOM     31  C   UNL     1      -1.413  -0.792  -5.761  1.00  0.00     0.002 C 
BRANCH  31  32
ATOM     32  C   UNL     1      -1.212  -2.305  -5.610  1.00  0.00     0.021 C 
BRANCH  32  33
ATOM     33  C   UNL     1      -2.477  -3.156  -5.511  1.00  0.00     0.116 C 
BRANCH  33  34
ATOM     34  N   UNL     1      -3.318  -3.120  -6.689  1.00  0.00    -0.352 N 
ATOM     35  C   UNL     1      -3.446  -3.885  -7.817  1.00  0.00     0.251 C 
ATOM     36  H   UNL     1      -3.949  -2.365  -6.674  1.00  0.00     0.163 HD
ATOM     37  O   UNL     1      -4.428  -3.625  -8.521  1.00  0.00    -0.269 OA
BRANCH  35  38
ATOM     38  C   UNL     1      -2.476  -4.911  -8.301  1.00  0.00     0.039 A 
ATOM     39  C   UNL     1      -1.478  -5.529  -7.552  1.00  0.00     0.014 A 
ATOM     40  C   UNL     1      -2.578  -5.245  -9.666  1.00  0.00     0.014 A 
ATOM     41  C   UNL     1      -0.521  -6.332  -8.185  1.00  0.00     0.010 A 
ATOM     42  C   UNL     1      -1.634  -6.054 -10.294  1.00  0.00     0.010 A 
ATOM     43  C   UNL     1      -0.548  -6.527  -9.569  1.00  0.00    -0.014 A 
BRANCH  43  44
ATOM     44  C   UNL     1       0.580  -7.221 -10.204  1.00  0.00     0.031 A 
ATOM     45  C   UNL     1       0.878  -8.602  -9.719  1.00  0.00     0.074 A 
ATOM     46  C   UNL     1       1.288  -6.700 -11.230  1.00  0.00     0.049 A 
ATOM     47  N   UNL     1       1.950  -9.039  -9.137  1.00  0.00    -0.248 NA
ATOM     48  C   UNL     1      -0.191  -9.602  -9.827  1.00  0.00     0.031 C 
ATOM     49  C   UNL     1       0.983  -5.511 -12.033  1.00  0.00     0.029 A 
ATOM     50  N   UNL     1       2.399  -7.201 -11.845  1.00  0.00    -0.354 N 
ATOM     51  C   UNL     1       1.759 -10.409  -8.937  1.00  0.00     0.074 A 
ATOM     52  C   UNL     1       0.381 -10.672  -9.274  1.00  0.00     0.031 C 
ATOM     53  C   UNL     1       1.727  -5.531 -13.163  1.00  0.00     0.029 A 
ATOM     54  C   UNL     1       2.672  -6.631 -13.082  1.00  0.00     0.049 A 
ATOM     55  H   UNL     1       2.958  -7.906 -11.446  1.00  0.00     0.167 HD
ATOM     56  C   UNL     1       2.784 -11.264  -8.644  1.00  0.00     0.034 A 
ATOM     57  C   UNL     1       3.557  -7.075 -14.009  1.00  0.00     0.034 A 
ATOM     58  C   UNL     1       3.969 -10.555  -8.253  1.00  0.00     0.049 A 
ATOM     59  C   UNL     1       4.527  -7.969 -13.335  1.00  0.00     0.074 A 
ATOM     60  C   UNL     1       4.310  -9.743  -7.191  1.00  0.00     0.029 A 
ATOM     61  N   UNL     1       4.951 -10.375  -9.194  1.00  0.00    -0.354 N 
ATOM     62  N   UNL     1       5.434  -7.565 -12.494  1.00  0.00    -0.248 NA
ATOM     63  C   UNL     1       4.209  -9.387 -13.287  1.00  0.00     0.031 C 
ATOM     64  C   UNL     1       5.184  -8.767  -7.745  1.00  0.00     0.029 A 
ATOM     65  C   UNL     1       5.367  -9.073  -9.095  1.00  0.00     0.049 A 
ATOM     66  H   UNL     1       5.291 -11.052  -9.822  1.00  0.00     0.167 HD
ATOM     67  C   UNL     1       5.456  -8.549 -11.518  1.00  0.00     0.074 A 
ATOM     68  C   UNL     1       4.765  -9.692 -12.113  1.00  0.00     0.031 C 
ATOM     69  C   UNL     1       5.775  -8.260 -10.223  1.00  0.00     0.034 A 
BRANCH  56  70
ATOM     70  C   UNL     1       2.804 -12.743  -8.954  1.00  0.00     0.023 A 
ATOM     71  C   UNL     1       1.900 -13.342  -9.850  1.00  0.00     0.031 A 
ATOM     72  C   UNL     1       3.873 -13.559  -8.524  1.00  0.00     0.131 A 
ATOM     73  C   UNL     1       2.049 -14.674 -10.264  1.00  0.00     0.055 A 
ATOM     74  C   UNL     1       4.061 -14.867  -8.990  1.00  0.00     0.041 A 
ATOM     75  F   UNL     1       4.804 -13.092  -7.676  1.00  0.00    -0.206 F 
ATOM     76  C   UNL     1       3.144 -15.433  -9.865  1.00  0.00     0.022 A 
BRANCH  73  77
ATOM     77  S   UNL     1       0.814 -15.441 -11.348  1.00  0.00     0.124 S 
ATOM     78  O   UNL     1       1.615 -15.790 -12.516  1.00  0.00    -0.237 OA
ATOM     79  O   UNL     1       0.363 -16.566 -10.531  1.00  0.00    -0.237 OA
ATOM     80  O   UNL     1      -0.172 -14.383 -11.542  1.00  0.00    -0.744 OA
ENDBRANCH  73  77
ENDBRANCH  56  70
BRANCH  57  81
ATOM     81  C   UNL     1       3.305  -7.190 -15.466  1.00  0.00     0.023 A 
ATOM     82  C   UNL     1       1.990  -7.380 -15.928  1.00  0.00     0.031 A 
ATOM     83  C   UNL     1       4.352  -7.466 -16.363  1.00  0.00     0.131 A 
ATOM     84  C   UNL     1       1.754  -7.897 -17.208  1.00  0.00     0.055 A 
ATOM     85  C   UNL     1       4.114  -7.962 -17.650  1.00  0.00     0.041 A 
ATOM     86  F   UNL     1       5.631  -7.338 -15.975  1.00  0.00    -0.206 F 
ATOM     87  C   UNL     1       2.808  -8.198 -18.072  1.00  0.00     0.022 A 
BRANCH  84  88
ATOM     88  S   UNL     1       0.062  -8.286 -17.732  1.00  0.00     0.124 S 
ATOM     89  O   UNL     1       0.028  -7.753 -19.092  1.00  0.00    -0.237 OA
ATOM     90  O   UNL     1       0.048  -9.740 -17.625  1.00  0.00    -0.237 OA
ATOM     91  O   UNL     1      -0.766  -7.567 -16.768  1.00  0.00    -0.744 OA
ENDBRANCH  84  88
ENDBRANCH  57  81
BRANCH  69  92
ATOM     92  C   UNL     1       6.343  -6.899  -9.886  1.00  0.00     0.023 A 
ATOM     93  C   UNL     1       7.465  -6.868  -9.038  1.00  0.00     0.031 A 
ATOM     94  C   UNL     1       5.699  -5.676 -10.154  1.00  0.00     0.131 A 
ATOM     95  C   UNL     1       7.875  -5.668  -8.448  1.00  0.00     0.055 A 
ATOM     96  C   UNL     1       6.161  -4.465  -9.625  1.00  0.00     0.041 A 
ATOM     97  F   UNL     1       4.558  -5.619 -10.852  1.00  0.00    -0.206 F 
ATOM     98  C   UNL     1       7.242  -4.460  -8.751  1.00  0.00     0.022 A 
BRANCH  95  99
ATOM     99  S   UNL     1       9.121  -5.676  -7.133  1.00  0.00     0.124 S 
ATOM    100  O   UNL     1      10.220  -4.934  -7.745  1.00  0.00    -0.237 OA
ATOM    101  O   UNL     1       8.428  -4.986  -6.047  1.00  0.00    -0.237 OA
ATOM    102  O   UNL     1       9.377  -7.094  -6.897  1.00  0.00    -0.744 OA
ENDBRANCH  95  99
ENDBRANCH  69  92
ENDBRANCH  43  44
ENDBRANCH  35  38
ENDBRANCH  33  34
ENDBRANCH  32  33
ENDBRANCH  31  32
ENDBRANCH   1  31
TORSDOF 19
