REMARK SMILES Cc1ccc(-c2cc(Cl)cc3c2O[C@H](C(F)(F)F)C(C(=O)NCCCCCCNC(=O)c2ccc(-c4c5nc(c(-c6cc(S(=O)(=O)[O-])ccc6F)c6ccc([nH]6)c(-c6cc(S(=O)(=O)[O-])ccc6F)c6nc(c(-c7cc(S(=O)(=O)[O-])ccc7F)c7ccc4[nH]7)C=C6)C=C5)cc2)=C3)cc1F
REMARK SMILES IDX 26 1 25 2 24 3 23 4 22 5 20 6 21 7 19 9 6 10 7 11 12 12 8 13
REMARK SMILES IDX 11 14 13 15 9 16 10 17 95 18 14 19 5 20 1 21 2 22 3 23 97 24
REMARK SMILES IDX 4 25 96 26 98 27 15 28 16 29 17 30 18 31 27 32 28 33 29 34
REMARK SMILES IDX 30 35 31 37 32 38 33 39 94 40 34 41 93 42 35 43 36 44 37 45
REMARK SMILES IDX 87 46 38 47 92 48 86 49 88 50 39 51 91 52 85 53 84 54 40 56
REMARK SMILES IDX 72 57 52 58 71 59 53 60 56 61 70 62 89 63 54 64 55 65 69 67
REMARK SMILES IDX 90 68 57 69 41 70 42 71 50 72 43 73 49 74 51 75 48 76 44 77
REMARK SMILES IDX 45 78 46 79 47 80 73 81 74 82 82 83 75 84 81 85 83 86 80 87
REMARK SMILES IDX 76 88 77 89 78 90 79 91 58 92 59 93 67 94 60 95 66 96 68 97
REMARK SMILES IDX 65 98 61 99 62 100 63 101 64 102
REMARK H PARENT 22 8 29 36 88 55 56 66
REMARK Flexibility Score: inf
ROOT
ATOM      1  C   UNL     1      -1.022  -4.933   8.775  1.00  0.00     0.002 C 
ENDROOT
BRANCH   1   2
ATOM      2  C   UNL     1      -2.408  -4.487   8.325  1.00  0.00     0.002 C 
BRANCH   2   3
ATOM      3  C   UNL     1      -2.428  -3.816   6.944  1.00  0.00     0.021 C 
BRANCH   3   4
ATOM      4  C   UNL     1      -1.846  -4.703   5.843  1.00  0.00     0.116 C 
BRANCH   4   5
ATOM      5  N   UNL     1      -2.901  -5.512   5.253  1.00  0.00    -0.352 N 
ATOM      6  C   UNL     1      -3.706  -5.416   4.173  1.00  0.00     0.251 C 
ATOM      7  O   UNL     1      -4.637  -6.227   4.117  1.00  0.00    -0.270 OA
ATOM      8  H   UNL     1      -3.071  -6.333   5.770  1.00  0.00     0.163 HD
BRANCH   6   9
ATOM      9  C   UNL     1      -3.524  -4.426   3.072  1.00  0.00     0.067 C 
ATOM     10  C   UNL     1      -3.093  -1.747  -0.149  1.00  0.00     0.026 A 
ATOM     11  C   UNL     1      -4.042  -1.769  -1.179  1.00  0.00     0.033 A 
ATOM     12  C   UNL     1      -3.286  -2.614   0.944  1.00  0.00     0.135 A 
ATOM     13  C   UNL     1      -5.138  -2.634  -1.110  1.00  0.00     0.042 A 
ATOM     14  C   UNL     1      -4.379  -3.481   1.017  1.00  0.00     0.019 A 
ATOM     15  O   UNL     1      -2.389  -2.513   1.968  1.00  0.00    -0.475 OA
ATOM     16  Cl  UNL     1      -6.298  -2.638  -2.383  1.00  0.00    -0.084 Cl
ATOM     17  C   UNL     1      -5.310  -3.490  -0.021  1.00  0.00     0.032 A 
ATOM     18  C   UNL     1      -4.534  -4.341   2.186  1.00  0.00     0.025 C 
ATOM     19  C   UNL     1      -2.257  -3.642   2.862  1.00  0.00     0.314 C 
BRANCH  10  20
ATOM     20  C   UNL     1      -1.927  -0.848  -0.198  1.00  0.00    -0.012 A 
ATOM     21  C   UNL     1       1.530   1.750  -0.002  1.00  0.00     0.047 C 
ATOM     22  C   UNL     1       0.321   0.870  -0.097  1.00  0.00    -0.015 A 
ATOM     23  C   UNL     1      -0.974   1.397  -0.096  1.00  0.00     0.007 A 
ATOM     24  C   UNL     1       0.477  -0.514  -0.161  1.00  0.00     0.126 A 
ATOM     25  C   UNL     1      -2.086   0.547  -0.150  1.00  0.00     0.009 A 
ATOM     26  C   UNL     1      -0.622  -1.366  -0.213  1.00  0.00     0.048 A 
ATOM     27  F   UNL     1       1.707  -1.046  -0.167  1.00  0.00    -0.207 F 
ENDBRANCH  10  20
BRANCH  19  28
ATOM     28  C   UNL     1      -1.078  -4.522   2.409  1.00  0.00     0.429 C 
ATOM     29  F   UNL     1       0.084  -3.837   2.438  1.00  0.00    -0.167 F 
ATOM     30  F   UNL     1      -0.923  -5.622   3.179  1.00  0.00    -0.167 F 
ATOM     31  F   UNL     1      -1.252  -4.961   1.136  1.00  0.00    -0.167 F 
ENDBRANCH  19  28
ENDBRANCH   6   9
ENDBRANCH   4   5
ENDBRANCH   3   4
ENDBRANCH   2   3
ENDBRANCH   1   2
BRANCH   1  32
ATOM     32  C   UNL     1      -0.002  -3.808   8.694  1.00  0.00     0.021 C 
BRANCH  32  33
ATOM     33  C   UNL     1       0.089  -2.855   9.871  1.00  0.00     0.116 C 
BRANCH  33  34
ATOM     34  N   UNL     1       0.241  -3.495  11.170  1.00  0.00    -0.352 N 
ATOM     35  C   UNL     1       1.272  -3.681  12.054  1.00  0.00     0.251 C 
ATOM     36  H   UNL     1      -0.601  -3.890  11.492  1.00  0.00     0.163 HD
ATOM     37  O   UNL     1       0.963  -4.131  13.162  1.00  0.00    -0.269 OA
BRANCH  35  38
ATOM     38  C   UNL     1       2.716  -3.545  11.723  1.00  0.00     0.039 A 
ATOM     39  C   UNL     1       3.264  -2.743  10.725  1.00  0.00     0.014 A 
ATOM     40  C   UNL     1       3.564  -4.426  12.412  1.00  0.00     0.014 A 
ATOM     41  C   UNL     1       4.544  -3.016  10.228  1.00  0.00     0.010 A 
ATOM     42  C   UNL     1       4.846  -4.670  11.949  1.00  0.00     0.010 A 
ATOM     43  C   UNL     1       5.288  -4.055  10.778  1.00  0.00    -0.014 A 
BRANCH  43  44
ATOM     44  C   UNL     1       6.521  -4.569  10.191  1.00  0.00     0.031 A 
ATOM     45  C   UNL     1       7.699  -3.679  10.013  1.00  0.00     0.074 A 
ATOM     46  C   UNL     1       6.589  -5.875   9.816  1.00  0.00     0.049 A 
ATOM     47  N   UNL     1       8.642  -3.911   9.165  1.00  0.00    -0.248 NA
ATOM     48  C   UNL     1       7.899  -2.429  10.750  1.00  0.00     0.031 C 
ATOM     49  C   UNL     1       7.796  -6.644   9.559  1.00  0.00     0.029 A 
ATOM     50  N   UNL     1       5.580  -6.799   9.512  1.00  0.00    -0.354 N 
ATOM     51  C   UNL     1       9.683  -3.054   9.447  1.00  0.00     0.074 A 
ATOM     52  C   UNL     1       9.124  -2.067  10.341  1.00  0.00     0.031 C 
ATOM     53  C   UNL     1       7.471  -7.776   8.912  1.00  0.00     0.029 A 
ATOM     54  C   UNL     1       6.075  -7.674   8.529  1.00  0.00     0.049 A 
ATOM     55  H   UNL     1       4.683  -6.830   9.916  1.00  0.00     0.167 HD
ATOM     56  C   UNL     1      10.938  -3.390   9.031  1.00  0.00     0.034 A 
ATOM     57  C   UNL     1       5.591  -7.904   7.260  1.00  0.00     0.034 A 
ATOM     58  C   UNL     1      10.910  -4.635   8.261  1.00  0.00     0.049 A 
ATOM     59  C   UNL     1       6.630  -7.678   6.170  1.00  0.00     0.074 A 
ATOM     60  C   UNL     1      11.125  -5.956   8.618  1.00  0.00     0.029 A 
ATOM     61  N   UNL     1      10.320  -4.663   7.010  1.00  0.00    -0.354 N 
ATOM     62  N   UNL     1       7.847  -7.293   6.405  1.00  0.00    -0.248 NA
ATOM     63  C   UNL     1       6.314  -7.673   4.736  1.00  0.00     0.031 C 
ATOM     64  C   UNL     1      10.685  -6.780   7.553  1.00  0.00     0.029 A 
ATOM     65  C   UNL     1      10.221  -5.963   6.539  1.00  0.00     0.049 A 
ATOM     66  H   UNL     1      10.012  -3.866   6.521  1.00  0.00     0.167 HD
ATOM     67  C   UNL     1       8.410  -6.839   5.248  1.00  0.00     0.074 A 
ATOM     68  C   UNL     1       7.421  -7.112   4.223  1.00  0.00     0.031 C 
ATOM     69  C   UNL     1       9.621  -6.213   5.237  1.00  0.00     0.034 A 
BRANCH  56  70
ATOM     70  C   UNL     1      12.237  -2.791   9.548  1.00  0.00     0.023 A 
ATOM     71  C   UNL     1      12.357  -1.545  10.199  1.00  0.00     0.031 A 
ATOM     72  C   UNL     1      13.439  -3.534   9.443  1.00  0.00     0.131 A 
ATOM     73  C   UNL     1      13.578  -1.140  10.784  1.00  0.00     0.055 A 
ATOM     74  C   UNL     1      14.652  -3.121  10.001  1.00  0.00     0.041 A 
ATOM     75  F   UNL     1      13.491  -4.722   8.823  1.00  0.00    -0.206 F 
ATOM     76  C   UNL     1      14.724  -1.927  10.694  1.00  0.00     0.022 A 
BRANCH  73  77
ATOM     77  S   UNL     1      13.717   0.394  11.749  1.00  0.00     0.124 S 
ATOM     78  O   UNL     1      14.179  -0.098  13.047  1.00  0.00    -0.237 OA
ATOM     79  O   UNL     1      14.704   1.158  10.991  1.00  0.00    -0.237 OA
ATOM     80  O   UNL     1      12.362   0.937  11.746  1.00  0.00    -0.744 OA
ENDBRANCH  73  77
ENDBRANCH  56  70
BRANCH  57  81
ATOM     81  C   UNL     1       4.170  -7.510   7.007  1.00  0.00     0.023 A 
ATOM     82  C   UNL     1       4.000  -6.216   6.501  1.00  0.00     0.031 A 
ATOM     83  C   UNL     1       3.209  -8.031   7.882  1.00  0.00     0.131 A 
ATOM     84  C   UNL     1       3.253  -5.327   7.253  1.00  0.00     0.055 A 
ATOM     85  C   UNL     1       2.465  -7.150   8.644  1.00  0.00     0.041 A 
ATOM     86  F   UNL     1       3.219  -9.329   8.220  1.00  0.00    -0.206 F 
ATOM     87  C   UNL     1       2.640  -5.785   8.420  1.00  0.00     0.022 A 
BRANCH  84  88
ATOM     88  S   UNL     1       3.268  -3.592   6.722  1.00  0.00     0.124 S 
ATOM     89  O   UNL     1       2.457  -3.666   5.511  1.00  0.00    -0.237 OA
ATOM     90  O   UNL     1       2.631  -2.863   7.819  1.00  0.00    -0.237 OA
ATOM     91  O   UNL     1       4.681  -3.319   6.548  1.00  0.00    -0.744 OA
ENDBRANCH  84  88
ENDBRANCH  57  81
BRANCH  69  92
ATOM     92  C   UNL     1      10.344  -5.799   3.987  1.00  0.00     0.023 A 
ATOM     93  C   UNL     1      11.254  -4.721   4.021  1.00  0.00     0.031 A 
ATOM     94  C   UNL     1      10.300  -6.540   2.794  1.00  0.00     0.131 A 
ATOM     95  C   UNL     1      12.037  -4.396   2.910  1.00  0.00     0.055 A 
ATOM     96  C   UNL     1      11.036  -6.177   1.662  1.00  0.00     0.041 A 
ATOM     97  F   UNL     1       9.599  -7.681   2.705  1.00  0.00    -0.206 F 
ATOM     98  C   UNL     1      11.911  -5.100   1.717  1.00  0.00     0.022 A 
BRANCH  95  99
ATOM     99  S   UNL     1      13.323  -3.123   3.023  1.00  0.00     0.124 S 
ATOM    100  O   UNL     1      14.521  -3.876   2.652  1.00  0.00    -0.237 OA
ATOM    101  O   UNL     1      12.869  -2.149   2.034  1.00  0.00    -0.237 OA
ATOM    102  O   UNL     1      13.265  -2.684   4.411  1.00  0.00    -0.744 OA
ENDBRANCH  95  99
ENDBRANCH  69  92
ENDBRANCH  43  44
ENDBRANCH  35  38
ENDBRANCH  33  34
ENDBRANCH  32  33
ENDBRANCH   1  32
TORSDOF 18
