REMARK SMILES Nc1nonc1C(=O)N1[C@@H]2CC[C@H]1C[C@H](CC(=O)NCCCCCCNC(=O)c1ccc(-c3c4nc(c(-c5cc(S(=O)(=O)[O-])ccc5F)c5ccc([nH]5)c(-c5cc(S(=O)(=O)[O-])ccc5F)c5nc(c(-c6cc(S(=O)(=O)[O-])ccc6F)c6ccc3[nH]6)C=C5)C=C4)cc1)C2
REMARK SMILES IDX 22 1 21 2 20 3 19 4 17 5 18 6 16 8 15 9 9 10 10 11 13 12
REMARK SMILES IDX 11 13 92 14 12 15 14 16 7 17 8 18 6 19 2 20 3 21 4 22 5 23
REMARK SMILES IDX 1 24 23 27 24 28 25 29 26 30 27 31 28 33 29 34 30 35 91 36
REMARK SMILES IDX 31 37 90 38 32 39 33 40 34 41 84 42 35 43 89 44 83 45 85 46
REMARK SMILES IDX 36 47 88 48 82 49 81 50 37 52 69 53 49 54 68 55 50 56 53 57
REMARK SMILES IDX 67 58 86 59 51 60 52 61 66 63 87 64 54 65 38 66 39 67 47 68
REMARK SMILES IDX 40 69 46 70 48 71 45 72 41 73 42 74 43 75 44 76 70 77 71 78
REMARK SMILES IDX 79 79 72 80 78 81 80 82 77 83 73 84 74 85 75 86 76 87 55 88
REMARK SMILES IDX 56 89 64 90 57 91 63 92 65 93 62 94 58 95 59 96 60 97 61 98
REMARK H PARENT 19 7 1 25 1 26 26 32 85 51 53 62
REMARK Flexibility Score: inf
ROOT
ATOM      1  C   UNL     1       6.290   0.509   2.856  1.00  0.00     0.002 C 
ENDROOT
BRANCH   1   2
ATOM      2  C   UNL     1       5.466  -0.164   1.758  1.00  0.00     0.021 C 
BRANCH   2   3
ATOM      3  C   UNL     1       5.578   0.504   0.381  1.00  0.00     0.116 C 
BRANCH   3   4
ATOM      4  N   UNL     1       6.506  -0.228  -0.470  1.00  0.00    -0.356 N 
ATOM      5  C   UNL     1       6.287  -1.110  -1.485  1.00  0.00     0.220 C 
ATOM      6  O   UNL     1       7.259  -1.688  -1.976  1.00  0.00    -0.275 OA
ATOM      7  H   UNL     1       7.456  -0.055  -0.279  1.00  0.00     0.163 HD
BRANCH   5   8
ATOM      8  C   UNL     1       4.889  -1.372  -2.012  1.00  0.00     0.103 C 
BRANCH   8   9
ATOM      9  C   UNL     1       4.237  -2.664  -1.469  1.00  0.00     0.002 C 
ATOM     10  N   UNL     1       1.585  -2.973  -0.432  1.00  0.00    -0.331 N 
ATOM     11  C   UNL     1       1.917  -3.783  -1.594  1.00  0.00     0.086 C 
ATOM     12  C   UNL     1       2.642  -3.260   0.516  1.00  0.00     0.086 C 
ATOM     13  C   UNL     1       2.437  -5.109  -1.011  1.00  0.00     0.027 C 
ATOM     14  C   UNL     1       3.010  -3.022  -2.350  1.00  0.00     0.029 C 
ATOM     15  C   UNL     1       2.822  -4.773   0.430  1.00  0.00     0.027 C 
ATOM     16  C   UNL     1       3.895  -2.521   0.033  1.00  0.00     0.029 C 
BRANCH  10  17
ATOM     17  C   UNL     1       0.254  -2.949  -0.017  1.00  0.00     0.280 C 
ATOM     18  O   UNL     1      -0.349  -3.993   0.226  1.00  0.00    -0.267 OA
BRANCH  17  19
ATOM     19  C   UNL     1      -0.386  -1.633  -0.038  1.00  0.00     0.216 A 
ATOM     20  C   UNL     1       0.128  -0.321   0.141  1.00  0.00     0.201 A 
ATOM     21  N   UNL     1      -0.842   0.569  -0.057  1.00  0.00    -0.032 NA
ATOM     22  O   UNL     1      -1.981  -0.179  -0.296  1.00  0.00    -0.242 OA
ATOM     23  N   UNL     1      -1.700  -1.535  -0.292  1.00  0.00    -0.042 NA
BRANCH  20  24
ATOM     24  N   UNL     1       1.375   0.046   0.488  1.00  0.00    -0.379 N 
ATOM     25  H   UNL     1       1.600   1.001   0.578  1.00  0.00     0.158 HD
ATOM     26  H   UNL     1       2.062  -0.639   0.652  1.00  0.00     0.158 HD
ENDBRANCH  20  24
ENDBRANCH  17  19
ENDBRANCH  10  17
ENDBRANCH   8   9
ENDBRANCH   5   8
ENDBRANCH   3   4
ENDBRANCH   2   3
ENDBRANCH   1   2
BRANCH   1  27
ATOM     27  C   UNL     1       5.702   1.821   3.384  1.00  0.00     0.002 C 
BRANCH  27  28
ATOM     28  C   UNL     1       4.291   1.734   3.981  1.00  0.00     0.021 C 
BRANCH  28  29
ATOM     29  C   UNL     1       4.092   0.679   5.070  1.00  0.00     0.116 C 
BRANCH  29  30
ATOM     30  N   UNL     1       4.967   0.890   6.210  1.00  0.00    -0.352 N 
ATOM     31  C   UNL     1       4.663   1.166   7.521  1.00  0.00     0.251 C 
ATOM     32  H   UNL     1       5.929   0.825   6.011  1.00  0.00     0.163 HD
ATOM     33  O   UNL     1       5.559   1.513   8.283  1.00  0.00    -0.269 OA
BRANCH  31  34
ATOM     34  C   UNL     1       3.269   1.066   8.010  1.00  0.00     0.039 A 
ATOM     35  C   UNL     1       2.773   2.075   8.841  1.00  0.00     0.014 A 
ATOM     36  C   UNL     1       2.466  -0.032   7.692  1.00  0.00     0.014 A 
ATOM     37  C   UNL     1       1.455   2.013   9.305  1.00  0.00     0.010 A 
ATOM     38  C   UNL     1       1.134  -0.065   8.107  1.00  0.00     0.010 A 
ATOM     39  C   UNL     1       0.616   0.956   8.919  1.00  0.00    -0.014 A 
BRANCH  39  40
ATOM     40  C   UNL     1      -0.801   0.894   9.365  1.00  0.00     0.031 A 
ATOM     41  C   UNL     1      -1.257  -0.200  10.292  1.00  0.00     0.074 A 
ATOM     42  C   UNL     1      -1.691   1.784   8.886  1.00  0.00     0.049 A 
ATOM     43  N   UNL     1      -2.459  -0.466  10.736  1.00  0.00    -0.248 NA
ATOM     44  C   UNL     1      -0.222  -1.135  10.754  1.00  0.00     0.031 C 
ATOM     45  C   UNL     1      -1.381   2.872   7.956  1.00  0.00     0.029 A 
ATOM     46  N   UNL     1      -3.040   1.908   9.105  1.00  0.00    -0.354 N 
ATOM     47  C   UNL     1      -2.331  -1.611  11.515  1.00  0.00     0.074 A 
ATOM     48  C   UNL     1      -0.942  -2.016  11.431  1.00  0.00     0.031 C 
ATOM     49  C   UNL     1      -2.503   3.567   7.705  1.00  0.00     0.029 A 
ATOM     50  C   UNL     1      -3.616   2.953   8.422  1.00  0.00     0.049 A 
ATOM     51  H   UNL     1      -3.547   1.307   9.697  1.00  0.00     0.167 HD
ATOM     52  C   UNL     1      -3.276  -2.252  12.249  1.00  0.00     0.034 A 
ATOM     53  C   UNL     1      -4.898   3.365   8.373  1.00  0.00     0.034 A 
ATOM     54  C   UNL     1      -4.654  -1.828  12.331  1.00  0.00     0.049 A 
ATOM     55  C   UNL     1      -5.939   2.621   9.167  1.00  0.00     0.074 A 
ATOM     56  C   UNL     1      -5.678  -2.357  13.098  1.00  0.00     0.029 A 
ATOM     57  N   UNL     1      -5.206  -0.777  11.609  1.00  0.00    -0.354 N 
ATOM     58  N   UNL     1      -5.794   1.571   9.941  1.00  0.00    -0.248 NA
ATOM     59  C   UNL     1      -7.315   3.125   9.083  1.00  0.00     0.031 C 
ATOM     60  C   UNL     1      -6.859  -1.667  12.794  1.00  0.00     0.029 A 
ATOM     61  C   UNL     1      -6.561  -0.664  11.886  1.00  0.00     0.049 A 
ATOM     62  H   UNL     1      -4.707  -0.196  10.990  1.00  0.00     0.167 HD
ATOM     63  C   UNL     1      -7.058   1.306  10.459  1.00  0.00     0.074 A 
ATOM     64  C   UNL     1      -7.949   2.311   9.914  1.00  0.00     0.031 C 
ATOM     65  C   UNL     1      -7.444   0.329  11.319  1.00  0.00     0.034 A 
BRANCH  52  66
ATOM     66  C   UNL     1      -2.844  -3.499  12.988  1.00  0.00     0.023 A 
ATOM     67  C   UNL     1      -1.849  -3.460  13.981  1.00  0.00     0.031 A 
ATOM     68  C   UNL     1      -3.384  -4.752  12.651  1.00  0.00     0.131 A 
ATOM     69  C   UNL     1      -1.351  -4.654  14.524  1.00  0.00     0.055 A 
ATOM     70  C   UNL     1      -2.948  -5.931  13.263  1.00  0.00     0.041 A 
ATOM     71  F   UNL     1      -4.325  -4.859  11.700  1.00  0.00    -0.206 F 
ATOM     72  C   UNL     1      -1.911  -5.888  14.189  1.00  0.00     0.022 A 
BRANCH  69  73
ATOM     73  S   UNL     1       0.158  -4.582  15.528  1.00  0.00     0.124 S 
ATOM     74  O   UNL     1       1.090  -3.924  14.615  1.00  0.00    -0.237 OA
ATOM     75  O   UNL     1      -0.268  -3.798  16.681  1.00  0.00    -0.237 OA
ATOM     76  O   UNL     1       0.455  -5.986  15.802  1.00  0.00    -0.744 OA
ENDBRANCH  69  73
ENDBRANCH  52  66
BRANCH  53  77
ATOM     77  C   UNL     1      -5.273   4.546   7.548  1.00  0.00     0.023 A 
ATOM     78  C   UNL     1      -5.678   5.743   8.157  1.00  0.00     0.031 A 
ATOM     79  C   UNL     1      -5.246   4.489   6.145  1.00  0.00     0.131 A 
ATOM     80  C   UNL     1      -6.071   6.831   7.363  1.00  0.00     0.055 A 
ATOM     81  C   UNL     1      -5.602   5.587   5.359  1.00  0.00     0.041 A 
ATOM     82  F   UNL     1      -4.854   3.369   5.518  1.00  0.00    -0.206 F 
ATOM     83  C   UNL     1      -6.026   6.764   5.968  1.00  0.00     0.022 A 
BRANCH  80  84
ATOM     84  S   UNL     1      -6.683   8.328   8.183  1.00  0.00     0.124 S 
ATOM     85  O   UNL     1      -7.858   7.825   8.885  1.00  0.00    -0.237 OA
ATOM     86  O   UNL     1      -5.546   8.701   9.019  1.00  0.00    -0.237 OA
ATOM     87  O   UNL     1      -6.959   9.236   7.072  1.00  0.00    -0.744 OA
ENDBRANCH  80  84
ENDBRANCH  53  77
BRANCH  65  88
ATOM     88  C   UNL     1      -8.890   0.334  11.748  1.00  0.00     0.023 A 
ATOM     89  C   UNL     1      -9.928   0.021  10.853  1.00  0.00     0.031 A 
ATOM     90  C   UNL     1      -9.232   0.684  13.065  1.00  0.00     0.131 A 
ATOM     91  C   UNL     1     -11.264   0.114  11.274  1.00  0.00     0.055 A 
ATOM     92  C   UNL     1     -10.560   0.724  13.493  1.00  0.00     0.041 A 
ATOM     93  F   UNL     1      -8.280   0.996  13.959  1.00  0.00    -0.206 F 
ATOM     94  C   UNL     1     -11.585   0.450  12.592  1.00  0.00     0.022 A 
BRANCH  91  95
ATOM     95  S   UNL     1     -12.584  -0.128  10.054  1.00  0.00     0.124 S 
ATOM     96  O   UNL     1     -12.292   0.919   9.079  1.00  0.00    -0.237 OA
ATOM     97  O   UNL     1     -12.350  -1.498   9.608  1.00  0.00    -0.237 OA
ATOM     98  O   UNL     1     -13.808   0.070  10.828  1.00  0.00    -0.744 OA
ENDBRANCH  91  95
ENDBRANCH  65  88
ENDBRANCH  39  40
ENDBRANCH  31  34
ENDBRANCH  29  30
ENDBRANCH  28  29
ENDBRANCH  27  28
ENDBRANCH   1  27
TORSDOF 20
