REMARK SMILES Cc1cc(OCC(=O)N[C@@H](Cc2ccc(Cl)cc2)C(=O)NCCCCCCNC(=O)c2ccc(-c3c4nc(c(-c5cc(S(=O)(=O)[O-])ccc5F)c5ccc([nH]5)c(-c5cc(S(=O)(=O)[O-])ccc5F)c5nc(c(-c6cc(S(=O)(=O)[O-])ccc6F)c6ccc3[nH]6)C=C5)C=C4)cc2)c2c(C)c(C)c(=O)oc2c1
REMARK SMILES IDX 24 1 23 2 22 3 21 4 19 5 20 6 10 8 9 9 7 10 8 11 6 13 5 14
REMARK SMILES IDX 4 15 1 16 2 17 3 18 103 19 102 20 94 21 101 22 95 23 99 24
REMARK SMILES IDX 96 25 97 26 100 27 98 28 11 29 12 30 13 31 18 32 14 33 17 34
REMARK SMILES IDX 15 35 16 36 25 37 26 38 27 39 28 40 29 41 30 43 31 44 32 45
REMARK SMILES IDX 93 46 33 47 92 48 34 49 35 50 36 51 86 52 37 53 91 54 85 55
REMARK SMILES IDX 87 56 38 57 90 58 84 59 83 60 39 62 71 63 51 64 70 65 52 66
REMARK SMILES IDX 55 67 69 68 88 69 53 70 54 71 68 73 89 74 56 75 40 76 41 77
REMARK SMILES IDX 49 78 42 79 48 80 50 81 47 82 43 83 44 84 45 85 46 86 72 87
REMARK SMILES IDX 73 88 81 89 74 90 80 91 82 92 79 93 75 94 76 95 77 96 78 97
REMARK SMILES IDX 57 98 58 99 66 100 59 101 65 102 67 103 64 104 60 105 61 106
REMARK SMILES IDX 62 107 63 108
REMARK H PARENT 21 7 9 12 28 42 87 61 55 72
REMARK Flexibility Score: inf
ROOT
ATOM      1  C   UNL     1      -9.456  -0.491  -0.844  1.00  0.00     0.002 C 
ENDROOT
BRANCH   1   2
ATOM      2  C   UNL     1      -7.931  -0.382  -0.828  1.00  0.00     0.021 C 
BRANCH   2   3
ATOM      3  C   UNL     1      -7.193  -1.711  -0.801  1.00  0.00     0.116 C 
BRANCH   3   4
ATOM      4  N   UNL     1      -7.083  -2.357  -2.089  1.00  0.00    -0.354 N 
ATOM      5  C   UNL     1      -6.022  -3.016  -2.639  1.00  0.00     0.242 C 
ATOM      6  O   UNL     1      -6.262  -3.777  -3.584  1.00  0.00    -0.273 OA
ATOM      7  H   UNL     1      -7.890  -2.316  -2.651  1.00  0.00     0.163 HD
BRANCH   5   8
ATOM      8  C   UNL     1      -4.577  -2.902  -2.092  1.00  0.00     0.175 C 
BRANCH   8   9
ATOM      9  N   UNL     1      -4.149  -1.514  -1.898  1.00  0.00    -0.341 N 
ATOM     10  C   UNL     1      -3.244  -0.787  -2.609  1.00  0.00     0.258 C 
ATOM     11  O   UNL     1      -3.175   0.425  -2.396  1.00  0.00    -0.271 OA
ATOM     12  H   UNL     1      -4.576  -1.040  -1.148  1.00  0.00     0.164 HD
BRANCH  10  13
ATOM     13  C   UNL     1      -2.347  -1.457  -3.658  1.00  0.00     0.329 C 
BRANCH  13  14
ATOM     14  O   UNL     1      -1.645  -2.631  -3.286  1.00  0.00    -0.483 OA
BRANCH  14  15
ATOM     15  C   UNL     1      -0.761  -2.617  -2.242  1.00  0.00     0.131 A 
ATOM     16  C   UNL     1       0.991  -0.093   0.047  1.00  0.00     0.044 C 
ATOM     17  C   UNL     1       0.565  -1.383  -0.587  1.00  0.00    -0.044 A 
ATOM     18  C   UNL     1      -0.318  -1.405  -1.669  1.00  0.00     0.050 A 
ATOM     19  C   UNL     1       1.025  -2.593  -0.089  1.00  0.00     0.051 A 
ATOM     20  C   UNL     1       0.610  -3.792  -0.678  1.00  0.00     0.142 A 
ATOM     21  C   UNL     1      -0.289  -3.863  -1.754  1.00  0.00     0.063 A 
ATOM     22  O   UNL     1       1.187  -4.934  -0.098  1.00  0.00    -0.422 OA
ATOM     23  C   UNL     1      -0.646  -5.232  -2.242  1.00  0.00    -0.026 A 
ATOM     24  C   UNL     1       0.943  -6.197  -0.583  1.00  0.00     0.339 A 
ATOM     25  C   UNL     1      -1.653  -5.471  -3.340  1.00  0.00     0.046 C 
ATOM     26  C   UNL     1      -0.048  -6.311  -1.681  1.00  0.00     0.038 A 
ATOM     27  O   UNL     1       1.513  -7.179  -0.119  1.00  0.00    -0.246 OA
ATOM     28  C   UNL     1      -0.286  -7.748  -2.079  1.00  0.00     0.052 C 
ENDBRANCH  14  15
ENDBRANCH  13  14
ENDBRANCH  10  13
ENDBRANCH   8   9
BRANCH   8  29
ATOM     29  C   UNL     1      -4.244  -3.855  -0.920  1.00  0.00     0.070 C 
BRANCH  29  30
ATOM     30  C   UNL     1      -4.892  -3.615   0.425  1.00  0.00    -0.045 A 
ATOM     31  C   UNL     1      -5.887  -4.487   0.896  1.00  0.00     0.005 A 
ATOM     32  C   UNL     1      -4.517  -2.524   1.226  1.00  0.00     0.005 A 
ATOM     33  C   UNL     1      -6.537  -4.236   2.108  1.00  0.00     0.021 A 
ATOM     34  C   UNL     1      -5.186  -2.260   2.425  1.00  0.00     0.021 A 
ATOM     35  C   UNL     1      -6.199  -3.112   2.856  1.00  0.00     0.041 A 
ATOM     36  Cl  UNL     1      -7.061  -2.758   4.302  1.00  0.00    -0.084 Cl
ENDBRANCH  29  30
ENDBRANCH   8  29
ENDBRANCH   5   8
ENDBRANCH   3   4
ENDBRANCH   2   3
ENDBRANCH   1   2
BRANCH   1  37
ATOM     37  C   UNL     1     -10.079  -1.367   0.250  1.00  0.00     0.002 C 
BRANCH  37  38
ATOM     38  C   UNL     1      -9.604  -1.101   1.679  1.00  0.00     0.021 C 
BRANCH  38  39
ATOM     39  C   UNL     1      -9.809   0.322   2.184  1.00  0.00     0.116 C 
BRANCH  39  40
ATOM     40  N   UNL     1     -11.210   0.707   2.224  1.00  0.00    -0.352 N 
ATOM     41  C   UNL     1     -11.957   1.212   3.265  1.00  0.00     0.251 C 
ATOM     42  H   UNL     1     -11.699   0.590   1.377  1.00  0.00     0.163 HD
ATOM     43  O   UNL     1     -13.169   1.325   3.138  1.00  0.00    -0.269 OA
BRANCH  41  44
ATOM     44  C   UNL     1     -11.299   1.580   4.542  1.00  0.00     0.039 A 
ATOM     45  C   UNL     1     -10.074   2.247   4.554  1.00  0.00     0.014 A 
ATOM     46  C   UNL     1     -11.920   1.244   5.748  1.00  0.00     0.014 A 
ATOM     47  C   UNL     1      -9.389   2.413   5.754  1.00  0.00     0.010 A 
ATOM     48  C   UNL     1     -11.273   1.503   6.961  1.00  0.00     0.010 A 
ATOM     49  C   UNL     1      -9.978   2.044   6.974  1.00  0.00    -0.014 A 
BRANCH  49  50
ATOM     50  C   UNL     1      -9.227   2.246   8.244  1.00  0.00     0.031 A 
ATOM     51  C   UNL     1      -8.846   1.076   9.113  1.00  0.00     0.074 A 
ATOM     52  C   UNL     1      -8.850   3.492   8.593  1.00  0.00     0.049 A 
ATOM     53  N   UNL     1      -8.175   1.072  10.236  1.00  0.00    -0.248 NA
ATOM     54  C   UNL     1      -9.277  -0.260   8.672  1.00  0.00     0.031 C 
ATOM     55  C   UNL     1      -9.161   4.701   7.829  1.00  0.00     0.029 A 
ATOM     56  N   UNL     1      -8.111   3.953   9.654  1.00  0.00    -0.354 N 
ATOM     57  C   UNL     1      -8.120  -0.256  10.646  1.00  0.00     0.074 A 
ATOM     58  C   UNL     1      -8.859  -1.026   9.671  1.00  0.00     0.031 C 
ATOM     59  C   UNL     1      -8.570   5.753   8.410  1.00  0.00     0.029 A 
ATOM     60  C   UNL     1      -7.904   5.313   9.633  1.00  0.00     0.049 A 
ATOM     61  H   UNL     1      -7.761   3.365  10.363  1.00  0.00     0.167 HD
ATOM     62  C   UNL     1      -7.495  -0.783  11.727  1.00  0.00     0.034 A 
ATOM     63  C   UNL     1      -7.267   6.125  10.503  1.00  0.00     0.034 A 
ATOM     64  C   UNL     1      -6.737  -0.003  12.674  1.00  0.00     0.049 A 
ATOM     65  C   UNL     1      -6.604   5.517  11.711  1.00  0.00     0.074 A 
ATOM     66  C   UNL     1      -6.032  -0.453  13.777  1.00  0.00     0.029 A 
ATOM     67  N   UNL     1      -6.578   1.375  12.637  1.00  0.00    -0.354 N 
ATOM     68  N   UNL     1      -6.516   4.253  12.053  1.00  0.00    -0.248 NA
ATOM     69  C   UNL     1      -5.951   6.437  12.652  1.00  0.00     0.031 C 
ATOM     70  C   UNL     1      -5.514   0.654  14.447  1.00  0.00     0.029 A 
ATOM     71  C   UNL     1      -5.816   1.793  13.716  1.00  0.00     0.049 A 
ATOM     72  H   UNL     1      -6.952   1.969  11.946  1.00  0.00     0.167 HD
ATOM     73  C   UNL     1      -5.781   4.224  13.234  1.00  0.00     0.074 A 
ATOM     74  C   UNL     1      -5.423   5.596  13.532  1.00  0.00     0.031 C 
ATOM     75  C   UNL     1      -5.442   3.159  14.003  1.00  0.00     0.034 A 
BRANCH  62  76
ATOM     76  C   UNL     1      -7.573  -2.273  11.964  1.00  0.00     0.023 A 
ATOM     77  C   UNL     1      -8.158  -2.765  13.147  1.00  0.00     0.031 A 
ATOM     78  C   UNL     1      -6.940  -3.191  11.107  1.00  0.00     0.131 A 
ATOM     79  C   UNL     1      -8.058  -4.127  13.462  1.00  0.00     0.055 A 
ATOM     80  C   UNL     1      -6.887  -4.555  11.401  1.00  0.00     0.041 A 
ATOM     81  F   UNL     1      -6.362  -2.774   9.969  1.00  0.00    -0.206 F 
ATOM     82  C   UNL     1      -7.434  -5.025  12.591  1.00  0.00     0.022 A 
BRANCH  79  83
ATOM     83  S   UNL     1      -8.659  -4.770  15.048  1.00  0.00     0.124 S 
ATOM     84  O   UNL     1      -9.635  -5.769  14.616  1.00  0.00    -0.237 OA
ATOM     85  O   UNL     1      -7.438  -5.308  15.641  1.00  0.00    -0.237 OA
ATOM     86  O   UNL     1      -9.222  -3.600  15.712  1.00  0.00    -0.744 OA
ENDBRANCH  79  83
ENDBRANCH  62  76
BRANCH  63  87
ATOM     87  C   UNL     1      -7.199   7.588  10.213  1.00  0.00     0.023 A 
ATOM     88  C   UNL     1      -8.373   8.354  10.083  1.00  0.00     0.031 A 
ATOM     89  C   UNL     1      -5.971   8.215   9.945  1.00  0.00     0.131 A 
ATOM     90  C   UNL     1      -8.299   9.671   9.612  1.00  0.00     0.055 A 
ATOM     91  C   UNL     1      -5.896   9.554   9.556  1.00  0.00     0.041 A 
ATOM     92  F   UNL     1      -4.824   7.526  10.043  1.00  0.00    -0.206 F 
ATOM     93  C   UNL     1      -7.067  10.283   9.367  1.00  0.00     0.022 A 
BRANCH  90  94
ATOM     94  S   UNL     1      -9.803  10.579   9.155  1.00  0.00     0.124 S 
ATOM     95  O   UNL     1      -9.731  11.746  10.029  1.00  0.00    -0.237 OA
ATOM     96  O   UNL     1      -9.573  10.838   7.736  1.00  0.00    -0.237 OA
ATOM     97  O   UNL     1     -10.877   9.636   9.447  1.00  0.00    -0.744 OA
ENDBRANCH  90  94
ENDBRANCH  63  87
BRANCH  75  98
ATOM     98  C   UNL     1      -4.626   3.393  15.253  1.00  0.00     0.023 A 
ATOM     99  C   UNL     1      -3.359   2.790  15.387  1.00  0.00     0.031 A 
ATOM    100  C   UNL     1      -5.163   4.062  16.366  1.00  0.00     0.131 A 
ATOM    101  C   UNL     1      -2.697   2.823  16.621  1.00  0.00     0.055 A 
ATOM    102  C   UNL     1      -4.473   4.141  17.577  1.00  0.00     0.041 A 
ATOM    103  F   UNL     1      -6.372   4.642  16.295  1.00  0.00    -0.206 F 
ATOM    104  C   UNL     1      -3.242   3.505  17.713  1.00  0.00     0.022 A 
BRANCH 101 105
ATOM    105  S   UNL     1      -1.158   1.898  16.882  1.00  0.00     0.124 S 
ATOM    106  O   UNL     1      -0.223   2.963  17.239  1.00  0.00    -0.237 OA
ATOM    107  O   UNL     1      -1.523   0.998  17.973  1.00  0.00    -0.237 OA
ATOM    108  O   UNL     1      -0.908   1.257  15.596  1.00  0.00    -0.744 OA
ENDBRANCH 101 105
ENDBRANCH  75  98
ENDBRANCH  49  50
ENDBRANCH  41  44
ENDBRANCH  39  40
ENDBRANCH  38  39
ENDBRANCH  37  38
ENDBRANCH   1  37
TORSDOF 22
