REMARK SMILES C[C@@H](NC(=O)N1CC[N@@H+]2CCCC[C@H]2C1)C(=O)NCCCCCCNC(=O)c1ccc(-c2c3nc(c(-c4cc(S(=O)(=O)[O-])ccc4F)c4ccc([nH]4)c(-c4cc(S(=O)(=O)[O-])ccc4F)c4nc(c(-c5cc(S(=O)(=O)[O-])ccc5F)c5ccc2[nH]5)C=C4)C=C3)cc1
REMARK SMILES IDX 22 1 21 2 20 3 19 4 18 5 16 6 17 7 2 9 1 10 3 11 4 12 5 14
REMARK SMILES IDX 6 15 7 16 15 17 8 18 14 19 9 20 13 21 10 22 12 24 11 25
REMARK SMILES IDX 23 26 24 27 25 28 26 29 27 31 28 32 29 33 90 34 30 35 89 36
REMARK SMILES IDX 31 37 32 38 33 39 83 40 34 41 88 42 82 43 84 44 35 45 87 46
REMARK SMILES IDX 81 47 80 48 36 50 68 51 48 52 67 53 49 54 52 55 66 56 85 57
REMARK SMILES IDX 50 58 51 59 65 61 86 62 53 63 37 64 38 65 46 66 39 67 45 68
REMARK SMILES IDX 47 69 44 70 40 71 41 72 42 73 43 74 69 75 70 76 78 77 71 78
REMARK SMILES IDX 77 79 79 80 76 81 72 82 73 83 74 84 75 85 54 86 55 87 63 88
REMARK SMILES IDX 56 89 62 90 64 91 61 92 57 93 58 94 59 95 60 96
REMARK H PARENT 18 8 3 13 9 23 25 30 84 49 52 60
REMARK Flexibility Score: inf
ROOT
ATOM      1  C   UNL     1      -2.549   1.651   3.898  1.00  0.00     0.002 C 
ENDROOT
BRANCH   1   2
ATOM      2  C   UNL     1      -2.321   2.292   2.526  1.00  0.00     0.002 C 
BRANCH   2   3
ATOM      3  C   UNL     1      -0.856   2.302   2.081  1.00  0.00     0.021 C 
BRANCH   3   4
ATOM      4  C   UNL     1      -0.318   0.910   1.752  1.00  0.00     0.116 C 
BRANCH   4   5
ATOM      5  N   UNL     1      -0.838   0.428   0.486  1.00  0.00    -0.354 N 
ATOM      6  C   UNL     1      -0.493  -0.683  -0.221  1.00  0.00     0.242 C 
ATOM      7  O   UNL     1      -0.958  -0.796  -1.363  1.00  0.00    -0.273 OA
ATOM      8  H   UNL     1      -1.541   0.984   0.080  1.00  0.00     0.163 HD
BRANCH   6   9
ATOM      9  C   UNL     1       0.565  -1.685   0.274  1.00  0.00     0.170 C 
ATOM     10  C   UNL     1       1.936  -1.116  -0.109  1.00  0.00     0.041 C 
BRANCH   9  11
ATOM     11  N   UNL     1       0.545  -2.026   1.692  1.00  0.00    -0.326 N 
ATOM     12  C   UNL     1      -0.414  -2.472   2.531  1.00  0.00     0.318 C 
ATOM     13  H   UNL     1       1.418  -1.904   2.131  1.00  0.00     0.166 HD
ATOM     14  O   UNL     1      -0.072  -2.630   3.705  1.00  0.00    -0.249 OA
BRANCH  12  15
ATOM     15  N   UNL     1      -1.714  -2.559   2.138  1.00  0.00    -0.313 N 
ATOM     16  C   UNL     1      -2.243  -3.188   0.930  1.00  0.00     0.183 C 
ATOM     17  C   UNL     1      -2.757  -2.276   3.125  1.00  0.00     0.186 C 
ATOM     18  C   UNL     1      -3.416  -2.388   0.317  1.00  0.00     0.284 C 
ATOM     19  C   UNL     1      -3.810  -1.343   2.491  1.00  0.00     0.203 C 
ATOM     20  N   UNL     1      -4.444  -1.921   1.280  1.00  0.00    -0.330 N 
ATOM     21  C   UNL     1      -4.897  -0.957   3.502  1.00  0.00     0.067 C 
ATOM     22  C   UNL     1      -5.296  -0.902   0.633  1.00  0.00     0.262 C 
ATOM     23  H   UNL     1      -5.013  -2.720   1.562  1.00  0.00     0.348 HD
ATOM     24  C   UNL     1      -5.828   0.095   2.902  1.00  0.00     0.012 C 
ATOM     25  C   UNL     1      -6.389  -0.377   1.567  1.00  0.00     0.062 C 
ENDBRANCH  12  15
ENDBRANCH   9  11
ENDBRANCH   6   9
ENDBRANCH   4   5
ENDBRANCH   3   4
ENDBRANCH   2   3
ENDBRANCH   1   2
BRANCH   1  26
ATOM     26  C   UNL     1      -1.972   2.402   5.087  1.00  0.00     0.021 C 
BRANCH  26  27
ATOM     27  C   UNL     1      -2.434   3.845   5.187  1.00  0.00     0.116 C 
BRANCH  27  28
ATOM     28  N   UNL     1      -3.886   3.997   5.186  1.00  0.00    -0.352 N 
ATOM     29  C   UNL     1      -4.648   4.876   5.925  1.00  0.00     0.251 C 
ATOM     30  H   UNL     1      -4.382   3.398   4.583  1.00  0.00     0.163 HD
ATOM     31  O   UNL     1      -5.866   4.832   5.898  1.00  0.00    -0.269 OA
BRANCH  29  32
ATOM     32  C   UNL     1      -3.932   5.840   6.784  1.00  0.00     0.039 A 
ATOM     33  C   UNL     1      -4.234   5.901   8.144  1.00  0.00     0.014 A 
ATOM     34  C   UNL     1      -2.867   6.569   6.253  1.00  0.00     0.014 A 
ATOM     35  C   UNL     1      -3.407   6.639   8.991  1.00  0.00     0.010 A 
ATOM     36  C   UNL     1      -1.980   7.198   7.112  1.00  0.00     0.010 A 
ATOM     37  C   UNL     1      -2.247   7.254   8.489  1.00  0.00    -0.014 A 
BRANCH  37  38
ATOM     38  C   UNL     1      -1.320   8.016   9.364  1.00  0.00     0.031 A 
ATOM     39  C   UNL     1      -1.065   9.470   9.059  1.00  0.00     0.074 A 
ATOM     40  C   UNL     1      -0.658   7.397  10.361  1.00  0.00     0.049 A 
ATOM     41  N   UNL     1      -0.185  10.285   9.578  1.00  0.00    -0.248 NA
ATOM     42  C   UNL     1      -1.870  10.065   7.980  1.00  0.00     0.031 C 
ATOM     43  C   UNL     1      -0.775   5.979  10.710  1.00  0.00     0.029 A 
ATOM     44  N   UNL     1       0.257   7.882  11.262  1.00  0.00    -0.354 N 
ATOM     45  C   UNL     1      -0.314  11.475   8.868  1.00  0.00     0.074 A 
ATOM     46  C   UNL     1      -1.286  11.241   7.824  1.00  0.00     0.031 C 
ATOM     47  C   UNL     1       0.011   5.718  11.768  1.00  0.00     0.029 A 
ATOM     48  C   UNL     1       0.720   6.935  12.148  1.00  0.00     0.049 A 
ATOM     49  H   UNL     1       0.554   8.820  11.274  1.00  0.00     0.167 HD
ATOM     50  C   UNL     1       0.287  12.669   9.094  1.00  0.00     0.034 A 
ATOM     51  C   UNL     1       1.616   7.044  13.149  1.00  0.00     0.034 A 
ATOM     52  C   UNL     1       1.217  12.895  10.170  1.00  0.00     0.049 A 
ATOM     53  C   UNL     1       2.238   8.395  13.412  1.00  0.00     0.074 A 
ATOM     54  C   UNL     1       1.880  14.059  10.514  1.00  0.00     0.029 A 
ATOM     55  N   UNL     1       1.597  11.932  11.097  1.00  0.00    -0.354 N 
ATOM     56  N   UNL     1       2.089   9.517  12.745  1.00  0.00    -0.248 NA
ATOM     57  C   UNL     1       3.126   8.501  14.576  1.00  0.00     0.031 C 
ATOM     58  C   UNL     1       2.683  13.793  11.628  1.00  0.00     0.029 A 
ATOM     59  C   UNL     1       2.475  12.479  12.017  1.00  0.00     0.049 A 
ATOM     60  H   UNL     1       1.287  10.998  11.100  1.00  0.00     0.167 HD
ATOM     61  C   UNL     1       2.831  10.470  13.437  1.00  0.00     0.074 A 
ATOM     62  C   UNL     1       3.411   9.794  14.579  1.00  0.00     0.031 C 
ATOM     63  C   UNL     1       3.021  11.785  13.158  1.00  0.00     0.034 A 
BRANCH  50  64
ATOM     64  C   UNL     1      -0.061  13.803   8.160  1.00  0.00     0.023 A 
ATOM     65  C   UNL     1      -1.378  14.285   8.056  1.00  0.00     0.031 A 
ATOM     66  C   UNL     1       0.914  14.373   7.324  1.00  0.00     0.131 A 
ATOM     67  C   UNL     1      -1.704  15.234   7.077  1.00  0.00     0.055 A 
ATOM     68  C   UNL     1       0.601  15.386   6.414  1.00  0.00     0.041 A 
ATOM     69  F   UNL     1       2.185  13.940   7.361  1.00  0.00    -0.206 F 
ATOM     70  C   UNL     1      -0.718  15.809   6.274  1.00  0.00     0.022 A 
BRANCH  67  71
ATOM     71  S   UNL     1      -3.455  15.589   6.767  1.00  0.00     0.124 S 
ATOM     72  O   UNL     1      -3.939  14.289   6.308  1.00  0.00    -0.237 OA
ATOM     73  O   UNL     1      -3.928  16.020   8.077  1.00  0.00    -0.237 OA
ATOM     74  O   UNL     1      -3.417  16.631   5.743  1.00  0.00    -0.744 OA
ENDBRANCH  67  71
ENDBRANCH  50  64
BRANCH  51  75
ATOM     75  C   UNL     1       1.978   5.864  13.987  1.00  0.00     0.023 A 
ATOM     76  C   UNL     1       1.696   5.842  15.363  1.00  0.00     0.031 A 
ATOM     77  C   UNL     1       2.671   4.769  13.442  1.00  0.00     0.131 A 
ATOM     78  C   UNL     1       2.165   4.786  16.160  1.00  0.00     0.055 A 
ATOM     79  C   UNL     1       3.083   3.691  14.229  1.00  0.00     0.041 A 
ATOM     80  F   UNL     1       2.958   4.731  12.131  1.00  0.00    -0.206 F 
ATOM     81  C   UNL     1       2.848   3.705  15.600  1.00  0.00     0.022 A 
BRANCH  78  82
ATOM     82  S   UNL     1       1.973   4.907  17.960  1.00  0.00     0.124 S 
ATOM     83  O   UNL     1       2.593   6.198  18.239  1.00  0.00    -0.237 OA
ATOM     84  O   UNL     1       0.524   4.844  18.113  1.00  0.00    -0.237 OA
ATOM     85  O   UNL     1       2.703   3.743  18.459  1.00  0.00    -0.744 OA
ENDBRANCH  78  82
ENDBRANCH  51  75
BRANCH  63  86
ATOM     86  C   UNL     1       3.825  12.584  14.150  1.00  0.00     0.023 A 
ATOM     87  C   UNL     1       5.198  12.358  14.347  1.00  0.00     0.031 A 
ATOM     88  C   UNL     1       3.198  13.578  14.922  1.00  0.00     0.131 A 
ATOM     89  C   UNL     1       5.886  13.072  15.338  1.00  0.00     0.055 A 
ATOM     90  C   UNL     1       3.901  14.327  15.865  1.00  0.00     0.041 A 
ATOM     91  F   UNL     1       1.889  13.836  14.771  1.00  0.00    -0.206 F 
ATOM     92  C   UNL     1       5.250  14.065  16.088  1.00  0.00     0.022 A 
BRANCH  89  93
ATOM     93  S   UNL     1       7.603  12.616  15.702  1.00  0.00     0.124 S 
ATOM     94  O   UNL     1       7.480  11.198  16.024  1.00  0.00    -0.237 OA
ATOM     95  O   UNL     1       8.280  12.928  14.447  1.00  0.00    -0.237 OA
ATOM     96  O   UNL     1       7.956  13.480  16.827  1.00  0.00    -0.744 OA
ENDBRANCH  89  93
ENDBRANCH  63  86
ENDBRANCH  37  38
ENDBRANCH  29  32
ENDBRANCH  27  28
ENDBRANCH  26  27
ENDBRANCH   1  26
TORSDOF 18
