REMARK SMILES CCCC[C@@H](C(=O)NCCCCCCNC(=O)c1ccc(-c2c3nc(c(-c4cc(S(=O)(=O)[O-])ccc4F)c4ccc([nH]4)c(-c4cc(S(=O)(=O)[O-])ccc4F)c4nc(c(-c5cc(S(=O)(=O)[O-])ccc5F)c5ccc2[nH]5)C=C4)C=C3)cc1)[C@](C)(O)c1cccc(Br)c1
REMARK SMILES IDX 11 1 10 2 9 3 8 4 6 5 7 6 5 8 4 9 3 10 2 11 1 12 81 13 82 14
REMARK SMILES IDX 83 15 84 17 85 18 90 19 86 20 88 21 87 22 89 23 12 24 13 25
REMARK SMILES IDX 14 26 15 27 16 28 17 30 18 31 19 32 80 33 20 34 79 35 21 36
REMARK SMILES IDX 22 37 23 38 73 39 24 40 78 41 72 42 74 43 25 44 77 45 71 46
REMARK SMILES IDX 70 47 26 49 58 50 38 51 57 52 39 53 42 54 56 55 75 56 40 57
REMARK SMILES IDX 41 58 55 60 76 61 43 62 27 63 28 64 36 65 29 66 35 67 37 68
REMARK SMILES IDX 34 69 30 70 31 71 32 72 33 73 59 74 60 75 68 76 61 77 67 78
REMARK SMILES IDX 69 79 66 80 62 81 63 82 64 83 65 84 44 85 45 86 53 87 46 88
REMARK SMILES IDX 52 89 54 90 51 91 47 92 48 93 49 94 50 95
REMARK H PARENT 8 7 83 16 15 29 74 48 42 59
REMARK Flexibility Score: inf
ROOT
ATOM      1  C   UNL     1       2.797  -5.035   2.819  1.00  0.00     0.002 C 
ENDROOT
BRANCH   1   2
ATOM      2  C   UNL     1       1.458  -5.222   2.107  1.00  0.00     0.021 C 
BRANCH   2   3
ATOM      3  C   UNL     1       0.789  -3.908   1.693  1.00  0.00     0.116 C 
BRANCH   3   4
ATOM      4  N   UNL     1       1.188  -3.569   0.346  1.00  0.00    -0.356 N 
ATOM      5  C   UNL     1       0.531  -3.650  -0.840  1.00  0.00     0.226 C 
ATOM      6  O   UNL     1       1.244  -3.479  -1.830  1.00  0.00    -0.275 OA
ATOM      7  H   UNL     1       2.103  -3.213   0.276  1.00  0.00     0.163 HD
BRANCH   5   8
ATOM      8  C   UNL     1      -0.994  -3.862  -0.927  1.00  0.00     0.114 C 
BRANCH   8   9
ATOM      9  C   UNL     1      -1.430  -5.354  -0.858  1.00  0.00     0.017 C 
BRANCH   9  10
ATOM     10  C   UNL     1      -1.540  -6.071   0.488  1.00  0.00     0.001 C 
BRANCH  10  11
ATOM     11  C   UNL     1      -2.534  -5.490   1.496  1.00  0.00    -0.003 C 
ATOM     12  C   UNL     1      -3.983  -5.795   1.155  1.00  0.00     0.004 C 
ENDBRANCH  10  11
ENDBRANCH   9  10
ENDBRANCH   8   9
BRANCH   8  13
ATOM     13  C   UNL     1      -1.559  -3.181  -2.254  1.00  0.00     0.098 C 
ATOM     14  C   UNL     1      -1.248  -1.667  -2.280  1.00  0.00     0.048 C 
BRANCH  13  15
ATOM     15  O   UNL     1      -3.007  -3.237  -2.183  1.00  0.00    -0.385 OA
ATOM     16  H   UNL     1      -3.386  -2.829  -2.978  1.00  0.00     0.211 HD
ENDBRANCH  13  15
BRANCH  13  17
ATOM     17  C   UNL     1      -1.171  -3.903  -3.561  1.00  0.00    -0.015 A 
ATOM     18  C   UNL     1      -1.844  -5.075  -3.964  1.00  0.00     0.007 A 
ATOM     19  C   UNL     1      -0.102  -3.479  -4.371  1.00  0.00     0.022 A 
ATOM     20  C   UNL     1      -1.411  -5.841  -5.050  1.00  0.00     0.002 A 
ATOM     21  C   UNL     1       0.317  -4.234  -5.472  1.00  0.00     0.018 A 
ATOM     22  C   UNL     1      -0.319  -5.426  -5.801  1.00  0.00     0.016 A 
ATOM     23  Br  UNL     1       1.784  -3.643  -6.512  1.00  0.00    -0.051 Br
ENDBRANCH  13  17
ENDBRANCH   8  13
ENDBRANCH   5   8
ENDBRANCH   3   4
ENDBRANCH   2   3
ENDBRANCH   1   2
BRANCH   1  24
ATOM     24  C   UNL     1       2.681  -4.444   4.228  1.00  0.00     0.002 C 
BRANCH  24  25
ATOM     25  C   UNL     1       1.752  -5.203   5.183  1.00  0.00     0.021 C 
BRANCH  25  26
ATOM     26  C   UNL     1       2.056  -6.692   5.335  1.00  0.00     0.116 C 
BRANCH  26  27
ATOM     27  N   UNL     1       3.402  -6.917   5.829  1.00  0.00    -0.352 N 
ATOM     28  C   UNL     1       3.821  -7.549   6.972  1.00  0.00     0.251 C 
ATOM     29  H   UNL     1       4.122  -6.562   5.259  1.00  0.00     0.163 HD
ATOM     30  O   UNL     1       4.982  -7.412   7.344  1.00  0.00    -0.269 OA
BRANCH  28  31
ATOM     31  C   UNL     1       2.880  -8.382   7.755  1.00  0.00     0.039 A 
ATOM     32  C   UNL     1       2.923  -8.315   9.150  1.00  0.00     0.014 A 
ATOM     33  C   UNL     1       2.000  -9.266   7.123  1.00  0.00     0.014 A 
ATOM     34  C   UNL     1       2.061  -9.110   9.911  1.00  0.00     0.010 A 
ATOM     35  C   UNL     1       1.096 -10.009   7.881  1.00  0.00     0.010 A 
ATOM     36  C   UNL     1       1.130  -9.952   9.283  1.00  0.00    -0.014 A 
BRANCH  36  37
ATOM     37  C   UNL     1       0.217 -10.812  10.080  1.00  0.00     0.031 A 
ATOM     38  C   UNL     1       0.353 -12.311  10.017  1.00  0.00     0.074 A 
ATOM     39  C   UNL     1      -0.754 -10.250  10.825  1.00  0.00     0.049 A 
ATOM     40  N   UNL     1      -0.377 -13.235  10.587  1.00  0.00    -0.248 NA
ATOM     41  C   UNL     1       1.439 -12.837   9.175  1.00  0.00     0.031 C 
ATOM     42  C   UNL     1      -1.005  -8.811  10.938  1.00  0.00     0.029 A 
ATOM     43  N   UNL     1      -1.714 -10.817  11.624  1.00  0.00    -0.354 N 
ATOM     44  C   UNL     1       0.151 -14.451  10.163  1.00  0.00     0.074 A 
ATOM     45  C   UNL     1       1.222 -14.142   9.239  1.00  0.00     0.031 C 
ATOM     46  C   UNL     1      -2.036  -8.610  11.776  1.00  0.00     0.029 A 
ATOM     47  C   UNL     1      -2.543  -9.901  12.229  1.00  0.00     0.049 A 
ATOM     48  H   UNL     1      -1.802 -11.790  11.753  1.00  0.00     0.167 HD
ATOM     49  C   UNL     1      -0.208 -15.707  10.528  1.00  0.00     0.034 A 
ATOM     50  C   UNL     1      -3.595 -10.083  13.052  1.00  0.00     0.034 A 
ATOM     51  C   UNL     1      -1.269 -15.997  11.463  1.00  0.00     0.049 A 
ATOM     52  C   UNL     1      -3.977 -11.489  13.444  1.00  0.00     0.074 A 
ATOM     53  C   UNL     1      -1.695 -17.227  11.933  1.00  0.00     0.029 A 
ATOM     54  N   UNL     1      -2.074 -15.041  12.072  1.00  0.00    -0.354 N 
ATOM     55  N   UNL     1      -3.443 -12.627  13.064  1.00  0.00    -0.248 NA
ATOM     56  C   UNL     1      -5.090 -11.631  14.390  1.00  0.00     0.031 C 
ATOM     57  C   UNL     1      -2.790 -17.020  12.780  1.00  0.00     0.029 A 
ATOM     58  C   UNL     1      -3.003 -15.656  12.898  1.00  0.00     0.049 A 
ATOM     59  H   UNL     1      -1.995 -14.069  11.937  1.00  0.00     0.167 HD
ATOM     60  C   UNL     1      -4.134 -13.618  13.756  1.00  0.00     0.074 A 
ATOM     61  C   UNL     1      -5.111 -12.941  14.584  1.00  0.00     0.031 C 
ATOM     62  C   UNL     1      -3.973 -14.966  13.716  1.00  0.00     0.034 A 
BRANCH  49  63
ATOM     63  C   UNL     1       0.541 -16.855   9.892  1.00  0.00     0.023 A 
ATOM     64  C   UNL     1       1.922 -17.035  10.088  1.00  0.00     0.031 A 
ATOM     65  C   UNL     1      -0.125 -17.765   9.052  1.00  0.00     0.131 A 
ATOM     66  C   UNL     1       2.605 -18.043   9.392  1.00  0.00     0.055 A 
ATOM     67  C   UNL     1       0.545 -18.819   8.428  1.00  0.00     0.041 A 
ATOM     68  F   UNL     1      -1.439 -17.635   8.809  1.00  0.00    -0.206 F 
ATOM     69  C   UNL     1       1.922 -18.953   8.583  1.00  0.00     0.022 A 
BRANCH  66  70
ATOM     70  S   UNL     1       4.418 -18.055   9.443  1.00  0.00     0.124 S 
ATOM     71  O   UNL     1       4.736 -16.745   8.881  1.00  0.00    -0.237 OA
ATOM     72  O   UNL     1       4.693 -18.225  10.865  1.00  0.00    -0.237 OA
ATOM     73  O   UNL     1       4.777 -19.192   8.597  1.00  0.00    -0.744 OA
ENDBRANCH  66  70
ENDBRANCH  49  63
BRANCH  50  74
ATOM     74  C   UNL     1      -4.363  -8.914  13.569  1.00  0.00     0.023 A 
ATOM     75  C   UNL     1      -4.380  -8.609  14.939  1.00  0.00     0.031 A 
ATOM     76  C   UNL     1      -5.128  -8.111  12.705  1.00  0.00     0.131 A 
ATOM     77  C   UNL     1      -5.188  -7.564  15.413  1.00  0.00     0.055 A 
ATOM     78  C   UNL     1      -5.889  -7.039  13.175  1.00  0.00     0.041 A 
ATOM     79  F   UNL     1      -5.140  -8.354  11.384  1.00  0.00    -0.206 F 
ATOM     80  C   UNL     1      -5.933  -6.770  14.539  1.00  0.00     0.022 A 
BRANCH  77  81
ATOM     81  S   UNL     1      -5.319  -7.314  17.205  1.00  0.00     0.124 S 
ATOM     82  O   UNL     1      -5.795  -8.618  17.653  1.00  0.00    -0.237 OA
ATOM     83  O   UNL     1      -3.947  -6.972  17.563  1.00  0.00    -0.237 OA
ATOM     84  O   UNL     1      -6.283  -6.222  17.325  1.00  0.00    -0.744 OA
ENDBRANCH  77  81
ENDBRANCH  50  74
BRANCH  62  85
ATOM     85  C   UNL     1      -4.838 -15.785  14.642  1.00  0.00     0.023 A 
ATOM     86  C   UNL     1      -6.231 -15.866  14.479  1.00  0.00     0.031 A 
ATOM     87  C   UNL     1      -4.256 -16.477  15.720  1.00  0.00     0.131 A 
ATOM     88  C   UNL     1      -7.005 -16.569  15.415  1.00  0.00     0.055 A 
ATOM     89  C   UNL     1      -5.024 -17.225  16.613  1.00  0.00     0.041 A 
ATOM     90  F   UNL     1      -2.930 -16.433  15.923  1.00  0.00    -0.206 F 
ATOM     91  C   UNL     1      -6.408 -17.262  16.472  1.00  0.00     0.022 A 
BRANCH  88  92
ATOM     92  S   UNL     1      -8.812 -16.482  15.292  1.00  0.00     0.124 S 
ATOM     93  O   UNL     1      -9.052 -15.043  15.351  1.00  0.00    -0.237 OA
ATOM     94  O   UNL     1      -9.068 -17.118  14.004  1.00  0.00    -0.237 OA
ATOM     95  O   UNL     1      -9.272 -17.235  16.458  1.00  0.00    -0.744 OA
ENDBRANCH  88  92
ENDBRANCH  62  85
ENDBRANCH  36  37
ENDBRANCH  28  31
ENDBRANCH  26  27
ENDBRANCH  25  26
ENDBRANCH  24  25
ENDBRANCH   1  24
TORSDOF 22
