REMARK SMILES NC(=O)[C@@H]1CCC[N@@H+]1[C@@H](C(=O)NCCCCCCNC(=O)c1ccc(-c2c3nc(c(-c4cc(S(=O)(=O)[O-])ccc4F)c4ccc([nH]4)c(-c4cc(S(=O)(=O)[O-])ccc4F)c4nc(c(-c5cc(S(=O)(=O)[O-])ccc5F)c5ccc2[nH]5)C=C4)C=C3)cc1)c1c[nH]c2cc(OCc3ccccc3)ccc12
REMARK SMILES IDX 15 1 14 2 13 3 12 4 10 5 11 6 9 8 8 9 4 10 5 11 6 12 7 13
REMARK SMILES IDX 2 15 1 16 3 19 85 20 86 21 101 22 87 23 88 24 100 25 89 27
REMARK SMILES IDX 99 28 90 29 91 30 92 31 93 32 94 33 98 34 95 35 97 36 96 37
REMARK SMILES IDX 16 38 17 39 18 40 19 41 20 42 21 44 22 45 23 46 84 47 24 48
REMARK SMILES IDX 83 49 25 50 26 51 27 52 77 53 28 54 82 55 76 56 78 57 29 58
REMARK SMILES IDX 81 59 75 60 74 61 30 63 62 64 42 65 61 66 43 67 46 68 60 69
REMARK SMILES IDX 79 70 44 71 45 72 59 74 80 75 47 76 31 77 32 78 40 79 33 80
REMARK SMILES IDX 39 81 41 82 38 83 34 84 35 85 36 86 37 87 63 88 64 89 72 90
REMARK SMILES IDX 65 91 71 92 73 93 70 94 66 95 67 96 68 97 69 98 48 99 49 100
REMARK SMILES IDX 57 101 50 102 56 103 58 104 55 105 51 106 52 107 53 108
REMARK SMILES IDX 54 109
REMARK H PARENT 12 7 8 14 1 17 1 18 87 26 19 43 78 62 46 73
REMARK Flexibility Score: inf
ROOT
ATOM      1  C   UNL     1      -0.973  -1.587   3.731  1.00  0.00     0.002 C 
ENDROOT
BRANCH   1   2
ATOM      2  C   UNL     1      -0.798  -0.765   2.444  1.00  0.00     0.021 C 
BRANCH   2   3
ATOM      3  C   UNL     1      -1.800   0.397   2.273  1.00  0.00     0.116 C 
BRANCH   3   4
ATOM      4  N   UNL     1      -1.837   1.315   3.401  1.00  0.00    -0.351 N 
ATOM      5  C   UNL     1      -1.495   2.610   3.669  1.00  0.00     0.283 C 
ATOM      6  O   UNL     1      -1.738   2.894   4.850  1.00  0.00    -0.268 OA
ATOM      7  H   UNL     1      -2.217   0.879   4.198  1.00  0.00     0.163 HD
BRANCH   5   8
ATOM      8  C   UNL     1      -0.922   3.650   2.640  1.00  0.00     0.308 C 
BRANCH   8   9
ATOM      9  N   UNL     1       0.577   3.621   2.368  1.00  0.00    -0.311 N 
ATOM     10  C   UNL     1       1.224   2.368   1.932  1.00  0.00     0.275 C 
ATOM     11  C   UNL     1       1.518   1.628   3.239  1.00  0.00     0.081 C 
ATOM     12  C   UNL     1       1.759   2.739   4.250  1.00  0.00     0.068 C 
ATOM     13  C   UNL     1       1.487   3.996   3.460  1.00  0.00     0.264 C 
ATOM     14  H   UNL     1       0.490   4.309   1.620  1.00  0.00     0.349 HD
BRANCH  10  15
ATOM     15  C   UNL     1       0.659   1.694   0.683  1.00  0.00     0.275 C 
ATOM     16  N   UNL     1       1.305   0.551   0.295  1.00  0.00    -0.365 N 
ATOM     17  H   UNL     1       1.000   0.059  -0.501  1.00  0.00     0.159 HD
ATOM     18  H   UNL     1       2.075   0.221   0.812  1.00  0.00     0.159 HD
ATOM     19  O   UNL     1      -0.235   2.146  -0.026  1.00  0.00    -0.268 OA
ENDBRANCH  10  15
ENDBRANCH   8   9
BRANCH   8  20
ATOM     20  C   UNL     1      -1.289   5.167   3.008  1.00  0.00     0.044 A 
ATOM     21  C   UNL     1      -0.984   6.264   2.206  1.00  0.00     0.094 A 
ATOM     22  C   UNL     1      -1.238   5.798   4.311  1.00  0.00     0.009 A 
ATOM     23  N   UNL     1       0.037   6.894   2.872  1.00  0.00    -0.361 N 
ATOM     24  C   UNL     1      -0.148   6.671   4.217  1.00  0.00     0.050 A 
ATOM     25  C   UNL     1      -1.782   5.580   5.591  1.00  0.00     0.015 A 
ATOM     26  H   UNL     1       0.768   7.411   2.462  1.00  0.00     0.166 HD
ATOM     27  C   UNL     1       0.621   7.021   5.331  1.00  0.00     0.073 A 
ATOM     28  C   UNL     1      -1.083   6.014   6.729  1.00  0.00     0.047 A 
ATOM     29  C   UNL     1       0.168   6.604   6.588  1.00  0.00     0.121 A 
BRANCH  29  30
ATOM     30  O   UNL     1       1.119   6.659   7.568  1.00  0.00    -0.489 OA
BRANCH  30  31
ATOM     31  C   UNL     1       0.722   6.969   8.897  1.00  0.00     0.265 C 
BRANCH  31  32
ATOM     32  C   UNL     1       1.008   8.432   9.102  1.00  0.00    -0.011 A 
ATOM     33  C   UNL     1       2.334   8.886   9.164  1.00  0.00     0.007 A 
ATOM     34  C   UNL     1      -0.037   9.362   9.111  1.00  0.00     0.007 A 
ATOM     35  C   UNL     1       2.609  10.251   9.227  1.00  0.00     0.000 A 
ATOM     36  C   UNL     1       0.240  10.726   9.177  1.00  0.00     0.000 A 
ATOM     37  C   UNL     1       1.561  11.169   9.231  1.00  0.00     0.000 A 
ENDBRANCH  31  32
ENDBRANCH  30  31
ENDBRANCH  29  30
ENDBRANCH   8  20
ENDBRANCH   5   8
ENDBRANCH   3   4
ENDBRANCH   2   3
ENDBRANCH   1   2
BRANCH   1  38
ATOM     38  C   UNL     1      -1.348  -3.044   3.457  1.00  0.00     0.002 C 
BRANCH  38  39
ATOM     39  C   UNL     1      -0.280  -3.866   2.728  1.00  0.00     0.021 C 
BRANCH  39  40
ATOM     40  C   UNL     1       1.045  -3.996   3.474  1.00  0.00     0.116 C 
BRANCH  40  41
ATOM     41  N   UNL     1       0.889  -4.772   4.694  1.00  0.00    -0.352 N 
ATOM     42  C   UNL     1       1.338  -6.047   4.954  1.00  0.00     0.251 C 
ATOM     43  H   UNL     1       0.400  -4.330   5.425  1.00  0.00     0.163 HD
ATOM     44  O   UNL     1       0.863  -6.696   5.874  1.00  0.00    -0.269 OA
BRANCH  42  45
ATOM     45  C   UNL     1       2.402  -6.614   4.098  1.00  0.00     0.039 A 
ATOM     46  C   UNL     1       2.246  -7.892   3.559  1.00  0.00     0.014 A 
ATOM     47  C   UNL     1       3.550  -5.864   3.825  1.00  0.00     0.014 A 
ATOM     48  C   UNL     1       3.224  -8.398   2.698  1.00  0.00     0.010 A 
ATOM     49  C   UNL     1       4.488  -6.342   2.916  1.00  0.00     0.010 A 
ATOM     50  C   UNL     1       4.337  -7.616   2.346  1.00  0.00    -0.014 A 
BRANCH  50  51
ATOM     51  C   UNL     1       5.360  -8.113   1.390  1.00  0.00     0.031 A 
ATOM     52  C   UNL     1       6.774  -8.338   1.854  1.00  0.00     0.074 A 
ATOM     53  C   UNL     1       5.031  -8.300   0.097  1.00  0.00     0.049 A 
ATOM     54  N   UNL     1       7.827  -8.689   1.161  1.00  0.00    -0.248 NA
ATOM     55  C   UNL     1       7.043  -8.107   3.281  1.00  0.00     0.031 C 
ATOM     56  C   UNL     1       3.701  -8.081  -0.476  1.00  0.00     0.029 A 
ATOM     57  N   UNL     1       5.789  -8.706  -0.974  1.00  0.00    -0.354 N 
ATOM     58  C   UNL     1       8.884  -8.713   2.065  1.00  0.00     0.074 A 
ATOM     59  C   UNL     1       8.355  -8.277   3.339  1.00  0.00     0.031 C 
ATOM     60  C   UNL     1       3.732  -8.377  -1.785  1.00  0.00     0.029 A 
ATOM     61  C   UNL     1       5.090  -8.758  -2.158  1.00  0.00     0.049 A 
ATOM     62  H   UNL     1       6.743  -8.937  -0.901  1.00  0.00     0.167 HD
ATOM     63  C   UNL     1      10.171  -9.087   1.855  1.00  0.00     0.034 A 
ATOM     64  C   UNL     1       5.501  -9.064  -3.406  1.00  0.00     0.034 A 
ATOM     65  C   UNL     1      10.677  -9.527   0.577  1.00  0.00     0.049 A 
ATOM     66  C   UNL     1       6.946  -9.438  -3.623  1.00  0.00     0.074 A 
ATOM     67  C   UNL     1      11.946  -9.982   0.264  1.00  0.00     0.029 A 
ATOM     68  N   UNL     1       9.943  -9.558  -0.603  1.00  0.00    -0.354 N 
ATOM     69  N   UNL     1       7.923  -9.507  -2.747  1.00  0.00    -0.248 NA
ATOM     70  C   UNL     1       7.343  -9.783  -4.994  1.00  0.00     0.031 C 
ATOM     71  C   UNL     1      12.001 -10.213  -1.115  1.00  0.00     0.029 A 
ATOM     72  C   UNL     1      10.744  -9.985  -1.651  1.00  0.00     0.049 A 
ATOM     73  H   UNL     1       8.993  -9.312  -0.682  1.00  0.00     0.167 HD
ATOM     74  C   UNL     1       9.041  -9.932  -3.458  1.00  0.00     0.074 A 
ATOM     75  C   UNL     1       8.614 -10.119  -4.829  1.00  0.00     0.031 C 
ATOM     76  C   UNL     1      10.306 -10.153  -3.018  1.00  0.00     0.034 A 
BRANCH  63  77
ATOM     77  C   UNL     1      11.120  -9.008   3.027  1.00  0.00     0.023 A 
ATOM     78  C   UNL     1      10.927  -9.778   4.188  1.00  0.00     0.031 A 
ATOM     79  C   UNL     1      12.222  -8.135   2.996  1.00  0.00     0.131 A 
ATOM     80  C   UNL     1      11.771  -9.603   5.295  1.00  0.00     0.055 A 
ATOM     81  C   UNL     1      13.111  -8.030   4.068  1.00  0.00     0.041 A 
ATOM     82  F   UNL     1      12.448  -7.358   1.925  1.00  0.00    -0.206 F 
ATOM     83  C   UNL     1      12.879  -8.755   5.233  1.00  0.00     0.022 A 
BRANCH  80  84
ATOM     84  S   UNL     1      11.313 -10.388   6.865  1.00  0.00     0.124 S 
ATOM     85  O   UNL     1       9.991  -9.815   7.105  1.00  0.00    -0.237 OA
ATOM     86  O   UNL     1      11.344 -11.806   6.529  1.00  0.00    -0.237 OA
ATOM     87  O   UNL     1      12.355  -9.941   7.788  1.00  0.00    -0.744 OA
ENDBRANCH  80  84
ENDBRANCH  63  77
BRANCH  64  88
ATOM     88  C   UNL     1       4.546  -9.016  -4.550  1.00  0.00     0.023 A 
ATOM     89  C   UNL     1       4.225 -10.175  -5.274  1.00  0.00     0.031 A 
ATOM     90  C   UNL     1       3.971  -7.801  -4.965  1.00  0.00     0.131 A 
ATOM     91  C   UNL     1       3.396 -10.088  -6.403  1.00  0.00     0.055 A 
ATOM     92  C   UNL     1       3.100  -7.729  -6.054  1.00  0.00     0.041 A 
ATOM     93  F   UNL     1       4.240  -6.662  -4.307  1.00  0.00    -0.206 F 
ATOM     94  C   UNL     1       2.819  -8.876  -6.789  1.00  0.00     0.022 A 
BRANCH  91  95
ATOM     95  S   UNL     1       3.153 -11.572  -7.418  1.00  0.00     0.124 S 
ATOM     96  O   UNL     1       4.525 -11.908  -7.784  1.00  0.00    -0.237 OA
ATOM     97  O   UNL     1       2.499 -12.477  -6.479  1.00  0.00    -0.237 OA
ATOM     98  O   UNL     1       2.312 -11.100  -8.515  1.00  0.00    -0.744 OA
ENDBRANCH  91  95
ENDBRANCH  64  88
BRANCH  76  99
ATOM     99  C   UNL     1      11.307 -10.661  -4.028  1.00  0.00     0.023 A 
ATOM    100  C   UNL     1      11.735  -9.870  -5.107  1.00  0.00     0.031 A 
ATOM    101  C   UNL     1      11.837 -11.958  -3.907  1.00  0.00     0.131 A 
ATOM    102  C   UNL     1      12.624 -10.401  -6.054  1.00  0.00     0.055 A 
ATOM    103  C   UNL     1      12.770 -12.459  -4.816  1.00  0.00     0.041 A 
ATOM    104  F   UNL     1      11.460 -12.759  -2.897  1.00  0.00    -0.206 F 
ATOM    105  C   UNL     1      13.159 -11.684  -5.904  1.00  0.00     0.022 A 
BRANCH 102 106
ATOM    106  S   UNL     1      13.006  -9.425  -7.534  1.00  0.00     0.124 S 
ATOM    107  O   UNL     1      11.685  -9.244  -8.126  1.00  0.00    -0.237 OA
ATOM    108  O   UNL     1      13.621  -8.228  -6.970  1.00  0.00    -0.237 OA
ATOM    109  O   UNL     1      13.912 -10.288  -8.290  1.00  0.00    -0.744 OA
ENDBRANCH 102 106
ENDBRANCH  76  99
ENDBRANCH  50  51
ENDBRANCH  42  45
ENDBRANCH  40  41
ENDBRANCH  39  40
ENDBRANCH  38  39
ENDBRANCH   1  38
TORSDOF 22
