REMARK SMILES O=C(CC[N@H+]1CCC[C@H](c2nccn2Cc2cscn2)C1)NCCCCCCNC(=O)c1ccc(-c2c3nc(c(-c4cc(S(=O)(=O)[O-])ccc4F)c4ccc([nH]4)c(-c4cc(S(=O)(=O)[O-])ccc4F)c4nc(c(-c5cc(S(=O)(=O)[O-])ccc5F)c5ccc2[nH]5)C=C4)C=C3)cc1
REMARK SMILES IDX 24 1 23 2 22 3 1 4 2 5 3 7 4 8 5 9 6 10 21 11 7 13 9 14 8 15
REMARK SMILES IDX 10 16 11 17 14 18 12 19 13 20 15 21 16 22 17 23 20 24 18 25
REMARK SMILES IDX 19 26 25 27 26 28 27 29 28 30 29 31 30 32 31 34 32 35 33 36
REMARK SMILES IDX 94 37 34 38 93 39 35 40 36 41 37 42 87 43 38 44 92 45 86 46
REMARK SMILES IDX 88 47 39 48 91 49 85 50 84 51 40 53 72 54 52 55 71 56 53 57
REMARK SMILES IDX 56 58 70 59 89 60 54 61 55 62 69 64 90 65 57 66 41 67 42 68
REMARK SMILES IDX 50 69 43 70 49 71 51 72 48 73 44 74 45 75 46 76 47 77 73 78
REMARK SMILES IDX 74 79 82 80 75 81 81 82 83 83 80 84 76 85 77 86 78 87 79 88
REMARK SMILES IDX 58 89 59 90 67 91 60 92 66 93 68 94 65 95 61 96 62 97 63 98
REMARK SMILES IDX 64 99
REMARK H PARENT 22 6 5 12 29 33 88 52 56 63
REMARK Flexibility Score: inf
ROOT
ATOM      1  C   UNL     1       1.335   1.046   3.644  1.00  0.00     0.021 C 
ENDROOT
BRANCH   1   2
ATOM      2  C   UNL     1       1.038   1.393   2.140  1.00  0.00     0.116 C 
BRANCH   2   3
ATOM      3  N   UNL     1       1.542   0.500   1.068  1.00  0.00    -0.356 N 
ATOM      4  O   UNL     1       1.166   1.961  -0.678  1.00  0.00    -0.275 OA
ATOM      5  C   UNL     1       1.643   0.901  -0.279  1.00  0.00     0.225 C 
ATOM      6  H   UNL     1       1.818  -0.414   1.309  1.00  0.00     0.163 HD
BRANCH   5   7
ATOM      7  C   UNL     1       2.433  -0.048  -1.234  1.00  0.00     0.161 C 
BRANCH   7   8
ATOM      8  C   UNL     1       3.528   0.583  -2.196  1.00  0.00     0.272 C 
BRANCH   8   9
ATOM      9  N   UNL     1       4.855   0.942  -1.630  1.00  0.00    -0.334 N 
ATOM     10  C   UNL     1       6.003   0.088  -1.997  1.00  0.00     0.262 C 
ATOM     11  C   UNL     1       5.238   2.351  -1.792  1.00  0.00     0.273 C 
ATOM     12  H   UNL     1       4.662   0.756  -0.646  1.00  0.00     0.348 HD
ATOM     13  C   UNL     1       7.244   0.365  -1.105  1.00  0.00     0.062 C 
ATOM     14  C   UNL     1       6.480   2.726  -0.945  1.00  0.00     0.111 C 
ATOM     15  C   UNL     1       7.676   1.815  -1.168  1.00  0.00     0.023 C 
BRANCH  14  16
ATOM     16  C   UNL     1       6.217   2.925   0.528  1.00  0.00     0.117 A 
ATOM     17  N   UNL     1       6.699   3.991   1.166  1.00  0.00    -0.241 NA
ATOM     18  N   UNL     1       5.168   2.433   1.274  1.00  0.00    -0.328 N 
ATOM     19  C   UNL     1       5.620   4.500   1.823  1.00  0.00     0.131 A 
ATOM     20  C   UNL     1       4.568   3.650   1.629  1.00  0.00     0.108 A 
BRANCH  18  21
ATOM     21  C   UNL     1       4.325   1.226   1.221  1.00  0.00     0.180 C 
BRANCH  21  22
ATOM     22  C   UNL     1       4.664  -0.259   1.440  1.00  0.00     0.071 A 
ATOM     23  C   UNL     1       4.053  -1.123   2.348  1.00  0.00     0.092 A 
ATOM     24  N   UNL     1       5.273  -1.007   0.441  1.00  0.00    -0.248 NA
ATOM     25  S   UNL     1       4.270  -2.785   1.969  1.00  0.00    -0.130 S 
ATOM     26  C   UNL     1       5.133  -2.304   0.593  1.00  0.00     0.175 A 
ENDBRANCH  21  22
ENDBRANCH  18  21
ENDBRANCH  14  16
ENDBRANCH   8   9
ENDBRANCH   7   8
ENDBRANCH   5   7
ENDBRANCH   2   3
ENDBRANCH   1   2
BRANCH   1  27
ATOM     27  C   UNL     1       2.676   1.338   4.395  1.00  0.00     0.002 C 
BRANCH  27  28
ATOM     28  C   UNL     1       3.302   2.727   4.291  1.00  0.00     0.002 C 
BRANCH  28  29
ATOM     29  C   UNL     1       3.101   3.749   5.402  1.00  0.00     0.021 C 
BRANCH  29  30
ATOM     30  C   UNL     1       3.773   3.400   6.718  1.00  0.00     0.116 C 
BRANCH  30  31
ATOM     31  N   UNL     1       5.203   3.718   6.805  1.00  0.00    -0.352 N 
ATOM     32  C   UNL     1       5.991   3.532   7.938  1.00  0.00     0.251 C 
ATOM     33  H   UNL     1       5.637   4.091   6.004  1.00  0.00     0.163 HD
ATOM     34  O   UNL     1       7.048   4.128   8.111  1.00  0.00    -0.269 OA
BRANCH  32  35
ATOM     35  C   UNL     1       5.489   2.559   8.925  1.00  0.00     0.039 A 
ATOM     36  C   UNL     1       5.164   2.929  10.232  1.00  0.00     0.014 A 
ATOM     37  C   UNL     1       5.103   1.331   8.399  1.00  0.00     0.014 A 
ATOM     38  C   UNL     1       4.311   2.099  10.960  1.00  0.00     0.010 A 
ATOM     39  C   UNL     1       4.132   0.614   9.054  1.00  0.00     0.010 A 
ATOM     40  C   UNL     1       3.741   0.969  10.344  1.00  0.00    -0.014 A 
BRANCH  40  41
ATOM     41  C   UNL     1       2.615   0.256  10.957  1.00  0.00     0.031 A 
ATOM     42  C   UNL     1       1.547   1.125  11.528  1.00  0.00     0.074 A 
ATOM     43  C   UNL     1       2.415  -1.078  10.854  1.00  0.00     0.049 A 
ATOM     44  N   UNL     1       1.327   1.351  12.780  1.00  0.00    -0.248 NA
ATOM     45  C   UNL     1       0.732   1.960  10.633  1.00  0.00     0.031 C 
ATOM     46  C   UNL     1       3.217  -2.065  10.123  1.00  0.00     0.029 A 
ATOM     47  N   UNL     1       1.370  -1.829  11.305  1.00  0.00    -0.354 N 
ATOM     48  C   UNL     1       0.179   2.133  12.841  1.00  0.00     0.074 A 
ATOM     49  C   UNL     1       0.001   2.655  11.511  1.00  0.00     0.031 C 
ATOM     50  C   UNL     1       2.514  -3.208   9.972  1.00  0.00     0.029 A 
ATOM     51  C   UNL     1       1.298  -3.107  10.755  1.00  0.00     0.049 A 
ATOM     52  H   UNL     1       0.720  -1.496  11.965  1.00  0.00     0.167 HD
ATOM     53  C   UNL     1      -0.654   2.065  13.920  1.00  0.00     0.034 A 
ATOM     54  C   UNL     1       0.326  -4.041  10.934  1.00  0.00     0.034 A 
ATOM     55  C   UNL     1      -0.016   1.358  15.014  1.00  0.00     0.049 A 
ATOM     56  C   UNL     1      -0.315  -3.734  12.236  1.00  0.00     0.074 A 
ATOM     57  C   UNL     1       1.169   1.519  15.709  1.00  0.00     0.029 A 
ATOM     58  N   UNL     1      -0.408   0.058  15.262  1.00  0.00    -0.354 N 
ATOM     59  N   UNL     1       0.321  -3.826  13.373  1.00  0.00    -0.248 NA
ATOM     60  C   UNL     1      -1.467  -2.845  12.249  1.00  0.00     0.031 C 
ATOM     61  C   UNL     1       1.679   0.195  15.865  1.00  0.00     0.029 A 
ATOM     62  C   UNL     1       0.732  -0.701  15.364  1.00  0.00     0.049 A 
ATOM     63  H   UNL     1      -1.334  -0.265  15.349  1.00  0.00     0.167 HD
ATOM     64  C   UNL     1      -0.038  -2.685  14.074  1.00  0.00     0.074 A 
ATOM     65  C   UNL     1      -1.230  -2.185  13.388  1.00  0.00     0.031 C 
ATOM     66  C   UNL     1       0.824  -2.092  14.956  1.00  0.00     0.034 A 
BRANCH  53  67
ATOM     67  C   UNL     1      -2.156   2.274  13.895  1.00  0.00     0.023 A 
ATOM     68  C   UNL     1      -2.838   2.128  15.120  1.00  0.00     0.031 A 
ATOM     69  C   UNL     1      -2.972   2.301  12.743  1.00  0.00     0.131 A 
ATOM     70  C   UNL     1      -4.220   1.875  15.157  1.00  0.00     0.055 A 
ATOM     71  C   UNL     1      -4.359   2.124  12.791  1.00  0.00     0.041 A 
ATOM     72  F   UNL     1      -2.478   2.405  11.505  1.00  0.00    -0.206 F 
ATOM     73  C   UNL     1      -4.987   1.869  13.997  1.00  0.00     0.022 A 
BRANCH  70  74
ATOM     74  S   UNL     1      -4.949   1.347  16.728  1.00  0.00     0.124 S 
ATOM     75  O   UNL     1      -4.096   0.215  17.076  1.00  0.00    -0.237 OA
ATOM     76  O   UNL     1      -4.797   2.545  17.547  1.00  0.00    -0.237 OA
ATOM     77  O   UNL     1      -6.322   1.007  16.366  1.00  0.00    -0.744 OA
ENDBRANCH  70  74
ENDBRANCH  53  67
BRANCH  54  78
ATOM     78  C   UNL     1      -0.196  -5.018   9.939  1.00  0.00     0.023 A 
ATOM     79  C   UNL     1      -0.957  -6.153  10.294  1.00  0.00     0.031 A 
ATOM     80  C   UNL     1      -0.145  -4.700   8.561  1.00  0.00     0.131 A 
ATOM     81  C   UNL     1      -1.628  -6.904   9.297  1.00  0.00     0.055 A 
ATOM     82  C   UNL     1      -0.805  -5.446   7.582  1.00  0.00     0.041 A 
ATOM     83  F   UNL     1       0.479  -3.594   8.124  1.00  0.00    -0.206 F 
ATOM     84  C   UNL     1      -1.560  -6.547   7.948  1.00  0.00     0.022 A 
BRANCH  81  85
ATOM     85  S   UNL     1      -2.698  -8.310   9.751  1.00  0.00     0.124 S 
ATOM     86  O   UNL     1      -1.729  -9.320  10.159  1.00  0.00    -0.237 OA
ATOM     87  O   UNL     1      -3.533  -7.743  10.804  1.00  0.00    -0.237 OA
ATOM     88  O   UNL     1      -3.410  -8.610   8.507  1.00  0.00    -0.744 OA
ENDBRANCH  81  85
ENDBRANCH  54  78
BRANCH  66  89
ATOM     89  C   UNL     1       2.073  -2.850  15.371  1.00  0.00     0.023 A 
ATOM     90  C   UNL     1       3.038  -3.374  14.480  1.00  0.00     0.031 A 
ATOM     91  C   UNL     1       2.348  -2.943  16.748  1.00  0.00     0.131 A 
ATOM     92  C   UNL     1       4.210  -3.980  14.978  1.00  0.00     0.055 A 
ATOM     93  C   UNL     1       3.521  -3.518  17.237  1.00  0.00     0.041 A 
ATOM     94  F   UNL     1       1.488  -2.441  17.650  1.00  0.00    -0.206 F 
ATOM     95  C   UNL     1       4.453  -4.047  16.353  1.00  0.00     0.022 A 
BRANCH  92  96
ATOM     96  S   UNL     1       5.430  -4.718  13.843  1.00  0.00     0.124 S 
ATOM     97  O   UNL     1       4.614  -5.508  12.928  1.00  0.00    -0.237 OA
ATOM     98  O   UNL     1       6.079  -3.543  13.266  1.00  0.00    -0.237 OA
ATOM     99  O   UNL     1       6.285  -5.508  14.732  1.00  0.00    -0.744 OA
ENDBRANCH  92  96
ENDBRANCH  66  89
ENDBRANCH  40  41
ENDBRANCH  32  35
ENDBRANCH  30  31
ENDBRANCH  29  30
ENDBRANCH  28  29
ENDBRANCH  27  28
ENDBRANCH   1  27
TORSDOF 21
