REMARK SMILES COC(=O)c1ccc(C)c2c1[C@H]1C=CC[C@H]1[C@@H](c1ccc(C(=O)NCCCCCCNC(=O)c3ccc(-c4c5nc(c(-c6cc(S(=O)(=O)[O-])ccc6F)c6ccc([nH]6)c(-c6cc(S(=O)(=O)[O-])ccc6F)c6nc(c(-c7cc(S(=O)(=O)[O-])ccc7F)c7ccc4[nH]7)C=C6)C=C5)cc3)cc1)N2
REMARK SMILES IDX 27 1 26 2 25 3 24 4 22 5 23 6 21 8 18 9 19 10 98 11 20 12
REMARK SMILES IDX 97 13 17 14 5 15 6 16 11 17 7 18 10 19 12 20 8 21 99 22
REMARK SMILES IDX 13 23 16 24 9 25 14 27 15 28 3 29 4 30 2 31 1 32 28 33 29 34
REMARK SMILES IDX 30 35 31 36 32 37 33 39 34 40 35 41 96 42 36 43 95 44 37 45
REMARK SMILES IDX 38 46 39 47 89 48 40 49 94 50 88 51 90 52 41 53 93 54 87 55
REMARK SMILES IDX 86 56 42 58 74 59 54 60 73 61 55 62 58 63 72 64 91 65 56 66
REMARK SMILES IDX 57 67 71 69 92 70 59 71 43 72 44 73 52 74 45 75 51 76 53 77
REMARK SMILES IDX 50 78 46 79 47 80 48 81 49 82 75 83 76 84 84 85 77 86 83 87
REMARK SMILES IDX 85 88 82 89 78 90 79 91 80 92 81 93 60 94 61 95 69 96 62 97
REMARK SMILES IDX 68 98 70 99 67 100 63 101 64 102 65 103 66 104
REMARK H PARENT 24 7 99 26 31 38 90 57 58 68
REMARK Flexibility Score: inf
ROOT
ATOM      1  C   UNL     1       8.378   0.135  -9.799  1.00  0.00     0.002 C 
ENDROOT
BRANCH   1   2
ATOM      2  C   UNL     1       7.592   1.255  -9.104  1.00  0.00     0.021 C 
BRANCH   2   3
ATOM      3  C   UNL     1       6.202   1.444  -9.714  1.00  0.00     0.116 C 
BRANCH   3   4
ATOM      4  N   UNL     1       5.307   0.453  -9.166  1.00  0.00    -0.352 N 
ATOM      5  C   UNL     1       4.394   0.497  -8.152  1.00  0.00     0.251 C 
ATOM      6  O   UNL     1       3.833  -0.565  -7.869  1.00  0.00    -0.269 OA
ATOM      7  H   UNL     1       5.366  -0.424  -9.608  1.00  0.00     0.163 HD
BRANCH   5   8
ATOM      8  C   UNL     1       4.018   1.740  -7.420  1.00  0.00     0.039 A 
ATOM      9  C   UNL     1       3.099   3.952  -5.880  1.00  0.00    -0.025 A 
ATOM     10  C   UNL     1       2.352   2.770  -5.988  1.00  0.00     0.006 A 
ATOM     11  C   UNL     1       4.296   4.019  -6.604  1.00  0.00     0.006 A 
ATOM     12  C   UNL     1       2.797   1.689  -6.745  1.00  0.00     0.014 A 
ATOM     13  C   UNL     1       4.771   2.911  -7.317  1.00  0.00     0.014 A 
BRANCH   9  14
ATOM     14  C   UNL     1       2.747   5.094  -4.923  1.00  0.00     0.114 C 
ATOM     15  C   UNL     1       0.164   2.879  -2.369  1.00  0.00     0.065 A 
ATOM     16  C   UNL     1      -1.144   2.648  -2.808  1.00  0.00     0.016 A 
ATOM     17  C   UNL     1       1.004   3.788  -3.048  1.00  0.00    -0.003 A 
ATOM     18  C   UNL     1      -1.639   3.339  -3.908  1.00  0.00     0.006 A 
ATOM     19  C   UNL     1       0.479   4.518  -4.149  1.00  0.00     0.042 A 
ATOM     20  C   UNL     1       2.457   3.963  -2.641  1.00  0.00     0.050 C 
ATOM     21  C   UNL     1      -0.845   4.277  -4.585  1.00  0.00    -0.028 A 
ATOM     22  N   UNL     1       1.316   5.341  -4.890  1.00  0.00    -0.377 N 
ATOM     23  C   UNL     1       3.335   2.737  -2.772  1.00  0.00    -0.023 C 
ATOM     24  C   UNL     1       3.261   4.987  -3.470  1.00  0.00     0.031 C 
ATOM     25  C   UNL     1      -1.457   4.933  -5.798  1.00  0.00     0.046 C 
ATOM     26  H   UNL     1       0.937   6.097  -5.395  1.00  0.00     0.161 HD
ATOM     27  C   UNL     1       4.582   3.056  -3.144  1.00  0.00    -0.030 C 
ATOM     28  C   UNL     1       4.724   4.530  -3.343  1.00  0.00     0.034 C 
BRANCH  15  29
ATOM     29  C   UNL     1       0.624   2.162  -1.154  1.00  0.00     0.338 C 
ATOM     30  O   UNL     1       1.180   2.690  -0.209  1.00  0.00    -0.246 OA
BRANCH  29  31
ATOM     31  O   UNL     1       0.351   0.838  -1.289  1.00  0.00    -0.465 OA
ATOM     32  C   UNL     1       0.822   0.047  -0.198  1.00  0.00     0.282 C 
ENDBRANCH  29  31
ENDBRANCH  15  29
ENDBRANCH   9  14
ENDBRANCH   5   8
ENDBRANCH   3   4
ENDBRANCH   2   3
ENDBRANCH   1   2
BRANCH   1  33
ATOM     33  C   UNL     1       8.580   0.355 -11.304  1.00  0.00     0.002 C 
BRANCH  33  34
ATOM     34  C   UNL     1       9.175   1.720 -11.659  1.00  0.00     0.021 C 
BRANCH  34  35
ATOM     35  C   UNL     1      10.564   1.931 -11.073  1.00  0.00     0.116 C 
BRANCH  35  36
ATOM     36  N   UNL     1      11.512   0.985 -11.645  1.00  0.00    -0.352 N 
ATOM     37  C   UNL     1      12.602   1.259 -12.430  1.00  0.00     0.251 C 
ATOM     38  H   UNL     1      11.351   0.035 -11.444  1.00  0.00     0.163 HD
ATOM     39  O   UNL     1      13.150   0.379 -13.084  1.00  0.00    -0.269 OA
BRANCH  37  40
ATOM     40  C   UNL     1      13.093   2.647 -12.464  1.00  0.00     0.039 A 
ATOM     41  C   UNL     1      13.238   3.295 -13.690  1.00  0.00     0.014 A 
ATOM     42  C   UNL     1      13.340   3.313 -11.258  1.00  0.00     0.014 A 
ATOM     43  C   UNL     1      13.595   4.642 -13.703  1.00  0.00     0.010 A 
ATOM     44  C   UNL     1      13.631   4.670 -11.274  1.00  0.00     0.010 A 
ATOM     45  C   UNL     1      13.773   5.342 -12.496  1.00  0.00    -0.014 A 
BRANCH  45  46
ATOM     46  C   UNL     1      14.125   6.779 -12.502  1.00  0.00     0.031 A 
ATOM     47  C   UNL     1      15.479   7.217 -12.024  1.00  0.00     0.074 A 
ATOM     48  C   UNL     1      13.215   7.686 -12.907  1.00  0.00     0.049 A 
ATOM     49  N   UNL     1      15.980   8.422 -11.982  1.00  0.00    -0.248 NA
ATOM     50  C   UNL     1      16.383   6.172 -11.513  1.00  0.00     0.031 C 
ATOM     51  C   UNL     1      11.852   7.375 -13.339  1.00  0.00     0.029 A 
ATOM     52  N   UNL     1      13.298   9.051 -13.022  1.00  0.00    -0.354 N 
ATOM     53  C   UNL     1      17.256   8.281 -11.451  1.00  0.00     0.074 A 
ATOM     54  C   UNL     1      17.431   6.885 -11.125  1.00  0.00     0.031 C 
ATOM     55  C   UNL     1      11.236   8.513 -13.699  1.00  0.00     0.029 A 
ATOM     56  C   UNL     1      12.148   9.637 -13.497  1.00  0.00     0.049 A 
ATOM     57  H   UNL     1      14.105   9.563 -12.786  1.00  0.00     0.167 HD
ATOM     58  C   UNL     1      18.205   9.228 -11.285  1.00  0.00     0.034 A 
ATOM     59  C   UNL     1      11.864  10.931 -13.749  1.00  0.00     0.034 A 
ATOM     60  C   UNL     1      18.028  10.611 -11.637  1.00  0.00     0.049 A 
ATOM     61  C   UNL     1      12.941  11.967 -13.546  1.00  0.00     0.074 A 
ATOM     62  C   UNL     1      18.958  11.633 -11.565  1.00  0.00     0.029 A 
ATOM     63  N   UNL     1      16.856  11.168 -12.125  1.00  0.00    -0.354 N 
ATOM     64  N   UNL     1      14.181  11.799 -13.152  1.00  0.00    -0.248 NA
ATOM     65  C   UNL     1      12.588  13.364 -13.832  1.00  0.00     0.031 C 
ATOM     66  C   UNL     1      18.333  12.818 -11.952  1.00  0.00     0.029 A 
ATOM     67  C   UNL     1      17.031  12.526 -12.327  1.00  0.00     0.049 A 
ATOM     68  H   UNL     1      16.024  10.672 -12.300  1.00  0.00     0.167 HD
ATOM     69  C   UNL     1      14.762  13.064 -13.167  1.00  0.00     0.074 A 
ATOM     70  C   UNL     1      13.746  13.982 -13.636  1.00  0.00     0.031 C 
ATOM     71  C   UNL     1      16.019  13.431 -12.814  1.00  0.00     0.034 A 
BRANCH  58  72
ATOM     72  C   UNL     1      19.548   8.821 -10.743  1.00  0.00     0.023 A 
ATOM     73  C   UNL     1      19.992   9.335  -9.513  1.00  0.00     0.031 A 
ATOM     74  C   UNL     1      20.445   8.069 -11.521  1.00  0.00     0.131 A 
ATOM     75  C   UNL     1      21.321   9.137  -9.121  1.00  0.00     0.055 A 
ATOM     76  C   UNL     1      21.756   7.841 -11.107  1.00  0.00     0.041 A 
ATOM     77  F   UNL     1      20.059   7.553 -12.700  1.00  0.00    -0.206 F 
ATOM     78  C   UNL     1      22.204   8.391  -9.909  1.00  0.00     0.022 A 
BRANCH  75  79
ATOM     79  S   UNL     1      21.965   9.891  -7.604  1.00  0.00     0.124 S 
ATOM     80  O   UNL     1      22.581   8.747  -6.934  1.00  0.00    -0.237 OA
ATOM     81  O   UNL     1      22.898  10.882  -8.132  1.00  0.00    -0.237 OA
ATOM     82  O   UNL     1      20.777  10.423  -6.947  1.00  0.00    -0.744 OA
ENDBRANCH  75  79
ENDBRANCH  58  72
BRANCH  59  83
ATOM     83  C   UNL     1      10.521  11.298 -14.281  1.00  0.00     0.023 A 
ATOM     84  C   UNL     1       9.358  11.086 -13.520  1.00  0.00     0.031 A 
ATOM     85  C   UNL     1      10.377  11.802 -15.585  1.00  0.00     0.131 A 
ATOM     86  C   UNL     1       8.101  11.330 -14.087  1.00  0.00     0.055 A 
ATOM     87  C   UNL     1       9.126  12.104 -16.123  1.00  0.00     0.041 A 
ATOM     88  F   UNL     1      11.458  12.009 -16.352  1.00  0.00    -0.206 F 
ATOM     89  C   UNL     1       7.978  11.856 -15.377  1.00  0.00     0.022 A 
BRANCH  86  90
ATOM     90  S   UNL     1       6.581  10.885 -13.202  1.00  0.00     0.124 S 
ATOM     91  O   UNL     1       5.861  12.154 -13.171  1.00  0.00    -0.237 OA
ATOM     92  O   UNL     1       6.018   9.860 -14.077  1.00  0.00    -0.237 OA
ATOM     93  O   UNL     1       7.061  10.402 -11.911  1.00  0.00    -0.744 OA
ENDBRANCH  86  90
ENDBRANCH  59  83
BRANCH  71  94
ATOM     94  C   UNL     1      16.400  14.887 -12.911  1.00  0.00     0.023 A 
ATOM     95  C   UNL     1      17.424  15.291 -13.789  1.00  0.00     0.031 A 
ATOM     96  C   UNL     1      15.859  15.841 -12.032  1.00  0.00     0.131 A 
ATOM     97  C   UNL     1      17.903  16.606 -13.739  1.00  0.00     0.055 A 
ATOM     98  C   UNL     1      16.307  17.162 -12.021  1.00  0.00     0.041 A 
ATOM     99  F   UNL     1      14.888  15.499 -11.170  1.00  0.00    -0.206 F 
ATOM    100  C   UNL     1      17.343  17.546 -12.867  1.00  0.00     0.022 A 
BRANCH  97 101
ATOM    101  S   UNL     1      19.314  17.127 -14.753  1.00  0.00     0.124 S 
ATOM    102  O   UNL     1      18.755  18.254 -15.495  1.00  0.00    -0.237 OA
ATOM    103  O   UNL     1      20.306  17.477 -13.740  1.00  0.00    -0.237 OA
ATOM    104  O   UNL     1      19.625  15.949 -15.557  1.00  0.00    -0.744 OA
ENDBRANCH  97 101
ENDBRANCH  71  94
ENDBRANCH  45  46
ENDBRANCH  37  40
ENDBRANCH  35  36
ENDBRANCH  34  35
ENDBRANCH  33  34
ENDBRANCH   1  33
TORSDOF 19
