REMARK SMILES CC(C)[N@@H+]1CC[C@@H]([N@@H+]2CC[C@@H](C(=O)NCCCCCCNC(=O)c3ccc(-c4c5nc(c(-c6cc(S(=O)(=O)[O-])ccc6F)c6ccc([nH]6)c(-c6cc(S(=O)(=O)[O-])ccc6F)c6nc(c(-c7cc(S(=O)(=O)[O-])ccc7F)c7ccc4[nH]7)C=C6)C=C5)cc3)[C@H]2C)C1
REMARK SMILES IDX 18 1 17 2 16 3 15 4 14 5 12 6 13 7 11 9 8 10 9 11 87 12
REMARK SMILES IDX 10 14 88 15 7 16 4 17 5 18 89 19 6 21 2 22 1 23 3 24 19 25
REMARK SMILES IDX 20 26 21 27 22 28 23 30 24 31 25 32 86 33 26 34 85 35 27 36
REMARK SMILES IDX 28 37 29 38 79 39 30 40 84 41 78 42 80 43 31 44 83 45 77 46
REMARK SMILES IDX 76 47 32 49 64 50 44 51 63 52 45 53 48 54 62 55 81 56 46 57
REMARK SMILES IDX 47 58 61 60 82 61 49 62 33 63 34 64 42 65 35 66 41 67 43 68
REMARK SMILES IDX 40 69 36 70 37 71 38 72 39 73 65 74 66 75 74 76 67 77 73 78
REMARK SMILES IDX 75 79 72 80 68 81 69 82 70 83 71 84 50 85 51 86 59 87 52 88
REMARK SMILES IDX 58 89 60 90 57 91 53 92 54 93 55 94 56 95
REMARK H PARENT 14 8 8 13 4 20 21 29 80 48 48 59
REMARK Flexibility Score: inf
ROOT
ATOM      1  C   UNL     1      -8.286   5.632   4.043  1.00  0.00     0.002 C 
ENDROOT
BRANCH   1   2
ATOM      2  C   UNL     1      -7.814   5.047   2.708  1.00  0.00     0.002 C 
BRANCH   2   3
ATOM      3  C   UNL     1      -6.321   4.699   2.648  1.00  0.00     0.021 C 
BRANCH   3   4
ATOM      4  C   UNL     1      -5.839   3.825   3.806  1.00  0.00     0.116 C 
BRANCH   4   5
ATOM      5  N   UNL     1      -6.573   2.573   3.851  1.00  0.00    -0.356 N 
ATOM      6  C   UNL     1      -6.202   1.315   3.499  1.00  0.00     0.229 C 
ATOM      7  O   UNL     1      -7.083   0.457   3.424  1.00  0.00    -0.275 OA
ATOM      8  H   UNL     1      -7.492   2.649   4.195  1.00  0.00     0.163 HD
BRANCH   6   9
ATOM      9  C   UNL     1      -4.752   1.027   3.171  1.00  0.00     0.142 C 
ATOM     10  N   UNL     1      -3.499  -1.043   2.995  1.00  0.00    -0.325 N 
ATOM     11  C   UNL     1      -4.259  -0.841   1.755  1.00  0.00     0.263 C 
ATOM     12  C   UNL     1      -4.083  -0.102   3.982  1.00  0.00     0.194 C 
ATOM     13  H   UNL     1      -3.598  -2.017   3.281  1.00  0.00     0.348 HD
ATOM     14  C   UNL     1      -4.631   0.625   1.707  1.00  0.00     0.081 C 
ATOM     15  C   UNL     1      -4.968  -0.858   4.972  1.00  0.00     0.076 C 
BRANCH  10  16
ATOM     16  C   UNL     1      -2.027  -0.945   2.896  1.00  0.00     0.245 C 
ATOM     17  N   UNL     1      -0.611  -1.032   0.896  1.00  0.00    -0.328 N 
ATOM     18  C   UNL     1      -1.041   0.346   1.126  1.00  0.00     0.269 C 
ATOM     19  C   UNL     1      -1.362  -1.879   1.847  1.00  0.00     0.328 C 
ATOM     20  H   UNL     1      -0.838  -1.291  -0.064  1.00  0.00     0.348 HD
ATOM     21  C   UNL     1      -1.417   0.421   2.588  1.00  0.00     0.132 C 
BRANCH  17  22
ATOM     22  C   UNL     1       0.841  -1.262   0.873  1.00  0.00     0.177 C 
ATOM     23  C   UNL     1       1.500  -0.462  -0.262  1.00  0.00     0.075 C 
ATOM     24  C   UNL     1       1.585  -0.992   2.186  1.00  0.00     0.075 C 
ENDBRANCH  17  22
ENDBRANCH  10  16
ENDBRANCH   6   9
ENDBRANCH   4   5
ENDBRANCH   3   4
ENDBRANCH   2   3
ENDBRANCH   1   2
BRANCH   1  25
ATOM     25  C   UNL     1      -7.526   6.878   4.502  1.00  0.00     0.021 C 
BRANCH  25  26
ATOM     26  C   UNL     1      -7.584   8.042   3.521  1.00  0.00     0.116 C 
BRANCH  26  27
ATOM     27  N   UNL     1      -8.944   8.517   3.326  1.00  0.00    -0.352 N 
ATOM     28  C   UNL     1      -9.441   9.788   3.467  1.00  0.00     0.251 C 
ATOM     29  H   UNL     1      -9.598   7.833   3.056  1.00  0.00     0.163 HD
ATOM     30  O   UNL     1     -10.656   9.972   3.481  1.00  0.00    -0.269 OA
BRANCH  28  31
ATOM     31  C   UNL     1      -8.507  10.923   3.625  1.00  0.00     0.039 A 
ATOM     32  C   UNL     1      -8.768  11.885   4.603  1.00  0.00     0.014 A 
ATOM     33  C   UNL     1      -7.370  11.028   2.819  1.00  0.00     0.014 A 
ATOM     34  C   UNL     1      -7.856  12.922   4.810  1.00  0.00     0.010 A 
ATOM     35  C   UNL     1      -6.424  12.014   3.081  1.00  0.00     0.010 A 
ATOM     36  C   UNL     1      -6.659  12.975   4.077  1.00  0.00    -0.014 A 
BRANCH  36  37
ATOM     37  C   UNL     1      -5.645  14.031   4.332  1.00  0.00     0.031 A 
ATOM     38  C   UNL     1      -5.295  15.015   3.248  1.00  0.00     0.074 A 
ATOM     39  C   UNL     1      -5.002  14.069   5.515  1.00  0.00     0.049 A 
ATOM     40  N   UNL     1      -4.388  15.959   3.248  1.00  0.00    -0.248 NA
ATOM     41  C   UNL     1      -6.045  14.903   1.988  1.00  0.00     0.031 C 
ATOM     42  C   UNL     1      -5.232  13.148   6.631  1.00  0.00     0.029 A 
ATOM     43  N   UNL     1      -4.020  14.909   5.979  1.00  0.00    -0.354 N 
ATOM     44  C   UNL     1      -4.452  16.546   1.988  1.00  0.00     0.074 A 
ATOM     45  C   UNL     1      -5.439  15.805   1.232  1.00  0.00     0.031 C 
ATOM     46  C   UNL     1      -4.437  13.492   7.657  1.00  0.00     0.029 A 
ATOM     47  C   UNL     1      -3.601  14.620   7.258  1.00  0.00     0.049 A 
ATOM     48  H   UNL     1      -3.649  15.649   5.446  1.00  0.00     0.167 HD
ATOM     49  C   UNL     1      -3.768  17.617   1.516  1.00  0.00     0.034 A 
ATOM     50  C   UNL     1      -2.643  15.188   8.017  1.00  0.00     0.034 A 
ATOM     51  C   UNL     1      -2.792  18.348   2.288  1.00  0.00     0.049 A 
ATOM     52  C   UNL     1      -1.864  16.351   7.453  1.00  0.00     0.074 A 
ATOM     53  C   UNL     1      -2.077  19.476   1.926  1.00  0.00     0.029 A 
ATOM     54  N   UNL     1      -2.385  18.017   3.575  1.00  0.00    -0.354 N 
ATOM     55  N   UNL     1      -1.969  16.923   6.276  1.00  0.00    -0.248 NA
ATOM     56  C   UNL     1      -0.845  16.949   8.324  1.00  0.00     0.031 C 
ATOM     57  C   UNL     1      -1.183  19.778   2.958  1.00  0.00     0.029 A 
ATOM     58  C   UNL     1      -1.402  18.897   4.005  1.00  0.00     0.049 A 
ATOM     59  H   UNL     1      -2.742  17.268   4.105  1.00  0.00     0.167 HD
ATOM     60  C   UNL     1      -1.053  17.973   6.282  1.00  0.00     0.074 A 
ATOM     61  C   UNL     1      -0.417  17.960   7.583  1.00  0.00     0.031 C 
ATOM     62  C   UNL     1      -0.768  18.869   5.303  1.00  0.00     0.034 A 
BRANCH  49  63
ATOM     63  C   UNL     1      -4.035  18.041   0.090  1.00  0.00     0.023 A 
ATOM     64  C   UNL     1      -5.307  18.470  -0.328  1.00  0.00     0.031 A 
ATOM     65  C   UNL     1      -3.010  17.995  -0.871  1.00  0.00     0.131 A 
ATOM     66  C   UNL     1      -5.541  18.758  -1.681  1.00  0.00     0.055 A 
ATOM     67  C   UNL     1      -3.227  18.369  -2.199  1.00  0.00     0.041 A 
ATOM     68  F   UNL     1      -1.780  17.572  -0.540  1.00  0.00    -0.206 F 
ATOM     69  C   UNL     1      -4.503  18.738  -2.615  1.00  0.00     0.022 A 
BRANCH  66  70
ATOM     70  S   UNL     1      -7.252  19.007  -2.230  1.00  0.00     0.124 S 
ATOM     71  O   UNL     1      -7.875  17.747  -1.831  1.00  0.00    -0.237 OA
ATOM     72  O   UNL     1      -7.656  20.188  -1.476  1.00  0.00    -0.237 OA
ATOM     73  O   UNL     1      -7.124  19.200  -3.673  1.00  0.00    -0.744 OA
ENDBRANCH  66  70
ENDBRANCH  49  63
BRANCH  50  74
ATOM     74  C   UNL     1      -2.350  14.666   9.383  1.00  0.00     0.023 A 
ATOM     75  C   UNL     1      -2.537  15.468  10.520  1.00  0.00     0.031 A 
ATOM     76  C   UNL     1      -1.831  13.372   9.570  1.00  0.00     0.131 A 
ATOM     77  C   UNL     1      -2.159  14.990  11.785  1.00  0.00     0.055 A 
ATOM     78  C   UNL     1      -1.514  12.878  10.837  1.00  0.00     0.041 A 
ATOM     79  F   UNL     1      -1.633  12.560   8.519  1.00  0.00    -0.206 F 
ATOM     80  C   UNL     1      -1.664  13.696  11.953  1.00  0.00     0.022 A 
BRANCH  77  81
ATOM     81  S   UNL     1      -2.229  16.125  13.198  1.00  0.00     0.124 S 
ATOM     82  O   UNL     1      -1.362  17.209  12.750  1.00  0.00    -0.237 OA
ATOM     83  O   UNL     1      -3.654  16.430  13.270  1.00  0.00    -0.237 OA
ATOM     84  O   UNL     1      -1.708  15.324  14.303  1.00  0.00    -0.744 OA
ENDBRANCH  77  81
ENDBRANCH  50  74
BRANCH  62  85
ATOM     85  C   UNL     1       0.242  19.945   5.625  1.00  0.00     0.023 A 
ATOM     86  C   UNL     1       1.593  19.647   5.872  1.00  0.00     0.031 A 
ATOM     87  C   UNL     1      -0.159  21.292   5.691  1.00  0.00     0.131 A 
ATOM     88  C   UNL     1       2.482  20.673   6.230  1.00  0.00     0.055 A 
ATOM     89  C   UNL     1       0.743  22.316   5.979  1.00  0.00     0.041 A 
ATOM     90  F   UNL     1      -1.438  21.636   5.468  1.00  0.00    -0.206 F 
ATOM     91  C   UNL     1       2.070  22.008   6.265  1.00  0.00     0.022 A 
BRANCH  88  92
ATOM     92  S   UNL     1       4.163  20.229   6.746  1.00  0.00     0.124 S 
ATOM     93  O   UNL     1       3.908  19.338   7.873  1.00  0.00    -0.237 OA
ATOM     94  O   UNL     1       4.703  19.600   5.545  1.00  0.00    -0.237 OA
ATOM     95  O   UNL     1       4.765  21.514   7.095  1.00  0.00    -0.744 OA
ENDBRANCH  88  92
ENDBRANCH  62  85
ENDBRANCH  36  37
ENDBRANCH  28  31
ENDBRANCH  26  27
ENDBRANCH  25  26
ENDBRANCH   1  25
TORSDOF 18
