REMARK SMILES CC(C)[NH2+][C@]1(C(=O)NCCCCCCNC(=O)c2ccc(-c3c4nc(c(-c5cc(S(=O)(=O)[O-])ccc5F)c5ccc([nH]5)c(-c5cc(S(=O)(=O)[O-])ccc5F)c5nc(c(-c6cc(S(=O)(=O)[O-])ccc6F)c6ccc3[nH]6)C=C5)C=C4)cc2)CCC[C@H]([N@@H+](C)C2CCCCC2)C1
REMARK SMILES IDX 12 1 11 2 10 3 9 4 8 5 6 6 7 7 5 9 81 10 93 11 82 12 84 13
REMARK SMILES IDX 83 14 4 15 2 18 1 19 3 20 85 21 86 22 87 24 88 25 92 26
REMARK SMILES IDX 89 27 91 28 90 29 13 30 14 31 15 32 16 33 17 35 18 36 19 37
REMARK SMILES IDX 80 38 20 39 79 40 21 41 22 42 23 43 73 44 24 45 78 46 72 47
REMARK SMILES IDX 74 48 25 49 77 50 71 51 70 52 26 54 58 55 38 56 57 57 39 58
REMARK SMILES IDX 42 59 56 60 75 61 40 62 41 63 55 65 76 66 43 67 27 68 28 69
REMARK SMILES IDX 36 70 29 71 35 72 37 73 34 74 30 75 31 76 32 77 33 78 59 79
REMARK SMILES IDX 60 80 68 81 61 82 67 83 69 84 66 85 62 86 63 87 64 88 65 89
REMARK SMILES IDX 44 90 45 91 53 92 46 93 52 94 54 95 51 96 47 97 48 98 49 99
REMARK SMILES IDX 50 100
REMARK H PARENT 8 8 4 16 4 17 85 23 15 34 74 53 42 64
REMARK Flexibility Score: inf
ROOT
ATOM      1  C   UNL     1       1.696   2.314   3.620  1.00  0.00     0.002 C 
ENDROOT
BRANCH   1   2
ATOM      2  C   UNL     1       0.235   1.870   3.461  1.00  0.00     0.002 C 
BRANCH   2   3
ATOM      3  C   UNL     1      -0.525   2.575   2.336  1.00  0.00     0.021 C 
BRANCH   3   4
ATOM      4  C   UNL     1       0.095   2.319   0.966  1.00  0.00     0.116 C 
BRANCH   4   5
ATOM      5  N   UNL     1      -0.579   1.220   0.300  1.00  0.00    -0.351 N 
ATOM      6  C   UNL     1      -1.375   1.064  -0.781  1.00  0.00     0.281 C 
ATOM      7  O   UNL     1      -1.780  -0.103  -0.946  1.00  0.00    -0.268 OA
ATOM      8  H   UNL     1      -0.413   0.363   0.755  1.00  0.00     0.163 HD
BRANCH   6   9
ATOM      9  C   UNL     1      -1.802   2.163  -1.848  1.00  0.00     0.181 C 
ATOM     10  C   UNL     1      -3.243   2.592  -1.501  1.00  0.00     0.079 C 
ATOM     11  C   UNL     1      -0.953   3.444  -1.725  1.00  0.00     0.144 C 
ATOM     12  C   UNL     1      -3.766   3.788  -2.310  1.00  0.00     0.013 C 
ATOM     13  C   UNL     1      -1.281   4.623  -2.655  1.00  0.00     0.190 C 
ATOM     14  C   UNL     1      -2.784   4.959  -2.431  1.00  0.00     0.065 C 
BRANCH   9  15
ATOM     15  N   UNL     1      -1.601   1.423  -3.137  1.00  0.00    -0.331 N 
ATOM     16  H   UNL     1      -0.642   1.615  -3.427  1.00  0.00     0.347 HD
ATOM     17  H   UNL     1      -1.868   0.474  -2.877  1.00  0.00     0.347 HD
BRANCH  15  18
ATOM     18  C   UNL     1      -2.434   1.655  -4.314  1.00  0.00     0.176 C 
ATOM     19  C   UNL     1      -1.636   1.186  -5.539  1.00  0.00     0.075 C 
ATOM     20  C   UNL     1      -3.764   0.890  -4.318  1.00  0.00     0.075 C 
ENDBRANCH  15  18
ENDBRANCH   9  15
BRANCH  13  21
ATOM     21  N   UNL     1      -0.706   4.399  -3.987  1.00  0.00    -0.332 N 
ATOM     22  C   UNL     1      -1.338   4.994  -5.142  1.00  0.00     0.333 C 
ATOM     23  H   UNL     1      -1.060   3.455  -4.140  1.00  0.00     0.348 HD
BRANCH  21  24
ATOM     24  C   UNL     1       0.768   4.198  -4.044  1.00  0.00     0.184 C 
ATOM     25  C   UNL     1       1.365   4.071  -5.464  1.00  0.00     0.065 C 
ATOM     26  C   UNL     1       1.619   5.226  -3.247  1.00  0.00     0.065 C 
ATOM     27  C   UNL     1       2.832   3.639  -5.408  1.00  0.00     0.006 C 
ATOM     28  C   UNL     1       3.104   4.845  -3.216  1.00  0.00     0.006 C 
ATOM     29  C   UNL     1       3.677   4.623  -4.609  1.00  0.00     0.000 C 
ENDBRANCH  21  24
ENDBRANCH  13  21
ENDBRANCH   6   9
ENDBRANCH   4   5
ENDBRANCH   3   4
ENDBRANCH   2   3
ENDBRANCH   1   2
BRANCH   1  30
ATOM     30  C   UNL     1       1.906   3.825   3.767  1.00  0.00     0.021 C 
BRANCH  30  31
ATOM     31  C   UNL     1       1.157   4.455   4.938  1.00  0.00     0.116 C 
BRANCH  31  32
ATOM     32  N   UNL     1       1.521   3.832   6.199  1.00  0.00    -0.352 N 
ATOM     33  C   UNL     1       2.045   4.393   7.334  1.00  0.00     0.251 C 
ATOM     34  H   UNL     1       1.368   2.860   6.244  1.00  0.00     0.163 HD
ATOM     35  O   UNL     1       2.534   3.669   8.194  1.00  0.00    -0.269 OA
BRANCH  33  36
ATOM     36  C   UNL     1       2.026   5.861   7.512  1.00  0.00     0.039 A 
ATOM     37  C   UNL     1       3.148   6.484   8.062  1.00  0.00     0.014 A 
ATOM     38  C   UNL     1       0.896   6.614   7.177  1.00  0.00     0.014 A 
ATOM     39  C   UNL     1       3.154   7.869   8.234  1.00  0.00     0.010 A 
ATOM     40  C   UNL     1       0.929   8.002   7.286  1.00  0.00     0.010 A 
ATOM     41  C   UNL     1       2.055   8.642   7.823  1.00  0.00    -0.014 A 
BRANCH  41  42
ATOM     42  C   UNL     1       2.080  10.122   7.949  1.00  0.00     0.031 A 
ATOM     43  C   UNL     1       1.131  10.822   8.881  1.00  0.00     0.074 A 
ATOM     44  C   UNL     1       2.937  10.832   7.189  1.00  0.00     0.049 A 
ATOM     45  N   UNL     1       0.991  12.103   9.111  1.00  0.00    -0.248 NA
ATOM     46  C   UNL     1       0.197   9.972   9.635  1.00  0.00     0.031 C 
ATOM     47  C   UNL     1       3.871  10.261   6.215  1.00  0.00     0.029 A 
ATOM     48  N   UNL     1       3.162  12.182   7.111  1.00  0.00    -0.354 N 
ATOM     49  C   UNL     1      -0.047  12.213  10.030  1.00  0.00     0.074 A 
ATOM     50  C   UNL     1      -0.541  10.873  10.264  1.00  0.00     0.031 C 
ATOM     51  C   UNL     1       4.590  11.251   5.663  1.00  0.00     0.029 A 
ATOM     52  C   UNL     1       4.141  12.528   6.208  1.00  0.00     0.049 A 
ATOM     53  H   UNL     1       2.670  12.842   7.651  1.00  0.00     0.167 HD
ATOM     54  C   UNL     1      -0.525  13.327  10.639  1.00  0.00     0.034 A 
ATOM     55  C   UNL     1       4.619  13.738   5.856  1.00  0.00     0.034 A 
ATOM     56  C   UNL     1      -0.013  14.655  10.395  1.00  0.00     0.049 A 
ATOM     57  C   UNL     1       4.058  14.962   6.533  1.00  0.00     0.074 A 
ATOM     58  C   UNL     1      -0.384  15.847  10.995  1.00  0.00     0.029 A 
ATOM     59  N   UNL     1       0.973  14.970   9.467  1.00  0.00    -0.354 N 
ATOM     60  N   UNL     1       3.117  15.044   7.446  1.00  0.00    -0.248 NA
ATOM     61  C   UNL     1       4.634  16.254   6.141  1.00  0.00     0.031 C 
ATOM     62  C   UNL     1       0.326  16.886  10.383  1.00  0.00     0.029 A 
ATOM     63  C   UNL     1       1.198  16.339   9.455  1.00  0.00     0.049 A 
ATOM     64  H   UNL     1       1.443  14.317   8.901  1.00  0.00     0.167 HD
ATOM     65  C   UNL     1       3.008  16.397   7.755  1.00  0.00     0.074 A 
ATOM     66  C   UNL     1       3.994  17.087   6.947  1.00  0.00     0.031 C 
ATOM     67  C   UNL     1       2.170  17.015   8.627  1.00  0.00     0.034 A 
BRANCH  54  68
ATOM     68  C   UNL     1      -1.673  13.153  11.606  1.00  0.00     0.023 A 
ATOM     69  C   UNL     1      -1.542  12.389  12.780  1.00  0.00     0.031 A 
ATOM     70  C   UNL     1      -2.924  13.738  11.342  1.00  0.00     0.131 A 
ATOM     71  C   UNL     1      -2.658  12.166  13.602  1.00  0.00     0.055 A 
ATOM     72  C   UNL     1      -4.009  13.581  12.207  1.00  0.00     0.041 A 
ATOM     73  F   UNL     1      -3.119  14.462  10.228  1.00  0.00    -0.206 F 
ATOM     74  C   UNL     1      -3.884  12.779  13.337  1.00  0.00     0.022 A 
BRANCH  71  75
ATOM     75  S   UNL     1      -2.519  10.949  14.940  1.00  0.00     0.124 S 
ATOM     76  O   UNL     1      -2.158   9.741  14.203  1.00  0.00    -0.237 OA
ATOM     77  O   UNL     1      -1.474  11.522  15.780  1.00  0.00    -0.237 OA
ATOM     78  O   UNL     1      -3.857  10.934  15.529  1.00  0.00    -0.744 OA
ENDBRANCH  71  75
ENDBRANCH  54  68
BRANCH  55  79
ATOM     79  C   UNL     1       5.678  13.856   4.815  1.00  0.00     0.023 A 
ATOM     80  C   UNL     1       6.953  14.352   5.133  1.00  0.00     0.031 A 
ATOM     81  C   UNL     1       5.420  13.508   3.477  1.00  0.00     0.131 A 
ATOM     82  C   UNL     1       7.906  14.530   4.119  1.00  0.00     0.055 A 
ATOM     83  C   UNL     1       6.390  13.637   2.481  1.00  0.00     0.041 A 
ATOM     84  F   UNL     1       4.221  13.022   3.121  1.00  0.00    -0.206 F 
ATOM     85  C   UNL     1       7.638  14.164   2.798  1.00  0.00     0.022 A 
BRANCH  82  86
ATOM     86  S   UNL     1       9.480  15.329   4.538  1.00  0.00     0.124 S 
ATOM     87  O   UNL     1       9.031  16.605   5.082  1.00  0.00    -0.237 OA
ATOM     88  O   UNL     1      10.050  14.387   5.496  1.00  0.00    -0.237 OA
ATOM     89  O   UNL     1      10.174  15.406   3.254  1.00  0.00    -0.744 OA
ENDBRANCH  82  86
ENDBRANCH  55  79
BRANCH  67  90
ATOM     90  C   UNL     1       2.316  18.511   8.765  1.00  0.00     0.023 A 
ATOM     91  C   UNL     1       2.015  19.383   7.704  1.00  0.00     0.031 A 
ATOM     92  C   UNL     1       2.788  19.069   9.966  1.00  0.00     0.131 A 
ATOM     93  C   UNL     1       2.252  20.759   7.841  1.00  0.00     0.055 A 
ATOM     94  C   UNL     1       2.960  20.446  10.118  1.00  0.00     0.041 A 
ATOM     95  F   UNL     1       3.094  18.284  11.012  1.00  0.00    -0.206 F 
ATOM     96  C   UNL     1       2.706  21.297   9.047  1.00  0.00     0.022 A 
BRANCH  93  97
ATOM     97  S   UNL     1       2.057  21.823   6.386  1.00  0.00     0.124 S 
ATOM     98  O   UNL     1       2.988  21.217   5.439  1.00  0.00    -0.237 OA
ATOM     99  O   UNL     1       0.640  21.669   6.073  1.00  0.00    -0.237 OA
ATOM    100  O   UNL     1       2.444  23.146   6.874  1.00  0.00    -0.744 OA
ENDBRANCH  93  97
ENDBRANCH  67  90
ENDBRANCH  41  42
ENDBRANCH  33  36
ENDBRANCH  31  32
ENDBRANCH  30  31
ENDBRANCH   1  30
TORSDOF 20
