REMARK SMILES Cc1ccc(S(=O)(=O)N[C@@H](Cc2cccc(F)c2)C(=O)NCCCCCCNC(=O)c2ccc(-c3c4nc(c(-c5cc(S(=O)(=O)[O-])ccc5F)c5ccc([nH]5)c(-c5cc(S(=O)(=O)[O-])ccc5F)c5nc(c(-c6cc(S(=O)(=O)[O-])ccc6F)c6ccc3[nH]6)C=C5)C=C4)cc2)cc1
REMARK SMILES IDX 24 1 23 2 22 3 21 4 19 5 20 6 10 8 9 9 6 11 7 12 8 13 5 14
REMARK SMILES IDX 1 15 2 16 3 17 95 18 4 19 94 20 11 21 12 22 13 23 18 24
REMARK SMILES IDX 14 25 16 26 15 27 17 28 25 29 26 30 27 31 28 32 29 33 30 35
REMARK SMILES IDX 31 36 32 37 93 38 33 39 92 40 34 41 35 42 36 43 86 44 37 45
REMARK SMILES IDX 91 46 85 47 87 48 38 49 90 50 84 51 83 52 39 54 71 55 51 56
REMARK SMILES IDX 70 57 52 58 55 59 69 60 88 61 53 62 54 63 68 65 89 66 56 67
REMARK SMILES IDX 40 68 41 69 49 70 42 71 48 72 50 73 47 74 43 75 44 76 45 77
REMARK SMILES IDX 46 78 72 79 73 80 81 81 74 82 80 83 82 84 79 85 75 86 76 87
REMARK SMILES IDX 77 88 78 89 57 90 58 91 66 92 59 93 65 94 67 95 64 96 60 97
REMARK SMILES IDX 61 98 62 99 63 100
REMARK H PARENT 21 7 9 10 28 34 87 53 55 64
REMARK Flexibility Score: inf
ROOT
ATOM      1  C   UNL     1      -8.412   4.737  -0.101  1.00  0.00     0.002 C 
ENDROOT
BRANCH   1   2
ATOM      2  C   UNL     1      -7.747   3.366   0.083  1.00  0.00     0.021 C 
BRANCH   2   3
ATOM      3  C   UNL     1      -6.582   3.074  -0.858  1.00  0.00     0.116 C 
BRANCH   3   4
ATOM      4  N   UNL     1      -5.430   3.916  -0.589  1.00  0.00    -0.355 N 
ATOM      5  C   UNL     1      -4.112   3.685  -0.853  1.00  0.00     0.238 C 
ATOM      6  O   UNL     1      -3.293   4.571  -0.592  1.00  0.00    -0.273 OA
ATOM      7  H   UNL     1      -5.628   4.776  -0.154  1.00  0.00     0.163 HD
BRANCH   5   8
ATOM      8  C   UNL     1      -3.630   2.324  -1.388  1.00  0.00     0.163 C 
BRANCH   8   9
ATOM      9  N   UNL     1      -3.873   1.402  -0.251  1.00  0.00    -0.198 NA
ATOM     10  H   UNL     1      -3.463   1.863   0.562  1.00  0.00     0.142 HD
BRANCH   9  11
ATOM     11  S   UNL     1      -3.369  -0.170  -0.159  1.00  0.00     0.241 S 
ATOM     12  O   UNL     1      -3.644  -0.803  -1.429  1.00  0.00    -0.207 OA
ATOM     13  O   UNL     1      -3.904  -0.690   1.079  1.00  0.00    -0.207 OA
BRANCH  11  14
ATOM     14  C   UNL     1      -1.611  -0.109   0.030  1.00  0.00     0.082 A 
ATOM     15  C   UNL     1       2.680  -0.065   0.081  1.00  0.00     0.044 C 
ATOM     16  C   UNL     1       1.181  -0.080   0.091  1.00  0.00    -0.051 A 
ATOM     17  C   UNL     1       0.494  -1.277  -0.147  1.00  0.00     0.005 A 
ATOM     18  C   UNL     1       0.454   1.089   0.356  1.00  0.00     0.005 A 
ATOM     19  C   UNL     1      -0.899  -1.292  -0.188  1.00  0.00     0.022 A 
ATOM     20  C   UNL     1      -0.941   1.076   0.338  1.00  0.00     0.022 A 
ENDBRANCH  11  14
ENDBRANCH   9  11
ENDBRANCH   8   9
BRANCH   8  21
ATOM     21  C   UNL     1      -4.233   1.828  -2.713  1.00  0.00     0.065 C 
BRANCH  21  22
ATOM     22  C   UNL     1      -4.639   2.760  -3.841  1.00  0.00    -0.043 A 
ATOM     23  C   UNL     1      -5.307   2.175  -4.937  1.00  0.00     0.004 A 
ATOM     24  C   UNL     1      -4.445   4.146  -3.865  1.00  0.00     0.043 A 
ATOM     25  C   UNL     1      -5.829   2.951  -5.976  1.00  0.00     0.003 A 
ATOM     26  C   UNL     1      -4.993   4.916  -4.892  1.00  0.00     0.123 A 
ATOM     27  C   UNL     1      -5.693   4.334  -5.939  1.00  0.00     0.039 A 
ATOM     28  F   UNL     1      -4.849   6.247  -4.861  1.00  0.00    -0.207 F 
ENDBRANCH  21  22
ENDBRANCH   8  21
ENDBRANCH   5   8
ENDBRANCH   3   4
ENDBRANCH   2   3
ENDBRANCH   1   2
BRANCH   1  29
ATOM     29  C   UNL     1      -8.939   5.066  -1.506  1.00  0.00     0.002 C 
BRANCH  29  30
ATOM     30  C   UNL     1      -9.807   3.999  -2.173  1.00  0.00     0.021 C 
BRANCH  30  31
ATOM     31  C   UNL     1     -11.086   3.656  -1.419  1.00  0.00     0.116 C 
BRANCH  31  32
ATOM     32  N   UNL     1     -12.293   4.286  -1.938  1.00  0.00    -0.352 N 
ATOM     33  C   UNL     1     -13.613   4.058  -1.585  1.00  0.00     0.251 C 
ATOM     34  H   UNL     1     -12.151   4.968  -2.635  1.00  0.00     0.163 HD
ATOM     35  O   UNL     1     -14.546   4.534  -2.226  1.00  0.00    -0.269 OA
BRANCH  33  36
ATOM     36  C   UNL     1     -13.897   3.363  -0.306  1.00  0.00     0.039 A 
ATOM     37  C   UNL     1     -14.680   4.063   0.623  1.00  0.00     0.014 A 
ATOM     38  C   UNL     1     -13.165   2.248   0.085  1.00  0.00     0.014 A 
ATOM     39  C   UNL     1     -14.499   3.828   1.980  1.00  0.00     0.010 A 
ATOM     40  C   UNL     1     -12.897   2.087   1.427  1.00  0.00     0.010 A 
ATOM     41  C   UNL     1     -13.505   2.932   2.362  1.00  0.00    -0.014 A 
BRANCH  41  42
ATOM     42  C   UNL     1     -12.928   2.903   3.696  1.00  0.00     0.031 A 
ATOM     43  C   UNL     1     -13.246   1.796   4.609  1.00  0.00     0.074 A 
ATOM     44  C   UNL     1     -12.009   3.836   4.025  1.00  0.00     0.049 A 
ATOM     45  N   UNL     1     -13.103   1.836   5.888  1.00  0.00    -0.248 NA
ATOM     46  C   UNL     1     -13.825   0.546   4.135  1.00  0.00     0.031 C 
ATOM     47  C   UNL     1     -11.090   3.828   5.158  1.00  0.00     0.029 A 
ATOM     48  N   UNL     1     -11.893   5.119   3.494  1.00  0.00    -0.354 N 
ATOM     49  C   UNL     1     -13.248   0.551   6.361  1.00  0.00     0.074 A 
ATOM     50  C   UNL     1     -13.809  -0.183   5.254  1.00  0.00     0.031 C 
ATOM     51  C   UNL     1     -10.691   5.088   5.401  1.00  0.00     0.029 A 
ATOM     52  C   UNL     1     -11.465   5.960   4.535  1.00  0.00     0.049 A 
ATOM     53  H   UNL     1     -12.077   5.385   2.564  1.00  0.00     0.167 HD
ATOM     54  C   UNL     1     -12.716   0.238   7.578  1.00  0.00     0.034 A 
ATOM     55  C   UNL     1     -12.267   6.979   4.967  1.00  0.00     0.034 A 
ATOM     56  C   UNL     1     -12.225   1.445   8.255  1.00  0.00     0.049 A 
ATOM     57  C   UNL     1     -12.714   6.811   6.404  1.00  0.00     0.074 A 
ATOM     58  C   UNL     1     -10.957   1.976   8.432  1.00  0.00     0.029 A 
ATOM     59  N   UNL     1     -13.122   2.454   8.594  1.00  0.00    -0.354 N 
ATOM     60  N   UNL     1     -12.662   5.683   7.060  1.00  0.00    -0.248 NA
ATOM     61  C   UNL     1     -13.239   7.902   7.219  1.00  0.00     0.031 C 
ATOM     62  C   UNL     1     -11.102   3.345   8.788  1.00  0.00     0.029 A 
ATOM     63  C   UNL     1     -12.455   3.633   8.871  1.00  0.00     0.049 A 
ATOM     64  H   UNL     1     -14.100   2.344   8.630  1.00  0.00     0.167 HD
ATOM     65  C   UNL     1     -13.123   5.866   8.339  1.00  0.00     0.074 A 
ATOM     66  C   UNL     1     -13.456   7.280   8.392  1.00  0.00     0.031 C 
ATOM     67  C   UNL     1     -13.192   4.837   9.240  1.00  0.00     0.034 A 
BRANCH  54  68
ATOM     68  C   UNL     1     -12.332  -1.168   8.012  1.00  0.00     0.023 A 
ATOM     69  C   UNL     1     -11.324  -1.325   8.989  1.00  0.00     0.031 A 
ATOM     70  C   UNL     1     -12.825  -2.376   7.477  1.00  0.00     0.131 A 
ATOM     71  C   UNL     1     -10.784  -2.587   9.305  1.00  0.00     0.055 A 
ATOM     72  C   UNL     1     -12.262  -3.629   7.758  1.00  0.00     0.041 A 
ATOM     73  F   UNL     1     -13.910  -2.423   6.700  1.00  0.00    -0.206 F 
ATOM     74  C   UNL     1     -11.225  -3.740   8.666  1.00  0.00     0.022 A 
BRANCH  71  75
ATOM     75  S   UNL     1      -9.484  -2.703  10.563  1.00  0.00     0.124 S 
ATOM     76  O   UNL     1      -8.419  -1.893   9.981  1.00  0.00    -0.237 OA
ATOM     77  O   UNL     1     -10.145  -2.154  11.742  1.00  0.00    -0.237 OA
ATOM     78  O   UNL     1      -9.203  -4.137  10.629  1.00  0.00    -0.744 OA
ENDBRANCH  71  75
ENDBRANCH  54  68
BRANCH  55  79
ATOM     79  C   UNL     1     -13.052   7.599   3.857  1.00  0.00     0.023 A 
ATOM     80  C   UNL     1     -12.306   8.139   2.784  1.00  0.00     0.031 A 
ATOM     81  C   UNL     1     -14.396   7.282   3.623  1.00  0.00     0.131 A 
ATOM     82  C   UNL     1     -12.842   8.164   1.488  1.00  0.00     0.055 A 
ATOM     83  C   UNL     1     -14.953   7.386   2.339  1.00  0.00     0.041 A 
ATOM     84  F   UNL     1     -15.149   6.737   4.589  1.00  0.00    -0.206 F 
ATOM     85  C   UNL     1     -14.162   7.778   1.256  1.00  0.00     0.022 A 
BRANCH  82  86
ATOM     86  S   UNL     1     -11.703   8.416   0.089  1.00  0.00     0.124 S 
ATOM     87  O   UNL     1     -11.702   9.868  -0.042  1.00  0.00    -0.237 OA
ATOM     88  O   UNL     1     -10.460   7.819   0.574  1.00  0.00    -0.237 OA
ATOM     89  O   UNL     1     -12.331   7.680  -1.007  1.00  0.00    -0.744 OA
ENDBRANCH  82  86
ENDBRANCH  55  79
BRANCH  67  90
ATOM     90  C   UNL     1     -13.884   4.880  10.589  1.00  0.00     0.023 A 
ATOM     91  C   UNL     1     -14.811   5.867  10.952  1.00  0.00     0.031 A 
ATOM     92  C   UNL     1     -13.686   3.851  11.545  1.00  0.00     0.131 A 
ATOM     93  C   UNL     1     -15.422   5.864  12.220  1.00  0.00     0.055 A 
ATOM     94  C   UNL     1     -14.364   3.799  12.767  1.00  0.00     0.041 A 
ATOM     95  F   UNL     1     -12.831   2.840  11.332  1.00  0.00    -0.206 F 
ATOM     96  C   UNL     1     -15.228   4.821  13.120  1.00  0.00     0.022 A 
BRANCH  93  97
ATOM     97  S   UNL     1     -16.419   7.301  12.692  1.00  0.00     0.124 S 
ATOM     98  O   UNL     1     -15.433   8.378  12.639  1.00  0.00    -0.237 OA
ATOM     99  O   UNL     1     -17.442   7.329  11.652  1.00  0.00    -0.237 OA
ATOM    100  O   UNL     1     -16.899   6.965  14.030  1.00  0.00    -0.744 OA
ENDBRANCH  93  97
ENDBRANCH  67  90
ENDBRANCH  41  42
ENDBRANCH  33  36
ENDBRANCH  31  32
ENDBRANCH  30  31
ENDBRANCH  29  30
ENDBRANCH   1  29
TORSDOF 21
