REMARK SMILES CC(=O)N/N=C\c1ccc(C(=O)NCCCCCCNC(=O)c2ccc(-c3c4nc(c(-c5cc(S(=O)(=O)[O-])ccc5F)c5ccc([nH]5)c(-c5cc(S(=O)(=O)[O-])ccc5F)c5nc(c(-c6cc(S(=O)(=O)[O-])ccc6F)c6ccc3[nH]6)C=C5)C=C4)cc2)cc1
REMARK SMILES IDX 17 1 16 2 15 3 14 4 13 5 11 6 12 7 10 9 7 10 8 11 87 12 9 13
REMARK SMILES IDX 86 14 6 15 5 16 4 17 1 18 2 19 3 20 18 22 19 23 20 24 21 25
REMARK SMILES IDX 22 27 23 28 24 29 85 30 25 31 84 32 26 33 27 34 28 35 78 36
REMARK SMILES IDX 29 37 83 38 77 39 79 40 30 41 82 42 76 43 75 44 31 46 63 47
REMARK SMILES IDX 43 48 62 49 44 50 47 51 61 52 80 53 45 54 46 55 60 57 81 58
REMARK SMILES IDX 48 59 32 60 33 61 41 62 34 63 40 64 42 65 39 66 35 67 36 68
REMARK SMILES IDX 37 69 38 70 64 71 65 72 73 73 66 74 72 75 74 76 71 77 67 78
REMARK SMILES IDX 68 79 69 80 70 81 49 82 50 83 58 84 51 85 57 86 59 87 56 88
REMARK SMILES IDX 52 89 53 90 54 91 55 92
REMARK H PARENT 13 8 4 21 20 26 79 45 47 56
REMARK Flexibility Score: inf
ROOT
ATOM      1  C   UNL     1       0.612  -1.104  -6.940  1.00  0.00     0.002 C 
ENDROOT
BRANCH   1   2
ATOM      2  C   UNL     1       1.691  -1.794  -6.098  1.00  0.00     0.002 C 
BRANCH   2   3
ATOM      3  C   UNL     1       1.996  -1.105  -4.761  1.00  0.00     0.021 C 
BRANCH   3   4
ATOM      4  C   UNL     1       0.851  -1.231  -3.753  1.00  0.00     0.116 C 
BRANCH   4   5
ATOM      5  N   UNL     1       0.841  -2.578  -3.201  1.00  0.00    -0.352 N 
ATOM      6  C   UNL     1       1.333  -3.094  -2.030  1.00  0.00     0.251 C 
ATOM      7  O   UNL     1       1.254  -4.307  -1.839  1.00  0.00    -0.269 OA
ATOM      8  H   UNL     1       0.399  -3.243  -3.777  1.00  0.00     0.163 HD
BRANCH   6   9
ATOM      9  C   UNL     1       1.826  -2.221  -0.935  1.00  0.00     0.039 A 
ATOM     10  C   UNL     1       2.144  -0.429   1.159  1.00  0.00    -0.005 A 
ATOM     11  C   UNL     1       1.610  -1.691   1.422  1.00  0.00     0.010 A 
ATOM     12  C   UNL     1       2.689  -0.127  -0.088  1.00  0.00     0.010 A 
ATOM     13  C   UNL     1       1.439  -2.582   0.366  1.00  0.00     0.014 A 
ATOM     14  C   UNL     1       2.553  -1.044  -1.133  1.00  0.00     0.014 A 
BRANCH  10  15
ATOM     15  C   UNL     1       1.956   0.602   2.190  1.00  0.00     0.141 C 
ATOM     16  N   UNL     1       1.462   1.800   2.053  1.00  0.00    -0.181 NA
BRANCH  16  17
ATOM     17  N   UNL     1       1.002   2.233   0.844  1.00  0.00    -0.247 N 
ATOM     18  C   UNL     1      -0.845   0.576   0.552  1.00  0.00     0.116 C 
ATOM     19  C   UNL     1      -0.043   1.760   0.088  1.00  0.00     0.236 C 
ATOM     20  O   UNL     1      -0.313   2.307  -0.985  1.00  0.00    -0.274 OA
ATOM     21  H   UNL     1       1.490   2.996   0.457  1.00  0.00     0.193 HD
ENDBRANCH  16  17
ENDBRANCH  10  15
ENDBRANCH   6   9
ENDBRANCH   4   5
ENDBRANCH   3   4
ENDBRANCH   2   3
ENDBRANCH   1   2
BRANCH   1  22
ATOM     22  C   UNL     1       0.897   0.360  -7.287  1.00  0.00     0.021 C 
BRANCH  22  23
ATOM     23  C   UNL     1       2.208   0.596  -8.031  1.00  0.00     0.116 C 
BRANCH  23  24
ATOM     24  N   UNL     1       2.208  -0.029  -9.344  1.00  0.00    -0.352 N 
ATOM     25  C   UNL     1       2.472   0.532 -10.567  1.00  0.00     0.251 C 
ATOM     26  H   UNL     1       1.987  -0.988  -9.357  1.00  0.00     0.163 HD
ATOM     27  O   UNL     1       2.215  -0.097 -11.595  1.00  0.00    -0.269 OA
BRANCH  25  28
ATOM     28  C   UNL     1       3.042   1.894 -10.651  1.00  0.00     0.039 A 
ATOM     29  C   UNL     1       2.504   2.800 -11.569  1.00  0.00     0.014 A 
ATOM     30  C   UNL     1       4.111   2.274  -9.833  1.00  0.00     0.014 A 
ATOM     31  C   UNL     1       3.000   4.105 -11.627  1.00  0.00     0.010 A 
ATOM     32  C   UNL     1       4.561   3.593  -9.849  1.00  0.00     0.010 A 
ATOM     33  C   UNL     1       4.013   4.521 -10.747  1.00  0.00    -0.014 A 
BRANCH  33  34
ATOM     34  C   UNL     1       4.514   5.920 -10.757  1.00  0.00     0.031 A 
ATOM     35  C   UNL     1       5.937   6.208 -11.154  1.00  0.00     0.074 A 
ATOM     36  C   UNL     1       3.709   6.921 -10.350  1.00  0.00     0.049 A 
ATOM     37  N   UNL     1       6.585   7.344 -11.148  1.00  0.00    -0.248 NA
ATOM     38  C   UNL     1       6.743   5.058 -11.588  1.00  0.00     0.031 C 
ATOM     39  C   UNL     1       2.322   6.763  -9.908  1.00  0.00     0.029 A 
ATOM     40  N   UNL     1       3.941   8.269 -10.232  1.00  0.00    -0.354 N 
ATOM     41  C   UNL     1       7.879   7.046 -11.565  1.00  0.00     0.074 A 
ATOM     42  C   UNL     1       7.934   5.612 -11.758  1.00  0.00     0.031 C 
ATOM     43  C   UNL     1       1.823   7.967  -9.586  1.00  0.00     0.029 A 
ATOM     44  C   UNL     1       2.862   8.977  -9.755  1.00  0.00     0.049 A 
ATOM     45  H   UNL     1       4.800   8.689 -10.467  1.00  0.00     0.167 HD
ATOM     46  C   UNL     1       8.916   7.892 -11.787  1.00  0.00     0.034 A 
ATOM     47  C   UNL     1       2.730  10.288  -9.473  1.00  0.00     0.034 A 
ATOM     48  C   UNL     1       8.840   9.321 -11.602  1.00  0.00     0.049 A 
ATOM     49  C   UNL     1       3.904  11.205  -9.705  1.00  0.00     0.074 A 
ATOM     50  C   UNL     1       9.812  10.276 -11.847  1.00  0.00     0.029 A 
ATOM     51  N   UNL     1       7.730  10.003 -11.118  1.00  0.00    -0.354 N 
ATOM     52  N   UNL     1       5.108  10.913 -10.142  1.00  0.00    -0.248 NA
ATOM     53  C   UNL     1       3.698  12.630  -9.414  1.00  0.00     0.031 C 
ATOM     54  C   UNL     1       9.313  11.523 -11.454  1.00  0.00     0.029 A 
ATOM     55  C   UNL     1       8.004  11.360 -11.030  1.00  0.00     0.049 A 
ATOM     56  H   UNL     1       6.874   9.584 -10.874  1.00  0.00     0.167 HD
ATOM     57  C   UNL     1       5.791  12.124 -10.205  1.00  0.00     0.074 A 
ATOM     58  C   UNL     1       4.862  13.149  -9.777  1.00  0.00     0.031 C 
ATOM     59  C   UNL     1       7.071  12.368 -10.588  1.00  0.00     0.034 A 
BRANCH  46  60
ATOM     60  C   UNL     1      10.225   7.282 -12.231  1.00  0.00     0.023 A 
ATOM     61  C   UNL     1      10.342   6.593 -13.451  1.00  0.00     0.031 A 
ATOM     62  C   UNL     1      11.365   7.364 -11.412  1.00  0.00     0.131 A 
ATOM     63  C   UNL     1      11.543   5.948 -13.780  1.00  0.00     0.055 A 
ATOM     64  C   UNL     1      12.582   6.790 -11.783  1.00  0.00     0.041 A 
ATOM     65  F   UNL     1      11.311   7.992 -10.226  1.00  0.00    -0.206 F 
ATOM     66  C   UNL     1      12.673   6.063 -12.966  1.00  0.00     0.022 A 
BRANCH  63  67
ATOM     67  S   UNL     1      11.566   4.838 -15.214  1.00  0.00     0.124 S 
ATOM     68  O   UNL     1      10.540   3.863 -14.847  1.00  0.00    -0.237 OA
ATOM     69  O   UNL     1      11.231   5.735 -16.313  1.00  0.00    -0.237 OA
ATOM     70  O   UNL     1      12.932   4.319 -15.225  1.00  0.00    -0.744 OA
ENDBRANCH  63  67
ENDBRANCH  46  60
BRANCH  47  71
ATOM     71  C   UNL     1       1.448  10.819  -8.930  1.00  0.00     0.023 A 
ATOM     72  C   UNL     1       0.673  11.729  -9.666  1.00  0.00     0.031 A 
ATOM     73  C   UNL     1       1.000  10.458  -7.647  1.00  0.00     0.131 A 
ATOM     74  C   UNL     1      -0.483  12.284  -9.097  1.00  0.00     0.055 A 
ATOM     75  C   UNL     1      -0.179  10.973  -7.105  1.00  0.00     0.041 A 
ATOM     76  F   UNL     1       1.701   9.587  -6.903  1.00  0.00    -0.206 F 
ATOM     77  C   UNL     1      -0.921  11.903  -7.827  1.00  0.00     0.022 A 
BRANCH  74  78
ATOM     78  S   UNL     1      -1.364  13.579 -10.012  1.00  0.00     0.124 S 
ATOM     79  O   UNL     1      -0.320  14.582 -10.187  1.00  0.00    -0.237 OA
ATOM     80  O   UNL     1      -1.781  12.869 -11.216  1.00  0.00    -0.237 OA
ATOM     81  O   UNL     1      -2.448  13.957  -9.107  1.00  0.00    -0.744 OA
ENDBRANCH  74  78
ENDBRANCH  47  71
BRANCH  59  82
ATOM     82  C   UNL     1       7.517  13.810 -10.596  1.00  0.00     0.023 A 
ATOM     83  C   UNL     1       7.661  14.546  -9.407  1.00  0.00     0.031 A 
ATOM     84  C   UNL     1       7.786  14.459 -11.814  1.00  0.00     0.131 A 
ATOM     85  C   UNL     1       8.010  15.904  -9.464  1.00  0.00     0.055 A 
ATOM     86  C   UNL     1       8.188  15.794 -11.861  1.00  0.00     0.041 A 
ATOM     87  F   UNL     1       7.662  13.804 -12.979  1.00  0.00    -0.206 F 
ATOM     88  C   UNL     1       8.289  16.528 -10.682  1.00  0.00     0.022 A 
BRANCH  85  89
ATOM     89  S   UNL     1       8.009  16.869  -7.928  1.00  0.00     0.124 S 
ATOM     90  O   UNL     1       6.630  16.717  -7.475  1.00  0.00    -0.237 OA
ATOM     91  O   UNL     1       9.021  16.187  -7.130  1.00  0.00    -0.237 OA
ATOM     92  O   UNL     1       8.372  18.215  -8.369  1.00  0.00    -0.744 OA
ENDBRANCH  85  89
ENDBRANCH  59  82
ENDBRANCH  33  34
ENDBRANCH  25  28
ENDBRANCH  23  24
ENDBRANCH  22  23
ENDBRANCH   1  22
TORSDOF 18
