REMARK SMILES NS(=O)(=O)c1ccc(-n2nc(C(=O)NCCCC(=O)NCCCCCCNC(=O)c3ccc(-c4c5nc(c(-c6cc(S(=O)(=O)[O-])ccc6F)c6ccc([nH]6)c(-c6cc(S(=O)(=O)[O-])ccc6F)c6nc(c(-c7cc(S(=O)(=O)[O-])ccc7F)c7ccc4[nH]7)C=C6)C=C5)cc3)cc2-c2ccccc2)cc1
REMARK SMILES IDX 21 1 20 2 18 3 19 4 17 6 16 7 15 8 14 9 12 10 13 11 11 13
REMARK SMILES IDX 9 14 10 15 94 16 93 17 8 18 5 19 6 20 102 21 7 22 101 23
REMARK SMILES IDX 2 24 3 25 4 26 1 27 95 30 96 31 100 32 97 33 99 34 98 35
REMARK SMILES IDX 22 36 23 37 24 38 25 39 26 40 27 41 28 42 29 44 30 45 31 46
REMARK SMILES IDX 92 47 32 48 91 49 33 50 34 51 35 52 85 53 36 54 90 55 84 56
REMARK SMILES IDX 86 57 37 58 89 59 83 60 82 61 38 63 70 64 50 65 69 66 51 67
REMARK SMILES IDX 54 68 68 69 87 70 52 71 53 72 67 74 88 75 55 76 39 77 40 78
REMARK SMILES IDX 48 79 41 80 47 81 49 82 46 83 42 84 43 85 44 86 45 87 71 88
REMARK SMILES IDX 72 89 80 90 73 91 79 92 81 93 78 94 74 95 75 96 76 97 77 98
REMARK SMILES IDX 56 99 57 100 65 101 58 102 64 103 66 104 63 105 59 106
REMARK SMILES IDX 60 107 61 108 62 109
REMARK H PARENT 20 5 14 12 1 28 1 29 27 43 86 62 54 73
REMARK Flexibility Score: inf
ROOT
ATOM      1  C   UNL     1       1.520 -11.866   5.963  1.00  0.00     0.116 C 
ENDROOT
BRANCH   1   2
ATOM      2  N   UNL     1       2.588 -12.832   5.814  1.00  0.00    -0.356 N 
ATOM      3  C   UNL     1       3.879 -12.784   6.240  1.00  0.00     0.220 C 
ATOM      4  O   UNL     1       4.635 -13.703   5.918  1.00  0.00    -0.275 OA
ATOM      5  H   UNL     1       2.342 -13.652   5.328  1.00  0.00     0.163 HD
BRANCH   3   6
ATOM      6  C   UNL     1       4.362 -11.654   7.129  1.00  0.00     0.102 C 
BRANCH   6   7
ATOM      7  C   UNL     1       4.939 -10.445   6.392  1.00  0.00     0.031 C 
BRANCH   7   8
ATOM      8  C   UNL     1       3.930  -9.401   5.920  1.00  0.00     0.116 C 
BRANCH   8   9
ATOM      9  N   UNL     1       3.042  -8.875   6.953  1.00  0.00    -0.351 N 
ATOM     10  C   UNL     1       2.140  -7.817   6.906  1.00  0.00     0.271 C 
ATOM     11  O   UNL     1       1.462  -7.609   7.913  1.00  0.00    -0.267 OA
ATOM     12  H   UNL     1       3.089  -9.342   7.818  1.00  0.00     0.163 HD
BRANCH  10  13
ATOM     13  C   UNL     1       2.043  -7.006   5.681  1.00  0.00     0.151 A 
ATOM     14  N   UNL     1       1.910  -5.326   4.366  1.00  0.00    -0.232 N 
ATOM     15  N   UNL     1       1.815  -5.664   5.681  1.00  0.00    -0.162 NA
ATOM     16  C   UNL     1       2.536  -6.348   3.670  1.00  0.00     0.075 A 
ATOM     17  C   UNL     1       2.238  -7.481   4.364  1.00  0.00     0.065 A 
BRANCH  14  18
ATOM     18  C   UNL     1       1.536  -4.082   3.772  1.00  0.00     0.065 A 
ATOM     19  C   UNL     1       1.387  -1.758   2.219  1.00  0.00     0.082 A 
ATOM     20  C   UNL     1       0.953  -2.961   1.678  1.00  0.00     0.024 A 
ATOM     21  C   UNL     1       1.808  -1.694   3.560  1.00  0.00     0.024 A 
ATOM     22  C   UNL     1       1.030  -4.112   2.454  1.00  0.00     0.030 A 
ATOM     23  C   UNL     1       1.870  -2.860   4.352  1.00  0.00     0.030 A 
BRANCH  19  24
ATOM     24  S   UNL     1       1.283  -0.299   1.214  1.00  0.00     0.238 S 
ATOM     25  O   UNL     1       1.532   0.842   2.047  1.00  0.00    -0.207 OA
ATOM     26  O   UNL     1       0.123  -0.447   0.355  1.00  0.00    -0.207 OA
BRANCH  24  27
ATOM     27  N   UNL     1       2.590  -0.421   0.166  1.00  0.00    -0.225 NA
ATOM     28  H   UNL     1       2.605   0.389  -0.455  1.00  0.00     0.137 HD
ATOM     29  H   UNL     1       2.502  -1.273  -0.389  1.00  0.00     0.137 HD
ENDBRANCH  24  27
ENDBRANCH  19  24
ENDBRANCH  14  18
BRANCH  16  30
ATOM     30  C   UNL     1       3.242  -6.144   2.432  1.00  0.00     0.000 A 
ATOM     31  C   UNL     1       4.167  -5.086   2.339  1.00  0.00     0.010 A 
ATOM     32  C   UNL     1       2.822  -6.836   1.312  1.00  0.00     0.010 A 
ATOM     33  C   UNL     1       4.516  -4.587   1.100  1.00  0.00     0.001 A 
ATOM     34  C   UNL     1       3.172  -6.323   0.086  1.00  0.00     0.001 A 
ATOM     35  C   UNL     1       3.966  -5.179  -0.020  1.00  0.00     0.000 A 
ENDBRANCH  16  30
ENDBRANCH  10  13
ENDBRANCH   8   9
ENDBRANCH   7   8
ENDBRANCH   6   7
ENDBRANCH   3   6
ENDBRANCH   1   2
BRANCH   1  36
ATOM     36  C   UNL     1       1.066 -11.347   4.597  1.00  0.00     0.021 C 
BRANCH  36  37
ATOM     37  C   UNL     1       0.055 -12.259   3.896  1.00  0.00     0.002 C 
BRANCH  37  38
ATOM     38  C   UNL     1      -1.262 -12.480   4.655  1.00  0.00     0.002 C 
BRANCH  38  39
ATOM     39  C   UNL     1      -2.017 -11.213   5.084  1.00  0.00     0.021 C 
BRANCH  39  40
ATOM     40  C   UNL     1      -2.522 -10.382   3.914  1.00  0.00     0.116 C 
BRANCH  40  41
ATOM     41  N   UNL     1      -3.535 -11.089   3.132  1.00  0.00    -0.352 N 
ATOM     42  C   UNL     1      -4.237 -10.637   2.031  1.00  0.00     0.251 C 
ATOM     43  H   UNL     1      -3.744 -12.005   3.427  1.00  0.00     0.163 HD
ATOM     44  O   UNL     1      -5.309 -11.152   1.729  1.00  0.00    -0.269 OA
BRANCH  42  45
ATOM     45  C   UNL     1      -3.666  -9.541   1.224  1.00  0.00     0.039 A 
ATOM     46  C   UNL     1      -4.466  -8.563   0.628  1.00  0.00     0.014 A 
ATOM     47  C   UNL     1      -2.281  -9.509   1.069  1.00  0.00     0.014 A 
ATOM     48  C   UNL     1      -3.845  -7.526  -0.072  1.00  0.00     0.010 A 
ATOM     49  C   UNL     1      -1.668  -8.403   0.543  1.00  0.00     0.010 A 
ATOM     50  C   UNL     1      -2.440  -7.447  -0.099  1.00  0.00    -0.014 A 
BRANCH  50  51
ATOM     51  C   UNL     1      -1.734  -6.289  -0.650  1.00  0.00     0.031 A 
ATOM     52  C   UNL     1      -2.157  -5.013  -0.009  1.00  0.00     0.074 A 
ATOM     53  C   UNL     1      -0.695  -6.411  -1.514  1.00  0.00     0.049 A 
ATOM     54  N   UNL     1      -2.770  -4.029  -0.568  1.00  0.00    -0.248 NA
ATOM     55  C   UNL     1      -2.091  -4.895   1.455  1.00  0.00     0.031 C 
ATOM     56  C   UNL     1      -0.107  -7.648  -2.037  1.00  0.00     0.029 A 
ATOM     57  N   UNL     1       0.109  -5.458  -2.075  1.00  0.00    -0.354 N 
ATOM     58  C   UNL     1      -2.998  -3.069   0.419  1.00  0.00     0.074 A 
ATOM     59  C   UNL     1      -2.698  -3.725   1.661  1.00  0.00     0.031 C 
ATOM     60  C   UNL     1       1.037  -7.375  -2.704  1.00  0.00     0.029 A 
ATOM     61  C   UNL     1       1.250  -5.937  -2.754  1.00  0.00     0.049 A 
ATOM     62  H   UNL     1      -0.095  -4.498  -2.009  1.00  0.00     0.167 HD
ATOM     63  C   UNL     1      -3.261  -1.775   0.073  1.00  0.00     0.034 A 
ATOM     64  C   UNL     1       2.287  -5.203  -3.282  1.00  0.00     0.034 A 
ATOM     65  C   UNL     1      -3.527  -1.706  -1.353  1.00  0.00     0.049 A 
ATOM     66  C   UNL     1       1.696  -3.847  -3.499  1.00  0.00     0.074 A 
ATOM     67  C   UNL     1      -4.571  -2.132  -2.147  1.00  0.00     0.029 A 
ATOM     68  N   UNL     1      -2.442  -1.525  -2.194  1.00  0.00    -0.354 N 
ATOM     69  N   UNL     1       0.770  -3.633  -4.396  1.00  0.00    -0.248 NA
ATOM     70  C   UNL     1       1.722  -2.868  -2.415  1.00  0.00     0.031 C 
ATOM     71  C   UNL     1      -3.958  -2.606  -3.342  1.00  0.00     0.029 A 
ATOM     72  C   UNL     1      -2.583  -2.356  -3.284  1.00  0.00     0.049 A 
ATOM     73  H   UNL     1      -1.694  -0.904  -2.039  1.00  0.00     0.167 HD
ATOM     74  C   UNL     1      -0.157  -2.805  -3.777  1.00  0.00     0.074 A 
ATOM     75  C   UNL     1       0.539  -2.269  -2.612  1.00  0.00     0.031 C 
ATOM     76  C   UNL     1      -1.485  -2.870  -4.093  1.00  0.00     0.034 A 
BRANCH  63  77
ATOM     77  C   UNL     1      -2.954  -0.532   0.891  1.00  0.00     0.023 A 
ATOM     78  C   UNL     1      -2.907   0.684   0.175  1.00  0.00     0.031 A 
ATOM     79  C   UNL     1      -2.457  -0.468   2.209  1.00  0.00     0.131 A 
ATOM     80  C   UNL     1      -2.236   1.811   0.676  1.00  0.00     0.055 A 
ATOM     81  C   UNL     1      -1.847   0.681   2.738  1.00  0.00     0.041 A 
ATOM     82  F   UNL     1      -2.462  -1.514   3.039  1.00  0.00    -0.206 F 
ATOM     83  C   UNL     1      -1.695   1.815   1.956  1.00  0.00     0.022 A 
BRANCH  80  84
ATOM     84  S   UNL     1      -1.852   3.160  -0.473  1.00  0.00     0.124 S 
ATOM     85  O   UNL     1      -1.522   2.446  -1.703  1.00  0.00    -0.237 OA
ATOM     86  O   UNL     1      -3.107   3.906  -0.483  1.00  0.00    -0.237 OA
ATOM     87  O   UNL     1      -0.726   3.840   0.163  1.00  0.00    -0.744 OA
ENDBRANCH  80  84
ENDBRANCH  63  77
BRANCH  64  88
ATOM     88  C   UNL     1       3.780  -5.502  -3.433  1.00  0.00     0.023 A 
ATOM     89  C   UNL     1       4.725  -4.503  -3.815  1.00  0.00     0.031 A 
ATOM     90  C   UNL     1       4.364  -6.674  -2.892  1.00  0.00     0.131 A 
ATOM     91  C   UNL     1       6.114  -4.652  -3.522  1.00  0.00     0.055 A 
ATOM     92  C   UNL     1       5.712  -6.763  -2.506  1.00  0.00     0.041 A 
ATOM     93  F   UNL     1       3.632  -7.748  -2.578  1.00  0.00    -0.206 F 
ATOM     94  C   UNL     1       6.587  -5.734  -2.783  1.00  0.00     0.022 A 
BRANCH  91  95
ATOM     95  S   UNL     1       7.372  -3.438  -4.054  1.00  0.00     0.124 S 
ATOM     96  O   UNL     1       7.739  -3.952  -5.370  1.00  0.00    -0.237 OA
ATOM     97  O   UNL     1       6.647  -2.174  -4.030  1.00  0.00    -0.237 OA
ATOM     98  O   UNL     1       8.415  -3.564  -3.034  1.00  0.00    -0.744 OA
ENDBRANCH  91  95
ENDBRANCH  64  88
BRANCH  76  99
ATOM     99  C   UNL     1      -1.866  -3.691  -5.315  1.00  0.00     0.023 A 
ATOM    100  C   UNL     1      -1.653  -5.084  -5.465  1.00  0.00     0.031 A 
ATOM    101  C   UNL     1      -2.588  -3.032  -6.323  1.00  0.00     0.131 A 
ATOM    102  C   UNL     1      -2.151  -5.756  -6.601  1.00  0.00     0.055 A 
ATOM    103  C   UNL     1      -3.105  -3.705  -7.428  1.00  0.00     0.041 A 
ATOM    104  F   UNL     1      -2.841  -1.716  -6.228  1.00  0.00    -0.206 F 
ATOM    105  C   UNL     1      -2.885  -5.070  -7.573  1.00  0.00     0.022 A 
BRANCH 102 106
ATOM    106  S   UNL     1      -1.838  -7.537  -6.850  1.00  0.00     0.124 S 
ATOM    107  O   UNL     1      -0.399  -7.661  -6.650  1.00  0.00    -0.237 OA
ATOM    108  O   UNL     1      -2.679  -8.156  -5.830  1.00  0.00    -0.237 OA
ATOM    109  O   UNL     1      -2.282  -7.772  -8.226  1.00  0.00    -0.744 OA
ENDBRANCH 102 106
ENDBRANCH  76  99
ENDBRANCH  50  51
ENDBRANCH  42  45
ENDBRANCH  40  41
ENDBRANCH  39  40
ENDBRANCH  38  39
ENDBRANCH  37  38
ENDBRANCH  36  37
ENDBRANCH   1  36
TORSDOF 24
