REMARK SMILES C[C@@]12CC[C@@H]3c4ccc(O)cc4/C(=N/OCC(=O)NCCCCCCNC(=O)c4ccc(-c5c6nc(c(-c7cc(S(=O)(=O)[O-])ccc7F)c7ccc([nH]7)c(-c7cc(S(=O)(=O)[O-])ccc7F)c7nc(c(-c8cc(S(=O)(=O)[O-])ccc8F)c8ccc5[nH]8)C=C7)C=C6)cc4)C[C@H]3[C@@H]1C[C@@H](O)[C@@H]2O
REMARK SMILES IDX 22 1 21 2 20 3 19 4 17 5 18 6 16 8 15 9 14 10 1 11 2 12 3 13
REMARK SMILES IDX 94 14 98 15 4 16 93 17 95 18 96 19 5 20 92 21 6 22 13 23
REMARK SMILES IDX 7 24 12 25 8 26 11 27 9 28 99 29 97 31 10 33 23 35 24 36
REMARK SMILES IDX 25 37 26 38 27 39 28 41 29 42 30 43 91 44 31 45 90 46 32 47
REMARK SMILES IDX 33 48 34 49 84 50 35 51 89 52 83 53 85 54 36 55 88 56 82 57
REMARK SMILES IDX 81 58 37 60 69 61 49 62 68 63 50 64 53 65 67 66 86 67 51 68
REMARK SMILES IDX 52 69 66 71 87 72 54 73 38 74 39 75 47 76 40 77 46 78 48 79
REMARK SMILES IDX 45 80 41 81 42 82 43 83 44 84 70 85 71 86 79 87 72 88 78 89
REMARK SMILES IDX 80 90 77 91 73 92 74 93 75 94 76 95 55 96 56 97 64 98 57 99
REMARK SMILES IDX 63 100 65 101 62 102 58 103 59 104 60 105 61 106
REMARK H PARENT 19 7 99 30 97 32 10 34 26 40 85 59 53 70
REMARK Flexibility Score: inf
ROOT
ATOM      1  C   UNL     1       0.018   3.522   8.421  1.00  0.00     0.002 C 
ENDROOT
BRANCH   1   2
ATOM      2  C   UNL     1       0.857   2.690   7.442  1.00  0.00     0.021 C 
BRANCH   2   3
ATOM      3  C   UNL     1       2.341   2.642   7.801  1.00  0.00     0.116 C 
BRANCH   3   4
ATOM      4  N   UNL     1       2.554   1.881   9.015  1.00  0.00    -0.353 N 
ATOM      5  C   UNL     1       3.023   0.601   9.121  1.00  0.00     0.260 C 
ATOM      6  O   UNL     1       3.090   0.089  10.242  1.00  0.00    -0.271 OA
ATOM      7  H   UNL     1       2.336   2.337   9.860  1.00  0.00     0.163 HD
BRANCH   5   8
ATOM      8  C   UNL     1       3.556  -0.098   7.872  1.00  0.00     0.363 C 
BRANCH   8   9
ATOM      9  O   UNL     1       2.676  -0.070   6.750  1.00  0.00    -0.385 OA
BRANCH   9  10
ATOM     10  N   UNL     1       1.801  -1.140   6.872  1.00  0.00    -0.090 NA
ATOM     11  C   UNL     1       1.021  -0.846  -0.569  1.00  0.00     0.014 C 
ATOM     12  C   UNL     1       0.393  -1.503   0.693  1.00  0.00    -0.001 C 
ATOM     13  C   UNL     1       1.104  -2.849   0.842  1.00  0.00     0.010 C 
ATOM     14  C   UNL     1       0.569  -0.586   1.931  1.00  0.00     0.004 C 
ATOM     15  C   UNL     1      -1.155  -1.571   0.542  1.00  0.00     0.149 C 
ATOM     16  C   UNL     1       0.741  -3.611   2.089  1.00  0.00     0.009 C 
ATOM     17  C   UNL     1       0.433  -1.320   3.312  1.00  0.00     0.006 C 
ATOM     18  C   UNL     1      -0.542   0.493   1.698  1.00  0.00     0.039 C 
ATOM     19  C   UNL     1      -1.598  -0.115   0.740  1.00  0.00     0.144 C 
ATOM     20  C   UNL     1       0.967  -2.784   3.348  1.00  0.00     0.024 C 
ATOM     21  C   UNL     1       1.155  -0.583   4.485  1.00  0.00     0.065 C 
ATOM     22  C   UNL     1       0.397  -3.438   4.600  1.00  0.00    -0.035 A 
ATOM     23  C   UNL     1       1.142  -1.406   5.786  1.00  0.00     0.088 C 
ATOM     24  C   UNL     1      -0.106  -4.745   4.644  1.00  0.00     0.008 A 
ATOM     25  C   UNL     1       0.412  -2.698   5.790  1.00  0.00     0.006 A 
ATOM     26  C   UNL     1      -0.602  -5.284   5.834  1.00  0.00     0.046 A 
ATOM     27  C   UNL     1      -0.084  -3.229   6.986  1.00  0.00     0.056 A 
ATOM     28  C   UNL     1      -0.594  -4.518   6.993  1.00  0.00     0.116 A 
BRANCH  15  29
ATOM     29  O   UNL     1      -1.798  -2.394   1.514  1.00  0.00    -0.390 OA
ATOM     30  H   UNL     1      -1.600  -2.060   2.403  1.00  0.00     0.211 HD
ENDBRANCH  15  29
BRANCH  19  31
ATOM     31  O   UNL     1      -1.615   0.583  -0.500  1.00  0.00    -0.390 OA
ATOM     32  H   UNL     1      -0.733   0.549  -0.902  1.00  0.00     0.211 HD
ENDBRANCH  19  31
BRANCH  28  33
ATOM     33  O   UNL     1      -1.062  -5.018   8.171  1.00  0.00    -0.508 OA
ATOM     34  H   UNL     1      -1.413  -5.886   8.205  1.00  0.00     0.293 HD
ENDBRANCH  28  33
ENDBRANCH   9  10
ENDBRANCH   8   9
ENDBRANCH   5   8
ENDBRANCH   3   4
ENDBRANCH   2   3
ENDBRANCH   1   2
BRANCH   1  35
ATOM     35  C   UNL     1       0.508   4.959   8.635  1.00  0.00     0.002 C 
BRANCH  35  36
ATOM     36  C   UNL     1       0.693   5.771   7.353  1.00  0.00     0.021 C 
BRANCH  36  37
ATOM     37  C   UNL     1      -0.577   5.937   6.530  1.00  0.00     0.116 C 
BRANCH  37  38
ATOM     38  N   UNL     1      -1.580   6.738   7.217  1.00  0.00    -0.352 N 
ATOM     39  C   UNL     1      -2.229   7.873   6.779  1.00  0.00     0.251 C 
ATOM     40  H   UNL     1      -1.830   6.427   8.117  1.00  0.00     0.163 HD
ATOM     41  O   UNL     1      -2.928   8.523   7.538  1.00  0.00    -0.269 OA
BRANCH  39  42
ATOM     42  C   UNL     1      -2.018   8.307   5.381  1.00  0.00     0.039 A 
ATOM     43  C   UNL     1      -2.148   7.389   4.336  1.00  0.00     0.014 A 
ATOM     44  C   UNL     1      -1.585   9.611   5.135  1.00  0.00     0.014 A 
ATOM     45  C   UNL     1      -1.661   7.717   3.076  1.00  0.00     0.010 A 
ATOM     46  C   UNL     1      -1.176   9.963   3.848  1.00  0.00     0.010 A 
ATOM     47  C   UNL     1      -1.146   8.999   2.826  1.00  0.00    -0.014 A 
BRANCH  47  48
ATOM     48  C   UNL     1      -0.526   9.311   1.513  1.00  0.00     0.031 A 
ATOM     49  C   UNL     1       0.941   9.640   1.429  1.00  0.00     0.074 A 
ATOM     50  C   UNL     1      -1.272   9.265   0.394  1.00  0.00     0.049 A 
ATOM     51  N   UNL     1       1.646  10.011   0.392  1.00  0.00    -0.248 NA
ATOM     52  C   UNL     1       1.718   9.541   2.675  1.00  0.00     0.031 C 
ATOM     53  C   UNL     1      -2.689   8.912   0.352  1.00  0.00     0.029 A 
ATOM     54  N   UNL     1      -0.946   9.510  -0.916  1.00  0.00    -0.354 N 
ATOM     55  C   UNL     1       2.941  10.203   0.860  1.00  0.00     0.074 A 
ATOM     56  C   UNL     1       2.915   9.952   2.284  1.00  0.00     0.031 C 
ATOM     57  C   UNL     1      -3.107   8.934  -0.920  1.00  0.00     0.029 A 
ATOM     58  C   UNL     1      -2.011   9.386  -1.776  1.00  0.00     0.049 A 
ATOM     59  H   UNL     1      -0.039   9.751  -1.212  1.00  0.00     0.167 HD
ATOM     60  C   UNL     1       4.052  10.539   0.161  1.00  0.00     0.034 A 
ATOM     61  C   UNL     1      -2.112   9.640  -3.097  1.00  0.00     0.034 A 
ATOM     62  C   UNL     1       4.057  10.779  -1.259  1.00  0.00     0.049 A 
ATOM     63  C   UNL     1      -0.888  10.099  -3.844  1.00  0.00     0.074 A 
ATOM     64  C   UNL     1       5.127  11.127  -2.063  1.00  0.00     0.029 A 
ATOM     65  N   UNL     1       2.946  10.692  -2.088  1.00  0.00    -0.354 N 
ATOM     66  N   UNL     1       0.332  10.276  -3.392  1.00  0.00    -0.248 NA
ATOM     67  C   UNL     1      -1.044  10.399  -5.274  1.00  0.00     0.031 C 
ATOM     68  C   UNL     1       4.653  11.313  -3.362  1.00  0.00     0.029 A 
ATOM     69  C   UNL     1       3.301  11.007  -3.390  1.00  0.00     0.049 A 
ATOM     70  H   UNL     1       2.040  10.444  -1.795  1.00  0.00     0.167 HD
ATOM     71  C   UNL     1       1.091  10.694  -4.480  1.00  0.00     0.074 A 
ATOM     72  C   UNL     1       0.196  10.724  -5.620  1.00  0.00     0.031 C 
ATOM     73  C   UNL     1       2.406  11.024  -4.525  1.00  0.00     0.034 A 
BRANCH  60  74
ATOM     74  C   UNL     1       5.361  10.662   0.905  1.00  0.00     0.023 A 
ATOM     75  C   UNL     1       6.039  11.896   0.949  1.00  0.00     0.031 A 
ATOM     76  C   UNL     1       5.985   9.542   1.484  1.00  0.00     0.131 A 
ATOM     77  C   UNL     1       7.307  11.974   1.539  1.00  0.00     0.055 A 
ATOM     78  C   UNL     1       7.230   9.635   2.108  1.00  0.00     0.041 A 
ATOM     79  F   UNL     1       5.383   8.342   1.469  1.00  0.00    -0.206 F 
ATOM     80  C   UNL     1       7.902  10.853   2.127  1.00  0.00     0.022 A 
BRANCH  77  81
ATOM     81  S   UNL     1       8.265  13.514   1.512  1.00  0.00     0.124 S 
ATOM     82  O   UNL     1       8.388  13.813   2.937  1.00  0.00    -0.237 OA
ATOM     83  O   UNL     1       9.499  13.096   0.854  1.00  0.00    -0.237 OA
ATOM     84  O   UNL     1       7.427  14.435   0.752  1.00  0.00    -0.744 OA
ENDBRANCH  77  81
ENDBRANCH  60  74
BRANCH  61  85
ATOM     85  C   UNL     1      -3.429   9.426  -3.763  1.00  0.00     0.023 A 
ATOM     86  C   UNL     1      -4.565  10.152  -3.354  1.00  0.00     0.031 A 
ATOM     87  C   UNL     1      -3.606   8.385  -4.687  1.00  0.00     0.131 A 
ATOM     88  C   UNL     1      -5.837   9.756  -3.787  1.00  0.00     0.055 A 
ATOM     89  C   UNL     1      -4.869   8.046  -5.179  1.00  0.00     0.041 A 
ATOM     90  F   UNL     1      -2.555   7.660  -5.099  1.00  0.00    -0.206 F 
ATOM     91  C   UNL     1      -5.995   8.718  -4.710  1.00  0.00     0.022 A 
BRANCH  88  92
ATOM     92  S   UNL     1      -7.332  10.468  -3.045  1.00  0.00     0.124 S 
ATOM     93  O   UNL     1      -8.059  10.945  -4.217  1.00  0.00    -0.237 OA
ATOM     94  O   UNL     1      -7.909   9.305  -2.374  1.00  0.00    -0.237 OA
ATOM     95  O   UNL     1      -6.817  11.505  -2.158  1.00  0.00    -0.744 OA
ENDBRANCH  88  92
ENDBRANCH  61  85
BRANCH  73  96
ATOM     96  C   UNL     1       3.004  11.459  -5.841  1.00  0.00     0.023 A 
ATOM     97  C   UNL     1       4.035  10.698  -6.426  1.00  0.00     0.031 A 
ATOM     98  C   UNL     1       2.701  12.712  -6.399  1.00  0.00     0.131 A 
ATOM     99  C   UNL     1       4.772  11.229  -7.492  1.00  0.00     0.055 A 
ATOM    100  C   UNL     1       3.405  13.213  -7.495  1.00  0.00     0.041 A 
ATOM    101  F   UNL     1       1.732  13.477  -5.871  1.00  0.00    -0.206 F 
ATOM    102  C   UNL     1       4.459  12.479  -8.034  1.00  0.00     0.022 A 
BRANCH  99 103
ATOM    103  S   UNL     1       6.228  10.363  -8.144  1.00  0.00     0.124 S 
ATOM    104  O   UNL     1       5.899  10.242  -9.563  1.00  0.00    -0.237 OA
ATOM    105  O   UNL     1       7.305  11.297  -7.831  1.00  0.00    -0.237 OA
ATOM    106  O   UNL     1       6.250   9.105  -7.405  1.00  0.00    -0.744 OA
ENDBRANCH  99 103
ENDBRANCH  73  96
ENDBRANCH  47  48
ENDBRANCH  39  42
ENDBRANCH  37  38
ENDBRANCH  36  37
ENDBRANCH  35  36
ENDBRANCH   1  35
TORSDOF 21
