REMARK SMILES [NH3+][C@@]1(C(=O)NCCCCCCNC(=O)c2ccc(-c3c4nc(c(-c5cc(S(=O)(=O)[O-])ccc5F)c5ccc([nH]5)c(-c5cc(S(=O)(=O)[O-])ccc5F)c5nc(c(-c6cc(S(=O)(=O)[O-])ccc6F)c6ccc3[nH]6)C=C5)C=C4)cc2)CCC[C@@H](Oc2ccccc2[N+](=O)[O-])C1
REMARK SMILES IDX 8 1 7 2 6 3 5 4 3 5 4 6 2 8 78 9 92 10 79 11 81 12 80 13
REMARK SMILES IDX 1 14 82 18 83 19 84 20 88 21 85 22 87 23 86 24 89 25 90 26
REMARK SMILES IDX 91 27 9 28 10 29 11 30 12 31 13 32 14 34 15 35 16 36 77 37
REMARK SMILES IDX 17 38 76 39 18 40 19 41 20 42 70 43 21 44 75 45 69 46 71 47
REMARK SMILES IDX 22 48 74 49 68 50 67 51 23 53 55 54 35 55 54 56 36 57 39 58
REMARK SMILES IDX 53 59 72 60 37 61 38 62 52 64 73 65 40 66 24 67 25 68 33 69
REMARK SMILES IDX 26 70 32 71 34 72 31 73 27 74 28 75 29 76 30 77 56 78 57 79
REMARK SMILES IDX 65 80 58 81 64 82 66 83 63 84 59 85 60 86 61 87 62 88 41 89
REMARK SMILES IDX 42 90 50 91 43 92 49 93 51 94 48 95 44 96 45 97 46 98 47 99
REMARK H PARENT 5 7 1 15 1 16 1 17 12 33 71 52 39 63
REMARK Flexibility Score: inf
ROOT
ATOM      1  C   UNL     1      -5.777  -1.477  -2.366  1.00  0.00     0.002 C 
ENDROOT
BRANCH   1   2
ATOM      2  C   UNL     1      -4.264  -1.409  -2.120  1.00  0.00     0.021 C 
BRANCH   2   3
ATOM      3  C   UNL     1      -3.809  -0.113  -1.434  1.00  0.00     0.116 C 
BRANCH   3   4
ATOM      4  N   UNL     1      -3.543  -0.300  -0.018  1.00  0.00    -0.351 N 
ATOM      5  C   UNL     1      -2.403  -0.571   0.680  1.00  0.00     0.281 C 
ATOM      6  O   UNL     1      -2.533  -0.653   1.909  1.00  0.00    -0.268 OA
ATOM      7  H   UNL     1      -4.343  -0.216   0.549  1.00  0.00     0.163 HD
BRANCH   5   8
ATOM      8  C   UNL     1      -0.977  -0.649   0.020  1.00  0.00     0.177 C 
ATOM      9  C   UNL     1      -0.056  -1.493   0.932  1.00  0.00     0.079 C 
ATOM     10  C   UNL     1      -0.417   0.791  -0.045  1.00  0.00     0.124 C 
ATOM     11  C   UNL     1       1.400  -1.513   0.468  1.00  0.00     0.011 C 
ATOM     12  C   UNL     1       1.101   0.957  -0.262  1.00  0.00     0.180 C 
ATOM     13  C   UNL     1       2.000  -0.115   0.376  1.00  0.00     0.046 C 
BRANCH   8  14
ATOM     14  N   UNL     1      -1.056  -1.343  -1.277  1.00  0.00    -0.345 N 
ATOM     15  H   UNL     1      -0.127  -1.388  -1.696  1.00  0.00     0.345 HD
ATOM     16  H   UNL     1      -1.684  -0.833  -1.898  1.00  0.00     0.345 HD
ATOM     17  H   UNL     1      -1.411  -2.289  -1.136  1.00  0.00     0.345 HD
ENDBRANCH   8  14
BRANCH  12  18
ATOM     18  O   UNL     1       1.533   1.371  -1.577  1.00  0.00    -0.483 OA
BRANCH  18  19
ATOM     19  C   UNL     1       1.114   0.637  -2.640  1.00  0.00     0.197 A 
ATOM     20  C   UNL     1       1.814  -0.524  -2.974  1.00  0.00     0.054 A 
ATOM     21  C   UNL     1       0.058   1.046  -3.463  1.00  0.00     0.310 A 
ATOM     22  C   UNL     1       1.373  -1.335  -4.023  1.00  0.00     0.004 A 
ATOM     23  C   UNL     1      -0.407   0.227  -4.502  1.00  0.00     0.090 A 
ATOM     24  C   UNL     1       0.247  -0.976  -4.765  1.00  0.00     0.007 A 
BRANCH  21  25
ATOM     25  N   UNL     1      -0.626   2.309  -3.231  1.00  0.00     0.066 N 
ATOM     26  O   UNL     1      -1.866   2.278  -3.238  1.00  0.00    -0.258 OA
ATOM     27  O   UNL     1       0.059   3.322  -3.046  1.00  0.00    -0.258 OA
ENDBRANCH  21  25
ENDBRANCH  18  19
ENDBRANCH  12  18
ENDBRANCH   5   8
ENDBRANCH   3   4
ENDBRANCH   2   3
ENDBRANCH   1   2
BRANCH   1  28
ATOM     28  C   UNL     1      -6.329  -0.417  -3.328  1.00  0.00     0.002 C 
BRANCH  28  29
ATOM     29  C   UNL     1      -5.786  -0.471  -4.761  1.00  0.00     0.021 C 
BRANCH  29  30
ATOM     30  C   UNL     1      -6.051  -1.773  -5.518  1.00  0.00     0.116 C 
BRANCH  30  31
ATOM     31  N   UNL     1      -7.461  -2.125  -5.531  1.00  0.00    -0.352 N 
ATOM     32  C   UNL     1      -8.315  -2.376  -6.570  1.00  0.00     0.251 C 
ATOM     33  H   UNL     1      -7.872  -2.195  -4.639  1.00  0.00     0.163 HD
ATOM     34  O   UNL     1      -9.525  -2.439  -6.336  1.00  0.00    -0.269 OA
BRANCH  32  35
ATOM     35  C   UNL     1      -7.825  -2.563  -7.954  1.00  0.00     0.039 A 
ATOM     36  C   UNL     1      -8.610  -2.083  -9.007  1.00  0.00     0.014 A 
ATOM     37  C   UNL     1      -6.648  -3.264  -8.235  1.00  0.00     0.014 A 
ATOM     38  C   UNL     1      -8.197  -2.267 -10.328  1.00  0.00     0.010 A 
ATOM     39  C   UNL     1      -6.201  -3.387  -9.553  1.00  0.00     0.010 A 
ATOM     40  C   UNL     1      -6.975  -2.897 -10.614  1.00  0.00    -0.014 A 
BRANCH  40  41
ATOM     41  C   UNL     1      -6.512  -3.028 -12.021  1.00  0.00     0.031 A 
ATOM     42  C   UNL     1      -6.381  -4.381 -12.668  1.00  0.00     0.074 A 
ATOM     43  C   UNL     1      -6.195  -1.915 -12.712  1.00  0.00     0.049 A 
ATOM     44  N   UNL     1      -6.032  -4.681 -13.894  1.00  0.00    -0.248 NA
ATOM     45  C   UNL     1      -6.653  -5.550 -11.820  1.00  0.00     0.031 C 
ATOM     46  C   UNL     1      -6.228  -0.553 -12.173  1.00  0.00     0.029 A 
ATOM     47  N   UNL     1      -5.793  -1.746 -14.012  1.00  0.00    -0.354 N 
ATOM     48  C   UNL     1      -6.043  -6.070 -13.965  1.00  0.00     0.074 A 
ATOM     49  C   UNL     1      -6.367  -6.551 -12.639  1.00  0.00     0.031 C 
ATOM     50  C   UNL     1      -5.904   0.313 -13.146  1.00  0.00     0.029 A 
ATOM     51  C   UNL     1      -5.605  -0.429 -14.366  1.00  0.00     0.049 A 
ATOM     52  H   UNL     1      -5.653  -2.496 -14.635  1.00  0.00     0.167 HD
ATOM     53  C   UNL     1      -5.826  -6.868 -15.042  1.00  0.00     0.034 A 
ATOM     54  C   UNL     1      -5.239   0.119 -15.540  1.00  0.00     0.034 A 
ATOM     55  C   UNL     1      -5.507  -6.369 -16.360  1.00  0.00     0.049 A 
ATOM     56  C   UNL     1      -5.003  -0.787 -16.721  1.00  0.00     0.074 A 
ATOM     57  C   UNL     1      -5.323  -7.082 -17.532  1.00  0.00     0.029 A 
ATOM     58  N   UNL     1      -5.314  -5.030 -16.679  1.00  0.00    -0.354 N 
ATOM     59  N   UNL     1      -5.085  -2.096 -16.787  1.00  0.00    -0.248 NA
ATOM     60  C   UNL     1      -4.645  -0.138 -17.987  1.00  0.00     0.031 C 
ATOM     61  C   UNL     1      -4.952  -6.184 -18.541  1.00  0.00     0.029 A 
ATOM     62  C   UNL     1      -4.980  -4.900 -18.020  1.00  0.00     0.049 A 
ATOM     63  H   UNL     1      -5.402  -4.281 -16.046  1.00  0.00     0.167 HD
ATOM     64  C   UNL     1      -4.807  -2.425 -18.111  1.00  0.00     0.074 A 
ATOM     65  C   UNL     1      -4.590  -1.174 -18.810  1.00  0.00     0.031 C 
ATOM     66  C   UNL     1      -4.734  -3.648 -18.698  1.00  0.00     0.034 A 
BRANCH  53  67
ATOM     67  C   UNL     1      -5.905  -8.363 -14.828  1.00  0.00     0.023 A 
ATOM     68  C   UNL     1      -7.095  -8.990 -14.415  1.00  0.00     0.031 A 
ATOM     69  C   UNL     1      -4.771  -9.173 -15.018  1.00  0.00     0.131 A 
ATOM     70  C   UNL     1      -7.104 -10.365 -14.132  1.00  0.00     0.055 A 
ATOM     71  C   UNL     1      -4.808 -10.555 -14.814  1.00  0.00     0.041 A 
ATOM     72  F   UNL     1      -3.600  -8.633 -15.392  1.00  0.00    -0.206 F 
ATOM     73  C   UNL     1      -5.975 -11.156 -14.353  1.00  0.00     0.022 A 
BRANCH  70  74
ATOM     74  S   UNL     1      -8.568 -11.076 -13.332  1.00  0.00     0.124 S 
ATOM     75  O   UNL     1      -8.650 -10.283 -12.108  1.00  0.00    -0.237 OA
ATOM     76  O   UNL     1      -9.615 -10.836 -14.320  1.00  0.00    -0.237 OA
ATOM     77  O   UNL     1      -8.205 -12.477 -13.135  1.00  0.00    -0.744 OA
ENDBRANCH  70  74
ENDBRANCH  53  67
BRANCH  54  78
ATOM     78  C   UNL     1      -5.077   1.596 -15.666  1.00  0.00     0.023 A 
ATOM     79  C   UNL     1      -5.910   2.347 -16.510  1.00  0.00     0.031 A 
ATOM     80  C   UNL     1      -4.060   2.274 -14.970  1.00  0.00     0.131 A 
ATOM     81  C   UNL     1      -5.682   3.723 -16.675  1.00  0.00     0.055 A 
ATOM     82  C   UNL     1      -3.872   3.651 -15.095  1.00  0.00     0.041 A 
ATOM     83  F   UNL     1      -3.240   1.604 -14.143  1.00  0.00    -0.206 F 
ATOM     84  C   UNL     1      -4.678   4.381 -15.963  1.00  0.00     0.022 A 
BRANCH  81  85
ATOM     85  S   UNL     1      -6.668   4.626 -17.901  1.00  0.00     0.124 S 
ATOM     86  O   UNL     1      -6.378   3.883 -19.122  1.00  0.00    -0.237 OA
ATOM     87  O   UNL     1      -8.018   4.482 -17.367  1.00  0.00    -0.237 OA
ATOM     88  O   UNL     1      -6.120   5.979 -17.847  1.00  0.00    -0.744 OA
ENDBRANCH  81  85
ENDBRANCH  54  78
BRANCH  66  89
ATOM     89  C   UNL     1      -4.420  -3.671 -20.175  1.00  0.00     0.023 A 
ATOM     90  C   UNL     1      -3.187  -3.212 -20.672  1.00  0.00     0.031 A 
ATOM     91  C   UNL     1      -5.382  -4.110 -21.102  1.00  0.00     0.131 A 
ATOM     92  C   UNL     1      -2.978  -3.126 -22.056  1.00  0.00     0.055 A 
ATOM     93  C   UNL     1      -5.141  -4.089 -22.477  1.00  0.00     0.041 A 
ATOM     94  F   UNL     1      -6.578  -4.557 -20.687  1.00  0.00    -0.206 F 
ATOM     95  C   UNL     1      -3.941  -3.576 -22.962  1.00  0.00     0.022 A 
BRANCH  92  96
ATOM     96  S   UNL     1      -1.481  -2.296 -22.657  1.00  0.00     0.124 S 
ATOM     97  O   UNL     1      -1.584  -0.986 -22.021  1.00  0.00    -0.237 OA
ATOM     98  O   UNL     1      -0.421  -3.166 -22.157  1.00  0.00    -0.237 OA
ATOM     99  O   UNL     1      -1.649  -2.295 -24.109  1.00  0.00    -0.744 OA
ENDBRANCH  92  96
ENDBRANCH  66  89
ENDBRANCH  40  41
ENDBRANCH  32  35
ENDBRANCH  30  31
ENDBRANCH  29  30
ENDBRANCH  28  29
ENDBRANCH   1  28
TORSDOF 20
