REMARK SMILES CCCN(CC)c1ccnc(C(=O)NCCCCCCNC(=O)c2ccc(-c3c4nc(c(-c5cc(S(=O)(=O)[O-])ccc5F)c5ccc([nH]5)c(-c5cc(S(=O)(=O)[O-])ccc5F)c5nc(c(-c6cc(S(=O)(=O)[O-])ccc6F)c6ccc3[nH]6)C=C5)C=C4)cc2)c1
REMARK SMILES IDX 17 1 16 2 15 3 14 4 12 5 13 6 11 8 7 9 8 10 87 11 9 12 10 13
REMARK SMILES IDX 4 14 3 15 2 16 1 17 5 18 6 19 18 20 19 21 20 22 21 23 22 24
REMARK SMILES IDX 23 26 24 27 25 28 86 29 26 30 85 31 27 32 28 33 29 34 79 35
REMARK SMILES IDX 30 36 84 37 78 38 80 39 31 40 83 41 77 42 76 43 32 45 64 46
REMARK SMILES IDX 44 47 63 48 45 49 48 50 62 51 81 52 46 53 47 54 61 56 82 57
REMARK SMILES IDX 49 58 33 59 34 60 42 61 35 62 41 63 43 64 40 65 36 66 37 67
REMARK SMILES IDX 38 68 39 69 65 70 66 71 74 72 67 73 73 74 75 75 72 76 68 77
REMARK SMILES IDX 69 78 70 79 71 80 50 81 51 82 59 83 52 84 58 85 60 86 57 87
REMARK SMILES IDX 53 88 54 89 55 90 56 91
REMARK H PARENT 14 7 21 25 80 44 48 55
REMARK Flexibility Score: inf
ROOT
ATOM      1  C   UNL     1       3.039   3.796  -7.631  1.00  0.00     0.002 C 
ENDROOT
BRANCH   1   2
ATOM      2  C   UNL     1       2.599   3.321  -6.241  1.00  0.00     0.021 C 
BRANCH   2   3
ATOM      3  C   UNL     1       1.418   2.350  -6.300  1.00  0.00     0.116 C 
BRANCH   3   4
ATOM      4  N   UNL     1       1.903   0.998  -6.487  1.00  0.00    -0.351 N 
ATOM      5  C   UNL     1       1.886  -0.110  -5.668  1.00  0.00     0.269 C 
ATOM      6  O   UNL     1       2.391  -1.142  -6.114  1.00  0.00    -0.268 OA
ATOM      7  H   UNL     1       2.324   0.841  -7.363  1.00  0.00     0.163 HD
BRANCH   5   8
ATOM      8  C   UNL     1       1.226  -0.112  -4.320  1.00  0.00     0.130 A 
ATOM      9  C   UNL     1       0.462   0.950  -2.305  1.00  0.00     0.040 A 
ATOM     10  C   UNL     1      -0.238  -0.221  -2.021  1.00  0.00     0.046 A 
ATOM     11  C   UNL     1       1.255   0.975  -3.453  1.00  0.00     0.060 A 
ATOM     12  C   UNL     1      -0.129  -1.298  -2.879  1.00  0.00     0.114 A 
ATOM     13  N   UNL     1       0.565  -1.264  -4.029  1.00  0.00    -0.251 NA
BRANCH   9  14
ATOM     14  N   UNL     1       0.328   2.067  -1.504  1.00  0.00    -0.372 N 
BRANCH  14  15
ATOM     15  C   UNL     1       1.146   2.248  -0.303  1.00  0.00     0.116 C 
BRANCH  15  16
ATOM     16  C   UNL     1       0.681   1.356   0.853  1.00  0.00     0.018 C 
ATOM     17  C   UNL     1       1.527   0.096   0.990  1.00  0.00     0.006 C 
ENDBRANCH  15  16
ENDBRANCH  14  15
BRANCH  14  18
ATOM     18  C   UNL     1      -0.659   3.087  -1.863  1.00  0.00     0.113 C 
ATOM     19  C   UNL     1      -0.089   4.096  -2.849  1.00  0.00     0.027 C 
ENDBRANCH  14  18
ENDBRANCH   9  14
ENDBRANCH   5   8
ENDBRANCH   3   4
ENDBRANCH   2   3
ENDBRANCH   1   2
BRANCH   1  20
ATOM     20  C   UNL     1       2.007   4.671  -8.356  1.00  0.00     0.002 C 
BRANCH  20  21
ATOM     21  C   UNL     1       1.583   5.933  -7.599  1.00  0.00     0.021 C 
BRANCH  21  22
ATOM     22  C   UNL     1       2.726   6.891  -7.276  1.00  0.00     0.116 C 
BRANCH  22  23
ATOM     23  N   UNL     1       3.369   7.380  -8.484  1.00  0.00    -0.352 N 
ATOM     24  C   UNL     1       3.613   8.667  -8.880  1.00  0.00     0.251 C 
ATOM     25  H   UNL     1       3.675   6.683  -9.109  1.00  0.00     0.163 HD
ATOM     26  O   UNL     1       3.939   8.888 -10.048  1.00  0.00    -0.269 OA
BRANCH  24  27
ATOM     27  C   UNL     1       3.478   9.784  -7.921  1.00  0.00     0.039 A 
ATOM     28  C   UNL     1       2.911  10.984  -8.358  1.00  0.00     0.014 A 
ATOM     29  C   UNL     1       3.951   9.670  -6.610  1.00  0.00     0.014 A 
ATOM     30  C   UNL     1       2.786  12.056  -7.472  1.00  0.00     0.010 A 
ATOM     31  C   UNL     1       3.763  10.715  -5.709  1.00  0.00     0.010 A 
ATOM     32  C   UNL     1       3.194  11.924  -6.135  1.00  0.00    -0.014 A 
BRANCH  32  33
ATOM     33  C   UNL     1       3.061  13.056  -5.181  1.00  0.00     0.031 A 
ATOM     34  C   UNL     1       4.292  13.699  -4.600  1.00  0.00     0.074 A 
ATOM     35  C   UNL     1       1.836  13.474  -4.810  1.00  0.00     0.049 A 
ATOM     36  N   UNL     1       4.387  14.662  -3.720  1.00  0.00    -0.248 NA
ATOM     37  C   UNL     1       5.588  13.165  -5.047  1.00  0.00     0.031 C 
ATOM     38  C   UNL     1       0.572  12.901  -5.277  1.00  0.00     0.029 A 
ATOM     39  N   UNL     1       1.450  14.473  -3.952  1.00  0.00    -0.354 N 
ATOM     40  C   UNL     1       5.749  14.842  -3.498  1.00  0.00     0.074 A 
ATOM     41  C   UNL     1       6.436  13.842  -4.288  1.00  0.00     0.031 C 
ATOM     42  C   UNL     1      -0.448  13.575  -4.722  1.00  0.00     0.029 A 
ATOM     43  C   UNL     1       0.085  14.599  -3.829  1.00  0.00     0.049 A 
ATOM     44  H   UNL     1       2.089  15.046  -3.471  1.00  0.00     0.167 HD
ATOM     45  C   UNL     1       6.369  15.770  -2.727  1.00  0.00     0.034 A 
ATOM     46  C   UNL     1      -0.651  15.441  -3.077  1.00  0.00     0.034 A 
ATOM     47  C   UNL     1       5.665  16.768  -1.957  1.00  0.00     0.049 A 
ATOM     48  C   UNL     1       0.058  16.460  -2.222  1.00  0.00     0.074 A 
ATOM     49  C   UNL     1       6.189  17.785  -1.178  1.00  0.00     0.029 A 
ATOM     50  N   UNL     1       4.282  16.873  -1.866  1.00  0.00    -0.354 N 
ATOM     51  N   UNL     1       1.348  16.647  -2.059  1.00  0.00    -0.248 NA
ATOM     52  C   UNL     1      -0.786  17.392  -1.465  1.00  0.00     0.031 C 
ATOM     53  C   UNL     1       5.128  18.462  -0.567  1.00  0.00     0.029 A 
ATOM     54  C   UNL     1       3.938  17.921  -1.025  1.00  0.00     0.049 A 
ATOM     55  H   UNL     1       3.641  16.289  -2.331  1.00  0.00     0.167 HD
ATOM     56  C   UNL     1       1.467  17.743  -1.208  1.00  0.00     0.074 A 
ATOM     57  C   UNL     1       0.119  18.180  -0.905  1.00  0.00     0.031 C 
ATOM     58  C   UNL     1       2.588  18.340  -0.728  1.00  0.00     0.034 A 
BRANCH  45  59
ATOM     59  C   UNL     1       7.878  15.726  -2.663  1.00  0.00     0.023 A 
ATOM     60  C   UNL     1       8.673  15.923  -3.807  1.00  0.00     0.031 A 
ATOM     61  C   UNL     1       8.533  15.453  -1.449  1.00  0.00     0.131 A 
ATOM     62  C   UNL     1      10.065  15.764  -3.731  1.00  0.00     0.055 A 
ATOM     63  C   UNL     1       9.926  15.381  -1.363  1.00  0.00     0.041 A 
ATOM     64  F   UNL     1       7.831  15.234  -0.327  1.00  0.00    -0.206 F 
ATOM     65  C   UNL     1      10.699  15.520  -2.511  1.00  0.00     0.022 A 
BRANCH  62  66
ATOM     66  S   UNL     1      11.018  15.729  -5.274  1.00  0.00     0.124 S 
ATOM     67  O   UNL     1      10.399  14.607  -5.976  1.00  0.00    -0.237 OA
ATOM     68  O   UNL     1      10.762  17.052  -5.832  1.00  0.00    -0.237 OA
ATOM     69  O   UNL     1      12.388  15.494  -4.825  1.00  0.00    -0.744 OA
ENDBRANCH  62  66
ENDBRANCH  45  59
BRANCH  46  70
ATOM     70  C   UNL     1      -2.140  15.363  -3.097  1.00  0.00     0.023 A 
ATOM     71  C   UNL     1      -2.913  16.424  -3.594  1.00  0.00     0.031 A 
ATOM     72  C   UNL     1      -2.813  14.240  -2.585  1.00  0.00     0.131 A 
ATOM     73  C   UNL     1      -4.314  16.361  -3.526  1.00  0.00     0.055 A 
ATOM     74  C   UNL     1      -4.207  14.159  -2.568  1.00  0.00     0.041 A 
ATOM     75  F   UNL     1      -2.122  13.194  -2.105  1.00  0.00    -0.206 F 
ATOM     76  C   UNL     1      -4.966  15.231  -3.028  1.00  0.00     0.022 A 
BRANCH  73  77
ATOM     77  S   UNL     1      -5.273  17.819  -4.021  1.00  0.00     0.124 S 
ATOM     78  O   UNL     1      -4.736  18.843  -3.132  1.00  0.00    -0.237 OA
ATOM     79  O   UNL     1      -4.924  17.945  -5.432  1.00  0.00    -0.237 OA
ATOM     80  O   UNL     1      -6.654  17.422  -3.755  1.00  0.00    -0.744 OA
ENDBRANCH  73  77
ENDBRANCH  46  70
BRANCH  58  81
ATOM     81  C   UNL     1       2.396  19.565   0.133  1.00  0.00     0.023 A 
ATOM     82  C   UNL     1       1.795  19.495   1.402  1.00  0.00     0.031 A 
ATOM     83  C   UNL     1       2.811  20.825  -0.335  1.00  0.00     0.131 A 
ATOM     84  C   UNL     1       1.572  20.671   2.134  1.00  0.00     0.055 A 
ATOM     85  C   UNL     1       2.642  21.983   0.425  1.00  0.00     0.041 A 
ATOM     86  F   UNL     1       3.389  20.950  -1.540  1.00  0.00    -0.206 F 
ATOM     87  C   UNL     1       2.007  21.912   1.661  1.00  0.00     0.022 A 
BRANCH  84  88
ATOM     88  S   UNL     1       0.618  20.570   3.674  1.00  0.00     0.124 S 
ATOM     89  O   UNL     1      -0.636  19.980   3.216  1.00  0.00    -0.237 OA
ATOM     90  O   UNL     1       1.458  19.714   4.505  1.00  0.00    -0.237 OA
ATOM     91  O   UNL     1       0.525  21.961   4.112  1.00  0.00    -0.744 OA
ENDBRANCH  84  88
ENDBRANCH  58  81
ENDBRANCH  32  33
ENDBRANCH  24  27
ENDBRANCH  22  23
ENDBRANCH  21  22
ENDBRANCH  20  21
ENDBRANCH   1  20
TORSDOF 20
