REMARK SMILES COCc1cccc(O[C@@H](C)c2ccc(C(=O)NCCCCCCNC(=O)c3ccc(-c4c5nc(c(-c6cc(S(=O)(=O)[O-])ccc6F)c6ccc([nH]6)c(-c6cc(S(=O)(=O)[O-])ccc6F)c6nc(c(-c7cc(S(=O)(=O)[O-])ccc7F)c7ccc4[nH]7)C=C6)C=C5)cc3)o2)c1
REMARK SMILES IDX 20 1 19 2 18 3 16 4 17 5 15 7 12 8 13 9 91 10 14 11 10 12
REMARK SMILES IDX 11 13 9 14 8 15 4 16 5 17 92 18 6 19 7 20 3 21 2 22 1 23
REMARK SMILES IDX 21 24 22 25 23 26 24 27 25 28 26 29 27 31 28 32 29 33 90 34
REMARK SMILES IDX 30 35 89 36 31 37 32 38 33 39 83 40 34 41 88 42 82 43 84 44
REMARK SMILES IDX 35 45 87 46 81 47 80 48 36 50 68 51 48 52 67 53 49 54 52 55
REMARK SMILES IDX 66 56 85 57 50 58 51 59 65 61 86 62 53 63 37 64 38 65 46 66
REMARK SMILES IDX 39 67 45 68 47 69 44 70 40 71 41 72 42 73 43 74 69 75 70 76
REMARK SMILES IDX 78 77 71 78 77 79 79 80 76 81 72 82 73 83 74 84 75 85 54 86
REMARK SMILES IDX 55 87 63 88 56 89 62 90 64 91 61 92 57 93 58 94 59 95 60 96
REMARK H PARENT 18 6 25 30 84 49 52 60
REMARK Flexibility Score: inf
ROOT
ATOM      1  C   UNL     1      -4.601  -4.266   1.171  1.00  0.00     0.021 C 
ENDROOT
BRANCH   1   2
ATOM      2  C   UNL     1      -5.428  -3.927  -0.068  1.00  0.00     0.116 C 
BRANCH   2   3
ATOM      3  N   UNL     1      -5.195  -2.566  -0.494  1.00  0.00    -0.349 N 
ATOM      4  C   UNL     1      -4.526  -2.046  -1.575  1.00  0.00     0.286 C 
ATOM      5  O   UNL     1      -4.596  -0.819  -1.690  1.00  0.00    -0.266 OA
ATOM      6  H   UNL     1      -5.587  -1.886   0.101  1.00  0.00     0.163 HD
BRANCH   4   7
ATOM      7  C   UNL     1      -3.803  -2.887  -2.515  1.00  0.00     0.191 A 
ATOM      8  C   UNL     1      -2.643  -3.158  -4.392  1.00  0.00     0.145 A 
ATOM      9  C   UNL     1      -2.676  -4.389  -3.777  1.00  0.00     0.050 A 
ATOM     10  O   UNL     1      -3.379  -2.270  -3.667  1.00  0.00    -0.452 OA
ATOM     11  C   UNL     1      -3.364  -4.201  -2.552  1.00  0.00     0.057 A 
BRANCH   8  12
ATOM     12  C   UNL     1      -1.949  -2.631  -5.606  1.00  0.00     0.236 C 
ATOM     13  C   UNL     1      -0.753  -3.465  -6.061  1.00  0.00     0.062 C 
BRANCH  12  14
ATOM     14  O   UNL     1      -1.608  -1.238  -5.474  1.00  0.00    -0.483 OA
BRANCH  14  15
ATOM     15  C   UNL     1      -0.701  -0.774  -4.565  1.00  0.00     0.120 A 
ATOM     16  C   UNL     1       0.715  -0.835  -2.577  1.00  0.00    -0.019 A 
ATOM     17  C   UNL     1       1.142   0.470  -2.853  1.00  0.00     0.006 A 
ATOM     18  C   UNL     1      -0.208  -1.446  -3.446  1.00  0.00     0.052 A 
ATOM     19  C   UNL     1       0.640   1.156  -3.955  1.00  0.00     0.004 A 
ATOM     20  C   UNL     1      -0.280   0.537  -4.801  1.00  0.00     0.046 A 
BRANCH  16  21
ATOM     21  C   UNL     1       1.219  -1.575  -1.361  1.00  0.00     0.195 C 
BRANCH  21  22
ATOM     22  O   UNL     1       0.464  -1.299  -0.182  1.00  0.00    -0.380 OA
ATOM     23  C   UNL     1       0.787  -0.055   0.422  1.00  0.00     0.195 C 
ENDBRANCH  21  22
ENDBRANCH  16  21
ENDBRANCH  14  15
ENDBRANCH  12  14
ENDBRANCH   8  12
ENDBRANCH   4   7
ENDBRANCH   2   3
ENDBRANCH   1   2
BRANCH   1  24
ATOM     24  C   UNL     1      -5.255  -3.806   2.482  1.00  0.00     0.002 C 
BRANCH  24  25
ATOM     25  C   UNL     1      -6.641  -4.406   2.762  1.00  0.00     0.002 C 
BRANCH  25  26
ATOM     26  C   UNL     1      -6.715  -5.935   2.693  1.00  0.00     0.021 C 
BRANCH  26  27
ATOM     27  C   UNL     1      -5.831  -6.657   3.706  1.00  0.00     0.116 C 
BRANCH  27  28
ATOM     28  N   UNL     1      -6.242  -6.373   5.072  1.00  0.00    -0.352 N 
ATOM     29  C   UNL     1      -6.620  -7.240   6.067  1.00  0.00     0.251 C 
ATOM     30  H   UNL     1      -6.250  -5.420   5.319  1.00  0.00     0.163 HD
ATOM     31  O   UNL     1      -7.166  -6.804   7.077  1.00  0.00    -0.269 OA
BRANCH  29  32
ATOM     32  C   UNL     1      -6.385  -8.692   5.913  1.00  0.00     0.039 A 
ATOM     33  C   UNL     1      -7.395  -9.584   6.280  1.00  0.00     0.014 A 
ATOM     34  C   UNL     1      -5.165  -9.173   5.428  1.00  0.00     0.014 A 
ATOM     35  C   UNL     1      -7.206 -10.957   6.101  1.00  0.00     0.010 A 
ATOM     36  C   UNL     1      -5.002 -10.536   5.190  1.00  0.00     0.010 A 
ATOM     37  C   UNL     1      -6.021 -11.442   5.523  1.00  0.00    -0.014 A 
BRANCH  37  38
ATOM     38  C   UNL     1      -5.836 -12.890   5.248  1.00  0.00     0.031 A 
ATOM     39  C   UNL     1      -4.764 -13.666   5.963  1.00  0.00     0.074 A 
ATOM     40  C   UNL     1      -6.591 -13.487   4.305  1.00  0.00     0.049 A 
ATOM     41  N   UNL     1      -4.395 -14.911   5.800  1.00  0.00    -0.248 NA
ATOM     42  C   UNL     1      -3.988 -12.936   6.975  1.00  0.00     0.031 C 
ATOM     43  C   UNL     1      -7.637 -12.828   3.519  1.00  0.00     0.029 A 
ATOM     44  N   UNL     1      -6.591 -14.777   3.836  1.00  0.00    -0.354 N 
ATOM     45  C   UNL     1      -3.337 -15.112   6.680  1.00  0.00     0.074 A 
ATOM     46  C   UNL     1      -3.088 -13.842   7.330  1.00  0.00     0.031 C 
ATOM     47  C   UNL     1      -8.188 -13.721   2.682  1.00  0.00     0.029 A 
ATOM     48  C   UNL     1      -7.507 -15.002   2.835  1.00  0.00     0.049 A 
ATOM     49  H   UNL     1      -5.991 -15.476   4.184  1.00  0.00     0.167 HD
ATOM     50  C   UNL     1      -2.651 -16.254   6.935  1.00  0.00     0.034 A 
ATOM     51  C   UNL     1      -7.758 -16.110   2.109  1.00  0.00     0.034 A 
ATOM     52  C   UNL     1      -2.918 -17.513   6.282  1.00  0.00     0.049 A 
ATOM     53  C   UNL     1      -6.962 -17.358   2.389  1.00  0.00     0.074 A 
ATOM     54  C   UNL     1      -2.326 -18.744   6.506  1.00  0.00     0.029 A 
ATOM     55  N   UNL     1      -3.849 -17.703   5.268  1.00  0.00    -0.354 N 
ATOM     56  N   UNL     1      -5.998 -17.545   3.261  1.00  0.00    -0.248 NA
ATOM     57  C   UNL     1      -7.292 -18.546   1.591  1.00  0.00     0.031 C 
ATOM     58  C   UNL     1      -2.846 -19.658   5.583  1.00  0.00     0.029 A 
ATOM     59  C   UNL     1      -3.820 -19.019   4.832  1.00  0.00     0.049 A 
ATOM     60  H   UNL     1      -4.443 -17.003   4.910  1.00  0.00     0.167 HD
ATOM     61  C   UNL     1      -5.626 -18.880   3.133  1.00  0.00     0.074 A 
ATOM     62  C   UNL     1      -6.481 -19.454   2.115  1.00  0.00     0.031 C 
ATOM     63  C   UNL     1      -4.666 -19.572   3.799  1.00  0.00     0.034 A 
BRANCH  50  64
ATOM     64  C   UNL     1      -1.528 -16.181   7.944  1.00  0.00     0.023 A 
ATOM     65  C   UNL     1      -1.765 -15.853   9.291  1.00  0.00     0.031 A 
ATOM     66  C   UNL     1      -0.199 -16.419   7.551  1.00  0.00     0.131 A 
ATOM     67  C   UNL     1      -0.688 -15.697  10.176  1.00  0.00     0.055 A 
ATOM     68  C   UNL     1       0.862 -16.343   8.456  1.00  0.00     0.041 A 
ATOM     69  F   UNL     1       0.094 -16.716   6.276  1.00  0.00    -0.206 F 
ATOM     70  C   UNL     1       0.623 -15.965   9.774  1.00  0.00     0.022 A 
BRANCH  67  71
ATOM     71  S   UNL     1      -1.009 -14.999  11.819  1.00  0.00     0.124 S 
ATOM     72  O   UNL     1      -1.606 -13.709  11.479  1.00  0.00    -0.237 OA
ATOM     73  O   UNL     1      -1.908 -15.984  12.409  1.00  0.00    -0.237 OA
ATOM     74  O   UNL     1       0.318 -14.922  12.425  1.00  0.00    -0.744 OA
ENDBRANCH  67  71
ENDBRANCH  50  64
BRANCH  51  75
ATOM     75  C   UNL     1      -8.795 -16.091   1.038  1.00  0.00     0.023 A 
ATOM     76  C   UNL     1      -9.949 -16.885   1.135  1.00  0.00     0.031 A 
ATOM     77  C   UNL     1      -8.628 -15.308  -0.118  1.00  0.00     0.131 A 
ATOM     78  C   UNL     1     -10.869 -16.914   0.075  1.00  0.00     0.055 A 
ATOM     79  C   UNL     1      -9.573 -15.299  -1.146  1.00  0.00     0.041 A 
ATOM     80  F   UNL     1      -7.545 -14.526  -0.259  1.00  0.00    -0.206 F 
ATOM     81  C   UNL     1     -10.695 -16.116  -1.058  1.00  0.00     0.022 A 
BRANCH  78  82
ATOM     82  S   UNL     1     -12.258 -18.076   0.164  1.00  0.00     0.124 S 
ATOM     83  O   UNL     1     -11.568 -19.353   0.303  1.00  0.00    -0.237 OA
ATOM     84  O   UNL     1     -12.975 -17.601   1.343  1.00  0.00    -0.237 OA
ATOM     85  O   UNL     1     -12.951 -17.875  -1.107  1.00  0.00    -0.744 OA
ENDBRANCH  78  82
ENDBRANCH  51  75
BRANCH  63  86
ATOM     86  C   UNL     1      -4.520 -21.036   3.461  1.00  0.00     0.023 A 
ATOM     87  C   UNL     1      -4.068 -21.460   2.199  1.00  0.00     0.031 A 
ATOM     88  C   UNL     1      -4.857 -22.019   4.408  1.00  0.00     0.131 A 
ATOM     89  C   UNL     1      -4.020 -22.829   1.898  1.00  0.00     0.055 A 
ATOM     90  C   UNL     1      -4.749 -23.381   4.123  1.00  0.00     0.041 A 
ATOM     91  F   UNL     1      -5.298 -21.671   5.627  1.00  0.00    -0.206 F 
ATOM     92  C   UNL     1      -4.341 -23.793   2.858  1.00  0.00     0.022 A 
BRANCH  89  93
ATOM     93  S   UNL     1      -3.622 -23.334   0.202  1.00  0.00     0.124 S 
ATOM     94  O   UNL     1      -4.676 -22.679  -0.565  1.00  0.00    -0.237 OA
ATOM     95  O   UNL     1      -2.276 -22.798   0.024  1.00  0.00    -0.237 OA
ATOM     96  O   UNL     1      -3.705 -24.793   0.250  1.00  0.00    -0.744 OA
ENDBRANCH  89  93
ENDBRANCH  63  86
ENDBRANCH  37  38
ENDBRANCH  29  32
ENDBRANCH  27  28
ENDBRANCH  26  27
ENDBRANCH  25  26
ENDBRANCH  24  25
ENDBRANCH   1  24
TORSDOF 21
