REMARK SMILES Cc1cccc(NC(=O)C[C@H]([NH2+]C(C)C)C(=O)NCCCCCCNC(=O)c2ccc(-c3c4nc(c(-c5cc(S(=O)(=O)[O-])ccc5F)c5ccc([nH]5)c(-c5cc(S(=O)(=O)[O-])ccc5F)c5nc(c(-c6cc(S(=O)(=O)[O-])ccc6F)c6ccc3[nH]6)C=C5)C=C4)cc2)c1
REMARK SMILES IDX 21 1 20 2 19 3 18 4 16 5 17 6 11 8 10 9 8 10 7 11 9 13 6 14
REMARK SMILES IDX 1 15 2 16 3 17 91 18 4 19 5 20 12 21 13 24 14 25 15 26 22 27
REMARK SMILES IDX 23 28 24 29 25 30 26 31 27 33 28 34 29 35 90 36 30 37 89 38
REMARK SMILES IDX 31 39 32 40 33 41 83 42 34 43 88 44 82 45 84 46 35 47 87 48
REMARK SMILES IDX 81 49 80 50 36 52 68 53 48 54 67 55 49 56 52 57 66 58 85 59
REMARK SMILES IDX 50 60 51 61 65 63 86 64 53 65 37 66 38 67 46 68 39 69 45 70
REMARK SMILES IDX 47 71 44 72 40 73 41 74 42 75 43 76 69 77 70 78 78 79 71 80
REMARK SMILES IDX 77 81 79 82 76 83 72 84 73 85 74 86 75 87 54 88 55 89 63 90
REMARK SMILES IDX 56 91 62 92 64 93 61 94 57 95 58 96 59 97 60 98
REMARK H PARENT 18 7 7 12 12 22 12 23 25 32 84 51 52 62
REMARK Flexibility Score: inf
ROOT
ATOM      1  C   UNL     1      -4.127  -3.749   3.700  1.00  0.00     0.002 C 
ENDROOT
BRANCH   1   2
ATOM      2  C   UNL     1      -3.605  -2.385   3.253  1.00  0.00     0.021 C 
BRANCH   2   3
ATOM      3  C   UNL     1      -3.205  -2.318   1.573  1.00  0.00     0.116 C 
BRANCH   3   4
ATOM      4  N   UNL     1      -4.301  -1.668  -0.069  1.00  0.00    -0.351 N 
ATOM      5  C   UNL     1      -4.556  -0.902  -1.210  1.00  0.00     0.278 C 
ATOM      6  O   UNL     1      -5.418  -1.413  -1.954  1.00  0.00    -0.268 OA
ATOM      7  H   UNL     1      -5.114  -2.221  -0.007  1.00  0.00     0.163 HD
BRANCH   5   8
ATOM      8  C   UNL     1      -4.003   0.468  -1.643  1.00  0.00     0.282 C 
BRANCH   8   9
ATOM      9  C   UNL     1      -2.496   0.553  -2.003  1.00  0.00     0.175 C 
BRANCH   9  10
ATOM     10  C   UNL     1      -1.753  -0.730  -2.401  1.00  0.00     0.230 C 
ATOM     11  N   UNL     1      -1.629  -1.803  -1.561  1.00  0.00    -0.326 N 
ATOM     12  H   UNL     1      -0.996  -2.513  -1.817  1.00  0.00     0.169 HD
ATOM     13  O   UNL     1      -1.215  -0.808  -3.513  1.00  0.00    -0.274 OA
BRANCH  11  14
ATOM     14  C   UNL     1      -2.334  -1.964  -0.366  1.00  0.00     0.041 A 
ATOM     15  C   UNL     1      -5.735  -4.692   0.798  1.00  0.00     0.044 C 
ATOM     16  C   UNL     1      -4.823  -3.500   0.773  1.00  0.00    -0.049 A 
ATOM     17  C   UNL     1      -5.332  -1.986   1.639  1.00  0.00     0.003 A 
ATOM     18  C   UNL     1      -3.350  -3.468  -0.284  1.00  0.00     0.029 A 
ATOM     19  C   UNL     1      -4.268  -0.509   1.605  1.00  0.00     0.002 A 
ATOM     20  C   UNL     1      -2.767  -0.489   0.610  1.00  0.00     0.026 A 
ENDBRANCH  11  14
ENDBRANCH   9  10
ENDBRANCH   8   9
BRANCH   8  21
ATOM     21  N   UNL     1      -4.534   1.606  -0.800  1.00  0.00    -0.334 N 
ATOM     22  H   UNL     1      -4.623   2.426  -1.400  1.00  0.00     0.347 HD
ATOM     23  H   UNL     1      -3.865   1.722  -0.038  1.00  0.00     0.347 HD
BRANCH  21  24
ATOM     24  C   UNL     1      -5.849   1.369  -0.151  1.00  0.00     0.176 C 
ATOM     25  C   UNL     1      -6.010   2.302   1.059  1.00  0.00     0.075 C 
ATOM     26  C   UNL     1      -7.086   1.408  -1.038  1.00  0.00     0.075 C 
ENDBRANCH  21  24
ENDBRANCH   8  21
ENDBRANCH   5   8
ENDBRANCH   3   4
ENDBRANCH   2   3
ENDBRANCH   1   2
BRANCH   1  27
ATOM     27  C   UNL     1      -3.187  -4.914   3.393  1.00  0.00     0.002 C 
BRANCH  27  28
ATOM     28  C   UNL     1      -1.732  -4.765   3.861  1.00  0.00     0.021 C 
BRANCH  28  29
ATOM     29  C   UNL     1      -1.519  -4.814   5.369  1.00  0.00     0.116 C 
BRANCH  29  30
ATOM     30  N   UNL     1      -2.236  -5.933   5.975  1.00  0.00    -0.352 N 
ATOM     31  C   UNL     1      -2.590  -6.163   7.283  1.00  0.00     0.251 C 
ATOM     32  H   UNL     1      -2.511  -6.636   5.343  1.00  0.00     0.163 HD
ATOM     33  O   UNL     1      -2.404  -7.258   7.805  1.00  0.00    -0.269 OA
BRANCH  31  34
ATOM     34  C   UNL     1      -3.445  -5.162   7.957  1.00  0.00     0.039 A 
ATOM     35  C   UNL     1      -4.085  -5.444   9.172  1.00  0.00     0.014 A 
ATOM     36  C   UNL     1      -3.800  -4.028   7.250  1.00  0.00     0.014 A 
ATOM     37  C   UNL     1      -5.153  -4.645   9.581  1.00  0.00     0.010 A 
ATOM     38  C   UNL     1      -4.812  -3.226   7.639  1.00  0.00     0.010 A 
ATOM     39  C   UNL     1      -5.533  -3.591   8.755  1.00  0.00    -0.014 A 
BRANCH  39  40
ATOM     40  C   UNL     1      -6.623  -2.672   8.948  1.00  0.00     0.031 A 
ATOM     41  C   UNL     1      -6.359  -1.647   9.954  1.00  0.00     0.074 A 
ATOM     42  C   UNL     1      -7.587  -2.720   8.001  1.00  0.00     0.049 A 
ATOM     43  N   UNL     1      -7.181  -1.256  10.854  1.00  0.00    -0.248 NA
ATOM     44  C   UNL     1      -5.016  -1.069  10.124  1.00  0.00     0.031 C 
ATOM     45  C   UNL     1      -8.657  -1.802   7.658  1.00  0.00     0.029 A 
ATOM     46  N   UNL     1      -7.832  -3.824   7.179  1.00  0.00    -0.354 N 
ATOM     47  C   UNL     1      -6.652  -0.070  11.315  1.00  0.00     0.074 A 
ATOM     48  C   UNL     1      -5.237  -0.167  11.084  1.00  0.00     0.031 C 
ATOM     49  C   UNL     1      -9.615  -2.492   6.999  1.00  0.00     0.029 A 
ATOM     50  C   UNL     1      -9.213  -3.894   6.965  1.00  0.00     0.049 A 
ATOM     51  H   UNL     1      -7.155  -4.440   6.817  1.00  0.00     0.167 HD
ATOM     52  C   UNL     1      -7.489   0.993  11.476  1.00  0.00     0.034 A 
ATOM     53  C   UNL     1      -9.878  -4.938   7.551  1.00  0.00     0.034 A 
ATOM     54  C   UNL     1      -8.830   0.622  11.007  1.00  0.00     0.049 A 
ATOM     55  C   UNL     1     -10.652  -4.447   8.755  1.00  0.00     0.074 A 
ATOM     56  C   UNL     1      -9.518   0.902   9.838  1.00  0.00     0.029 A 
ATOM     57  N   UNL     1      -9.482  -0.449  11.598  1.00  0.00    -0.354 N 
ATOM     58  N   UNL     1     -10.350  -3.372   9.436  1.00  0.00    -0.248 NA
ATOM     59  C   UNL     1     -11.882  -5.078   9.216  1.00  0.00     0.031 C 
ATOM     60  C   UNL     1     -10.554  -0.065   9.704  1.00  0.00     0.029 A 
ATOM     61  C   UNL     1     -10.491  -0.924  10.788  1.00  0.00     0.049 A 
ATOM     62  H   UNL     1      -9.254  -0.821  12.480  1.00  0.00     0.167 HD
ATOM     63  C   UNL     1     -11.319  -3.137  10.376  1.00  0.00     0.074 A 
ATOM     64  C   UNL     1     -12.257  -4.234  10.191  1.00  0.00     0.031 C 
ATOM     65  C   UNL     1     -11.288  -2.059  11.221  1.00  0.00     0.034 A 
BRANCH  52  66
ATOM     66  C   UNL     1      -7.096   2.431  11.709  1.00  0.00     0.023 A 
ATOM     67  C   UNL     1      -8.088   3.414  11.520  1.00  0.00     0.031 A 
ATOM     68  C   UNL     1      -5.844   2.917  12.134  1.00  0.00     0.131 A 
ATOM     69  C   UNL     1      -7.824   4.781  11.693  1.00  0.00     0.055 A 
ATOM     70  C   UNL     1      -5.570   4.285  12.287  1.00  0.00     0.041 A 
ATOM     71  F   UNL     1      -4.836   2.106  12.471  1.00  0.00    -0.206 F 
ATOM     72  C   UNL     1      -6.563   5.227  12.067  1.00  0.00     0.022 A 
BRANCH  69  73
ATOM     73  S   UNL     1      -9.177   5.954  11.434  1.00  0.00     0.124 S 
ATOM     74  O   UNL     1      -9.472   5.768  10.016  1.00  0.00    -0.237 OA
ATOM     75  O   UNL     1     -10.186   5.476  12.373  1.00  0.00    -0.237 OA
ATOM     76  O   UNL     1      -8.576   7.242  11.777  1.00  0.00    -0.744 OA
ENDBRANCH  69  73
ENDBRANCH  52  66
BRANCH  53  77
ATOM     77  C   UNL     1      -9.067  -6.207   7.463  1.00  0.00     0.023 A 
ATOM     78  C   UNL     1      -8.783  -6.681   6.157  1.00  0.00     0.031 A 
ATOM     79  C   UNL     1      -8.194  -6.588   8.494  1.00  0.00     0.131 A 
ATOM     80  C   UNL     1      -7.555  -7.305   5.880  1.00  0.00     0.055 A 
ATOM     81  C   UNL     1      -6.997  -7.267   8.217  1.00  0.00     0.041 A 
ATOM     82  F   UNL     1      -8.401  -6.178   9.754  1.00  0.00    -0.206 F 
ATOM     83  C   UNL     1      -6.643  -7.569   6.902  1.00  0.00     0.022 A 
BRANCH  80  84
ATOM     84  S   UNL     1      -7.030  -7.505   4.147  1.00  0.00     0.124 S 
ATOM     85  O   UNL     1      -7.538  -8.833   3.821  1.00  0.00    -0.237 OA
ATOM     86  O   UNL     1      -7.689  -6.389   3.470  1.00  0.00    -0.237 OA
ATOM     87  O   UNL     1      -5.575  -7.389   4.215  1.00  0.00    -0.744 OA
ENDBRANCH  80  84
ENDBRANCH  53  77
BRANCH  65  88
ATOM     88  C   UNL     1     -12.076  -1.944  12.507  1.00  0.00     0.023 A 
ATOM     89  C   UNL     1     -12.770  -3.025  13.053  1.00  0.00     0.031 A 
ATOM     90  C   UNL     1     -12.092  -0.759  13.287  1.00  0.00     0.131 A 
ATOM     91  C   UNL     1     -13.550  -2.882  14.207  1.00  0.00     0.055 A 
ATOM     92  C   UNL     1     -12.761  -0.656  14.508  1.00  0.00     0.041 A 
ATOM     93  F   UNL     1     -11.452   0.358  12.913  1.00  0.00    -0.206 F 
ATOM     94  C   UNL     1     -13.529  -1.714  14.960  1.00  0.00     0.022 A 
BRANCH  91  95
ATOM     95  S   UNL     1     -14.687  -4.227  14.607  1.00  0.00     0.124 S 
ATOM     96  O   UNL     1     -15.535  -4.260  13.417  1.00  0.00    -0.237 OA
ATOM     97  O   UNL     1     -13.785  -5.363  14.770  1.00  0.00    -0.237 OA
ATOM     98  O   UNL     1     -15.345  -3.769  15.827  1.00  0.00    -0.744 OA
ENDBRANCH  91  95
ENDBRANCH  65  88
ENDBRANCH  39  40
ENDBRANCH  31  34
ENDBRANCH  29  30
ENDBRANCH  28  29
ENDBRANCH  27  28
ENDBRANCH   1  27
TORSDOF 21
