REMARK SMILES O=C(NCCCCCCNC(=O)[C@@H]1[C@H](C(=O)Nc2ccccc2Cc2ccccc2)[C@H]2C=C[C@@H]1O2)c1ccc(-c2c3nc(c(-c4cc(S(=O)(=O)[O-])ccc4F)c4ccc([nH]4)c(-c4cc(S(=O)(=O)[O-])ccc4F)c4nc(c(-c5cc(S(=O)(=O)[O-])ccc5F)c5ccc2[nH]5)C=C4)C=C3)cc1
REMARK SMILES IDX 7 1 6 2 5 3 4 4 3 5 1 6 2 7 36 9 37 10 98 11 38 12 97 13
REMARK SMILES IDX 39 14 40 15 41 16 91 17 42 18 96 19 90 20 92 21 43 22 95 23
REMARK SMILES IDX 89 24 88 25 44 27 76 28 56 29 75 30 57 31 60 32 74 33 93 34
REMARK SMILES IDX 58 35 59 36 73 38 94 39 61 40 45 41 46 42 54 43 47 44 53 45
REMARK SMILES IDX 55 46 52 47 48 48 49 49 50 50 51 51 77 52 78 53 86 54 79 55
REMARK SMILES IDX 85 56 87 57 84 58 80 59 81 60 82 61 83 62 62 63 63 64 71 65
REMARK SMILES IDX 64 66 70 67 72 68 69 69 65 70 66 71 67 72 68 73 8 74 9 75
REMARK SMILES IDX 10 76 11 77 12 79 13 80 14 81 34 82 31 83 33 84 35 85 32 86
REMARK SMILES IDX 15 87 16 88 17 89 18 91 19 92 23 93 20 94 22 95 21 96 24 97
REMARK SMILES IDX 25 98 26 99 30 100 27 101 29 102 28 103
REMARK H PARENT 3 8 92 26 60 37 10 78 17 90
REMARK Flexibility Score: inf
ROOT
ATOM      1  C   UNL     1       5.119   2.778   2.759  1.00  0.00     0.002 C 
ENDROOT
BRANCH   1   2
ATOM      2  C   UNL     1       4.372   3.364   1.558  1.00  0.00     0.002 C 
BRANCH   2   3
ATOM      3  C   UNL     1       4.490   2.606   0.243  1.00  0.00     0.021 C 
BRANCH   3   4
ATOM      4  C   UNL     1       4.198   1.122   0.334  1.00  0.00     0.116 C 
BRANCH   4   5
ATOM      5  N   UNL     1       2.783   0.831   0.446  1.00  0.00    -0.352 N 
ATOM      6  O   UNL     1       0.869  -0.216  -0.164  1.00  0.00    -0.269 OA
ATOM      7  C   UNL     1       2.091  -0.139  -0.239  1.00  0.00     0.251 C 
ATOM      8  H   UNL     1       2.265   1.383   1.076  1.00  0.00     0.163 HD
BRANCH   7   9
ATOM      9  C   UNL     1       2.858  -1.070  -1.095  1.00  0.00     0.039 A 
ATOM     10  C   UNL     1       3.970  -1.744  -0.575  1.00  0.00     0.014 A 
ATOM     11  C   UNL     1       2.494  -1.226  -2.433  1.00  0.00     0.014 A 
ATOM     12  C   UNL     1       4.771  -2.504  -1.418  1.00  0.00     0.010 A 
ATOM     13  C   UNL     1       3.253  -2.060  -3.258  1.00  0.00     0.010 A 
ATOM     14  C   UNL     1       4.394  -2.706  -2.755  1.00  0.00    -0.014 A 
BRANCH  14  15
ATOM     15  C   UNL     1       5.103  -3.729  -3.563  1.00  0.00     0.031 A 
ATOM     16  C   UNL     1       5.887  -3.362  -4.789  1.00  0.00     0.074 A 
ATOM     17  C   UNL     1       4.985  -5.016  -3.175  1.00  0.00     0.049 A 
ATOM     18  N   UNL     1       6.492  -4.151  -5.639  1.00  0.00    -0.248 NA
ATOM     19  C   UNL     1       6.004  -1.932  -5.109  1.00  0.00     0.031 C 
ATOM     20  C   UNL     1       4.232  -5.472  -2.001  1.00  0.00     0.029 A 
ATOM     21  N   UNL     1       5.478  -6.173  -3.717  1.00  0.00    -0.354 N 
ATOM     22  C   UNL     1       7.040  -3.321  -6.610  1.00  0.00     0.074 A 
ATOM     23  C   UNL     1       6.691  -1.964  -6.245  1.00  0.00     0.031 C 
ATOM     24  C   UNL     1       4.329  -6.804  -1.903  1.00  0.00     0.029 A 
ATOM     25  C   UNL     1       5.072  -7.306  -3.049  1.00  0.00     0.049 A 
ATOM     26  H   UNL     1       6.066  -6.193  -4.507  1.00  0.00     0.167 HD
ATOM     27  C   UNL     1       7.762  -3.673  -7.703  1.00  0.00     0.034 A 
ATOM     28  C   UNL     1       5.231  -8.608  -3.351  1.00  0.00     0.034 A 
ATOM     29  C   UNL     1       8.102  -5.037  -8.033  1.00  0.00     0.049 A 
ATOM     30  C   UNL     1       5.990  -8.961  -4.600  1.00  0.00     0.074 A 
ATOM     31  C   UNL     1       8.903  -5.498  -9.065  1.00  0.00     0.029 A 
ATOM     32  N   UNL     1       7.644  -6.160  -7.357  1.00  0.00    -0.354 N 
ATOM     33  N   UNL     1       6.556  -8.160  -5.473  1.00  0.00    -0.248 NA
ATOM     34  C   UNL     1       6.127 -10.389  -4.910  1.00  0.00     0.031 C 
ATOM     35  C   UNL     1       8.863  -6.896  -9.060  1.00  0.00     0.029 A 
ATOM     36  C   UNL     1       8.098  -7.312  -7.982  1.00  0.00     0.049 A 
ATOM     37  H   UNL     1       7.079  -6.142  -6.551  1.00  0.00     0.167 HD
ATOM     38  C   UNL     1       7.124  -8.990  -6.432  1.00  0.00     0.074 A 
ATOM     39  C   UNL     1       6.860 -10.351  -6.012  1.00  0.00     0.031 C 
ATOM     40  C   UNL     1       7.799  -8.659  -7.561  1.00  0.00     0.034 A 
BRANCH  27  41
ATOM     41  C   UNL     1       8.193  -2.586  -8.656  1.00  0.00     0.023 A 
ATOM     42  C   UNL     1       9.155  -1.623  -8.308  1.00  0.00     0.031 A 
ATOM     43  C   UNL     1       7.661  -2.547  -9.958  1.00  0.00     0.131 A 
ATOM     44  C   UNL     1       9.533  -0.643  -9.242  1.00  0.00     0.055 A 
ATOM     45  C   UNL     1       8.082  -1.607 -10.900  1.00  0.00     0.041 A 
ATOM     46  F   UNL     1       6.726  -3.432 -10.339  1.00  0.00    -0.206 F 
ATOM     47  C   UNL     1       9.020  -0.644 -10.542  1.00  0.00     0.022 A 
BRANCH  44  48
ATOM     48  S   UNL     1      10.650   0.684  -8.712  1.00  0.00     0.124 S 
ATOM     49  O   UNL     1       9.881   1.308  -7.638  1.00  0.00    -0.237 OA
ATOM     50  O   UNL     1      11.841  -0.050  -8.300  1.00  0.00    -0.237 OA
ATOM     51  O   UNL     1      10.806   1.503  -9.912  1.00  0.00    -0.744 OA
ENDBRANCH  44  48
ENDBRANCH  27  41
BRANCH  28  52
ATOM     52  C   UNL     1       4.598  -9.661  -2.508  1.00  0.00     0.023 A 
ATOM     53  C   UNL     1       5.374 -10.629  -1.854  1.00  0.00     0.031 A 
ATOM     54  C   UNL     1       3.198  -9.744  -2.382  1.00  0.00     0.131 A 
ATOM     55  C   UNL     1       4.746 -11.666  -1.148  1.00  0.00     0.055 A 
ATOM     56  C   UNL     1       2.581 -10.739  -1.625  1.00  0.00     0.041 A 
ATOM     57  F   UNL     1       2.407  -8.844  -2.988  1.00  0.00    -0.206 F 
ATOM     58  C   UNL     1       3.356 -11.719  -1.016  1.00  0.00     0.022 A 
BRANCH  55  59
ATOM     59  S   UNL     1       5.771 -13.016  -0.504  1.00  0.00     0.124 S 
ATOM     60  O   UNL     1       6.497 -13.434  -1.698  1.00  0.00    -0.237 OA
ATOM     61  O   UNL     1       6.558 -12.334   0.519  1.00  0.00    -0.237 OA
ATOM     62  O   UNL     1       4.791 -13.976  -0.000  1.00  0.00    -0.744 OA
ENDBRANCH  55  59
ENDBRANCH  28  52
BRANCH  40  63
ATOM     63  C   UNL     1       8.301  -9.803  -8.403  1.00  0.00     0.023 A 
ATOM     64  C   UNL     1       7.412 -10.645  -9.095  1.00  0.00     0.031 A 
ATOM     65  C   UNL     1       9.677 -10.070  -8.494  1.00  0.00     0.131 A 
ATOM     66  C   UNL     1       7.907 -11.746  -9.806  1.00  0.00     0.055 A 
ATOM     67  C   UNL     1      10.168 -11.133  -9.253  1.00  0.00     0.041 A 
ATOM     68  F   UNL     1      10.567  -9.300  -7.848  1.00  0.00    -0.206 F 
ATOM     69  C   UNL     1       9.280 -11.985  -9.904  1.00  0.00     0.022 A 
BRANCH  66  70
ATOM     70  S   UNL     1       6.726 -12.911 -10.537  1.00  0.00     0.124 S 
ATOM     71  O   UNL     1       6.025 -13.411  -9.359  1.00  0.00    -0.237 OA
ATOM     72  O   UNL     1       5.948 -12.053 -11.425  1.00  0.00    -0.237 OA
ATOM     73  O   UNL     1       7.580 -13.887 -11.212  1.00  0.00    -0.744 OA
ENDBRANCH  66  70
ENDBRANCH  40  63
ENDBRANCH  14  15
ENDBRANCH   7   9
ENDBRANCH   4   5
ENDBRANCH   3   4
ENDBRANCH   2   3
ENDBRANCH   1   2
BRANCH   1  74
ATOM     74  C   UNL     1       6.552   2.247   2.562  1.00  0.00     0.021 C 
BRANCH  74  75
ATOM     75  C   UNL     1       7.555   3.105   1.779  1.00  0.00     0.116 C 
BRANCH  75  76
ATOM     76  N   UNL     1       7.531   4.486   2.194  1.00  0.00    -0.356 N 
ATOM     77  C   UNL     1       7.980   4.834   3.429  1.00  0.00     0.227 C 
ATOM     78  H   UNL     1       7.189   5.178   1.582  1.00  0.00     0.163 HD
ATOM     79  O   UNL     1       7.118   5.225   4.204  1.00  0.00    -0.275 OA
BRANCH  77  80
ATOM     80  C   UNL     1       9.447   4.626   3.749  1.00  0.00     0.127 C 
ATOM     81  C   UNL     1       9.661   3.785   5.011  1.00  0.00     0.127 C 
ATOM     82  C   UNL     1      10.339   5.847   4.086  1.00  0.00     0.155 C 
ATOM     83  C   UNL     1      10.776   4.508   5.745  1.00  0.00     0.155 C 
ATOM     84  C   UNL     1      11.776   5.434   3.914  1.00  0.00     0.004 C 
ATOM     85  O   UNL     1      10.340   5.869   5.545  1.00  0.00    -0.365 OA
ATOM     86  C   UNL     1      12.028   4.564   4.905  1.00  0.00     0.004 C 
BRANCH  81  87
ATOM     87  C   UNL     1       8.446   3.511   5.863  1.00  0.00     0.231 C 
ATOM     88  O   UNL     1       8.037   2.331   5.824  1.00  0.00    -0.274 OA
ATOM     89  N   UNL     1       7.751   4.266   6.730  1.00  0.00    -0.325 N 
ATOM     90  H   UNL     1       7.070   3.666   7.112  1.00  0.00     0.169 HD
BRANCH  89  91
ATOM     91  C   UNL     1       7.539   5.525   7.354  1.00  0.00     0.044 A 
ATOM     92  C   UNL     1       7.144   5.257   8.702  1.00  0.00     0.026 A 
ATOM     93  C   UNL     1       7.576   6.894   6.961  1.00  0.00    -0.020 A 
ATOM     94  C   UNL     1       6.862   6.237   9.648  1.00  0.00     0.002 A 
ATOM     95  C   UNL     1       7.316   7.869   7.971  1.00  0.00     0.006 A 
ATOM     96  C   UNL     1       6.958   7.557   9.280  1.00  0.00     0.000 A 
BRANCH  93  97
ATOM     97  C   UNL     1       7.874   7.547   5.612  1.00  0.00     0.073 C 
BRANCH  97  98
ATOM     98  C   UNL     1       6.800   8.254   4.761  1.00  0.00    -0.044 A 
ATOM     99  C   UNL     1       6.716   7.971   3.380  1.00  0.00     0.004 A 
ATOM    100  C   UNL     1       5.989   9.298   5.221  1.00  0.00     0.004 A 
ATOM    101  C   UNL     1       5.805   8.600   2.526  1.00  0.00     0.000 A 
ATOM    102  C   UNL     1       5.103   9.971   4.358  1.00  0.00     0.000 A 
ATOM    103  C   UNL     1       4.995   9.609   3.018  1.00  0.00     0.000 A 
ENDBRANCH  97  98
ENDBRANCH  93  97
ENDBRANCH  89  91
ENDBRANCH  81  87
ENDBRANCH  77  80
ENDBRANCH  75  76
ENDBRANCH  74  75
ENDBRANCH   1  74
TORSDOF 20
