REMARK SMILES CCc1ccc(S(=O)(=O)CC(=O)NCCCCCCNC(=O)c2ccc(-c3c4nc(c(-c5cc(S(=O)(=O)[O-])ccc5F)c5ccc([nH]5)c(-c5cc(S(=O)(=O)[O-])ccc5F)c5nc(c(-c6cc(S(=O)(=O)[O-])ccc6F)c6ccc3[nH]6)C=C5)C=C4)cc2)cc1
REMARK SMILES IDX 16 1 15 2 14 3 13 4 11 5 12 6 10 8 7 9 8 10 9 11 6 12 3 13
REMARK SMILES IDX 4 14 87 15 5 16 86 17 2 18 1 19 17 20 18 21 19 22 20 23
REMARK SMILES IDX 21 24 22 26 23 27 24 28 85 29 25 30 84 31 26 32 27 33 28 34
REMARK SMILES IDX 78 35 29 36 83 37 77 38 79 39 30 40 82 41 76 42 75 43 31 45
REMARK SMILES IDX 63 46 43 47 62 48 44 49 47 50 61 51 80 52 45 53 46 54 60 56
REMARK SMILES IDX 81 57 48 58 32 59 33 60 41 61 34 62 40 63 42 64 39 65 35 66
REMARK SMILES IDX 36 67 37 68 38 69 64 70 65 71 73 72 66 73 72 74 74 75 71 76
REMARK SMILES IDX 67 77 68 78 69 79 70 80 49 81 50 82 58 83 51 84 57 85 59 86
REMARK SMILES IDX 56 87 52 88 53 89 54 90 55 91
REMARK H PARENT 13 7 20 25 79 44 47 55
REMARK Flexibility Score: inf
ROOT
ATOM      1  C   UNL     1       6.584  -6.106   0.923  1.00  0.00     0.002 C 
ENDROOT
BRANCH   1   2
ATOM      2  C   UNL     1       5.247  -6.783   1.261  1.00  0.00     0.021 C 
BRANCH   2   3
ATOM      3  C   UNL     1       5.010  -6.977   2.759  1.00  0.00     0.116 C 
BRANCH   3   4
ATOM      4  N   UNL     1       4.802  -5.693   3.404  1.00  0.00    -0.355 N 
ATOM      5  C   UNL     1       3.661  -5.143   3.890  1.00  0.00     0.235 C 
ATOM      6  O   UNL     1       3.716  -3.972   4.279  1.00  0.00    -0.274 OA
ATOM      7  H   UNL     1       5.610  -5.139   3.503  1.00  0.00     0.163 HD
BRANCH   5   8
ATOM      8  C   UNL     1       2.420  -5.948   4.083  1.00  0.00     0.241 C 
BRANCH   8   9
ATOM      9  S   UNL     1       1.411  -6.147   2.663  1.00  0.00     0.187 S 
ATOM     10  O   UNL     1       0.065  -6.409   3.142  1.00  0.00    -0.223 OA
ATOM     11  O   UNL     1       2.059  -7.118   1.797  1.00  0.00    -0.223 OA
BRANCH   9  12
ATOM     12  C   UNL     1       1.289  -4.649   1.727  1.00  0.00     0.067 A 
ATOM     13  C   UNL     1       0.947  -2.341   0.158  1.00  0.00    -0.048 A 
ATOM     14  C   UNL     1       0.842  -3.618  -0.415  1.00  0.00     0.005 A 
ATOM     15  C   UNL     1       1.227  -2.245   1.529  1.00  0.00     0.005 A 
ATOM     16  C   UNL     1       1.022  -4.764   0.359  1.00  0.00     0.020 A 
ATOM     17  C   UNL     1       1.383  -3.392   2.317  1.00  0.00     0.020 A 
BRANCH  13  18
ATOM     18  C   UNL     1       0.673  -1.142  -0.723  1.00  0.00     0.032 C 
ATOM     19  C   UNL     1       1.101   0.216  -0.183  1.00  0.00     0.009 C 
ENDBRANCH  13  18
ENDBRANCH   9  12
ENDBRANCH   8   9
ENDBRANCH   5   8
ENDBRANCH   3   4
ENDBRANCH   2   3
ENDBRANCH   1   2
BRANCH   1  20
ATOM     20  C   UNL     1       7.832  -6.837   1.431  1.00  0.00     0.002 C 
BRANCH  20  21
ATOM     21  C   UNL     1       7.924  -8.312   1.036  1.00  0.00     0.021 C 
BRANCH  21  22
ATOM     22  C   UNL     1       7.916  -8.566  -0.468  1.00  0.00     0.116 C 
BRANCH  22  23
ATOM     23  N   UNL     1       9.109  -8.041  -1.113  1.00  0.00    -0.352 N 
ATOM     24  C   UNL     1       9.992  -8.689  -1.943  1.00  0.00     0.251 C 
ATOM     25  H   UNL     1       9.312  -7.095  -0.931  1.00  0.00     0.163 HD
ATOM     26  O   UNL     1      11.060  -8.161  -2.237  1.00  0.00    -0.269 OA
BRANCH  24  27
ATOM     27  C   UNL     1       9.653 -10.035  -2.456  1.00  0.00     0.039 A 
ATOM     28  C   UNL     1      10.610 -11.050  -2.396  1.00  0.00     0.014 A 
ATOM     29  C   UNL     1       8.385 -10.291  -2.987  1.00  0.00     0.014 A 
ATOM     30  C   UNL     1      10.277 -12.341  -2.816  1.00  0.00     0.010 A 
ATOM     31  C   UNL     1       8.035 -11.591  -3.341  1.00  0.00     0.010 A 
ATOM     32  C   UNL     1       8.978 -12.629  -3.265  1.00  0.00    -0.014 A 
BRANCH  32  33
ATOM     33  C   UNL     1       8.581 -13.995  -3.696  1.00  0.00     0.031 A 
ATOM     34  C   UNL     1       8.175 -14.229  -5.126  1.00  0.00     0.074 A 
ATOM     35  C   UNL     1       8.508 -14.997  -2.797  1.00  0.00     0.049 A 
ATOM     36  N   UNL     1       7.640 -15.288  -5.675  1.00  0.00    -0.248 NA
ATOM     37  C   UNL     1       8.369 -13.103  -6.054  1.00  0.00     0.031 C 
ATOM     38  C   UNL     1       8.860 -14.890  -1.380  1.00  0.00     0.029 A 
ATOM     39  N   UNL     1       8.094 -16.299  -2.937  1.00  0.00    -0.354 N 
ATOM     40  C   UNL     1       7.416 -14.952  -7.007  1.00  0.00     0.074 A 
ATOM     41  C   UNL     1       7.822 -13.572  -7.165  1.00  0.00     0.031 C 
ATOM     42  C   UNL     1       8.650 -16.075  -0.784  1.00  0.00     0.029 A 
ATOM     43  C   UNL     1       8.101 -17.012  -1.760  1.00  0.00     0.049 A 
ATOM     44  H   UNL     1       7.817 -16.686  -3.799  1.00  0.00     0.167 HD
ATOM     45  C   UNL     1       6.936 -15.730  -8.008  1.00  0.00     0.034 A 
ATOM     46  C   UNL     1       7.688 -18.268  -1.492  1.00  0.00     0.034 A 
ATOM     47  C   UNL     1       6.551 -17.109  -7.837  1.00  0.00     0.049 A 
ATOM     48  C   UNL     1       7.130 -19.107  -2.618  1.00  0.00     0.074 A 
ATOM     49  C   UNL     1       6.075 -17.996  -8.787  1.00  0.00     0.029 A 
ATOM     50  N   UNL     1       6.601 -17.804  -6.635  1.00  0.00    -0.354 N 
ATOM     51  N   UNL     1       6.940 -18.779  -3.876  1.00  0.00    -0.248 NA
ATOM     52  C   UNL     1       6.742 -20.486  -2.293  1.00  0.00     0.031 C 
ATOM     53  C   UNL     1       5.785 -19.207  -8.150  1.00  0.00     0.029 A 
ATOM     54  C   UNL     1       6.152 -19.102  -6.818  1.00  0.00     0.049 A 
ATOM     55  H   UNL     1       6.911 -17.429  -5.779  1.00  0.00     0.167 HD
ATOM     56  C   UNL     1       6.455 -19.927  -4.498  1.00  0.00     0.074 A 
ATOM     57  C   UNL     1       6.384 -20.954  -3.480  1.00  0.00     0.031 C 
ATOM     58  C   UNL     1       6.106 -20.118  -5.795  1.00  0.00     0.034 A 
BRANCH  45  59
ATOM     59  C   UNL     1       6.785 -15.096  -9.370  1.00  0.00     0.023 A 
ATOM     60  C   UNL     1       7.896 -14.626 -10.091  1.00  0.00     0.031 A 
ATOM     61  C   UNL     1       5.513 -14.943  -9.949  1.00  0.00     0.131 A 
ATOM     62  C   UNL     1       7.710 -13.965 -11.313  1.00  0.00     0.055 A 
ATOM     63  C   UNL     1       5.341 -14.357 -11.205  1.00  0.00     0.041 A 
ATOM     64  F   UNL     1       4.412 -15.353  -9.299  1.00  0.00    -0.206 F 
ATOM     65  C   UNL     1       6.442 -13.851 -11.889  1.00  0.00     0.022 A 
BRANCH  62  66
ATOM     66  S   UNL     1       9.133 -13.141 -12.077  1.00  0.00     0.124 S 
ATOM     67  O   UNL     1       9.495 -12.168 -11.049  1.00  0.00    -0.237 OA
ATOM     68  O   UNL     1      10.069 -14.241 -12.273  1.00  0.00    -0.237 OA
ATOM     69  O   UNL     1       8.580 -12.566 -13.301  1.00  0.00    -0.744 OA
ENDBRANCH  62  66
ENDBRANCH  45  59
BRANCH  46  70
ATOM     70  C   UNL     1       7.757 -18.814  -0.105  1.00  0.00     0.023 A 
ATOM     71  C   UNL     1       8.559 -19.927   0.196  1.00  0.00     0.031 A 
ATOM     72  C   UNL     1       6.971 -18.273   0.928  1.00  0.00     0.131 A 
ATOM     73  C   UNL     1       8.509 -20.501   1.475  1.00  0.00     0.055 A 
ATOM     74  C   UNL     1       6.972 -18.810   2.216  1.00  0.00     0.041 A 
ATOM     75  F   UNL     1       6.188 -17.206   0.699  1.00  0.00    -0.206 F 
ATOM     76  C   UNL     1       7.731 -19.943   2.492  1.00  0.00     0.022 A 
BRANCH  73  77
ATOM     77  S   UNL     1       9.390 -22.062   1.760  1.00  0.00     0.124 S 
ATOM     78  O   UNL     1       8.823 -22.915   0.722  1.00  0.00    -0.237 OA
ATOM     79  O   UNL     1      10.781 -21.661   1.574  1.00  0.00    -0.237 OA
ATOM     80  O   UNL     1       9.022 -22.414   3.129  1.00  0.00    -0.744 OA
ENDBRANCH  73  77
ENDBRANCH  46  70
BRANCH  58  81
ATOM     81  C   UNL     1       5.699 -21.512  -6.205  1.00  0.00     0.023 A 
ATOM     82  C   UNL     1       4.502 -22.101  -5.766  1.00  0.00     0.031 A 
ATOM     83  C   UNL     1       6.527 -22.253  -7.068  1.00  0.00     0.131 A 
ATOM     84  C   UNL     1       4.185 -23.411  -6.158  1.00  0.00     0.055 A 
ATOM     85  C   UNL     1       6.181 -23.535  -7.497  1.00  0.00     0.041 A 
ATOM     86  F   UNL     1       7.683 -21.737  -7.516  1.00  0.00    -0.206 F 
ATOM     87  C   UNL     1       5.009 -24.124  -7.034  1.00  0.00     0.022 A 
BRANCH  84  88
ATOM     88  S   UNL     1       2.712 -24.201  -5.455  1.00  0.00     0.124 S 
ATOM     89  O   UNL     1       3.005 -24.174  -4.026  1.00  0.00    -0.237 OA
ATOM     90  O   UNL     1       1.640 -23.318  -5.902  1.00  0.00    -0.237 OA
ATOM     91  O   UNL     1       2.712 -25.530  -6.063  1.00  0.00    -0.744 OA
ENDBRANCH  84  88
ENDBRANCH  58  81
ENDBRANCH  32  33
ENDBRANCH  24  27
ENDBRANCH  22  23
ENDBRANCH  21  22
ENDBRANCH  20  21
ENDBRANCH   1  20
TORSDOF 19
