REMARK SMILES CCCc1c(C(=O)NCCCCCCNC(=O)c2ccc(-c3c4nc(c(-c5cc(S(=O)(=O)[O-])ccc5F)c5ccc([nH]5)c(-c5cc(S(=O)(=O)[O-])ccc5F)c5nc(c(-c6cc(S(=O)(=O)[O-])ccc6F)c6ccc3[nH]6)C=C5)C=C4)cc2)nnn1[C@@H](C)[C@H](C)O
REMARK SMILES IDX 11 1 10 2 9 3 8 4 6 5 7 6 5 8 4 9 83 10 81 11 82 12 3 13
REMARK SMILES IDX 2 14 1 15 84 16 85 17 86 18 87 19 88 20 12 22 13 23 14 24
REMARK SMILES IDX 15 25 16 26 17 28 18 29 19 30 80 31 20 32 79 33 21 34 22 35
REMARK SMILES IDX 23 36 73 37 24 38 78 39 72 40 74 41 25 42 77 43 71 44 70 45
REMARK SMILES IDX 26 47 58 48 38 49 57 50 39 51 42 52 56 53 75 54 40 55 41 56
REMARK SMILES IDX 55 58 76 59 43 60 27 61 28 62 36 63 29 64 35 65 37 66 34 67
REMARK SMILES IDX 30 68 31 69 32 70 33 71 59 72 60 73 68 74 61 75 67 76 69 77
REMARK SMILES IDX 66 78 62 79 63 80 64 81 65 82 44 83 45 84 53 85 46 86 52 87
REMARK SMILES IDX 54 88 51 89 47 90 48 91 49 92 50 93
REMARK H PARENT 8 7 88 21 15 27 74 46 42 57
REMARK Flexibility Score: inf
ROOT
ATOM      1  C   UNL     1       9.117   2.410   7.330  1.00  0.00     0.002 C 
ENDROOT
BRANCH   1   2
ATOM      2  C   UNL     1       7.979   2.130   6.341  1.00  0.00     0.021 C 
BRANCH   2   3
ATOM      3  C   UNL     1       7.621   0.647   6.241  1.00  0.00     0.116 C 
BRANCH   3   4
ATOM      4  N   UNL     1       6.606   0.312   7.194  1.00  0.00    -0.351 N 
ATOM      5  C   UNL     1       5.277   0.016   7.080  1.00  0.00     0.273 C 
ATOM      6  O   UNL     1       4.750  -0.279   8.161  1.00  0.00    -0.267 OA
ATOM      7  H   UNL     1       6.933   0.290   8.122  1.00  0.00     0.163 HD
BRANCH   5   8
ATOM      8  C   UNL     1       4.495  -0.024   5.834  1.00  0.00     0.173 A 
ATOM      9  C   UNL     1       4.604   0.417   4.504  1.00  0.00     0.072 A 
ATOM     10  N   UNL     1       3.391   0.044   3.954  1.00  0.00    -0.243 N 
ATOM     11  N   UNL     1       3.255  -0.638   5.970  1.00  0.00    -0.125 NA
ATOM     12  N   UNL     1       2.607  -0.587   4.831  1.00  0.00    -0.066 NA
BRANCH   9  13
ATOM     13  C   UNL     1       5.585   1.204   3.681  1.00  0.00     0.058 C 
BRANCH  13  14
ATOM     14  C   UNL     1       6.510   0.344   2.788  1.00  0.00     0.003 C 
ATOM     15  C   UNL     1       6.097   0.237   1.321  1.00  0.00     0.004 C 
ENDBRANCH  13  14
ENDBRANCH   9  13
BRANCH  10  16
ATOM     16  C   UNL     1       2.905   0.182   2.584  1.00  0.00     0.135 C 
ATOM     17  C   UNL     1       2.614  -1.204   2.004  1.00  0.00     0.036 C 
BRANCH  16  18
ATOM     18  C   UNL     1       1.782   1.239   2.495  1.00  0.00     0.135 C 
ATOM     19  C   UNL     1       0.529   0.803   1.753  1.00  0.00     0.040 C 
BRANCH  18  20
ATOM     20  O   UNL     1       2.305   2.405   1.834  1.00  0.00    -0.391 OA
ATOM     21  H   UNL     1       2.560   2.176   0.926  1.00  0.00     0.211 HD
ENDBRANCH  18  20
ENDBRANCH  16  18
ENDBRANCH  10  16
ENDBRANCH   5   8
ENDBRANCH   3   4
ENDBRANCH   2   3
ENDBRANCH   1   2
BRANCH   1  22
ATOM     22  C   UNL     1      10.419   1.637   7.059  1.00  0.00     0.002 C 
BRANCH  22  23
ATOM     23  C   UNL     1      10.930   1.684   5.610  1.00  0.00     0.021 C 
BRANCH  23  24
ATOM     24  C   UNL     1      11.426   3.061   5.202  1.00  0.00     0.116 C 
BRANCH  24  25
ATOM     25  N   UNL     1      12.639   3.427   5.931  1.00  0.00    -0.352 N 
ATOM     26  C   UNL     1      13.358   4.596   5.842  1.00  0.00     0.251 C 
ATOM     27  H   UNL     1      12.984   2.755   6.562  1.00  0.00     0.163 HD
ATOM     28  O   UNL     1      14.541   4.626   6.191  1.00  0.00    -0.269 OA
BRANCH  26  29
ATOM     29  C   UNL     1      12.690   5.802   5.332  1.00  0.00     0.039 A 
ATOM     30  C   UNL     1      13.331   6.667   4.442  1.00  0.00     0.014 A 
ATOM     31  C   UNL     1      11.377   6.040   5.741  1.00  0.00     0.014 A 
ATOM     32  C   UNL     1      12.608   7.731   3.909  1.00  0.00     0.010 A 
ATOM     33  C   UNL     1      10.629   7.006   5.115  1.00  0.00     0.010 A 
ATOM     34  C   UNL     1      11.247   7.883   4.232  1.00  0.00    -0.014 A 
BRANCH  34  35
ATOM     35  C   UNL     1      10.406   8.838   3.510  1.00  0.00     0.031 A 
ATOM     36  C   UNL     1      10.466   8.662   2.034  1.00  0.00     0.074 A 
ATOM     37  C   UNL     1       9.496   9.642   4.106  1.00  0.00     0.049 A 
ATOM     38  N   UNL     1      11.060   9.425   1.180  1.00  0.00    -0.248 NA
ATOM     39  C   UNL     1       9.999   7.388   1.454  1.00  0.00     0.031 C 
ATOM     40  C   UNL     1       9.143   9.703   5.529  1.00  0.00     0.029 A 
ATOM     41  N   UNL     1       8.608  10.517   3.552  1.00  0.00    -0.354 N 
ATOM     42  C   UNL     1      10.774   8.887  -0.070  1.00  0.00     0.074 A 
ATOM     43  C   UNL     1      10.361   7.534   0.176  1.00  0.00     0.031 C 
ATOM     44  C   UNL     1       7.981  10.377   5.687  1.00  0.00     0.029 A 
ATOM     45  C   UNL     1       7.588  10.942   4.408  1.00  0.00     0.049 A 
ATOM     46  H   UNL     1       8.681  10.827   2.620  1.00  0.00     0.167 HD
ATOM     47  C   UNL     1      10.609   9.702  -1.149  1.00  0.00     0.034 A 
ATOM     48  C   UNL     1       6.493  11.696   4.102  1.00  0.00     0.034 A 
ATOM     49  C   UNL     1      11.129  11.027  -0.870  1.00  0.00     0.049 A 
ATOM     50  C   UNL     1       6.822  12.424   2.852  1.00  0.00     0.074 A 
ATOM     51  C   UNL     1      12.355  11.523  -0.468  1.00  0.00     0.029 A 
ATOM     52  N   UNL     1      10.219  12.025  -0.591  1.00  0.00    -0.354 N 
ATOM     53  N   UNL     1       7.759  13.331   2.786  1.00  0.00    -0.248 NA
ATOM     54  C   UNL     1       6.491  11.787   1.586  1.00  0.00     0.031 C 
ATOM     55  C   UNL     1      12.043  12.542   0.481  1.00  0.00     0.029 A 
ATOM     56  C   UNL     1      10.655  12.694   0.526  1.00  0.00     0.049 A 
ATOM     57  H   UNL     1       9.401  12.223  -1.102  1.00  0.00     0.167 HD
ATOM     58  C   UNL     1       8.441  13.054   1.612  1.00  0.00     0.074 A 
ATOM     59  C   UNL     1       7.556  12.158   0.866  1.00  0.00     0.031 C 
ATOM     60  C   UNL     1       9.773  13.335   1.486  1.00  0.00     0.034 A 
BRANCH  47  61
ATOM     61  C   UNL     1       9.613   9.464  -2.268  1.00  0.00     0.023 A 
ATOM     62  C   UNL     1       9.546  10.450  -3.272  1.00  0.00     0.031 A 
ATOM     63  C   UNL     1       8.545   8.539  -2.249  1.00  0.00     0.131 A 
ATOM     64  C   UNL     1       8.409  10.577  -4.087  1.00  0.00     0.055 A 
ATOM     65  C   UNL     1       7.447   8.628  -3.110  1.00  0.00     0.041 A 
ATOM     66  F   UNL     1       8.446   7.553  -1.352  1.00  0.00    -0.206 F 
ATOM     67  C   UNL     1       7.354   9.674  -4.010  1.00  0.00     0.022 A 
BRANCH  64  68
ATOM     68  S   UNL     1       8.252  12.064  -5.106  1.00  0.00     0.124 S 
ATOM     69  O   UNL     1       8.384  13.115  -4.102  1.00  0.00    -0.237 OA
ATOM     70  O   UNL     1       9.368  11.910  -6.032  1.00  0.00    -0.237 OA
ATOM     71  O   UNL     1       6.924  11.927  -5.699  1.00  0.00    -0.744 OA
ENDBRANCH  64  68
ENDBRANCH  47  61
BRANCH  48  72
ATOM     72  C   UNL     1       5.101  11.554   4.634  1.00  0.00     0.023 A 
ATOM     73  C   UNL     1       4.122  12.576   4.591  1.00  0.00     0.031 A 
ATOM     74  C   UNL     1       4.642  10.264   4.987  1.00  0.00     0.131 A 
ATOM     75  C   UNL     1       2.765  12.285   4.896  1.00  0.00     0.055 A 
ATOM     76  C   UNL     1       3.306   9.983   5.283  1.00  0.00     0.041 A 
ATOM     77  F   UNL     1       5.471   9.207   4.973  1.00  0.00    -0.206 F 
ATOM     78  C   UNL     1       2.359  10.992   5.232  1.00  0.00     0.022 A 
BRANCH  75  79
ATOM     79  S   UNL     1       1.472  13.576   4.804  1.00  0.00     0.124 S 
ATOM     80  O   UNL     1       1.919  14.543   5.799  1.00  0.00    -0.237 OA
ATOM     81  O   UNL     1       1.547  13.995   3.409  1.00  0.00    -0.237 OA
ATOM     82  O   UNL     1       0.245  12.859   5.159  1.00  0.00    -0.744 OA
ENDBRANCH  75  79
ENDBRANCH  48  72
BRANCH  60  83
ATOM     83  C   UNL     1      10.424  14.239   2.516  1.00  0.00     0.023 A 
ATOM     84  C   UNL     1      10.468  14.002   3.911  1.00  0.00     0.031 A 
ATOM     85  C   UNL     1      11.133  15.349   2.023  1.00  0.00     0.131 A 
ATOM     86  C   UNL     1      11.196  14.872   4.750  1.00  0.00     0.055 A 
ATOM     87  C   UNL     1      11.870  16.191   2.852  1.00  0.00     0.041 A 
ATOM     88  F   UNL     1      11.148  15.616   0.706  1.00  0.00    -0.206 F 
ATOM     89  C   UNL     1      11.900  15.960   4.221  1.00  0.00     0.022 A 
BRANCH  86  90
ATOM     90  S   UNL     1      11.226  14.628   6.557  1.00  0.00     0.124 S 
ATOM     91  O   UNL     1       9.824  14.417   6.897  1.00  0.00    -0.237 OA
ATOM     92  O   UNL     1      12.101  13.468   6.705  1.00  0.00    -0.237 OA
ATOM     93  O   UNL     1      11.793  15.881   7.061  1.00  0.00    -0.744 OA
ENDBRANCH  86  90
ENDBRANCH  60  83
ENDBRANCH  34  35
ENDBRANCH  26  29
ENDBRANCH  24  25
ENDBRANCH  23  24
ENDBRANCH  22  23
ENDBRANCH   1  22
TORSDOF 21
