REMARK SMILES CS(=O)(=O)c1ccc(/C=C(/C(=O)NCCCCCCNC(=O)c2ccc(-c3c4nc(c(-c5cc(S(=O)(=O)[O-])ccc5F)c5ccc([nH]5)c(-c5cc(S(=O)(=O)[O-])ccc5F)c5nc(c(-c6cc(S(=O)(=O)[O-])ccc6F)c6ccc3[nH]6)C=C5)C=C4)cc2)c2cccc(Br)c2)cc1
REMARK SMILES IDX 17 1 16 2 15 3 14 4 13 5 11 6 12 7 10 9 9 10 8 11 5 12 6 13
REMARK SMILES IDX 94 14 7 15 93 16 2 17 1 18 3 19 4 20 86 21 87 22 92 23 88 24
REMARK SMILES IDX 90 25 89 26 91 27 18 28 19 29 20 30 21 31 22 33 23 34 24 35
REMARK SMILES IDX 85 36 25 37 84 38 26 39 27 40 28 41 78 42 29 43 83 44 77 45
REMARK SMILES IDX 79 46 30 47 82 48 76 49 75 50 31 52 63 53 43 54 62 55 44 56
REMARK SMILES IDX 47 57 61 58 80 59 45 60 46 61 60 63 81 64 48 65 32 66 33 67
REMARK SMILES IDX 41 68 34 69 40 70 42 71 39 72 35 73 36 74 37 75 38 76 64 77
REMARK SMILES IDX 65 78 73 79 66 80 72 81 74 82 71 83 67 84 68 85 69 86 70 87
REMARK SMILES IDX 49 88 50 89 58 90 51 91 57 92 59 93 56 94 52 95 53 96 54 97
REMARK SMILES IDX 55 98
REMARK H PARENT 13 8 20 32 79 51 47 62
REMARK Flexibility Score: inf
ROOT
ATOM      1  C   UNL     1       6.411  -9.830   4.584  1.00  0.00     0.002 C 
ENDROOT
BRANCH   1   2
ATOM      2  C   UNL     1       4.961  -9.667   5.056  1.00  0.00     0.002 C 
BRANCH   2   3
ATOM      3  C   UNL     1       4.311  -8.326   4.677  1.00  0.00     0.021 C 
BRANCH   3   4
ATOM      4  C   UNL     1       4.282  -8.078   3.167  1.00  0.00     0.116 C 
BRANCH   4   5
ATOM      5  N   UNL     1       3.279  -8.930   2.562  1.00  0.00    -0.352 N 
ATOM      6  C   UNL     1       2.026  -8.735   2.084  1.00  0.00     0.251 C 
ATOM      7  O   UNL     1       1.425  -9.757   1.738  1.00  0.00    -0.269 OA
ATOM      8  H   UNL     1       3.575  -9.865   2.479  1.00  0.00     0.163 HD
BRANCH   6   9
ATOM      9  C   UNL     1       1.399  -7.373   1.866  1.00  0.00     0.047 C 
ATOM     10  C   UNL     1       1.679  -6.292   2.631  1.00  0.00     0.022 C 
BRANCH  10  11
ATOM     11  C   UNL     1       1.278  -4.872   2.462  1.00  0.00    -0.025 A 
ATOM     12  C   UNL     1       0.716  -2.149   2.018  1.00  0.00     0.067 A 
ATOM     13  C   UNL     1      -0.278  -3.106   1.825  1.00  0.00     0.021 A 
ATOM     14  C   UNL     1       1.973  -2.526   2.492  1.00  0.00     0.021 A 
ATOM     15  C   UNL     1      -0.002  -4.454   2.078  1.00  0.00     0.009 A 
ATOM     16  C   UNL     1       2.250  -3.883   2.701  1.00  0.00     0.009 A 
BRANCH  12  17
ATOM     17  S   UNL     1       0.352  -0.432   1.738  1.00  0.00     0.175 S 
ATOM     18  C   UNL     1       1.038  -0.104   0.135  1.00  0.00     0.163 C 
ATOM     19  O   UNL     1       1.095   0.336   2.715  1.00  0.00    -0.224 OA
ATOM     20  O   UNL     1      -1.091  -0.302   1.631  1.00  0.00    -0.224 OA
ENDBRANCH  12  17
ENDBRANCH  10  11
BRANCH   9  21
ATOM     21  C   UNL     1       0.304  -7.319   0.864  1.00  0.00    -0.012 A 
ATOM     22  C   UNL     1      -0.894  -7.999   1.157  1.00  0.00     0.009 A 
ATOM     23  C   UNL     1       0.377  -6.538  -0.295  1.00  0.00     0.024 A 
ATOM     24  C   UNL     1      -2.012  -7.869   0.337  1.00  0.00     0.002 A 
ATOM     25  C   UNL     1      -0.759  -6.385  -1.093  1.00  0.00     0.018 A 
ATOM     26  C   UNL     1      -1.951  -7.043  -0.782  1.00  0.00     0.016 A 
ATOM     27  Br  UNL     1      -0.709  -5.209  -2.573  1.00  0.00    -0.051 Br
ENDBRANCH   9  21
ENDBRANCH   6   9
ENDBRANCH   4   5
ENDBRANCH   3   4
ENDBRANCH   2   3
ENDBRANCH   1   2
BRANCH   1  28
ATOM     28  C   UNL     1       7.344  -8.690   4.997  1.00  0.00     0.021 C 
BRANCH  28  29
ATOM     29  C   UNL     1       7.468  -8.514   6.505  1.00  0.00     0.116 C 
BRANCH  29  30
ATOM     30  N   UNL     1       8.091  -9.673   7.122  1.00  0.00    -0.352 N 
ATOM     31  C   UNL     1       9.213  -9.730   7.909  1.00  0.00     0.251 C 
ATOM     32  H   UNL     1       7.647 -10.535   6.952  1.00  0.00     0.163 HD
ATOM     33  O   UNL     1       9.756 -10.811   8.116  1.00  0.00    -0.269 OA
BRANCH  31  34
ATOM     34  C   UNL     1       9.763  -8.487   8.490  1.00  0.00     0.039 A 
ATOM     35  C   UNL     1      11.147  -8.310   8.528  1.00  0.00     0.014 A 
ATOM     36  C   UNL     1       8.914  -7.510   9.019  1.00  0.00     0.014 A 
ATOM     37  C   UNL     1      11.677  -7.140   9.075  1.00  0.00     0.010 A 
ATOM     38  C   UNL     1       9.440  -6.308   9.479  1.00  0.00     0.010 A 
ATOM     39  C   UNL     1      10.828  -6.122   9.540  1.00  0.00    -0.014 A 
BRANCH  39  40
ATOM     40  C   UNL     1      11.379  -4.886  10.153  1.00  0.00     0.031 A 
ATOM     41  C   UNL     1      11.091  -4.576  11.598  1.00  0.00     0.074 A 
ATOM     42  C   UNL     1      12.103  -4.031   9.405  1.00  0.00     0.049 A 
ATOM     43  N   UNL     1      11.442  -3.536  12.310  1.00  0.00    -0.248 NA
ATOM     44  C   UNL     1      10.267  -5.551  12.329  1.00  0.00     0.031 C 
ATOM     45  C   UNL     1      12.412  -4.205   7.985  1.00  0.00     0.029 A 
ATOM     46  N   UNL     1      12.710  -2.846   9.734  1.00  0.00    -0.354 N 
ATOM     47  C   UNL     1      10.871  -3.726  13.565  1.00  0.00     0.074 A 
ATOM     48  C   UNL     1      10.086  -4.938  13.487  1.00  0.00     0.031 C 
ATOM     49  C   UNL     1      13.180  -3.183   7.574  1.00  0.00     0.029 A 
ATOM     50  C   UNL     1      13.379  -2.258   8.686  1.00  0.00     0.049 A 
ATOM     51  H   UNL     1      12.672  -2.454  10.636  1.00  0.00     0.167 HD
ATOM     52  C   UNL     1      11.012  -2.975  14.686  1.00  0.00     0.034 A 
ATOM     53  C   UNL     1      14.069  -1.102   8.627  1.00  0.00     0.034 A 
ATOM     54  C   UNL     1      11.807  -1.772  14.742  1.00  0.00     0.049 A 
ATOM     55  C   UNL     1      14.201  -0.272   9.879  1.00  0.00     0.074 A 
ATOM     56  C   UNL     1      12.058  -0.954  15.829  1.00  0.00     0.029 A 
ATOM     57  N   UNL     1      12.473  -1.207  13.660  1.00  0.00    -0.354 N 
ATOM     58  N   UNL     1      13.695  -0.487  11.072  1.00  0.00    -0.248 NA
ATOM     59  C   UNL     1      15.014   0.945   9.779  1.00  0.00     0.031 C 
ATOM     60  C   UNL     1      12.807   0.144  15.389  1.00  0.00     0.029 A 
ATOM     61  C   UNL     1      13.109  -0.037  14.048  1.00  0.00     0.049 A 
ATOM     62  H   UNL     1      12.491  -1.583  12.751  1.00  0.00     0.167 HD
ATOM     63  C   UNL     1      14.166   0.548  11.876  1.00  0.00     0.074 A 
ATOM     64  C   UNL     1      15.003   1.376  11.032  1.00  0.00     0.031 C 
ATOM     65  C   UNL     1      13.935   0.787  13.194  1.00  0.00     0.034 A 
BRANCH  52  66
ATOM     66  C   UNL     1      10.261  -3.425  15.921  1.00  0.00     0.023 A 
ATOM     67  C   UNL     1      10.481  -4.686  16.504  1.00  0.00     0.031 A 
ATOM     68  C   UNL     1       9.272  -2.605  16.492  1.00  0.00     0.131 A 
ATOM     69  C   UNL     1       9.659  -5.129  17.552  1.00  0.00     0.055 A 
ATOM     70  C   UNL     1       8.525  -3.012  17.600  1.00  0.00     0.041 A 
ATOM     71  F   UNL     1       8.996  -1.400  15.970  1.00  0.00    -0.206 F 
ATOM     72  C   UNL     1       8.702  -4.289  18.124  1.00  0.00     0.022 A 
BRANCH  69  73
ATOM     73  S   UNL     1       9.734  -6.878  18.029  1.00  0.00     0.124 S 
ATOM     74  O   UNL     1       9.431  -7.541  16.763  1.00  0.00    -0.237 OA
ATOM     75  O   UNL     1      11.103  -7.015  18.512  1.00  0.00    -0.237 OA
ATOM     76  O   UNL     1       8.696  -7.000  19.050  1.00  0.00    -0.744 OA
ENDBRANCH  69  73
ENDBRANCH  52  66
BRANCH  53  77
ATOM     77  C   UNL     1      14.691  -0.662   7.344  1.00  0.00     0.023 A 
ATOM     78  C   UNL     1      16.084  -0.552   7.211  1.00  0.00     0.031 A 
ATOM     79  C   UNL     1      13.893  -0.318   6.238  1.00  0.00     0.131 A 
ATOM     80  C   UNL     1      16.636  -0.066   6.015  1.00  0.00     0.055 A 
ATOM     81  C   UNL     1      14.450   0.111   5.032  1.00  0.00     0.041 A 
ATOM     82  F   UNL     1      12.556  -0.411   6.309  1.00  0.00    -0.206 F 
ATOM     83  C   UNL     1      15.829   0.252   4.920  1.00  0.00     0.022 A 
BRANCH  80  84
ATOM     84  S   UNL     1      18.425   0.223   5.936  1.00  0.00     0.124 S 
ATOM     85  O   UNL     1      18.618   1.182   7.018  1.00  0.00    -0.237 OA
ATOM     86  O   UNL     1      18.958  -1.116   6.162  1.00  0.00    -0.237 OA
ATOM     87  O   UNL     1      18.625   0.752   4.588  1.00  0.00    -0.744 OA
ENDBRANCH  80  84
ENDBRANCH  53  77
BRANCH  65  88
ATOM     88  C   UNL     1      14.657   1.962  13.816  1.00  0.00     0.023 A 
ATOM     89  C   UNL     1      14.425   3.285  13.405  1.00  0.00     0.031 A 
ATOM     90  C   UNL     1      15.617   1.744  14.822  1.00  0.00     0.131 A 
ATOM     91  C   UNL     1      15.197   4.329  13.937  1.00  0.00     0.055 A 
ATOM     92  C   UNL     1      16.326   2.795  15.404  1.00  0.00     0.041 A 
ATOM     93  F   UNL     1      15.886   0.501  15.253  1.00  0.00    -0.206 F 
ATOM     94  C   UNL     1      16.131   4.095  14.949  1.00  0.00     0.022 A 
BRANCH  91  95
ATOM     95  S   UNL     1      15.062   5.978  13.194  1.00  0.00     0.124 S 
ATOM     96  O   UNL     1      15.344   5.701  11.789  1.00  0.00    -0.237 OA
ATOM     97  O   UNL     1      13.685   6.349  13.506  1.00  0.00    -0.237 OA
ATOM     98  O   UNL     1      16.086   6.754  13.891  1.00  0.00    -0.744 OA
ENDBRANCH  91  95
ENDBRANCH  65  88
ENDBRANCH  39  40
ENDBRANCH  31  34
ENDBRANCH  29  30
ENDBRANCH  28  29
ENDBRANCH   1  28
TORSDOF 19
