REMARK SMILES O=C(NCCCCCCNC(=O)[C@H](CO)NC(=O)[C@H](Cc1ccc(O)cc1)NC(=O)c1ccc(F)cc1)c1ccc(-c2c3nc(c(-c4cc(S(=O)(=O)[O-])ccc4F)c4ccc([nH]4)c(-c4cc(S(=O)(=O)[O-])ccc4F)c4nc(c(-c5cc(S(=O)(=O)[O-])ccc5F)c5ccc2[nH]5)C=C4)C=C3)cc1
REMARK SMILES IDX 7 1 6 2 5 3 4 4 3 5 1 6 2 7 38 9 39 10 100 11 40 12 99 13
REMARK SMILES IDX 41 14 42 15 43 16 93 17 44 18 98 19 92 20 94 21 45 22 97 23
REMARK SMILES IDX 91 24 90 25 46 27 78 28 58 29 77 30 59 31 62 32 76 33 95 34
REMARK SMILES IDX 60 35 61 36 75 38 96 39 63 40 47 41 48 42 56 43 49 44 55 45
REMARK SMILES IDX 57 46 54 47 50 48 51 49 52 50 53 51 79 52 80 53 88 54 81 55
REMARK SMILES IDX 87 56 89 57 86 58 82 59 83 60 84 61 85 62 64 63 65 64 73 65
REMARK SMILES IDX 66 66 72 67 74 68 71 69 67 70 68 71 69 72 70 73 8 74 9 75
REMARK SMILES IDX 10 76 11 77 12 79 13 80 16 81 17 82 18 84 19 85 28 86 29 87
REMARK SMILES IDX 30 89 31 90 32 91 37 92 33 93 36 94 34 95 35 96 20 97 21 98
REMARK SMILES IDX 22 99 27 100 23 101 26 102 24 103 25 104 14 106 15 107
REMARK H PARENT 3 8 94 26 62 37 10 78 16 83 28 88 25 105 15 108
REMARK Flexibility Score: inf
ROOT
ATOM      1  C   UNL     1       8.695  11.066   9.886  1.00  0.00     0.002 C 
ENDROOT
BRANCH   1   2
ATOM      2  C   UNL     1       9.125  12.415  10.473  1.00  0.00     0.002 C 
BRANCH   2   3
ATOM      3  C   UNL     1       8.277  13.603  10.019  1.00  0.00     0.021 C 
BRANCH   3   4
ATOM      4  C   UNL     1       6.788  13.413  10.248  1.00  0.00     0.116 C 
BRANCH   4   5
ATOM      5  N   UNL     1       6.486  13.252  11.659  1.00  0.00    -0.352 N 
ATOM      6  O   UNL     1       5.601  13.892  13.636  1.00  0.00    -0.269 OA
ATOM      7  C   UNL     1       5.597  13.974  12.411  1.00  0.00     0.251 C 
ATOM      8  H   UNL     1       6.977  12.542  12.131  1.00  0.00     0.163 HD
BRANCH   7   9
ATOM      9  C   UNL     1       4.644  14.854  11.711  1.00  0.00     0.039 A 
ATOM     10  C   UNL     1       3.944  14.373  10.599  1.00  0.00     0.014 A 
ATOM     11  C   UNL     1       4.462  16.163  12.161  1.00  0.00     0.014 A 
ATOM     12  C   UNL     1       3.126  15.230   9.880  1.00  0.00     0.010 A 
ATOM     13  C   UNL     1       3.565  16.994  11.493  1.00  0.00     0.010 A 
ATOM     14  C   UNL     1       2.887  16.529  10.355  1.00  0.00    -0.014 A 
BRANCH  14  15
ATOM     15  C   UNL     1       1.793  17.322   9.751  1.00  0.00     0.031 A 
ATOM     16  C   UNL     1       2.057  18.598   9.017  1.00  0.00     0.074 A 
ATOM     17  C   UNL     1       0.539  16.850   9.888  1.00  0.00     0.049 A 
ATOM     18  N   UNL     1       1.198  19.421   8.475  1.00  0.00    -0.248 NA
ATOM     19  C   UNL     1       3.461  19.006   8.877  1.00  0.00     0.031 C 
ATOM     20  C   UNL     1       0.181  15.602  10.570  1.00  0.00     0.029 A 
ATOM     21  N   UNL     1      -0.659  17.341   9.446  1.00  0.00    -0.354 N 
ATOM     22  C   UNL     1       1.952  20.449   7.926  1.00  0.00     0.074 A 
ATOM     23  C   UNL     1       3.338  20.162   8.238  1.00  0.00     0.031 C 
ATOM     24  C   UNL     1      -1.135  15.393  10.444  1.00  0.00     0.029 A 
ATOM     25  C   UNL     1      -1.726  16.533   9.756  1.00  0.00     0.049 A 
ATOM     26  H   UNL     1      -0.748  18.189   8.954  1.00  0.00     0.167 HD
ATOM     27  C   UNL     1       1.519  21.525   7.221  1.00  0.00     0.034 A 
ATOM     28  C   UNL     1      -3.042  16.696   9.536  1.00  0.00     0.034 A 
ATOM     29  C   UNL     1       0.126  21.799   6.952  1.00  0.00     0.049 A 
ATOM     30  C   UNL     1      -3.505  17.940   8.842  1.00  0.00     0.074 A 
ATOM     31  C   UNL     1      -0.426  22.870   6.271  1.00  0.00     0.029 A 
ATOM     32  N   UNL     1      -0.940  21.001   7.359  1.00  0.00    -0.354 N 
ATOM     33  N   UNL     1      -2.788  18.936   8.377  1.00  0.00    -0.248 NA
ATOM     34  C   UNL     1      -4.950  18.086   8.648  1.00  0.00     0.031 C 
ATOM     35  C   UNL     1      -1.820  22.756   6.324  1.00  0.00     0.029 A 
ATOM     36  C   UNL     1      -2.143  21.569   6.962  1.00  0.00     0.049 A 
ATOM     37  H   UNL     1      -0.853  20.156   7.856  1.00  0.00     0.167 HD
ATOM     38  C   UNL     1      -3.695  19.819   7.806  1.00  0.00     0.074 A 
ATOM     39  C   UNL     1      -5.012  19.237   7.992  1.00  0.00     0.031 C 
ATOM     40  C   UNL     1      -3.453  20.994   7.171  1.00  0.00     0.034 A 
BRANCH  27  41
ATOM     41  C   UNL     1       2.564  22.501   6.737  1.00  0.00     0.023 A 
ATOM     42  C   UNL     1       3.540  22.129   5.796  1.00  0.00     0.031 A 
ATOM     43  C   UNL     1       2.596  23.817   7.232  1.00  0.00     0.131 A 
ATOM     44  C   UNL     1       4.542  23.040   5.428  1.00  0.00     0.055 A 
ATOM     45  C   UNL     1       3.550  24.743   6.804  1.00  0.00     0.041 A 
ATOM     46  F   UNL     1       1.704  24.224   8.149  1.00  0.00    -0.206 F 
ATOM     47  C   UNL     1       4.539  24.352   5.906  1.00  0.00     0.022 A 
BRANCH  44  48
ATOM     48  S   UNL     1       5.923  22.447   4.411  1.00  0.00     0.124 S 
ATOM     49  O   UNL     1       6.488  21.401   5.261  1.00  0.00    -0.237 OA
ATOM     50  O   UNL     1       5.252  21.992   3.200  1.00  0.00    -0.237 OA
ATOM     51  O   UNL     1       6.765  23.631   4.251  1.00  0.00    -0.744 OA
ENDBRANCH  44  48
ENDBRANCH  27  41
BRANCH  28  52
ATOM     52  C   UNL     1      -3.984  15.640   9.984  1.00  0.00     0.023 A 
ATOM     53  C   UNL     1      -4.599  14.793   9.053  1.00  0.00     0.031 A 
ATOM     54  C   UNL     1      -4.202  15.400  11.353  1.00  0.00     0.131 A 
ATOM     55  C   UNL     1      -5.406  13.738   9.502  1.00  0.00     0.055 A 
ATOM     56  C   UNL     1      -4.976  14.328  11.796  1.00  0.00     0.041 A 
ATOM     57  F   UNL     1      -3.609  16.171  12.279  1.00  0.00    -0.206 F 
ATOM     58  C   UNL     1      -5.585  13.490  10.866  1.00  0.00     0.022 A 
BRANCH  55  59
ATOM     59  S   UNL     1      -6.209  12.675   8.273  1.00  0.00     0.124 S 
ATOM     60  O   UNL     1      -7.137  13.604   7.639  1.00  0.00    -0.237 OA
ATOM     61  O   UNL     1      -5.078  12.240   7.459  1.00  0.00    -0.237 OA
ATOM     62  O   UNL     1      -6.827  11.627   9.082  1.00  0.00    -0.744 OA
ENDBRANCH  55  59
ENDBRANCH  28  52
BRANCH  40  63
ATOM     63  C   UNL     1      -4.641  21.709   6.580  1.00  0.00     0.023 A 
ATOM     64  C   UNL     1      -5.631  22.300   7.383  1.00  0.00     0.031 A 
ATOM     65  C   UNL     1      -4.775  21.805   5.183  1.00  0.00     0.131 A 
ATOM     66  C   UNL     1      -6.733  22.926   6.782  1.00  0.00     0.055 A 
ATOM     67  C   UNL     1      -5.843  22.478   4.592  1.00  0.00     0.041 A 
ATOM     68  F   UNL     1      -3.860  21.252   4.370  1.00  0.00    -0.206 F 
ATOM     69  C   UNL     1      -6.835  23.035   5.392  1.00  0.00     0.022 A 
BRANCH  66  70
ATOM     70  S   UNL     1      -8.072  23.541   7.839  1.00  0.00     0.124 S 
ATOM     71  O   UNL     1      -8.542  22.314   8.475  1.00  0.00    -0.237 OA
ATOM     72  O   UNL     1      -7.378  24.485   8.709  1.00  0.00    -0.237 OA
ATOM     73  O   UNL     1      -9.007  24.146   6.892  1.00  0.00    -0.744 OA
ENDBRANCH  66  70
ENDBRANCH  40  63
ENDBRANCH  14  15
ENDBRANCH   7   9
ENDBRANCH   4   5
ENDBRANCH   3   4
ENDBRANCH   2   3
ENDBRANCH   1   2
BRANCH   1  74
ATOM     74  C   UNL     1       8.549  11.053   8.361  1.00  0.00     0.021 C 
BRANCH  74  75
ATOM     75  C   UNL     1       9.777  11.584   7.639  1.00  0.00     0.116 C 
BRANCH  75  76
ATOM     76  N   UNL     1      10.906  10.703   7.849  1.00  0.00    -0.354 N 
ATOM     77  C   UNL     1      11.714  10.066   6.961  1.00  0.00     0.244 C 
ATOM     78  H   UNL     1      11.127  10.538   8.794  1.00  0.00     0.163 HD
ATOM     79  O   UNL     1      12.606   9.348   7.418  1.00  0.00    -0.273 OA
BRANCH  77  80
ATOM     80  C   UNL     1      11.598  10.332   5.456  1.00  0.00     0.197 C 
BRANCH  80  81
ATOM     81  N   UNL     1      10.299   9.932   4.900  1.00  0.00    -0.340 N 
ATOM     82  C   UNL     1       9.931   9.022   3.962  1.00  0.00     0.243 C 
ATOM     83  H   UNL     1       9.539  10.425   5.286  1.00  0.00     0.164 HD
ATOM     84  O   UNL     1       8.736   9.054   3.648  1.00  0.00    -0.273 OA
BRANCH  82  85
ATOM     85  C   UNL     1      10.939   8.138   3.187  1.00  0.00     0.176 C 
BRANCH  85  86
ATOM     86  N   UNL     1      12.015   7.541   3.986  1.00  0.00    -0.340 N 
ATOM     87  C   UNL     1      13.381   7.527   3.854  1.00  0.00     0.251 C 
ATOM     88  H   UNL     1      11.692   7.051   4.776  1.00  0.00     0.164 HD
ATOM     89  O   UNL     1      14.002   6.692   4.515  1.00  0.00    -0.269 OA
BRANCH  87  90
ATOM     90  C   UNL     1      14.162   8.470   2.995  1.00  0.00     0.040 A 
ATOM     91  C   UNL     1      13.713   9.732   2.598  1.00  0.00     0.017 A 
ATOM     92  C   UNL     1      15.486   8.121   2.681  1.00  0.00     0.017 A 
ATOM     93  C   UNL     1      14.540  10.624   1.909  1.00  0.00     0.040 A 
ATOM     94  C   UNL     1      16.320   9.008   1.988  1.00  0.00     0.040 A 
ATOM     95  C   UNL     1      15.838  10.254   1.611  1.00  0.00     0.123 A 
ATOM     96  F   UNL     1      16.640  11.114   0.972  1.00  0.00    -0.207 F 
ENDBRANCH  87  90
ENDBRANCH  85  86
BRANCH  85  97
ATOM     97  C   UNL     1      10.222   7.064   2.331  1.00  0.00     0.070 C 
BRANCH  97  98
ATOM     98  C   UNL     1       9.426   5.942   2.971  1.00  0.00    -0.045 A 
ATOM     99  C   UNL     1       8.914   4.948   2.114  1.00  0.00     0.007 A 
ATOM    100  C   UNL     1       9.117   5.860   4.335  1.00  0.00     0.007 A 
ATOM    101  C   UNL     1       8.123   3.905   2.601  1.00  0.00     0.046 A 
ATOM    102  C   UNL     1       8.329   4.813   4.825  1.00  0.00     0.046 A 
ATOM    103  C   UNL     1       7.836   3.848   3.958  1.00  0.00     0.115 A 
BRANCH 103 104
ATOM    104  O   UNL     1       7.059   2.856   4.479  1.00  0.00    -0.508 OA
ATOM    105  H   UNL     1       6.712   2.190   3.919  1.00  0.00     0.293 HD
ENDBRANCH 103 104
ENDBRANCH  97  98
ENDBRANCH  85  97
ENDBRANCH  82  85
ENDBRANCH  80  81
BRANCH  80 106
ATOM    106  C   UNL     1      11.950  11.813   5.199  1.00  0.00     0.191 C 
BRANCH 106 107
ATOM    107  O   UNL     1      12.136  12.085   3.813  1.00  0.00    -0.394 OA
ATOM    108  H   UNL     1      12.873  11.553   3.475  1.00  0.00     0.210 HD
ENDBRANCH 106 107
ENDBRANCH  80 106
ENDBRANCH  77  80
ENDBRANCH  75  76
ENDBRANCH  74  75
ENDBRANCH   1  74
TORSDOF 25
