REMARK SMILES CO[C@@H]1C[C@H](C(=O)NCCCCCCNC(=O)c2ccc(-c3c4nc(c(-c5cc(S(=O)(=O)[O-])ccc5F)c5ccc([nH]5)c(-c5cc(S(=O)(=O)[O-])ccc5F)c5nc(c(-c6cc(S(=O)(=O)[O-])ccc6F)c6ccc3[nH]6)C=C5)C=C4)cc2)N(C(=O)c2ccc([N+](=O)[O-])s2)C1
REMARK SMILES IDX 11 1 10 2 9 3 8 4 6 5 7 6 5 8 3 9 4 10 92 11 81 12 2 13 1 14
REMARK SMILES IDX 82 15 83 16 84 17 85 18 91 19 86 20 87 21 88 22 89 23 90 24
REMARK SMILES IDX 12 25 13 26 14 27 15 28 16 29 17 31 18 32 19 33 80 34 20 35
REMARK SMILES IDX 79 36 21 37 22 38 23 39 73 40 24 41 78 42 72 43 74 44 25 45
REMARK SMILES IDX 77 46 71 47 70 48 26 50 58 51 38 52 57 53 39 54 42 55 56 56
REMARK SMILES IDX 75 57 40 58 41 59 55 61 76 62 43 63 27 64 28 65 36 66 29 67
REMARK SMILES IDX 35 68 37 69 34 70 30 71 31 72 32 73 33 74 59 75 60 76 68 77
REMARK SMILES IDX 61 78 67 79 69 80 66 81 62 82 63 83 64 84 65 85 44 86 45 87
REMARK SMILES IDX 53 88 46 89 52 90 54 91 51 92 47 93 48 94 49 95 50 96
REMARK H PARENT 8 7 15 30 74 49 42 60
REMARK Flexibility Score: inf
ROOT
ATOM      1  C   UNL     1      -1.721  -1.310   1.200  1.00  0.00     0.002 C 
ENDROOT
BRANCH   1   2
ATOM      2  C   UNL     1      -0.840  -0.896   0.019  1.00  0.00     0.021 C 
BRANCH   2   3
ATOM      3  C   UNL     1      -1.190   0.460  -0.609  1.00  0.00     0.116 C 
BRANCH   3   4
ATOM      4  N   UNL     1      -0.557   1.546   0.123  1.00  0.00    -0.354 N 
ATOM      5  C   UNL     1       0.390   2.464  -0.185  1.00  0.00     0.242 C 
ATOM      6  O   UNL     1       0.848   3.095   0.782  1.00  0.00    -0.273 OA
ATOM      7  H   UNL     1      -0.891   1.634   1.044  1.00  0.00     0.163 HD
BRANCH   5   8
ATOM      8  C   UNL     1       1.012   2.741  -1.581  1.00  0.00     0.177 C 
ATOM      9  C   UNL     1       2.050   0.790  -2.486  1.00  0.00     0.139 C 
ATOM     10  C   UNL     1       2.384   2.117  -1.808  1.00  0.00     0.069 C 
ATOM     11  C   UNL     1       0.856   1.171  -3.395  1.00  0.00     0.152 C 
ATOM     12  N   UNL     1       0.304   2.397  -2.805  1.00  0.00    -0.323 N 
BRANCH   9  13
ATOM     13  O   UNL     1       1.674  -0.217  -1.548  1.00  0.00    -0.380 OA
ATOM     14  C   UNL     1       2.631  -0.443  -0.515  1.00  0.00     0.195 C 
ENDBRANCH   9  13
BRANCH  12  15
ATOM     15  C   UNL     1      -0.495   3.252  -3.558  1.00  0.00     0.264 C 
ATOM     16  O   UNL     1      -1.189   2.834  -4.478  1.00  0.00    -0.268 OA
BRANCH  15  17
ATOM     17  C   UNL     1      -0.334   4.678  -3.287  1.00  0.00     0.099 A 
ATOM     18  C   UNL     1       0.830   5.427  -3.386  1.00  0.00     0.033 A 
ATOM     19  S   UNL     1      -1.661   5.645  -2.811  1.00  0.00    -0.058 S 
ATOM     20  C   UNL     1       0.650   6.771  -2.950  1.00  0.00     0.099 A 
ATOM     21  C   UNL     1      -0.664   7.013  -2.615  1.00  0.00     0.324 A 
BRANCH  21  22
ATOM     22  N   UNL     1      -1.198   8.263  -2.139  1.00  0.00     0.074 N 
ATOM     23  O   UNL     1      -0.377   9.175  -1.961  1.00  0.00    -0.258 OA
ATOM     24  O   UNL     1      -2.416   8.351  -1.945  1.00  0.00    -0.258 OA
ENDBRANCH  21  22
ENDBRANCH  15  17
ENDBRANCH  12  15
ENDBRANCH   5   8
ENDBRANCH   3   4
ENDBRANCH   2   3
ENDBRANCH   1   2
BRANCH   1  25
ATOM     25  C   UNL     1      -3.143  -1.737   0.832  1.00  0.00     0.002 C 
BRANCH  25  26
ATOM     26  C   UNL     1      -3.250  -2.849  -0.216  1.00  0.00     0.021 C 
BRANCH  26  27
ATOM     27  C   UNL     1      -2.430  -4.104   0.079  1.00  0.00     0.116 C 
BRANCH  27  28
ATOM     28  N   UNL     1      -2.847  -4.747   1.315  1.00  0.00    -0.352 N 
ATOM     29  C   UNL     1      -3.413  -5.984   1.498  1.00  0.00     0.251 C 
ATOM     30  H   UNL     1      -2.703  -4.221   2.135  1.00  0.00     0.163 HD
ATOM     31  O   UNL     1      -3.931  -6.269   2.574  1.00  0.00    -0.269 OA
BRANCH  29  32
ATOM     32  C   UNL     1      -3.406  -6.961   0.389  1.00  0.00     0.039 A 
ATOM     33  C   UNL     1      -4.584  -7.641   0.071  1.00  0.00     0.014 A 
ATOM     34  C   UNL     1      -2.233  -7.205  -0.332  1.00  0.00     0.014 A 
ATOM     35  C   UNL     1      -4.598  -8.526  -1.010  1.00  0.00     0.010 A 
ATOM     36  C   UNL     1      -2.268  -8.034  -1.450  1.00  0.00     0.010 A 
ATOM     37  C   UNL     1      -3.449  -8.707  -1.798  1.00  0.00    -0.014 A 
BRANCH  37  38
ATOM     38  C   UNL     1      -3.463  -9.605  -2.982  1.00  0.00     0.031 A 
ATOM     39  C   UNL     1      -2.606 -10.841  -3.000  1.00  0.00     0.074 A 
ATOM     40  C   UNL     1      -4.208  -9.282  -4.057  1.00  0.00     0.049 A 
ATOM     41  N   UNL     1      -2.435 -11.719  -3.956  1.00  0.00    -0.248 NA
ATOM     42  C   UNL     1      -1.814 -11.107  -1.791  1.00  0.00     0.031 C 
ATOM     43  C   UNL     1      -5.057  -8.095  -4.169  1.00  0.00     0.029 A 
ATOM     44  N   UNL     1      -4.371  -9.921  -5.261  1.00  0.00    -0.354 N 
ATOM     45  C   UNL     1      -1.516 -12.640  -3.465  1.00  0.00     0.074 A 
ATOM     46  C   UNL     1      -1.110 -12.167  -2.158  1.00  0.00     0.031 C 
ATOM     47  C   UNL     1      -5.678  -8.110  -5.359  1.00  0.00     0.029 A 
ATOM     48  C   UNL     1      -5.235  -9.277  -6.116  1.00  0.00     0.049 A 
ATOM     49  H   UNL     1      -3.913 -10.761  -5.491  1.00  0.00     0.167 HD
ATOM     50  C   UNL     1      -1.073 -13.789  -4.037  1.00  0.00     0.034 A 
ATOM     51  C   UNL     1      -5.620  -9.587  -7.369  1.00  0.00     0.034 A 
ATOM     52  C   UNL     1      -1.485 -14.241  -5.345  1.00  0.00     0.049 A 
ATOM     53  C   UNL     1      -5.068 -10.835  -8.012  1.00  0.00     0.074 A 
ATOM     54  C   UNL     1      -1.128 -15.401  -6.010  1.00  0.00     0.029 A 
ATOM     55  N   UNL     1      -2.339 -13.547  -6.195  1.00  0.00    -0.354 N 
ATOM     56  N   UNL     1      -4.231 -11.718  -7.519  1.00  0.00    -0.248 NA
ATOM     57  C   UNL     1      -5.522 -11.130  -9.377  1.00  0.00     0.031 C 
ATOM     58  C   UNL     1      -1.704 -15.372  -7.285  1.00  0.00     0.029 A 
ATOM     59  C   UNL     1      -2.491 -14.236  -7.389  1.00  0.00     0.049 A 
ATOM     60  H   UNL     1      -2.773 -12.690  -5.980  1.00  0.00     0.167 HD
ATOM     61  C   UNL     1      -4.085 -12.692  -8.504  1.00  0.00     0.074 A 
ATOM     62  C   UNL     1      -4.931 -12.292  -9.610  1.00  0.00     0.031 C 
ATOM     63  C   UNL     1      -3.326 -13.819  -8.492  1.00  0.00     0.034 A 
BRANCH  50  64
ATOM     64  C   UNL     1      -0.073 -14.609  -3.254  1.00  0.00     0.023 A 
ATOM     65  C   UNL     1      -0.386 -15.138  -1.988  1.00  0.00     0.031 A 
ATOM     66  C   UNL     1       1.225 -14.824  -3.749  1.00  0.00     0.131 A 
ATOM     67  C   UNL     1       0.609 -15.765  -1.223  1.00  0.00     0.055 A 
ATOM     68  C   UNL     1       2.184 -15.534  -3.022  1.00  0.00     0.041 A 
ATOM     69  F   UNL     1       1.594 -14.327  -4.941  1.00  0.00    -0.206 F 
ATOM     70  C   UNL     1       1.885 -15.991  -1.742  1.00  0.00     0.022 A 
BRANCH  67  71
ATOM     71  S   UNL     1       0.262 -16.116   0.523  1.00  0.00     0.124 S 
ATOM     72  O   UNL     1      -0.076 -14.788   1.028  1.00  0.00    -0.237 OA
ATOM     73  O   UNL     1      -0.838 -17.069   0.440  1.00  0.00    -0.237 OA
ATOM     74  O   UNL     1       1.524 -16.660   1.020  1.00  0.00    -0.744 OA
ENDBRANCH  67  71
ENDBRANCH  50  64
BRANCH  51  75
ATOM     75  C   UNL     1      -6.578  -8.711  -8.104  1.00  0.00     0.023 A 
ATOM     76  C   UNL     1      -7.846  -9.185  -8.476  1.00  0.00     0.031 A 
ATOM     77  C   UNL     1      -6.228  -7.402  -8.478  1.00  0.00     0.131 A 
ATOM     78  C   UNL     1      -8.702  -8.373  -9.236  1.00  0.00     0.055 A 
ATOM     79  C   UNL     1      -7.104  -6.578  -9.186  1.00  0.00     0.041 A 
ATOM     80  F   UNL     1      -5.028  -6.898  -8.146  1.00  0.00    -0.206 F 
ATOM     81  C   UNL     1      -8.345  -7.067  -9.581  1.00  0.00     0.022 A 
BRANCH  78  82
ATOM     82  S   UNL     1     -10.259  -9.079  -9.839  1.00  0.00     0.124 S 
ATOM     83  O   UNL     1      -9.785 -10.210 -10.630  1.00  0.00    -0.237 OA
ATOM     84  O   UNL     1     -10.945  -9.409  -8.594  1.00  0.00    -0.237 OA
ATOM     85  O   UNL     1     -10.854  -7.986 -10.605  1.00  0.00    -0.744 OA
ENDBRANCH  78  82
ENDBRANCH  51  75
BRANCH  63  86
ATOM     86  C   UNL     1      -3.416 -14.719  -9.702  1.00  0.00     0.023 A 
ATOM     87  C   UNL     1      -2.958 -14.311 -10.967  1.00  0.00     0.031 A 
ATOM     88  C   UNL     1      -3.985 -16.000  -9.587  1.00  0.00     0.131 A 
ATOM     89  C   UNL     1      -3.130 -15.152 -12.077  1.00  0.00     0.055 A 
ATOM     90  C   UNL     1      -4.093 -16.858 -10.682  1.00  0.00     0.041 A 
ATOM     91  F   UNL     1      -4.443 -16.442  -8.405  1.00  0.00    -0.206 F 
ATOM     92  C   UNL     1      -3.678 -16.430 -11.940  1.00  0.00     0.022 A 
BRANCH  89  93
ATOM     93  S   UNL     1      -2.720 -14.514 -13.725  1.00  0.00     0.124 S 
ATOM     94  O   UNL     1      -3.583 -13.341 -13.820  1.00  0.00    -0.237 OA
ATOM     95  O   UNL     1      -1.290 -14.245 -13.609  1.00  0.00    -0.237 OA
ATOM     96  O   UNL     1      -3.071 -15.617 -14.618  1.00  0.00    -0.744 OA
ENDBRANCH  89  93
ENDBRANCH  63  86
ENDBRANCH  37  38
ENDBRANCH  29  32
ENDBRANCH  27  28
ENDBRANCH  26  27
ENDBRANCH  25  26
ENDBRANCH   1  25
TORSDOF 20
