REMARK SMILES Cc1c(C[NH2+]CC(=O)NCCCCCCNC(=O)c2ccc(-c3c4nc(c(-c5cc(S(=O)(=O)[O-])ccc5F)c5ccc([nH]5)c(-c5cc(S(=O)(=O)[O-])ccc5F)c5nc(c(-c6cc(S(=O)(=O)[O-])ccc6F)c6ccc3[nH]6)C=C5)C=C4)cc2)cnn1C
REMARK SMILES IDX 12 1 11 2 10 3 9 4 7 5 8 6 6 8 5 9 4 12 3 13 1 14 2 15 84 16
REMARK SMILES IDX 82 17 83 18 85 19 13 20 14 21 15 22 16 23 17 24 18 26 19 27
REMARK SMILES IDX 20 28 81 29 21 30 80 31 22 32 23 33 24 34 74 35 25 36 79 37
REMARK SMILES IDX 73 38 75 39 26 40 78 41 72 42 71 43 27 45 59 46 39 47 58 48
REMARK SMILES IDX 40 49 43 50 57 51 76 52 41 53 42 54 56 56 77 57 44 58 28 59
REMARK SMILES IDX 29 60 37 61 30 62 36 63 38 64 35 65 31 66 32 67 33 68 34 69
REMARK SMILES IDX 60 70 61 71 69 72 62 73 68 74 70 75 67 76 63 77 64 78 65 79
REMARK SMILES IDX 66 80 45 81 46 82 54 83 47 84 53 85 55 86 52 87 48 88 49 89
REMARK SMILES IDX 50 90 51 91
REMARK H PARENT 9 7 5 10 5 11 16 25 75 44 43 55
REMARK Flexibility Score: inf
ROOT
ATOM      1  C   UNL     1      -4.797  -3.637   1.635  1.00  0.00     0.002 C 
ENDROOT
BRANCH   1   2
ATOM      2  C   UNL     1      -3.351  -3.418   1.193  1.00  0.00     0.021 C 
BRANCH   2   3
ATOM      3  C   UNL     1      -2.526  -4.702   1.014  1.00  0.00     0.116 C 
BRANCH   3   4
ATOM      4  N   UNL     1      -2.591  -5.166  -0.364  1.00  0.00    -0.351 N 
ATOM      5  C   UNL     1      -1.653  -5.140  -1.358  1.00  0.00     0.275 C 
ATOM      6  O   UNL     1      -2.020  -5.423  -2.502  1.00  0.00    -0.269 OA
ATOM      7  H   UNL     1      -3.453  -5.564  -0.623  1.00  0.00     0.163 HD
BRANCH   5   8
ATOM      8  C   UNL     1      -0.187  -4.770  -1.071  1.00  0.00     0.362 C 
BRANCH   8   9
ATOM      9  N   UNL     1       0.127  -3.352  -1.364  1.00  0.00    -0.335 N 
ATOM     10  H   UNL     1       1.139  -3.225  -1.373  1.00  0.00     0.347 HD
ATOM     11  H   UNL     1      -0.261  -3.104  -2.274  1.00  0.00     0.347 HD
BRANCH   9  12
ATOM     12  C   UNL     1      -0.456  -2.492  -0.347  1.00  0.00     0.301 C 
BRANCH  12  13
ATOM     13  C   UNL     1      -0.185  -1.051  -0.552  1.00  0.00     0.047 A 
ATOM     14  C   UNL     1       2.364  -0.813  -0.096  1.00  0.00     0.067 C 
ATOM     15  C   UNL     1       0.988  -0.336  -0.379  1.00  0.00     0.044 A 
ATOM     16  N   UNL     1       0.624   0.988  -0.443  1.00  0.00    -0.272 N 
ATOM     17  C   UNL     1      -1.163  -0.062  -0.805  1.00  0.00     0.145 A 
ATOM     18  N   UNL     1      -0.669   1.172  -0.763  1.00  0.00    -0.181 NA
ATOM     19  C   UNL     1       1.429   2.142  -0.116  1.00  0.00     0.174 C 
ENDBRANCH  12  13
ENDBRANCH   9  12
ENDBRANCH   8   9
ENDBRANCH   5   8
ENDBRANCH   3   4
ENDBRANCH   2   3
ENDBRANCH   1   2
BRANCH   1  20
ATOM     20  C   UNL     1      -4.967  -4.119   3.076  1.00  0.00     0.002 C 
BRANCH  20  21
ATOM     21  C   UNL     1      -4.290  -3.261   4.150  1.00  0.00     0.021 C 
BRANCH  21  22
ATOM     22  C   UNL     1      -4.639  -1.773   4.125  1.00  0.00     0.116 C 
BRANCH  22  23
ATOM     23  N   UNL     1      -6.060  -1.544   4.312  1.00  0.00    -0.352 N 
ATOM     24  C   UNL     1      -6.719  -0.856   5.300  1.00  0.00     0.251 C 
ATOM     25  H   UNL     1      -6.640  -1.944   3.624  1.00  0.00     0.163 HD
ATOM     26  O   UNL     1      -7.936  -0.977   5.403  1.00  0.00    -0.269 OA
BRANCH  24  27
ATOM     27  C   UNL     1      -5.976   0.013   6.242  1.00  0.00     0.039 A 
ATOM     28  C   UNL     1      -6.347   0.013   7.590  1.00  0.00     0.014 A 
ATOM     29  C   UNL     1      -4.965   0.873   5.800  1.00  0.00     0.014 A 
ATOM     30  C   UNL     1      -5.686   0.847   8.497  1.00  0.00     0.010 A 
ATOM     31  C   UNL     1      -4.264   1.657   6.716  1.00  0.00     0.010 A 
ATOM     32  C   UNL     1      -4.630   1.668   8.071  1.00  0.00    -0.014 A 
BRANCH  32  33
ATOM     33  C   UNL     1      -3.948   2.590   9.018  1.00  0.00     0.031 A 
ATOM     34  C   UNL     1      -4.091   4.080   8.843  1.00  0.00     0.074 A 
ATOM     35  C   UNL     1      -3.188   2.096  10.015  1.00  0.00     0.049 A 
ATOM     36  N   UNL     1      -3.535   5.054   9.518  1.00  0.00    -0.248 NA
ATOM     37  C   UNL     1      -4.957   4.532   7.743  1.00  0.00     0.031 C 
ATOM     38  C   UNL     1      -2.956   0.674  10.277  1.00  0.00     0.029 A 
ATOM     39  N   UNL     1      -2.471   2.734  10.997  1.00  0.00    -0.354 N 
ATOM     40  C   UNL     1      -3.981   6.231   8.925  1.00  0.00     0.074 A 
ATOM     41  C   UNL     1      -4.796   5.845   7.792  1.00  0.00     0.031 C 
ATOM     42  C   UNL     1      -2.171   0.549  11.360  1.00  0.00     0.029 A 
ATOM     43  C   UNL     1      -1.816   1.877  11.851  1.00  0.00     0.049 A 
ATOM     44  H   UNL     1      -2.430   3.714  11.082  1.00  0.00     0.167 HD
ATOM     45  C   UNL     1      -3.759   7.514   9.304  1.00  0.00     0.034 A 
ATOM     46  C   UNL     1      -1.019   2.135  12.907  1.00  0.00     0.034 A 
ATOM     47  C   UNL     1      -2.950   7.888  10.439  1.00  0.00     0.049 A 
ATOM     48  C   UNL     1      -0.776   3.573  13.301  1.00  0.00     0.074 A 
ATOM     49  C   UNL     1      -2.642   9.155  10.905  1.00  0.00     0.029 A 
ATOM     50  N   UNL     1      -2.328   6.990  11.297  1.00  0.00    -0.354 N 
ATOM     51  N   UNL     1      -1.215   4.673  12.733  1.00  0.00    -0.248 NA
ATOM     52  C   UNL     1       0.049   3.801  14.494  1.00  0.00     0.031 C 
ATOM     53  C   UNL     1      -1.804   9.024  12.019  1.00  0.00     0.029 A 
ATOM     54  C   UNL     1      -1.641   7.675  12.287  1.00  0.00     0.049 A 
ATOM     55  H   UNL     1      -2.369   6.010  11.214  1.00  0.00     0.167 HD
ATOM     56  C   UNL     1      -0.757   5.718  13.532  1.00  0.00     0.074 A 
ATOM     57  C   UNL     1      -0.024   5.116  14.625  1.00  0.00     0.031 C 
ATOM     58  C   UNL     1      -0.929   7.057  13.379  1.00  0.00     0.034 A 
BRANCH  45  59
ATOM     59  C   UNL     1      -4.396   8.600   8.469  1.00  0.00     0.023 A 
ATOM     60  C   UNL     1      -5.794   8.723   8.374  1.00  0.00     0.031 A 
ATOM     61  C   UNL     1      -3.606   9.499   7.733  1.00  0.00     0.131 A 
ATOM     62  C   UNL     1      -6.357   9.669   7.505  1.00  0.00     0.055 A 
ATOM     63  C   UNL     1      -4.173  10.493   6.933  1.00  0.00     0.041 A 
ATOM     64  F   UNL     1      -2.266   9.419   7.768  1.00  0.00    -0.206 F 
ATOM     65  C   UNL     1      -5.557  10.572   6.803  1.00  0.00     0.022 A 
BRANCH  62  66
ATOM     66  S   UNL     1      -8.145   9.611   7.203  1.00  0.00     0.124 S 
ATOM     67  O   UNL     1      -8.298   8.286   6.606  1.00  0.00    -0.237 OA
ATOM     68  O   UNL     1      -8.698   9.776   8.542  1.00  0.00    -0.237 OA
ATOM     69  O   UNL     1      -8.374  10.729   6.291  1.00  0.00    -0.744 OA
ENDBRANCH  62  66
ENDBRANCH  45  59
BRANCH  46  70
ATOM     70  C   UNL     1      -0.393   1.026  13.684  1.00  0.00     0.023 A 
ATOM     71  C   UNL     1      -0.700   0.834  15.041  1.00  0.00     0.031 A 
ATOM     72  C   UNL     1       0.582   0.195  13.107  1.00  0.00     0.131 A 
ATOM     73  C   UNL     1       0.010  -0.114  15.793  1.00  0.00     0.055 A 
ATOM     74  C   UNL     1       1.244  -0.789  13.845  1.00  0.00     0.041 A 
ATOM     75  F   UNL     1       0.910   0.330  11.812  1.00  0.00    -0.206 F 
ATOM     76  C   UNL     1       0.973  -0.933  15.202  1.00  0.00     0.022 A 
BRANCH  73  77
ATOM     77  S   UNL     1      -0.256  -0.171  17.587  1.00  0.00     0.124 S 
ATOM     78  O   UNL     1      -0.005   1.214  17.970  1.00  0.00    -0.237 OA
ATOM     79  O   UNL     1      -1.641  -0.620  17.671  1.00  0.00    -0.237 OA
ATOM     80  O   UNL     1       0.740  -1.136  18.047  1.00  0.00    -0.744 OA
ENDBRANCH  73  77
ENDBRANCH  46  70
BRANCH  58  81
ATOM     81  C   UNL     1      -0.378   7.943  14.469  1.00  0.00     0.023 A 
ATOM     82  C   UNL     1       1.003   8.058  14.709  1.00  0.00     0.031 A 
ATOM     83  C   UNL     1      -1.256   8.654  15.307  1.00  0.00     0.131 A 
ATOM     84  C   UNL     1       1.462   8.804  15.804  1.00  0.00     0.055 A 
ATOM     85  C   UNL     1      -0.791   9.444  16.358  1.00  0.00     0.041 A 
ATOM     86  F   UNL     1      -2.584   8.582  15.122  1.00  0.00    -0.206 F 
ATOM     87  C   UNL     1       0.574   9.508  16.623  1.00  0.00     0.022 A 
BRANCH  84  88
ATOM     88  S   UNL     1       3.228   8.749  16.216  1.00  0.00     0.124 S 
ATOM     89  O   UNL     1       3.467   7.315  16.344  1.00  0.00    -0.237 OA
ATOM     90  O   UNL     1       3.836   9.395  15.057  1.00  0.00    -0.237 OA
ATOM     91  O   UNL     1       3.313   9.505  17.463  1.00  0.00    -0.744 OA
ENDBRANCH  84  88
ENDBRANCH  58  81
ENDBRANCH  32  33
ENDBRANCH  24  27
ENDBRANCH  22  23
ENDBRANCH  21  22
ENDBRANCH  20  21
ENDBRANCH   1  20
TORSDOF 19
