REMARK SMILES NC(=O)CC[C@@H](C(=O)NCCCCCCNC(=O)c1ccc(-c2c3nc(c(-c4cc(S(=O)(=O)[O-])ccc4F)c4ccc([nH]4)c(-c4cc(S(=O)(=O)[O-])ccc4F)c4nc(c(-c5cc(S(=O)(=O)[O-])ccc5F)c5ccc2[nH]5)C=C4)C=C3)cc1)N1C(=O)/C(=C/c2ccc(C=O)cc2)SC1=S
REMARK SMILES IDX 12 1 11 2 10 3 9 4 7 5 8 6 6 8 5 9 4 10 2 11 1 12 3 15 82 16
REMARK SMILES IDX 83 17 96 18 84 19 85 20 95 21 97 22 86 23 87 24 88 25 94 26
REMARK SMILES IDX 89 27 93 28 90 29 91 30 92 31 13 32 14 33 15 34 16 35 17 36
REMARK SMILES IDX 18 38 19 39 20 40 81 41 21 42 80 43 22 44 23 45 24 46 74 47
REMARK SMILES IDX 25 48 79 49 73 50 75 51 26 52 78 53 72 54 71 55 27 57 59 58
REMARK SMILES IDX 39 59 58 60 40 61 43 62 57 63 76 64 41 65 42 66 56 68 77 69
REMARK SMILES IDX 44 70 28 71 29 72 37 73 30 74 36 75 38 76 35 77 31 78 32 79
REMARK SMILES IDX 33 80 34 81 60 82 61 83 69 84 62 85 68 86 70 87 67 88 63 89
REMARK SMILES IDX 64 90 65 91 66 92 45 93 46 94 54 95 47 96 53 97 55 98 52 99
REMARK SMILES IDX 48 100 49 101 50 102 51 103
REMARK H PARENT 9 7 1 13 1 14 16 37 75 56 43 67
REMARK Flexibility Score: inf
ROOT
ATOM      1  C   UNL     1       2.155  -4.816  -0.138  1.00  0.00     0.002 C 
ENDROOT
BRANCH   1   2
ATOM      2  C   UNL     1       1.675  -3.568  -0.882  1.00  0.00     0.021 C 
BRANCH   2   3
ATOM      3  C   UNL     1       2.199  -2.266  -0.283  1.00  0.00     0.116 C 
BRANCH   3   4
ATOM      4  N   UNL     1       3.502  -1.935  -0.802  1.00  0.00    -0.354 N 
ATOM      5  C   UNL     1       3.935  -0.839  -1.471  1.00  0.00     0.243 C 
ATOM      6  O   UNL     1       5.160  -0.663  -1.439  1.00  0.00    -0.273 OA
ATOM      7  H   UNL     1       4.192  -2.620  -0.644  1.00  0.00     0.163 HD
BRANCH   5   8
ATOM      8  C   UNL     1       2.983   0.219  -2.104  1.00  0.00     0.181 C 
BRANCH   8   9
ATOM      9  C   UNL     1       1.834  -0.120  -3.076  1.00  0.00     0.045 C 
BRANCH   9  10
ATOM     10  C   UNL     1       0.490  -0.700  -2.646  1.00  0.00     0.102 C 
BRANCH  10  11
ATOM     11  C   UNL     1      -0.456  -0.000  -1.683  1.00  0.00     0.217 C 
ATOM     12  N   UNL     1       0.011   0.642  -0.588  1.00  0.00    -0.370 N 
ATOM     13  H   UNL     1      -0.616   1.089   0.025  1.00  0.00     0.159 HD
ATOM     14  H   UNL     1       0.978   0.661  -0.403  1.00  0.00     0.159 HD
ATOM     15  O   UNL     1      -1.674  -0.106  -1.816  1.00  0.00    -0.275 OA
ENDBRANCH  10  11
ENDBRANCH   9  10
ENDBRANCH   8   9
BRANCH   8  16
ATOM     16  N   UNL     1       3.855   1.221  -2.794  1.00  0.00    -0.280 N 
ATOM     17  C   UNL     1       3.681   2.558  -2.478  1.00  0.00     0.266 C 
ATOM     18  C   UNL     1       4.712   0.955  -3.853  1.00  0.00     0.149 C 
ATOM     19  O   UNL     1       2.899   3.002  -1.643  1.00  0.00    -0.268 OA
ATOM     20  C   UNL     1       4.495   3.414  -3.376  1.00  0.00     0.081 C 
ATOM     21  S   UNL     1       5.532   2.435  -4.330  1.00  0.00    -0.054 SA
ATOM     22  S   UNL     1       4.986  -0.466  -4.689  1.00  0.00    -0.052 S 
ATOM     23  C   UNL     1       4.342   4.745  -3.442  1.00  0.00     0.029 C 
BRANCH  23  24
ATOM     24  C   UNL     1       5.083   5.621  -4.357  1.00  0.00    -0.024 A 
ATOM     25  C   UNL     1       5.934   6.598  -3.829  1.00  0.00     0.009 A 
ATOM     26  C   UNL     1       4.981   5.474  -5.748  1.00  0.00     0.009 A 
ATOM     27  C   UNL     1       6.719   7.379  -4.680  1.00  0.00     0.012 A 
ATOM     28  C   UNL     1       5.773   6.245  -6.603  1.00  0.00     0.012 A 
ATOM     29  C   UNL     1       6.650   7.187  -6.062  1.00  0.00     0.014 A 
BRANCH  29  30
ATOM     30  C   UNL     1       7.521   7.963  -6.967  1.00  0.00     0.260 C 
ATOM     31  O   UNL     1       8.301   8.812  -6.554  1.00  0.00    -0.298 OA
ENDBRANCH  29  30
ENDBRANCH  23  24
ENDBRANCH   8  16
ENDBRANCH   5   8
ENDBRANCH   3   4
ENDBRANCH   2   3
ENDBRANCH   1   2
BRANCH   1  32
ATOM     32  C   UNL     1       1.700  -4.895   1.324  1.00  0.00     0.002 C 
BRANCH  32  33
ATOM     33  C   UNL     1       0.188  -4.773   1.542  1.00  0.00     0.021 C 
BRANCH  33  34
ATOM     34  C   UNL     1      -0.643  -5.814   0.796  1.00  0.00     0.116 C 
BRANCH  34  35
ATOM     35  N   UNL     1      -0.255  -7.167   1.163  1.00  0.00    -0.352 N 
ATOM     36  C   UNL     1      -0.999  -8.156   1.753  1.00  0.00     0.251 C 
ATOM     37  H   UNL     1       0.677  -7.407   0.957  1.00  0.00     0.163 HD
ATOM     38  O   UNL     1      -0.434  -9.132   2.239  1.00  0.00    -0.269 OA
BRANCH  36  39
ATOM     39  C   UNL     1      -2.471  -8.036   1.809  1.00  0.00     0.039 A 
ATOM     40  C   UNL     1      -3.137  -8.386   2.985  1.00  0.00     0.014 A 
ATOM     41  C   UNL     1      -3.192  -7.598   0.694  1.00  0.00     0.014 A 
ATOM     42  C   UNL     1      -4.524  -8.247   3.059  1.00  0.00     0.010 A 
ATOM     43  C   UNL     1      -4.565  -7.390   0.795  1.00  0.00     0.010 A 
ATOM     44  C   UNL     1      -5.247  -7.718   1.976  1.00  0.00    -0.014 A 
BRANCH  44  45
ATOM     45  C   UNL     1      -6.716  -7.507   2.061  1.00  0.00     0.031 A 
ATOM     46  C   UNL     1      -7.641  -8.270   1.150  1.00  0.00     0.074 A 
ATOM     47  C   UNL     1      -7.207  -6.589   2.918  1.00  0.00     0.049 A 
ATOM     48  N   UNL     1      -8.940  -8.181   1.029  1.00  0.00    -0.248 NA
ATOM     49  C   UNL     1      -7.021  -9.245   0.238  1.00  0.00     0.031 C 
ATOM     50  C   UNL     1      -6.403  -5.767   3.828  1.00  0.00     0.029 A 
ATOM     51  N   UNL     1      -8.495  -6.185   3.164  1.00  0.00    -0.354 N 
ATOM     52  C   UNL     1      -9.291  -9.069   0.018  1.00  0.00     0.074 A 
ATOM     53  C   UNL     1      -8.061  -9.653  -0.473  1.00  0.00     0.031 C 
ATOM     54  C   UNL     1      -7.218  -4.983   4.551  1.00  0.00     0.029 A 
ATOM     55  C   UNL     1      -8.596  -5.201   4.122  1.00  0.00     0.049 A 
ATOM     56  H   UNL     1      -9.275  -6.564   2.699  1.00  0.00     0.167 HD
ATOM     57  C   UNL     1     -10.526  -9.378  -0.446  1.00  0.00     0.034 A 
ATOM     58  C   UNL     1      -9.674  -4.540   4.590  1.00  0.00     0.034 A 
ATOM     59  C   UNL     1     -11.743  -8.801   0.073  1.00  0.00     0.049 A 
ATOM     60  C   UNL     1     -11.034  -4.885   4.030  1.00  0.00     0.074 A 
ATOM     61  C   UNL     1     -13.049  -9.101  -0.272  1.00  0.00     0.029 A 
ATOM     62  N   UNL     1     -11.805  -7.801   1.034  1.00  0.00    -0.354 N 
ATOM     63  N   UNL     1     -11.352  -5.779   3.122  1.00  0.00    -0.248 NA
ATOM     64  C   UNL     1     -12.180  -4.139   4.565  1.00  0.00     0.031 C 
ATOM     65  C   UNL     1     -13.895  -8.226   0.415  1.00  0.00     0.029 A 
ATOM     66  C   UNL     1     -13.126  -7.443   1.261  1.00  0.00     0.049 A 
ATOM     67  H   UNL     1     -11.027  -7.404   1.488  1.00  0.00     0.167 HD
ATOM     68  C   UNL     1     -12.740  -5.731   3.013  1.00  0.00     0.074 A 
ATOM     69  C   UNL     1     -13.195  -4.733   3.958  1.00  0.00     0.031 C 
ATOM     70  C   UNL     1     -13.566  -6.447   2.209  1.00  0.00     0.034 A 
BRANCH  57  71
ATOM     71  C   UNL     1     -10.629 -10.357  -1.590  1.00  0.00     0.023 A 
ATOM     72  C   UNL     1     -10.236 -11.700  -1.461  1.00  0.00     0.031 A 
ATOM     73  C   UNL     1     -11.151  -9.940  -2.829  1.00  0.00     0.131 A 
ATOM     74  C   UNL     1     -10.324 -12.564  -2.564  1.00  0.00     0.055 A 
ATOM     75  C   UNL     1     -11.306 -10.823  -3.898  1.00  0.00     0.041 A 
ATOM     76  F   UNL     1     -11.521  -8.664  -3.019  1.00  0.00    -0.206 F 
ATOM     77  C   UNL     1     -10.882 -12.142  -3.773  1.00  0.00     0.022 A 
BRANCH  74  78
ATOM     78  S   UNL     1      -9.593 -14.219  -2.432  1.00  0.00     0.124 S 
ATOM     79  O   UNL     1      -8.195 -13.903  -2.150  1.00  0.00    -0.237 OA
ATOM     80  O   UNL     1     -10.348 -14.812  -1.334  1.00  0.00    -0.237 OA
ATOM     81  O   UNL     1      -9.838 -14.808  -3.747  1.00  0.00    -0.744 OA
ENDBRANCH  74  78
ENDBRANCH  57  71
BRANCH  58  82
ATOM     82  C   UNL     1      -9.534  -3.476   5.628  1.00  0.00     0.023 A 
ATOM     83  C   UNL     1     -10.182  -3.592   6.869  1.00  0.00     0.031 A 
ATOM     84  C   UNL     1      -8.827  -2.288   5.367  1.00  0.00     0.131 A 
ATOM     85  C   UNL     1     -10.176  -2.514   7.767  1.00  0.00     0.055 A 
ATOM     86  C   UNL     1      -8.764  -1.246   6.295  1.00  0.00     0.041 A 
ATOM     87  F   UNL     1      -8.187  -2.120   4.199  1.00  0.00    -0.206 F 
ATOM     88  C   UNL     1      -9.459  -1.348   7.495  1.00  0.00     0.022 A 
BRANCH  85  89
ATOM     89  S   UNL     1     -11.237  -2.607   9.236  1.00  0.00     0.124 S 
ATOM     90  O   UNL     1     -12.543  -2.864   8.641  1.00  0.00    -0.237 OA
ATOM     91  O   UNL     1     -10.637  -3.715   9.972  1.00  0.00    -0.237 OA
ATOM     92  O   UNL     1     -11.078  -1.292   9.853  1.00  0.00    -0.744 OA
ENDBRANCH  85  89
ENDBRANCH  58  82
BRANCH  70  93
ATOM     93  C   UNL     1     -15.050  -6.219   2.366  1.00  0.00     0.023 A 
ATOM     94  C   UNL     1     -15.652  -4.989   2.050  1.00  0.00     0.031 A 
ATOM     95  C   UNL     1     -15.873  -7.252   2.851  1.00  0.00     0.131 A 
ATOM     96  C   UNL     1     -17.023  -4.802   2.281  1.00  0.00     0.055 A 
ATOM     97  C   UNL     1     -17.248  -7.083   3.011  1.00  0.00     0.041 A 
ATOM     98  F   UNL     1     -15.353  -8.447   3.172  1.00  0.00    -0.206 F 
ATOM     99  C   UNL     1     -17.829  -5.848   2.740  1.00  0.00     0.022 A 
BRANCH  96 100
ATOM    100  S   UNL     1     -17.724  -3.143   2.070  1.00  0.00     0.124 S 
ATOM    101  O   UNL     1     -16.921  -2.354   2.999  1.00  0.00    -0.237 OA
ATOM    102  O   UNL     1     -17.494  -2.885   0.652  1.00  0.00    -0.237 OA
ATOM    103  O   UNL     1     -19.125  -3.311   2.448  1.00  0.00    -0.744 OA
ENDBRANCH  96 100
ENDBRANCH  70  93
ENDBRANCH  44  45
ENDBRANCH  36  39
ENDBRANCH  34  35
ENDBRANCH  33  34
ENDBRANCH  32  33
ENDBRANCH   1  32
TORSDOF 22
