REMARK SMILES Cc1ccc(NS(=O)(=O)c2cc(C(=O)Nc3ccccc3C(=O)NCCCCCCNC(=O)c3ccc(-c4c5nc(c(-c6cc(S(=O)(=O)[O-])ccc6F)c6ccc([nH]6)c(-c6cc(S(=O)(=O)[O-])ccc6F)c6nc(c(-c7cc(S(=O)(=O)[O-])ccc7F)c7ccc4[nH]7)C=C6)C=C5)cc3)ccc2Br)cc1
REMARK SMILES IDX 26 1 25 2 24 3 22 4 23 5 21 7 16 8 17 9 18 10 20 11 19 12
REMARK SMILES IDX 15 13 13 14 14 15 12 17 10 18 11 19 99 20 98 21 100 22 97 23
REMARK SMILES IDX 7 24 8 25 9 26 6 27 5 29 1 30 2 31 3 32 102 33 4 34 101 35
REMARK SMILES IDX 27 36 28 37 29 38 30 39 31 40 32 41 33 43 34 44 35 45 96 46
REMARK SMILES IDX 36 47 95 48 37 49 38 50 39 51 89 52 40 53 94 54 88 55 90 56
REMARK SMILES IDX 41 57 93 58 87 59 86 60 42 62 74 63 54 64 73 65 55 66 58 67
REMARK SMILES IDX 72 68 91 69 56 70 57 71 71 73 92 74 59 75 43 76 44 77 52 78
REMARK SMILES IDX 45 79 51 80 53 81 50 82 46 83 47 84 48 85 49 86 75 87 76 88
REMARK SMILES IDX 84 89 77 90 83 91 85 92 82 93 78 94 79 95 80 96 81 97 60 98
REMARK SMILES IDX 61 99 69 100 62 101 68 102 70 103 67 104 63 105 64 106
REMARK SMILES IDX 65 107 66 108
REMARK H PARENT 24 6 15 16 6 28 31 42 90 61 58 72
REMARK Flexibility Score: inf
ROOT
ATOM      1  C   UNL     1      -4.652  -2.197   2.843  1.00  0.00     0.021 C 
ENDROOT
BRANCH   1   2
ATOM      2  C   UNL     1      -3.499  -1.228   2.931  1.00  0.00     0.116 C 
BRANCH   2   3
ATOM      3  N   UNL     1      -2.195  -1.748   3.244  1.00  0.00    -0.352 N 
ATOM      4  C   UNL     1      -1.000  -1.204   2.836  1.00  0.00     0.253 C 
ATOM      5  O   UNL     1       0.064  -1.536   3.343  1.00  0.00    -0.269 OA
ATOM      6  H   UNL     1      -2.155  -2.562   3.798  1.00  0.00     0.163 HD
BRANCH   4   7
ATOM      7  C   UNL     1      -1.013  -0.301   1.657  1.00  0.00     0.063 A 
ATOM      8  C   UNL     1       0.118  -0.642   0.278  1.00  0.00     0.054 A 
ATOM      9  C   UNL     1       0.053   0.648  -1.289  1.00  0.00     0.027 A 
ATOM     10  C   UNL     1      -1.186   1.962  -1.295  1.00  0.00     0.002 A 
ATOM     11  C   UNL     1      -2.145   1.054   1.520  1.00  0.00     0.016 A 
ATOM     12  C   UNL     1      -2.241   2.117   0.097  1.00  0.00     0.001 A 
BRANCH   8  13
ATOM     13  N   UNL     1       0.845  -1.943   0.546  1.00  0.00    -0.321 N 
ATOM     14  C   UNL     1       0.466  -3.303   0.646  1.00  0.00     0.255 C 
ATOM     15  O   UNL     1       1.367  -4.135   0.801  1.00  0.00    -0.269 OA
ATOM     16  H   UNL     1       1.811  -1.811   0.684  1.00  0.00     0.170 HD
BRANCH  14  17
ATOM     17  C   UNL     1      -0.918  -3.845   0.415  1.00  0.00     0.041 A 
ATOM     18  C   UNL     1      -3.169  -3.182  -0.268  1.00  0.00     0.102 A 
ATOM     19  C   UNL     1      -1.956  -2.964   0.332  1.00  0.00     0.037 A 
ATOM     20  C   UNL     1      -3.543  -4.492  -0.467  1.00  0.00     0.038 A 
ATOM     21  C   UNL     1      -2.589  -5.499  -0.197  1.00  0.00     0.018 A 
ATOM     22  Br  UNL     1      -5.290  -4.988  -0.976  1.00  0.00    -0.049 Br
ATOM     23  C   UNL     1      -1.256  -5.171   0.167  1.00  0.00     0.015 A 
BRANCH  18  24
ATOM     24  S   UNL     1      -3.913  -1.718  -0.962  1.00  0.00     0.263 S 
ATOM     25  O   UNL     1      -5.203  -1.542  -0.330  1.00  0.00    -0.201 OA
ATOM     26  O   UNL     1      -3.765  -1.802  -2.397  1.00  0.00    -0.201 OA
BRANCH  24  27
ATOM     27  N   UNL     1      -3.020  -0.340  -0.425  1.00  0.00    -0.280 N 
ATOM     28  H   UNL     1      -3.559   0.363   0.004  1.00  0.00     0.180 HD
BRANCH  27  29
ATOM     29  C   UNL     1      -1.527  -0.045  -0.513  1.00  0.00     0.049 A 
ATOM     30  C   UNL     1       3.572  -0.386  -0.819  1.00  0.00     0.044 C 
ATOM     31  C   UNL     1       2.090  -0.153  -0.875  1.00  0.00    -0.051 A 
ATOM     32  C   UNL     1       1.030  -1.258  -1.786  1.00  0.00     0.005 A 
ATOM     33  C   UNL     1       1.501   1.068   0.217  1.00  0.00     0.005 A 
ATOM     34  C   UNL     1      -0.741  -1.232  -1.649  1.00  0.00     0.027 A 
ATOM     35  C   UNL     1      -0.261   1.214   0.451  1.00  0.00     0.027 A 
ENDBRANCH  27  29
ENDBRANCH  24  27
ENDBRANCH  18  24
ENDBRANCH  14  17
ENDBRANCH   8  13
ENDBRANCH   4   7
ENDBRANCH   2   3
ENDBRANCH   1   2
BRANCH   1  36
ATOM     36  C   UNL     1      -4.966  -2.958   4.111  1.00  0.00     0.002 C 
BRANCH  36  37
ATOM     37  C   UNL     1      -4.898  -2.128   5.391  1.00  0.00     0.002 C 
BRANCH  37  38
ATOM     38  C   UNL     1      -5.671  -0.816   5.375  1.00  0.00     0.021 C 
BRANCH  38  39
ATOM     39  C   UNL     1      -7.131  -0.958   5.038  1.00  0.00     0.116 C 
BRANCH  39  40
ATOM     40  N   UNL     1      -7.928  -1.432   6.142  1.00  0.00    -0.352 N 
ATOM     41  C   UNL     1      -9.256  -1.167   6.410  1.00  0.00     0.251 C 
ATOM     42  H   UNL     1      -7.468  -2.018   6.785  1.00  0.00     0.163 HD
ATOM     43  O   UNL     1      -9.711  -1.295   7.545  1.00  0.00    -0.269 OA
BRANCH  41  44
ATOM     44  C   UNL     1     -10.201  -0.973   5.269  1.00  0.00     0.039 A 
ATOM     45  C   UNL     1     -11.383  -1.723   5.370  1.00  0.00     0.014 A 
ATOM     46  C   UNL     1      -9.729  -0.611   4.018  1.00  0.00     0.014 A 
ATOM     47  C   UNL     1     -11.828  -2.424   4.263  1.00  0.00     0.010 A 
ATOM     48  C   UNL     1     -10.007  -1.448   2.982  1.00  0.00     0.010 A 
ATOM     49  C   UNL     1     -11.017  -2.392   3.138  1.00  0.00    -0.014 A 
BRANCH  49  50
ATOM     50  C   UNL     1     -11.277  -3.083   1.902  1.00  0.00     0.031 A 
ATOM     51  C   UNL     1     -12.242  -2.333   1.068  1.00  0.00     0.074 A 
ATOM     52  C   UNL     1     -10.411  -4.091   1.629  1.00  0.00     0.049 A 
ATOM     53  N   UNL     1     -13.003  -2.821   0.167  1.00  0.00    -0.248 NA
ATOM     54  C   UNL     1     -12.523  -0.893   1.271  1.00  0.00     0.031 C 
ATOM     55  C   UNL     1     -10.082  -4.804   0.401  1.00  0.00     0.029 A 
ATOM     56  N   UNL     1      -9.741  -4.845   2.608  1.00  0.00    -0.354 N 
ATOM     57  C   UNL     1     -13.419  -1.751  -0.607  1.00  0.00     0.074 A 
ATOM     58  C   UNL     1     -13.290  -0.591   0.221  1.00  0.00     0.031 C 
ATOM     59  C   UNL     1      -9.650  -6.045   0.718  1.00  0.00     0.029 A 
ATOM     60  C   UNL     1      -9.757  -6.183   2.163  1.00  0.00     0.049 A 
ATOM     61  H   UNL     1      -9.339  -4.505   3.440  1.00  0.00     0.167 HD
ATOM     62  C   UNL     1     -13.565  -1.955  -1.944  1.00  0.00     0.034 A 
ATOM     63  C   UNL     1     -10.572  -7.065   2.820  1.00  0.00     0.034 A 
ATOM     64  C   UNL     1     -13.200  -3.341  -2.228  1.00  0.00     0.049 A 
ATOM     65  C   UNL     1     -11.778  -7.359   1.943  1.00  0.00     0.074 A 
ATOM     66  C   UNL     1     -12.005  -3.920  -2.624  1.00  0.00     0.029 A 
ATOM     67  N   UNL     1     -13.946  -4.344  -1.632  1.00  0.00    -0.354 N 
ATOM     68  N   UNL     1     -12.301  -6.514   1.085  1.00  0.00    -0.248 NA
ATOM     69  C   UNL     1     -12.340  -8.700   1.836  1.00  0.00     0.031 C 
ATOM     70  C   UNL     1     -12.017  -5.271  -2.165  1.00  0.00     0.029 A 
ATOM     71  C   UNL     1     -13.202  -5.495  -1.481  1.00  0.00     0.049 A 
ATOM     72  H   UNL     1     -14.885  -4.247  -1.352  1.00  0.00     0.167 HD
ATOM     73  C   UNL     1     -13.160  -7.190   0.254  1.00  0.00     0.074 A 
ATOM     74  C   UNL     1     -13.140  -8.554   0.769  1.00  0.00     0.031 C 
ATOM     75  C   UNL     1     -13.804  -6.645  -0.829  1.00  0.00     0.034 A 
BRANCH  62  76
ATOM     76  C   UNL     1     -13.716  -0.915  -3.021  1.00  0.00     0.023 A 
ATOM     77  C   UNL     1     -13.342  -1.283  -4.329  1.00  0.00     0.031 A 
ATOM     78  C   UNL     1     -14.226   0.389  -2.882  1.00  0.00     0.131 A 
ATOM     79  C   UNL     1     -13.447  -0.400  -5.413  1.00  0.00     0.055 A 
ATOM     80  C   UNL     1     -14.315   1.285  -3.964  1.00  0.00     0.041 A 
ATOM     81  F   UNL     1     -14.700   0.845  -1.715  1.00  0.00    -0.206 F 
ATOM     82  C   UNL     1     -13.926   0.892  -5.239  1.00  0.00     0.022 A 
BRANCH  79  83
ATOM     83  S   UNL     1     -12.970  -1.003  -7.053  1.00  0.00     0.124 S 
ATOM     84  O   UNL     1     -11.551  -1.291  -6.873  1.00  0.00    -0.237 OA
ATOM     85  O   UNL     1     -13.846  -2.157  -7.226  1.00  0.00    -0.237 OA
ATOM     86  O   UNL     1     -13.264   0.130  -7.929  1.00  0.00    -0.744 OA
ENDBRANCH  79  83
ENDBRANCH  62  76
BRANCH  63  87
ATOM     87  C   UNL     1     -10.531  -6.798   4.303  1.00  0.00     0.023 A 
ATOM     88  C   UNL     1      -9.242  -6.850   4.904  1.00  0.00     0.031 A 
ATOM     89  C   UNL     1     -11.498  -5.996   4.920  1.00  0.00     0.131 A 
ATOM     90  C   UNL     1      -8.883  -5.903   5.879  1.00  0.00     0.055 A 
ATOM     91  C   UNL     1     -11.152  -5.126   5.963  1.00  0.00     0.041 A 
ATOM     92  F   UNL     1     -12.739  -5.909   4.419  1.00  0.00    -0.206 F 
ATOM     93  C   UNL     1      -9.827  -5.014   6.386  1.00  0.00     0.022 A 
BRANCH  90  94
ATOM     94  S   UNL     1      -7.119  -5.634   6.238  1.00  0.00     0.124 S 
ATOM     95  O   UNL     1      -6.815  -6.728   7.152  1.00  0.00    -0.237 OA
ATOM     96  O   UNL     1      -6.506  -5.727   4.915  1.00  0.00    -0.237 OA
ATOM     97  O   UNL     1      -7.085  -4.293   6.824  1.00  0.00    -0.744 OA
ENDBRANCH  90  94
ENDBRANCH  63  87
BRANCH  75  98
ATOM     98  C   UNL     1     -15.074  -7.219  -1.424  1.00  0.00     0.023 A 
ATOM     99  C   UNL     1     -15.759  -8.261  -0.802  1.00  0.00     0.031 A 
ATOM    100  C   UNL     1     -15.705  -6.692  -2.580  1.00  0.00     0.131 A 
ATOM    101  C   UNL     1     -16.871  -8.862  -1.395  1.00  0.00     0.055 A 
ATOM    102  C   UNL     1     -16.907  -7.190  -3.085  1.00  0.00     0.041 A 
ATOM    103  F   UNL     1     -15.207  -5.657  -3.271  1.00  0.00    -0.206 F 
ATOM    104  C   UNL     1     -17.477  -8.316  -2.518  1.00  0.00     0.022 A 
BRANCH 101 105
ATOM    105  S   UNL     1     -17.393 -10.446  -0.709  1.00  0.00     0.124 S 
ATOM    106  O   UNL     1     -16.221 -11.279  -0.969  1.00  0.00    -0.237 OA
ATOM    107  O   UNL     1     -17.634 -10.118   0.693  1.00  0.00    -0.237 OA
ATOM    108  O   UNL     1     -18.582 -10.779  -1.488  1.00  0.00    -0.744 OA
ENDBRANCH 101 105
ENDBRANCH  75  98
ENDBRANCH  49  50
ENDBRANCH  41  44
ENDBRANCH  39  40
ENDBRANCH  38  39
ENDBRANCH  37  38
ENDBRANCH  36  37
ENDBRANCH   1  36
TORSDOF 21
