REMARK SMILES C/C(=C\CN1CC(=O)N2CCC[C@H]2C1=O)C(=O)NCCCCCCNC(=O)c1ccc(-c2c3nc(c(-c4cc(S(=O)(=O)[O-])ccc4F)c4ccc([nH]4)c(-c4cc(S(=O)(=O)[O-])ccc4F)c4nc(c(-c5cc(S(=O)(=O)[O-])ccc5F)c5ccc2[nH]5)C=C4)C=C3)cc1
REMARK SMILES IDX 22 1 21 2 20 3 19 4 18 5 16 6 17 7 2 9 1 10 3 11 4 12 5 13
REMARK SMILES IDX 6 14 14 15 7 16 13 17 15 18 8 19 9 20 12 21 10 22 11 23
REMARK SMILES IDX 23 24 24 25 25 26 26 27 27 29 28 30 29 31 90 32 30 33 89 34
REMARK SMILES IDX 31 35 32 36 33 37 83 38 34 39 88 40 82 41 84 42 35 43 87 44
REMARK SMILES IDX 81 45 80 46 36 48 68 49 48 50 67 51 49 52 52 53 66 54 85 55
REMARK SMILES IDX 50 56 51 57 65 59 86 60 53 61 37 62 38 63 46 64 39 65 45 66
REMARK SMILES IDX 47 67 44 68 40 69 41 70 42 71 43 72 69 73 70 74 78 75 71 76
REMARK SMILES IDX 77 77 79 78 76 79 72 80 73 81 74 82 75 83 54 84 55 85 63 86
REMARK SMILES IDX 56 87 62 88 64 89 61 90 57 91 58 92 59 93 60 94
REMARK H PARENT 18 8 25 28 84 47 52 58
REMARK Flexibility Score: inf
ROOT
ATOM      1  C   UNL     1      -0.726  -6.507   3.093  1.00  0.00     0.002 C 
ENDROOT
BRANCH   1   2
ATOM      2  C   UNL     1      -1.327  -5.966   1.792  1.00  0.00     0.002 C 
BRANCH   2   3
ATOM      3  C   UNL     1      -1.728  -4.492   1.783  1.00  0.00     0.021 C 
BRANCH   3   4
ATOM      4  C   UNL     1      -0.660  -3.489   2.203  1.00  0.00     0.116 C 
BRANCH   4   5
ATOM      5  N   UNL     1       0.435  -3.347   1.262  1.00  0.00    -0.352 N 
ATOM      6  C   UNL     1       0.999  -2.243   0.692  1.00  0.00     0.246 C 
ATOM      7  O   UNL     1       1.954  -2.405  -0.070  1.00  0.00    -0.270 OA
ATOM      8  H   UNL     1       0.845  -4.199   0.986  1.00  0.00     0.163 HD
BRANCH   6   9
ATOM      9  C   UNL     1       0.438  -0.861   0.885  1.00  0.00     0.012 C 
ATOM     10  C   UNL     1       0.502  -0.019  -0.358  1.00  0.00     0.050 C 
ATOM     11  C   UNL     1       0.000  -0.421   2.081  1.00  0.00     0.003 C 
BRANCH  11  12
ATOM     12  C   UNL     1      -0.633   0.895   2.425  1.00  0.00     0.148 C 
BRANCH  12  13
ATOM     13  N   UNL     1      -2.058   0.911   2.104  1.00  0.00    -0.328 N 
ATOM     14  C   UNL     1      -2.643   2.199   1.694  1.00  0.00     0.220 C 
ATOM     15  C   UNL     1      -2.929  -0.048   2.654  1.00  0.00     0.246 C 
ATOM     16  C   UNL     1      -3.859   2.024   0.779  1.00  0.00     0.242 C 
ATOM     17  C   UNL     1      -4.417   0.205   2.351  1.00  0.00     0.174 C 
ATOM     18  O   UNL     1      -2.570  -0.931   3.429  1.00  0.00    -0.272 OA
ATOM     19  O   UNL     1      -4.182   2.848  -0.070  1.00  0.00    -0.273 OA
ATOM     20  N   UNL     1      -4.613   0.921   1.100  1.00  0.00    -0.329 N 
ATOM     21  C   UNL     1      -5.250  -1.057   2.153  1.00  0.00     0.037 C 
ATOM     22  C   UNL     1      -5.789   0.475   0.384  1.00  0.00     0.120 C 
ATOM     23  C   UNL     1      -6.426  -0.550   1.315  1.00  0.00     0.024 C 
ENDBRANCH  12  13
ENDBRANCH  11  12
ENDBRANCH   6   9
ENDBRANCH   4   5
ENDBRANCH   3   4
ENDBRANCH   2   3
ENDBRANCH   1   2
BRANCH   1  24
ATOM     24  C   UNL     1      -1.498  -6.219   4.385  1.00  0.00     0.021 C 
BRANCH  24  25
ATOM     25  C   UNL     1      -2.957  -6.669   4.416  1.00  0.00     0.116 C 
BRANCH  25  26
ATOM     26  N   UNL     1      -3.105  -8.103   4.251  1.00  0.00    -0.352 N 
ATOM     27  C   UNL     1      -3.776  -9.021   5.021  1.00  0.00     0.251 C 
ATOM     28  H   UNL     1      -2.652  -8.478   3.461  1.00  0.00     0.163 HD
ATOM     29  O   UNL     1      -3.633 -10.217   4.780  1.00  0.00    -0.269 OA
BRANCH  27  30
ATOM     30  C   UNL     1      -4.646  -8.594   6.145  1.00  0.00     0.039 A 
ATOM     31  C   UNL     1      -4.622  -9.342   7.327  1.00  0.00     0.014 A 
ATOM     32  C   UNL     1      -5.518  -7.506   6.035  1.00  0.00     0.014 A 
ATOM     33  C   UNL     1      -5.428  -8.972   8.408  1.00  0.00     0.010 A 
ATOM     34  C   UNL     1      -6.276  -7.101   7.136  1.00  0.00     0.010 A 
ATOM     35  C   UNL     1      -6.243  -7.832   8.333  1.00  0.00    -0.014 A 
BRANCH  35  36
ATOM     36  C   UNL     1      -7.066  -7.404   9.497  1.00  0.00     0.031 A 
ATOM     37  C   UNL     1      -8.570  -7.440   9.422  1.00  0.00     0.074 A 
ATOM     38  C   UNL     1      -6.459  -6.942  10.608  1.00  0.00     0.049 A 
ATOM     39  N   UNL     1      -9.454  -7.071  10.315  1.00  0.00    -0.248 NA
ATOM     40  C   UNL     1      -9.155  -7.931   8.166  1.00  0.00     0.031 C 
ATOM     41  C   UNL     1      -5.011  -6.819  10.788  1.00  0.00     0.029 A 
ATOM     42  N   UNL     1      -6.979  -6.486  11.794  1.00  0.00    -0.354 N 
ATOM     43  C   UNL     1     -10.698  -7.275   9.727  1.00  0.00     0.074 A 
ATOM     44  C   UNL     1     -10.449  -7.747   8.380  1.00  0.00     0.031 C 
ATOM     45  C   UNL     1      -4.759  -6.340  12.017  1.00  0.00     0.029 A 
ATOM     46  C   UNL     1      -6.023  -6.088  12.700  1.00  0.00     0.049 A 
ATOM     47  H   UNL     1      -7.945  -6.446  11.978  1.00  0.00     0.167 HD
ATOM     48  C   UNL     1     -11.932  -7.106  10.266  1.00  0.00     0.034 A 
ATOM     49  C   UNL     1      -6.150  -5.572  13.939  1.00  0.00     0.034 A 
ATOM     50  C   UNL     1     -12.165  -6.647  11.616  1.00  0.00     0.049 A 
ATOM     51  C   UNL     1      -7.531  -5.389  14.516  1.00  0.00     0.074 A 
ATOM     52  C   UNL     1     -13.370  -6.494  12.280  1.00  0.00     0.029 A 
ATOM     53  N   UNL     1     -11.172  -6.263  12.508  1.00  0.00    -0.354 N 
ATOM     54  N   UNL     1      -8.696  -5.636  13.964  1.00  0.00    -0.248 NA
ATOM     55  C   UNL     1      -7.611  -4.872  15.888  1.00  0.00     0.031 C 
ATOM     56  C   UNL     1     -13.111  -5.959  13.547  1.00  0.00     0.029 A 
ATOM     57  C   UNL     1     -11.739  -5.846  13.704  1.00  0.00     0.049 A 
ATOM     58  H   UNL     1     -10.206  -6.283  12.320  1.00  0.00     0.167 HD
ATOM     59  C   UNL     1      -9.647  -5.330  14.934  1.00  0.00     0.074 A 
ATOM     60  C   UNL     1      -8.916  -4.898  16.109  1.00  0.00     0.031 C 
ATOM     61  C   UNL     1     -11.001  -5.402  14.863  1.00  0.00     0.034 A 
BRANCH  48  62
ATOM     62  C   UNL     1     -13.123  -7.393   9.381  1.00  0.00     0.023 A 
ATOM     63  C   UNL     1     -13.373  -8.681   8.875  1.00  0.00     0.031 A 
ATOM     64  C   UNL     1     -14.007  -6.362   9.018  1.00  0.00     0.131 A 
ATOM     65  C   UNL     1     -14.431  -8.889   7.977  1.00  0.00     0.055 A 
ATOM     66  C   UNL     1     -15.106  -6.592   8.187  1.00  0.00     0.041 A 
ATOM     67  F   UNL     1     -13.810  -5.107   9.453  1.00  0.00    -0.206 F 
ATOM     68  C   UNL     1     -15.315  -7.858   7.648  1.00  0.00     0.022 A 
BRANCH  65  69
ATOM     69  S   UNL     1     -14.551 -10.490   7.133  1.00  0.00     0.124 S 
ATOM     70  O   UNL     1     -13.266 -10.554   6.440  1.00  0.00    -0.237 OA
ATOM     71  O   UNL     1     -14.726 -11.419   8.243  1.00  0.00    -0.237 OA
ATOM     72  O   UNL     1     -15.713 -10.332   6.261  1.00  0.00    -0.744 OA
ENDBRANCH  65  69
ENDBRANCH  48  62
BRANCH  49  73
ATOM     73  C   UNL     1      -4.942  -5.184  14.722  1.00  0.00     0.023 A 
ATOM     74  C   UNL     1      -4.601  -5.856  15.907  1.00  0.00     0.031 A 
ATOM     75  C   UNL     1      -4.134  -4.107  14.317  1.00  0.00     0.131 A 
ATOM     76  C   UNL     1      -3.509  -5.415  16.671  1.00  0.00     0.055 A 
ATOM     77  C   UNL     1      -3.019  -3.705  15.054  1.00  0.00     0.041 A 
ATOM     78  F   UNL     1      -4.413  -3.436  13.189  1.00  0.00    -0.206 F 
ATOM     79  C   UNL     1      -2.709  -4.352  16.246  1.00  0.00     0.022 A 
BRANCH  76  80
ATOM     80  S   UNL     1      -3.198  -6.203  18.275  1.00  0.00     0.124 S 
ATOM     81  O   UNL     1      -4.461  -5.979  18.967  1.00  0.00    -0.237 OA
ATOM     82  O   UNL     1      -2.915  -7.580  17.884  1.00  0.00    -0.237 OA
ATOM     83  O   UNL     1      -2.055  -5.460  18.802  1.00  0.00    -0.744 OA
ENDBRANCH  76  80
ENDBRANCH  49  73
BRANCH  61  84
ATOM     84  C   UNL     1     -11.769  -5.038  16.110  1.00  0.00     0.023 A 
ATOM     85  C   UNL     1     -11.783  -3.725  16.612  1.00  0.00     0.031 A 
ATOM     86  C   UNL     1     -12.473  -6.027  16.820  1.00  0.00     0.131 A 
ATOM     87  C   UNL     1     -12.436  -3.447  17.823  1.00  0.00     0.055 A 
ATOM     88  C   UNL     1     -13.170  -5.732  17.993  1.00  0.00     0.041 A 
ATOM     89  F   UNL     1     -12.491  -7.297  16.387  1.00  0.00    -0.206 F 
ATOM     90  C   UNL     1     -13.141  -4.440  18.509  1.00  0.00     0.022 A 
BRANCH  87  91
ATOM     91  S   UNL     1     -12.267  -1.791  18.543  1.00  0.00     0.124 S 
ATOM     92  O   UNL     1     -10.819  -1.663  18.675  1.00  0.00    -0.237 OA
ATOM     93  O   UNL     1     -12.891  -0.946  17.531  1.00  0.00    -0.237 OA
ATOM     94  O   UNL     1     -12.998  -1.889  19.805  1.00  0.00    -0.744 OA
ENDBRANCH  87  91
ENDBRANCH  61  84
ENDBRANCH  35  36
ENDBRANCH  27  30
ENDBRANCH  25  26
ENDBRANCH  24  25
ENDBRANCH   1  24
TORSDOF 18
