REMARK SMILES O=C(NCCCCCCNC(=O)[C@@H]1Cc2ccccc2CN1C(=O)COc1ccccc1)c1ccc(-c2c3nc(c(-c4cc(S(=O)(=O)[O-])ccc4F)c4ccc([nH]4)c(-c4cc(S(=O)(=O)[O-])ccc4F)c4nc(c(-c5cc(S(=O)(=O)[O-])ccc5F)c5ccc2[nH]5)C=C4)C=C3)cc1
REMARK SMILES IDX 7 1 6 2 5 3 4 4 3 5 1 6 2 7 33 9 34 10 95 11 35 12 94 13
REMARK SMILES IDX 36 14 37 15 38 16 88 17 39 18 93 19 87 20 89 21 40 22 92 23
REMARK SMILES IDX 86 24 85 25 41 27 73 28 53 29 72 30 54 31 57 32 71 33 90 34
REMARK SMILES IDX 55 35 56 36 70 38 91 39 58 40 42 41 43 42 51 43 44 44 50 45
REMARK SMILES IDX 52 46 49 47 45 48 46 49 47 50 48 51 74 52 75 53 83 54 76 55
REMARK SMILES IDX 82 56 84 57 81 58 77 59 78 60 79 61 80 62 59 63 60 64 68 65
REMARK SMILES IDX 61 66 67 67 69 68 66 69 62 70 63 71 64 72 65 73 8 74 9 75
REMARK SMILES IDX 10 76 11 77 12 79 13 80 14 81 22 82 15 83 21 84 16 85 20 86
REMARK SMILES IDX 17 87 19 88 18 89 23 90 24 91 25 92 26 93 27 94 28 95 32 96
REMARK SMILES IDX 29 97 31 98 30 99
REMARK H PARENT 3 8 89 26 57 37 10 78
REMARK Flexibility Score: inf
ROOT
ATOM      1  C   UNL     1       9.839  -0.927  -2.571  1.00  0.00     0.002 C 
ENDROOT
BRANCH   1   2
ATOM      2  C   UNL     1      10.909  -0.784  -1.486  1.00  0.00     0.002 C 
BRANCH   2   3
ATOM      3  C   UNL     1      10.560   0.188  -0.359  1.00  0.00     0.021 C 
BRANCH   3   4
ATOM      4  C   UNL     1       9.237  -0.112   0.334  1.00  0.00     0.116 C 
BRANCH   4   5
ATOM      5  N   UNL     1       9.238  -1.430   0.958  1.00  0.00    -0.352 N 
ATOM      6  O   UNL     1       9.584  -2.910   2.627  1.00  0.00    -0.269 OA
ATOM      7  C   UNL     1       9.333  -1.760   2.290  1.00  0.00     0.251 C 
ATOM      8  H   UNL     1       9.161  -2.191   0.338  1.00  0.00     0.163 HD
BRANCH   7   9
ATOM      9  C   UNL     1       9.126  -0.706   3.304  1.00  0.00     0.039 A 
ATOM     10  C   UNL     1       8.076   0.198   3.144  1.00  0.00     0.014 A 
ATOM     11  C   UNL     1       9.975  -0.613   4.410  1.00  0.00     0.014 A 
ATOM     12  C   UNL     1       7.979   1.292   3.987  1.00  0.00     0.010 A 
ATOM     13  C   UNL     1       9.793   0.422   5.334  1.00  0.00     0.010 A 
ATOM     14  C   UNL     1       8.805   1.395   5.118  1.00  0.00    -0.014 A 
BRANCH  14  15
ATOM     15  C   UNL     1       8.522   2.484   6.089  1.00  0.00     0.031 A 
ATOM     16  C   UNL     1       9.524   3.563   6.382  1.00  0.00     0.074 A 
ATOM     17  C   UNL     1       7.294   2.520   6.647  1.00  0.00     0.049 A 
ATOM     18  N   UNL     1       9.396   4.612   7.156  1.00  0.00    -0.248 NA
ATOM     19  C   UNL     1      10.839   3.451   5.737  1.00  0.00     0.031 C 
ATOM     20  C   UNL     1       6.250   1.510   6.437  1.00  0.00     0.029 A 
ATOM     21  N   UNL     1       6.696   3.443   7.463  1.00  0.00    -0.354 N 
ATOM     22  C   UNL     1      10.610   5.287   7.092  1.00  0.00     0.074 A 
ATOM     23  C   UNL     1      11.478   4.499   6.240  1.00  0.00     0.031 C 
ATOM     24  C   UNL     1       5.123   1.905   7.043  1.00  0.00     0.029 A 
ATOM     25  C   UNL     1       5.388   3.141   7.766  1.00  0.00     0.049 A 
ATOM     26  H   UNL     1       7.157   4.245   7.800  1.00  0.00     0.167 HD
ATOM     27  C   UNL     1      10.956   6.460   7.680  1.00  0.00     0.034 A 
ATOM     28  C   UNL     1       4.503   3.769   8.563  1.00  0.00     0.034 A 
ATOM     29  C   UNL     1      10.073   7.220   8.537  1.00  0.00     0.049 A 
ATOM     30  C   UNL     1       4.934   5.040   9.240  1.00  0.00     0.074 A 
ATOM     31  C   UNL     1      10.322   8.416   9.188  1.00  0.00     0.029 A 
ATOM     32  N   UNL     1       8.772   6.857   8.868  1.00  0.00    -0.354 N 
ATOM     33  N   UNL     1       6.086   5.666   9.162  1.00  0.00    -0.248 NA
ATOM     34  C   UNL     1       3.947   5.692  10.105  1.00  0.00     0.031 C 
ATOM     35  C   UNL     1       9.204   8.739   9.964  1.00  0.00     0.029 A 
ATOM     36  C   UNL     1       8.219   7.792   9.732  1.00  0.00     0.049 A 
ATOM     37  H   UNL     1       8.309   6.054   8.536  1.00  0.00     0.167 HD
ATOM     38  C   UNL     1       5.954   6.798   9.959  1.00  0.00     0.074 A 
ATOM     39  C   UNL     1       4.598   6.785  10.470  1.00  0.00     0.031 C 
ATOM     40  C   UNL     1       6.871   7.755  10.252  1.00  0.00     0.034 A 
BRANCH  27  41
ATOM     41  C   UNL     1      12.358   6.974   7.445  1.00  0.00     0.023 A 
ATOM     42  C   UNL     1      12.802   7.349   6.165  1.00  0.00     0.031 A 
ATOM     43  C   UNL     1      13.263   7.096   8.515  1.00  0.00     0.131 A 
ATOM     44  C   UNL     1      14.128   7.773   5.977  1.00  0.00     0.055 A 
ATOM     45  C   UNL     1      14.556   7.592   8.335  1.00  0.00     0.041 A 
ATOM     46  F   UNL     1      12.906   6.733   9.757  1.00  0.00    -0.206 F 
ATOM     47  C   UNL     1      14.999   7.923   7.058  1.00  0.00     0.022 A 
BRANCH  44  48
ATOM     48  S   UNL     1      14.734   8.005   4.284  1.00  0.00     0.124 S 
ATOM     49  O   UNL     1      14.527   6.676   3.711  1.00  0.00    -0.237 OA
ATOM     50  O   UNL     1      13.866   9.061   3.778  1.00  0.00    -0.237 OA
ATOM     51  O   UNL     1      16.134   8.383   4.469  1.00  0.00    -0.744 OA
ENDBRANCH  44  48
ENDBRANCH  27  41
BRANCH  28  52
ATOM     52  C   UNL     1       3.155   3.177   8.807  1.00  0.00     0.023 A 
ATOM     53  C   UNL     1       1.980   3.873   8.486  1.00  0.00     0.031 A 
ATOM     54  C   UNL     1       3.025   1.915   9.418  1.00  0.00     0.131 A 
ATOM     55  C   UNL     1       0.732   3.332   8.830  1.00  0.00     0.055 A 
ATOM     56  C   UNL     1       1.781   1.348   9.689  1.00  0.00     0.041 A 
ATOM     57  F   UNL     1       4.115   1.204   9.749  1.00  0.00    -0.206 F 
ATOM     58  C   UNL     1       0.624   2.067   9.412  1.00  0.00     0.022 A 
BRANCH  55  59
ATOM     59  S   UNL     1      -0.746   4.361   8.620  1.00  0.00     0.124 S 
ATOM     60  O   UNL     1      -0.387   5.554   9.378  1.00  0.00    -0.237 OA
ATOM     61  O   UNL     1      -0.803   4.515   7.170  1.00  0.00    -0.237 OA
ATOM     62  O   UNL     1      -1.811   3.547   9.202  1.00  0.00    -0.744 OA
ENDBRANCH  55  59
ENDBRANCH  28  52
BRANCH  40  63
ATOM     63  C   UNL     1       6.406   8.881  11.145  1.00  0.00     0.023 A 
ATOM     64  C   UNL     1       6.003   8.650  12.472  1.00  0.00     0.031 A 
ATOM     65  C   UNL     1       6.311  10.192  10.645  1.00  0.00     0.131 A 
ATOM     66  C   UNL     1       5.443   9.692  13.224  1.00  0.00     0.055 A 
ATOM     67  C   UNL     1       5.827  11.242  11.426  1.00  0.00     0.041 A 
ATOM     68  F   UNL     1       6.676  10.472   9.383  1.00  0.00    -0.206 F 
ATOM     69  C   UNL     1       5.370  10.992  12.716  1.00  0.00     0.022 A 
BRANCH  66  70
ATOM     70  S   UNL     1       4.682   9.296  14.822  1.00  0.00     0.124 S 
ATOM     71  O   UNL     1       3.696   8.289  14.445  1.00  0.00    -0.237 OA
ATOM     72  O   UNL     1       5.820   8.815  15.599  1.00  0.00    -0.237 OA
ATOM     73  O   UNL     1       4.127  10.575  15.263  1.00  0.00    -0.744 OA
ENDBRANCH  66  70
ENDBRANCH  40  63
ENDBRANCH  14  15
ENDBRANCH   7   9
ENDBRANCH   4   5
ENDBRANCH   3   4
ENDBRANCH   2   3
ENDBRANCH   1   2
BRANCH   1  74
ATOM     74  C   UNL     1       9.370   0.390  -3.196  1.00  0.00     0.021 C 
BRANCH  74  75
ATOM     75  C   UNL     1      10.452   1.156  -3.965  1.00  0.00     0.116 C 
BRANCH  75  76
ATOM     76  N   UNL     1      10.333   0.941  -5.396  1.00  0.00    -0.354 N 
ATOM     77  C   UNL     1       9.992   1.720  -6.453  1.00  0.00     0.243 C 
ATOM     78  H   UNL     1      10.550   0.017  -5.660  1.00  0.00     0.163 HD
ATOM     79  O   UNL     1      10.108   1.161  -7.555  1.00  0.00    -0.273 OA
BRANCH  77  80
ATOM     80  C   UNL     1       9.348   3.139  -6.387  1.00  0.00     0.179 C 
ATOM     81  C   UNL     1       9.900   3.920  -7.619  1.00  0.00     0.071 C 
ATOM     82  N   UNL     1       9.396   3.931  -5.135  1.00  0.00    -0.323 N 
ATOM     83  C   UNL     1       9.579   5.389  -7.546  1.00  0.00    -0.040 A 
ATOM     84  C   UNL     1      10.204   5.153  -5.148  1.00  0.00     0.156 C 
ATOM     85  C   UNL     1       9.154   6.123  -8.656  1.00  0.00     0.004 A 
ATOM     86  C   UNL     1       9.742   6.018  -6.299  1.00  0.00    -0.025 A 
ATOM     87  C   UNL     1       8.858   7.478  -8.515  1.00  0.00     0.000 A 
ATOM     88  C   UNL     1       9.450   7.377  -6.167  1.00  0.00     0.006 A 
ATOM     89  C   UNL     1       9.002   8.102  -7.274  1.00  0.00     0.000 A 
BRANCH  82  90
ATOM     90  C   UNL     1       8.503   3.777  -4.080  1.00  0.00     0.261 C 
ATOM     91  O   UNL     1       8.625   4.410  -3.029  1.00  0.00    -0.271 OA
BRANCH  90  92
ATOM     92  C   UNL     1       7.357   2.774  -4.234  1.00  0.00     0.329 C 
BRANCH  92  93
ATOM     93  O   UNL     1       6.288   3.260  -5.038  1.00  0.00    -0.484 OA
BRANCH  93  94
ATOM     94  C   UNL     1       5.305   3.779  -4.245  1.00  0.00     0.120 A 
ATOM     95  C   UNL     1       4.143   3.035  -4.057  1.00  0.00     0.046 A 
ATOM     96  C   UNL     1       5.454   5.035  -3.662  1.00  0.00     0.046 A 
ATOM     97  C   UNL     1       3.131   3.541  -3.243  1.00  0.00     0.004 A 
ATOM     98  C   UNL     1       4.444   5.535  -2.845  1.00  0.00     0.004 A 
ATOM     99  C   UNL     1       3.285   4.789  -2.635  1.00  0.00     0.000 A 
ENDBRANCH  93  94
ENDBRANCH  92  93
ENDBRANCH  90  92
ENDBRANCH  82  90
ENDBRANCH  77  80
ENDBRANCH  75  76
ENDBRANCH  74  75
ENDBRANCH   1  74
TORSDOF 20
