REMARK SMILES C[C@@H](C(=O)NCCCCCCNC(=O)c1ccc(-c2c3nc(c(-c4cc(S(=O)(=O)[O-])ccc4F)c4ccc([nH]4)c(-c4cc(S(=O)(=O)[O-])ccc4F)c4nc(c(-c5cc(S(=O)(=O)[O-])ccc5F)c5ccc2[nH]5)C=C4)C=C3)cc1)c1ccc(C[C@H]2CCC[C@@H]2O)cc1F
REMARK SMILES IDX 8 1 7 2 6 3 5 4 3 5 4 6 2 8 1 9 78 10 79 11 90 12 80 13
REMARK SMILES IDX 89 14 91 15 81 16 82 17 83 18 84 19 87 20 85 21 86 22 88 23
REMARK SMILES IDX 9 25 10 26 11 27 12 28 13 29 14 31 15 32 16 33 77 34 17 35
REMARK SMILES IDX 76 36 18 37 19 38 20 39 70 40 21 41 75 42 69 43 71 44 22 45
REMARK SMILES IDX 74 46 68 47 67 48 23 50 55 51 35 52 54 53 36 54 39 55 53 56
REMARK SMILES IDX 72 57 37 58 38 59 52 61 73 62 40 63 24 64 25 65 33 66 26 67
REMARK SMILES IDX 32 68 34 69 31 70 27 71 28 72 29 73 30 74 56 75 57 76 65 77
REMARK SMILES IDX 58 78 64 79 66 80 63 81 59 82 60 83 61 84 62 85 41 86 42 87
REMARK SMILES IDX 50 88 43 89 49 90 51 91 48 92 44 93 45 94 46 95 47 96
REMARK H PARENT 5 7 88 24 12 30 71 49 39 60
REMARK Flexibility Score: inf
ROOT
ATOM      1  C   UNL     1       5.056   0.520   2.729  1.00  0.00     0.002 C 
ENDROOT
BRANCH   1   2
ATOM      2  C   UNL     1       4.306   0.135   1.445  1.00  0.00     0.021 C 
BRANCH   2   3
ATOM      3  C   UNL     1       3.507  -1.165   1.569  1.00  0.00     0.116 C 
BRANCH   3   4
ATOM      4  N   UNL     1       2.378  -0.969   2.454  1.00  0.00    -0.356 N 
ATOM      5  C   UNL     1       1.068  -0.742   2.154  1.00  0.00     0.227 C 
ATOM      6  O   UNL     1       0.334  -0.411   3.089  1.00  0.00    -0.274 OA
ATOM      7  H   UNL     1       2.588  -1.005   3.415  1.00  0.00     0.163 HD
BRANCH   5   8
ATOM      8  C   UNL     1       0.559  -0.938   0.712  1.00  0.00     0.108 C 
ATOM      9  C   UNL     1       1.100   0.128  -0.250  1.00  0.00     0.023 C 
BRANCH   8  10
ATOM     10  C   UNL     1      -0.964  -0.978   0.693  1.00  0.00    -0.000 A 
ATOM     11  C   UNL     1      -1.732   0.179   0.505  1.00  0.00     0.008 A 
ATOM     12  C   UNL     1      -1.635  -2.177   0.953  1.00  0.00     0.127 A 
ATOM     13  C   UNL     1      -3.122   0.131   0.576  1.00  0.00     0.004 A 
ATOM     14  C   UNL     1      -3.024  -2.223   1.065  1.00  0.00     0.043 A 
ATOM     15  F   UNL     1      -0.937  -3.309   1.130  1.00  0.00    -0.207 F 
ATOM     16  C   UNL     1      -3.781  -1.055   0.914  1.00  0.00    -0.045 A 
BRANCH  16  17
ATOM     17  C   UNL     1      -5.268  -1.049   1.168  1.00  0.00     0.041 C 
BRANCH  17  18
ATOM     18  C   UNL     1      -5.709  -0.460   2.523  1.00  0.00     0.022 C 
ATOM     19  C   UNL     1      -5.118  -1.135   3.772  1.00  0.00     0.007 C 
ATOM     20  C   UNL     1      -5.432   1.032   2.734  1.00  0.00     0.117 C 
ATOM     21  C   UNL     1      -4.895  -0.016   4.796  1.00  0.00     0.003 C 
ATOM     22  C   UNL     1      -5.611   1.202   4.234  1.00  0.00     0.032 C 
BRANCH  20  23
ATOM     23  O   UNL     1      -6.340   1.833   2.002  1.00  0.00    -0.393 OA
ATOM     24  H   UNL     1      -7.248   1.610   2.260  1.00  0.00     0.210 HD
ENDBRANCH  20  23
ENDBRANCH  17  18
ENDBRANCH  16  17
ENDBRANCH   8  10
ENDBRANCH   5   8
ENDBRANCH   3   4
ENDBRANCH   2   3
ENDBRANCH   1   2
BRANCH   1  25
ATOM     25  C   UNL     1       6.047  -0.535   3.232  1.00  0.00     0.002 C 
BRANCH  25  26
ATOM     26  C   UNL     1       7.085  -0.978   2.198  1.00  0.00     0.021 C 
BRANCH  26  27
ATOM     27  C   UNL     1       7.974   0.148   1.684  1.00  0.00     0.116 C 
BRANCH  27  28
ATOM     28  N   UNL     1       8.801   0.706   2.743  1.00  0.00    -0.352 N 
ATOM     29  C   UNL     1      10.168   0.812   2.806  1.00  0.00     0.251 C 
ATOM     30  H   UNL     1       8.312   1.056   3.522  1.00  0.00     0.163 HD
ATOM     31  O   UNL     1      10.712   1.090   3.873  1.00  0.00    -0.269 OA
BRANCH  29  32
ATOM     32  C   UNL     1      10.976   0.569   1.593  1.00  0.00     0.039 A 
ATOM     33  C   UNL     1      12.118  -0.229   1.685  1.00  0.00     0.014 A 
ATOM     34  C   UNL     1      10.597   1.119   0.364  1.00  0.00     0.014 A 
ATOM     35  C   UNL     1      12.843  -0.530   0.530  1.00  0.00     0.010 A 
ATOM     36  C   UNL     1      11.277   0.756  -0.795  1.00  0.00     0.010 A 
ATOM     37  C   UNL     1      12.406  -0.073  -0.725  1.00  0.00    -0.014 A 
BRANCH  37  38
ATOM     38  C   UNL     1      13.111  -0.460  -1.976  1.00  0.00     0.031 A 
ATOM     39  C   UNL     1      13.756   0.594  -2.834  1.00  0.00     0.074 A 
ATOM     40  C   UNL     1      13.111  -1.749  -2.370  1.00  0.00     0.049 A 
ATOM     41  N   UNL     1      14.339   0.469  -3.999  1.00  0.00    -0.248 NA
ATOM     42  C   UNL     1      13.715   1.974  -2.328  1.00  0.00     0.031 C 
ATOM     43  C   UNL     1      12.490  -2.855  -1.637  1.00  0.00     0.029 A 
ATOM     44  N   UNL     1      13.639  -2.349  -3.486  1.00  0.00    -0.354 N 
ATOM     45  C   UNL     1      14.724   1.754  -4.370  1.00  0.00     0.074 A 
ATOM     46  C   UNL     1      14.253   2.647  -3.334  1.00  0.00     0.031 C 
ATOM     47  C   UNL     1      12.694  -3.998  -2.310  1.00  0.00     0.029 A 
ATOM     48  C   UNL     1      13.407  -3.705  -3.549  1.00  0.00     0.049 A 
ATOM     49  H   UNL     1      14.138  -1.856  -4.177  1.00  0.00     0.167 HD
ATOM     50  C   UNL     1      15.423   2.146  -5.464  1.00  0.00     0.034 A 
ATOM     51  C   UNL     1      13.714  -4.605  -4.504  1.00  0.00     0.034 A 
ATOM     52  C   UNL     1      15.890   1.238  -6.484  1.00  0.00     0.049 A 
ATOM     53  C   UNL     1      14.450  -4.136  -5.735  1.00  0.00     0.074 A 
ATOM     54  C   UNL     1      16.657   1.520  -7.601  1.00  0.00     0.029 A 
ATOM     55  N   UNL     1      15.624  -0.126  -6.520  1.00  0.00    -0.354 N 
ATOM     56  N   UNL     1      14.855  -2.926  -6.044  1.00  0.00    -0.248 NA
ATOM     57  C   UNL     1      14.776  -5.154  -6.742  1.00  0.00     0.031 C 
ATOM     58  C   UNL     1      16.782   0.349  -8.354  1.00  0.00     0.029 A 
ATOM     59  C   UNL     1      16.174  -0.687  -7.663  1.00  0.00     0.049 A 
ATOM     60  H   UNL     1      15.120  -0.621  -5.835  1.00  0.00     0.167 HD
ATOM     61  C   UNL     1      15.512  -3.046  -7.266  1.00  0.00     0.074 A 
ATOM     62  C   UNL     1      15.462  -4.447  -7.628  1.00  0.00     0.031 C 
ATOM     63  C   UNL     1      16.108  -2.086  -8.019  1.00  0.00     0.034 A 
BRANCH  50  64
ATOM     64  C   UNL     1      15.694   3.623  -5.628  1.00  0.00     0.023 A 
ATOM     65  C   UNL     1      16.463   4.344  -4.698  1.00  0.00     0.031 A 
ATOM     66  C   UNL     1      15.164   4.326  -6.726  1.00  0.00     0.131 A 
ATOM     67  C   UNL     1      16.618   5.731  -4.840  1.00  0.00     0.055 A 
ATOM     68  C   UNL     1      15.395   5.691  -6.908  1.00  0.00     0.041 A 
ATOM     69  F   UNL     1      14.402   3.699  -7.636  1.00  0.00    -0.206 F 
ATOM     70  C   UNL     1      16.113   6.405  -5.954  1.00  0.00     0.022 A 
BRANCH  67  71
ATOM     71  S   UNL     1      17.360   6.664  -3.474  1.00  0.00     0.124 S 
ATOM     72  O   UNL     1      16.465   6.329  -2.368  1.00  0.00    -0.237 OA
ATOM     73  O   UNL     1      18.704   6.102  -3.401  1.00  0.00    -0.237 OA
ATOM     74  O   UNL     1      17.287   8.051  -3.926  1.00  0.00    -0.744 OA
ENDBRANCH  67  71
ENDBRANCH  50  64
BRANCH  51  75
ATOM     75  C   UNL     1      13.308  -6.034  -4.357  1.00  0.00     0.023 A 
ATOM     76  C   UNL     1      14.268  -7.057  -4.292  1.00  0.00     0.031 A 
ATOM     77  C   UNL     1      11.951  -6.404  -4.332  1.00  0.00     0.131 A 
ATOM     78  C   UNL     1      13.859  -8.399  -4.260  1.00  0.00     0.055 A 
ATOM     79  C   UNL     1      11.550  -7.737  -4.236  1.00  0.00     0.041 A 
ATOM     80  F   UNL     1      10.990  -5.468  -4.392  1.00  0.00    -0.206 F 
ATOM     81  C   UNL     1      12.507  -8.746  -4.214  1.00  0.00     0.022 A 
BRANCH  78  82
ATOM     82  S   UNL     1      15.124  -9.694  -4.384  1.00  0.00     0.124 S 
ATOM     83  O   UNL     1      15.774  -9.352  -5.644  1.00  0.00    -0.237 OA
ATOM     84  O   UNL     1      15.907  -9.469  -3.174  1.00  0.00    -0.237 OA
ATOM     85  O   UNL     1      14.344 -10.930  -4.399  1.00  0.00    -0.744 OA
ENDBRANCH  78  82
ENDBRANCH  51  75
BRANCH  63  86
ATOM     86  C   UNL     1      16.794  -2.530  -9.289  1.00  0.00     0.023 A 
ATOM     87  C   UNL     1      16.075  -3.055 -10.377  1.00  0.00     0.031 A 
ATOM     88  C   UNL     1      18.191  -2.423  -9.411  1.00  0.00     0.131 A 
ATOM     89  C   UNL     1      16.760  -3.499 -11.518  1.00  0.00     0.055 A 
ATOM     90  C   UNL     1      18.860  -2.804 -10.574  1.00  0.00     0.041 A 
ATOM     91  F   UNL     1      18.929  -1.934  -8.401  1.00  0.00    -0.206 F 
ATOM     92  C   UNL     1      18.145  -3.358 -11.632  1.00  0.00     0.022 A 
BRANCH  89  93
ATOM     93  S   UNL     1      15.826  -4.349 -12.820  1.00  0.00     0.124 S 
ATOM     94  O   UNL     1      15.257  -5.480 -12.095  1.00  0.00    -0.237 OA
ATOM     95  O   UNL     1      14.879  -3.324 -13.246  1.00  0.00    -0.237 OA
ATOM     96  O   UNL     1      16.848  -4.694 -13.806  1.00  0.00    -0.744 OA
ENDBRANCH  89  93
ENDBRANCH  63  86
ENDBRANCH  37  38
ENDBRANCH  29  32
ENDBRANCH  27  28
ENDBRANCH  26  27
ENDBRANCH  25  26
ENDBRANCH   1  25
TORSDOF 20
