REMARK SMILES Cc1ccccc1SCC(=O)N[C@H]1C=C[C@H](C(=O)NCCCCCCNC(=O)c2ccc(-c3c4nc(c(-c5cc(S(=O)(=O)[O-])ccc5F)c5ccc([nH]5)c(-c5cc(S(=O)(=O)[O-])ccc5F)c5nc(c(-c6cc(S(=O)(=O)[O-])ccc6F)c6ccc3[nH]6)C=C5)C=C4)cc2)C1
REMARK SMILES IDX 22 1 21 2 20 3 19 4 17 5 18 6 16 8 13 9 14 10 92 11 15 12
REMARK SMILES IDX 12 13 10 14 11 15 9 17 8 18 7 19 1 20 2 21 3 22 4 23 6 24
REMARK SMILES IDX 5 25 23 26 24 27 25 28 26 29 27 30 28 32 29 33 30 34 91 35
REMARK SMILES IDX 31 36 90 37 32 38 33 39 34 40 84 41 35 42 89 43 83 44 85 45
REMARK SMILES IDX 36 46 88 47 82 48 81 49 37 51 69 52 49 53 68 54 50 55 53 56
REMARK SMILES IDX 67 57 86 58 51 59 52 60 66 62 87 63 54 64 38 65 39 66 47 67
REMARK SMILES IDX 40 68 46 69 48 70 45 71 41 72 42 73 43 74 44 75 70 76 71 77
REMARK SMILES IDX 79 78 72 79 78 80 80 81 77 82 73 83 74 84 75 85 76 86 55 87
REMARK SMILES IDX 56 88 64 89 57 90 63 91 65 92 62 93 58 94 59 95 60 96 61 97
REMARK H PARENT 19 7 12 16 26 31 85 50 53 61
REMARK Flexibility Score: inf
ROOT
ATOM      1  C   UNL     1       0.819  10.862   2.339  1.00  0.00     0.002 C 
ENDROOT
BRANCH   1   2
ATOM      2  C   UNL     1       2.067  10.045   2.696  1.00  0.00     0.021 C 
BRANCH   2   3
ATOM      3  C   UNL     1       1.809   8.830   3.584  1.00  0.00     0.116 C 
BRANCH   3   4
ATOM      4  N   UNL     1       0.912   7.881   2.956  1.00  0.00    -0.356 N 
ATOM      5  C   UNL     1       1.122   6.582   2.608  1.00  0.00     0.227 C 
ATOM      6  O   UNL     1       0.188   5.939   2.123  1.00  0.00    -0.274 OA
ATOM      7  H   UNL     1       0.014   8.228   2.751  1.00  0.00     0.163 HD
BRANCH   5   8
ATOM      8  C   UNL     1       2.483   5.945   2.892  1.00  0.00     0.103 C 
ATOM      9  C   UNL     1       2.222   3.532   2.595  1.00  0.00     0.106 C 
ATOM     10  C   UNL     1       2.246   3.915   4.047  1.00  0.00    -0.006 C 
ATOM     11  C   UNL     1       2.777   4.793   1.925  1.00  0.00     0.047 C 
ATOM     12  C   UNL     1       2.412   5.233   4.212  1.00  0.00    -0.016 C 
BRANCH   9  13
ATOM     13  N   UNL     1       3.056   2.361   2.445  1.00  0.00    -0.349 N 
ATOM     14  C   UNL     1       3.425   1.681   1.330  1.00  0.00     0.230 C 
ATOM     15  O   UNL     1       4.099   0.659   1.503  1.00  0.00    -0.274 OA
ATOM     16  H   UNL     1       3.415   1.999   3.288  1.00  0.00     0.164 HD
BRANCH  14  17
ATOM     17  C   UNL     1       3.180   2.212  -0.064  1.00  0.00     0.174 C 
BRANCH  17  18
ATOM     18  S   UNL     1       1.462   2.383  -0.606  1.00  0.00    -0.116 SA
BRANCH  18  19
ATOM     19  C   UNL     1       0.577   0.869  -0.251  1.00  0.00     0.011 A 
ATOM     20  C   UNL     1       2.404  -0.901  -0.686  1.00  0.00     0.045 C 
ATOM     21  C   UNL     1       1.014  -0.465  -0.330  1.00  0.00    -0.038 A 
ATOM     22  C   UNL     1       0.094  -1.505  -0.060  1.00  0.00     0.004 A 
ATOM     23  C   UNL     1      -1.248  -1.247   0.211  1.00  0.00     0.000 A 
ATOM     24  C   UNL     1      -0.791   1.103   0.020  1.00  0.00     0.015 A 
ATOM     25  C   UNL     1      -1.695   0.063   0.240  1.00  0.00     0.001 A 
ENDBRANCH  18  19
ENDBRANCH  17  18
ENDBRANCH  14  17
ENDBRANCH   9  13
ENDBRANCH   5   8
ENDBRANCH   3   4
ENDBRANCH   2   3
ENDBRANCH   1   2
BRANCH   1  26
ATOM     26  C   UNL     1      -0.094  11.262   3.509  1.00  0.00     0.002 C 
BRANCH  26  27
ATOM     27  C   UNL     1       0.582  11.983   4.675  1.00  0.00     0.021 C 
BRANCH  27  28
ATOM     28  C   UNL     1       1.222  13.314   4.294  1.00  0.00     0.116 C 
BRANCH  28  29
ATOM     29  N   UNL     1       0.549  14.482   4.850  1.00  0.00    -0.352 N 
ATOM     30  C   UNL     1       0.905  15.812   4.710  1.00  0.00     0.251 C 
ATOM     31  H   UNL     1      -0.254  14.302   5.391  1.00  0.00     0.163 HD
ATOM     32  O   UNL     1       0.265  16.710   5.239  1.00  0.00    -0.269 OA
BRANCH  30  33
ATOM     33  C   UNL     1       2.025  16.142   3.797  1.00  0.00     0.039 A 
ATOM     34  C   UNL     1       1.742  16.968   2.705  1.00  0.00     0.014 A 
ATOM     35  C   UNL     1       3.242  15.468   3.879  1.00  0.00     0.014 A 
ATOM     36  C   UNL     1       2.584  16.943   1.595  1.00  0.00     0.010 A 
ATOM     37  C   UNL     1       4.034  15.379   2.747  1.00  0.00     0.010 A 
ATOM     38  C   UNL     1       3.671  16.065   1.582  1.00  0.00    -0.014 A 
BRANCH  38  39
ATOM     39  C   UNL     1       4.356  15.691   0.345  1.00  0.00     0.031 A 
ATOM     40  C   UNL     1       5.707  16.195   0.022  1.00  0.00     0.074 A 
ATOM     41  C   UNL     1       3.738  14.891  -0.553  1.00  0.00     0.049 A 
ATOM     42  N   UNL     1       6.143  16.378  -1.180  1.00  0.00    -0.248 NA
ATOM     43  C   UNL     1       6.669  16.569   1.050  1.00  0.00     0.031 C 
ATOM     44  C   UNL     1       4.317  14.281  -1.747  1.00  0.00     0.029 A 
ATOM     45  N   UNL     1       2.366  14.707  -0.699  1.00  0.00    -0.354 N 
ATOM     46  C   UNL     1       7.489  16.642  -1.105  1.00  0.00     0.074 A 
ATOM     47  C   UNL     1       7.758  16.798   0.309  1.00  0.00     0.031 C 
ATOM     48  C   UNL     1       3.333  14.039  -2.625  1.00  0.00     0.029 A 
ATOM     49  C   UNL     1       2.107  14.591  -2.076  1.00  0.00     0.049 A 
ATOM     50  H   UNL     1       1.702  14.666   0.026  1.00  0.00     0.167 HD
ATOM     51  C   UNL     1       8.264  16.586  -2.225  1.00  0.00     0.034 A 
ATOM     52  C   UNL     1       1.270  15.466  -2.704  1.00  0.00     0.034 A 
ATOM     53  C   UNL     1       7.498  16.272  -3.429  1.00  0.00     0.049 A 
ATOM     54  C   UNL     1       1.923  16.276  -3.807  1.00  0.00     0.074 A 
ATOM     55  C   UNL     1       7.309  15.125  -4.183  1.00  0.00     0.029 A 
ATOM     56  N   UNL     1       6.575  17.191  -3.898  1.00  0.00    -0.354 N 
ATOM     57  N   UNL     1       3.184  16.206  -4.137  1.00  0.00    -0.248 NA
ATOM     58  C   UNL     1       1.210  17.316  -4.549  1.00  0.00     0.031 C 
ATOM     59  C   UNL     1       6.245  15.366  -5.100  1.00  0.00     0.029 A 
ATOM     60  C   UNL     1       5.800  16.661  -4.913  1.00  0.00     0.049 A 
ATOM     61  H   UNL     1       6.483  18.108  -3.553  1.00  0.00     0.167 HD
ATOM     62  C   UNL     1       3.470  17.208  -5.030  1.00  0.00     0.074 A 
ATOM     63  C   UNL     1       2.201  17.872  -5.262  1.00  0.00     0.031 C 
ATOM     64  C   UNL     1       4.733  17.470  -5.477  1.00  0.00     0.034 A 
BRANCH  51  65
ATOM     65  C   UNL     1       9.773  16.574  -2.182  1.00  0.00     0.023 A 
ATOM     66  C   UNL     1      10.490  15.827  -3.138  1.00  0.00     0.031 A 
ATOM     67  C   UNL     1      10.556  17.246  -1.224  1.00  0.00     0.131 A 
ATOM     68  C   UNL     1      11.885  15.676  -3.052  1.00  0.00     0.055 A 
ATOM     69  C   UNL     1      11.935  17.039  -1.093  1.00  0.00     0.041 A 
ATOM     70  F   UNL     1      10.021  18.163  -0.403  1.00  0.00    -0.206 F 
ATOM     71  C   UNL     1      12.607  16.235  -2.001  1.00  0.00     0.022 A 
BRANCH  68  72
ATOM     72  S   UNL     1      12.751  14.743  -4.345  1.00  0.00     0.124 S 
ATOM     73  O   UNL     1      12.050  13.463  -4.329  1.00  0.00    -0.237 OA
ATOM     74  O   UNL     1      12.539  15.582  -5.519  1.00  0.00    -0.237 OA
ATOM     75  O   UNL     1      14.130  14.695  -3.861  1.00  0.00    -0.744 OA
ENDBRANCH  68  72
ENDBRANCH  51  65
BRANCH  52  76
ATOM     76  C   UNL     1       0.163  15.950  -1.826  1.00  0.00     0.023 A 
ATOM     77  C   UNL     1      -0.671  14.976  -1.235  1.00  0.00     0.031 A 
ATOM     78  C   UNL     1       0.136  17.245  -1.293  1.00  0.00     0.131 A 
ATOM     79  C   UNL     1      -1.368  15.266  -0.055  1.00  0.00     0.055 A 
ATOM     80  C   UNL     1      -0.626  17.551  -0.160  1.00  0.00     0.041 A 
ATOM     81  F   UNL     1       0.937  18.205  -1.777  1.00  0.00    -0.206 F 
ATOM     82  C   UNL     1      -1.346  16.550   0.491  1.00  0.00     0.022 A 
BRANCH  79  83
ATOM     83  S   UNL     1      -2.067  13.896   0.913  1.00  0.00     0.124 S 
ATOM     84  O   UNL     1      -3.453  13.876   0.463  1.00  0.00    -0.237 OA
ATOM     85  O   UNL     1      -1.248  12.756   0.505  1.00  0.00    -0.237 OA
ATOM     86  O   UNL     1      -1.855  14.321   2.295  1.00  0.00    -0.744 OA
ENDBRANCH  79  83
ENDBRANCH  52  76
BRANCH  64  87
ATOM     87  C   UNL     1       5.034  18.563  -6.469  1.00  0.00     0.023 A 
ATOM     88  C   UNL     1       4.184  18.828  -7.555  1.00  0.00     0.031 A 
ATOM     89  C   UNL     1       6.210  19.340  -6.389  1.00  0.00     0.131 A 
ATOM     90  C   UNL     1       4.458  19.882  -8.443  1.00  0.00     0.055 A 
ATOM     91  C   UNL     1       6.524  20.328  -7.326  1.00  0.00     0.041 A 
ATOM     92  F   UNL     1       7.078  19.201  -5.377  1.00  0.00    -0.206 F 
ATOM     93  C   UNL     1       5.637  20.618  -8.352  1.00  0.00     0.022 A 
BRANCH  90  94
ATOM     94  S   UNL     1       3.197  20.332  -9.664  1.00  0.00     0.124 S 
ATOM     95  O   UNL     1       2.950  19.069 -10.350  1.00  0.00    -0.237 OA
ATOM     96  O   UNL     1       2.116  20.811  -8.806  1.00  0.00    -0.237 OA
ATOM     97  O   UNL     1       3.850  21.362 -10.470  1.00  0.00    -0.744 OA
ENDBRANCH  90  94
ENDBRANCH  64  87
ENDBRANCH  38  39
ENDBRANCH  30  33
ENDBRANCH  28  29
ENDBRANCH  27  28
ENDBRANCH  26  27
ENDBRANCH   1  26
TORSDOF 20
