REMARK SMILES O=C(Cc1ccccc1Nc1c(F)cccc1C(F)(F)F)NCCCCCCNC(=O)c1ccc(-c2c3nc(c(-c4cc(S(=O)(=O)[O-])ccc4F)c4ccc([nH]4)c(-c4cc(S(=O)(=O)[O-])ccc4F)c4nc(c(-c5cc(S(=O)(=O)[O-])ccc5F)c5ccc2[nH]5)C=C4)C=C3)cc1
REMARK SMILES IDX 25 1 24 2 23 3 22 4 1 5 2 6 3 8 4 9 5 10 9 11 6 12 8 13 7 14
REMARK SMILES IDX 10 15 11 17 12 18 17 19 13 20 14 21 16 22 15 23 18 24 19 25
REMARK SMILES IDX 20 26 21 27 26 28 27 29 28 30 29 31 30 32 31 34 32 35 33 36
REMARK SMILES IDX 94 37 34 38 93 39 35 40 36 41 37 42 87 43 38 44 92 45 86 46
REMARK SMILES IDX 88 47 39 48 91 49 85 50 84 51 40 53 72 54 52 55 71 56 53 57
REMARK SMILES IDX 56 58 70 59 89 60 54 61 55 62 69 64 90 65 57 66 41 67 42 68
REMARK SMILES IDX 50 69 43 70 49 71 51 72 48 73 44 74 45 75 46 76 47 77 73 78
REMARK SMILES IDX 74 79 82 80 75 81 81 82 83 83 80 84 76 85 77 86 78 87 79 88
REMARK SMILES IDX 58 89 59 90 67 91 60 92 66 93 68 94 65 95 61 96 62 97 63 98
REMARK SMILES IDX 64 99
REMARK H PARENT 22 7 10 16 29 33 88 52 56 63
REMARK Flexibility Score: inf
ROOT
ATOM      1  C   UNL     1       4.107   2.096  -2.928  1.00  0.00     0.002 C 
ENDROOT
BRANCH   1   2
ATOM      2  C   UNL     1       2.607   2.039  -2.612  1.00  0.00     0.021 C 
BRANCH   2   3
ATOM      3  C   UNL     1       2.086   0.645  -2.262  1.00  0.00     0.116 C 
BRANCH   3   4
ATOM      4  N   UNL     1       2.713   0.136  -1.059  1.00  0.00    -0.356 N 
ATOM      5  O   UNL     1       0.795   0.050   0.201  1.00  0.00    -0.275 OA
ATOM      6  C   UNL     1       2.011  -0.098   0.100  1.00  0.00     0.224 C 
ATOM      7  H   UNL     1       3.679  -0.051  -1.073  1.00  0.00     0.163 HD
BRANCH   6   8
ATOM      8  C   UNL     1       2.863  -0.441   1.304  1.00  0.00     0.137 C 
BRANCH   8   9
ATOM      9  C   UNL     1       3.772  -1.637   1.127  1.00  0.00    -0.015 A 
ATOM     10  C   UNL     1       3.174  -2.913   1.138  1.00  0.00     0.006 A 
ATOM     11  C   UNL     1       5.170  -1.527   0.957  1.00  0.00     0.042 A 
ATOM     12  C   UNL     1       3.941  -4.069   1.012  1.00  0.00     0.000 A 
ATOM     13  C   UNL     1       5.923  -2.709   0.857  1.00  0.00     0.026 A 
ATOM     14  C   UNL     1       5.319  -3.966   0.884  1.00  0.00     0.002 A 
BRANCH  11  15
ATOM     15  N   UNL     1       5.788  -0.262   0.831  1.00  0.00    -0.352 N 
ATOM     16  H   UNL     1       5.233   0.500   1.111  1.00  0.00     0.167 HD
BRANCH  15  17
ATOM     17  C   UNL     1       7.079   0.080   0.366  1.00  0.00     0.087 A 
ATOM     18  C   UNL     1       7.880   0.869   1.217  1.00  0.00     0.147 A 
ATOM     19  C   UNL     1       7.645  -0.377  -0.838  1.00  0.00     0.082 A 
ATOM     20  F   UNL     1       7.350   1.339   2.358  1.00  0.00    -0.205 F 
ATOM     21  C   UNL     1       9.209   1.165   0.933  1.00  0.00     0.041 A 
ATOM     22  C   UNL     1       9.005  -0.090  -1.107  1.00  0.00     0.015 A 
ATOM     23  C   UNL     1       9.781   0.667  -0.229  1.00  0.00     0.004 A 
BRANCH  19  24
ATOM     24  C   UNL     1       6.874  -1.131  -1.895  1.00  0.00     0.418 C 
ATOM     25  F   UNL     1       7.250  -0.763  -3.157  1.00  0.00    -0.166 F 
ATOM     26  F   UNL     1       7.091  -2.475  -1.840  1.00  0.00    -0.166 F 
ATOM     27  F   UNL     1       5.525  -0.948  -1.869  1.00  0.00    -0.166 F 
ENDBRANCH  19  24
ENDBRANCH  15  17
ENDBRANCH  11  15
ENDBRANCH   8   9
ENDBRANCH   6   8
ENDBRANCH   3   4
ENDBRANCH   2   3
ENDBRANCH   1   2
BRANCH   1  28
ATOM     28  C   UNL     1       4.565   1.203  -4.085  1.00  0.00     0.002 C 
BRANCH  28  29
ATOM     29  C   UNL     1       3.863   1.451  -5.421  1.00  0.00     0.021 C 
BRANCH  29  30
ATOM     30  C   UNL     1       4.003   2.868  -5.968  1.00  0.00     0.116 C 
BRANCH  30  31
ATOM     31  N   UNL     1       5.383   3.209  -6.276  1.00  0.00    -0.352 N 
ATOM     32  C   UNL     1       5.926   3.677  -7.448  1.00  0.00     0.251 C 
ATOM     33  H   UNL     1       6.022   3.086  -5.536  1.00  0.00     0.163 HD
ATOM     34  O   UNL     1       7.147   3.732  -7.573  1.00  0.00    -0.269 OA
BRANCH  32  35
ATOM     35  C   UNL     1       5.042   4.085  -8.563  1.00  0.00     0.039 A 
ATOM     36  C   UNL     1       5.353   3.668  -9.860  1.00  0.00     0.014 A 
ATOM     37  C   UNL     1       3.908   4.869  -8.334  1.00  0.00     0.014 A 
ATOM     38  C   UNL     1       4.488   3.977 -10.914  1.00  0.00     0.010 A 
ATOM     39  C   UNL     1       3.010   5.110  -9.371  1.00  0.00     0.010 A 
ATOM     40  C   UNL     1       3.287   4.663 -10.672  1.00  0.00    -0.014 A 
BRANCH  40  41
ATOM     41  C   UNL     1       2.305   4.910 -11.764  1.00  0.00     0.031 A 
ATOM     42  C   UNL     1       1.963   6.317 -12.173  1.00  0.00     0.074 A 
ATOM     43  C   UNL     1       1.676   3.868 -12.344  1.00  0.00     0.049 A 
ATOM     44  N   UNL     1       1.078   6.735 -13.042  1.00  0.00    -0.248 NA
ATOM     45  C   UNL     1       2.695   7.397 -11.495  1.00  0.00     0.031 C 
ATOM     46  C   UNL     1       1.898   2.458 -12.013  1.00  0.00     0.029 A 
ATOM     47  N   UNL     1       0.718   3.828 -13.327  1.00  0.00    -0.354 N 
ATOM     48  C   UNL     1       1.140   8.124 -13.010  1.00  0.00     0.074 A 
ATOM     49  C   UNL     1       2.106   8.475 -11.990  1.00  0.00     0.031 C 
ATOM     50  C   UNL     1       1.121   1.694 -12.797  1.00  0.00     0.029 A 
ATOM     51  C   UNL     1       0.303   2.554 -13.646  1.00  0.00     0.049 A 
ATOM     52  H   UNL     1       0.360   4.635 -13.763  1.00  0.00     0.167 HD
ATOM     53  C   UNL     1       0.471   9.022 -13.776  1.00  0.00     0.034 A 
ATOM     54  C   UNL     1      -0.641   2.127 -14.508  1.00  0.00     0.034 A 
ATOM     55  C   UNL     1      -0.487   8.655 -14.791  1.00  0.00     0.049 A 
ATOM     56  C   UNL     1      -1.409   3.147 -15.312  1.00  0.00     0.074 A 
ATOM     57  C   UNL     1      -1.185   9.482 -15.655  1.00  0.00     0.029 A 
ATOM     58  N   UNL     1      -0.894   7.357 -15.073  1.00  0.00    -0.354 N 
ATOM     59  N   UNL     1      -1.304   4.456 -15.303  1.00  0.00    -0.248 NA
ATOM     60  C   UNL     1      -2.418   2.632 -16.247  1.00  0.00     0.031 C 
ATOM     61  C   UNL     1      -2.069   8.694 -16.399  1.00  0.00     0.029 A 
ATOM     62  C   UNL     1      -1.860   7.365 -16.069  1.00  0.00     0.049 A 
ATOM     63  H   UNL     1      -0.547   6.549 -14.630  1.00  0.00     0.167 HD
ATOM     64  C   UNL     1      -2.210   4.916 -16.256  1.00  0.00     0.074 A 
ATOM     65  C   UNL     1      -2.839   3.744 -16.829  1.00  0.00     0.031 C 
ATOM     66  C   UNL     1      -2.491   6.191 -16.627  1.00  0.00     0.034 A 
BRANCH  53  67
ATOM     67  C   UNL     1       0.733  10.489 -13.521  1.00  0.00     0.023 A 
ATOM     68  C   UNL     1       2.006  11.056 -13.705  1.00  0.00     0.031 A 
ATOM     69  C   UNL     1      -0.301  11.330 -13.073  1.00  0.00     0.131 A 
ATOM     70  C   UNL     1       2.231  12.400 -13.372  1.00  0.00     0.055 A 
ATOM     71  C   UNL     1      -0.092  12.689 -12.826  1.00  0.00     0.041 A 
ATOM     72  F   UNL     1      -1.534  10.844 -12.857  1.00  0.00    -0.206 F 
ATOM     73  C   UNL     1       1.184  13.228 -12.960  1.00  0.00     0.022 A 
BRANCH  70  74
ATOM     74  S   UNL     1       3.938  13.011 -13.341  1.00  0.00     0.124 S 
ATOM     75  O   UNL     1       4.558  12.106 -12.375  1.00  0.00    -0.237 OA
ATOM     76  O   UNL     1       4.356  12.849 -14.728  1.00  0.00    -0.237 OA
ATOM     77  O   UNL     1       3.800  14.393 -12.887  1.00  0.00    -0.744 OA
ENDBRANCH  70  74
ENDBRANCH  53  67
BRANCH  54  78
ATOM     78  C   UNL     1      -0.934   0.670 -14.651  1.00  0.00     0.023 A 
ATOM     79  C   UNL     1      -0.729   0.007 -15.872  1.00  0.00     0.031 A 
ATOM     80  C   UNL     1      -1.471  -0.070 -13.583  1.00  0.00     0.131 A 
ATOM     81  C   UNL     1      -1.108  -1.338 -16.010  1.00  0.00     0.055 A 
ATOM     82  C   UNL     1      -1.788  -1.424 -13.707  1.00  0.00     0.041 A 
ATOM     83  F   UNL     1      -1.688   0.513 -12.393  1.00  0.00    -0.206 F 
ATOM     84  C   UNL     1      -1.620  -2.062 -14.932  1.00  0.00     0.022 A 
BRANCH  81  85
ATOM     85  S   UNL     1      -1.013  -2.102 -17.653  1.00  0.00     0.124 S 
ATOM     86  O   UNL     1      -1.869  -1.220 -18.439  1.00  0.00    -0.237 OA
ATOM     87  O   UNL     1       0.416  -2.031 -17.938  1.00  0.00    -0.237 OA
ATOM     88  O   UNL     1      -1.537  -3.448 -17.433  1.00  0.00    -0.744 OA
ENDBRANCH  81  85
ENDBRANCH  54  78
BRANCH  66  89
ATOM     89  C   UNL     1      -3.491   6.381 -17.743  1.00  0.00     0.023 A 
ATOM     90  C   UNL     1      -4.845   6.030 -17.597  1.00  0.00     0.031 A 
ATOM     91  C   UNL     1      -3.079   6.919 -18.976  1.00  0.00     0.131 A 
ATOM     92  C   UNL     1      -5.724   6.169 -18.682  1.00  0.00     0.055 A 
ATOM     93  C   UNL     1      -3.972   7.118 -20.029  1.00  0.00     0.041 A 
ATOM     94  F   UNL     1      -1.797   7.268 -19.175  1.00  0.00    -0.206 F 
ATOM     95  C   UNL     1      -5.301   6.730 -19.890  1.00  0.00     0.022 A 
BRANCH  92  96
ATOM     96  S   UNL     1      -7.410   5.518 -18.527  1.00  0.00     0.124 S 
ATOM     97  O   UNL     1      -7.166   4.110 -18.234  1.00  0.00    -0.237 OA
ATOM     98  O   UNL     1      -7.952   6.312 -17.429  1.00  0.00    -0.237 OA
ATOM     99  O   UNL     1      -8.004   5.786 -19.836  1.00  0.00    -0.744 OA
ENDBRANCH  92  96
ENDBRANCH  66  89
ENDBRANCH  40  41
ENDBRANCH  32  35
ENDBRANCH  30  31
ENDBRANCH  29  30
ENDBRANCH  28  29
ENDBRANCH   1  28
TORSDOF 20
