REMARK SMILES O=C(NCCCCCCNC(=O)c1cccc(S(=O)(=O)Oc2ccccc2)c1)c1ccc(-c2c3nc(c(-c4cc(S(=O)(=O)[O-])ccc4F)c4ccc([nH]4)c(-c4cc(S(=O)(=O)[O-])ccc4F)c4nc(c(-c5cc(S(=O)(=O)[O-])ccc5F)c5ccc2[nH]5)C=C4)C=C3)cc1
REMARK SMILES IDX 6 1 5 2 4 3 3 4 1 5 2 6 29 8 30 9 91 10 31 11 90 12 32 13
REMARK SMILES IDX 33 14 34 15 84 16 35 17 89 18 83 19 85 20 36 21 88 22 82 23
REMARK SMILES IDX 81 24 37 26 69 27 49 28 68 29 50 30 53 31 67 32 86 33 51 34
REMARK SMILES IDX 52 35 66 37 87 38 54 39 38 40 39 41 47 42 40 43 46 44 48 45
REMARK SMILES IDX 45 46 41 47 42 48 43 49 44 50 70 51 71 52 79 53 72 54 78 55
REMARK SMILES IDX 80 56 77 57 73 58 74 59 75 60 76 61 55 62 56 63 64 64 57 65
REMARK SMILES IDX 63 66 65 67 62 68 58 69 59 70 60 71 61 72 7 73 8 74 9 75
REMARK SMILES IDX 10 76 11 77 12 79 13 80 14 81 28 82 15 83 17 84 16 85 18 86
REMARK SMILES IDX 19 87 20 88 21 89 22 90 23 91 27 92 24 93 26 94 25 95
REMARK H PARENT 3 7 85 25 53 36 10 78
REMARK Flexibility Score: inf
ROOT
ATOM      1  C   UNL     1       4.148  -2.745  -2.940  1.00  0.00     0.002 C 
ENDROOT
BRANCH   1   2
ATOM      2  C   UNL     1       4.599  -2.404  -1.520  1.00  0.00     0.021 C 
BRANCH   2   3
ATOM      3  C   UNL     1       4.379  -0.959  -1.091  1.00  0.00     0.116 C 
BRANCH   3   4
ATOM      4  N   UNL     1       2.974  -0.587  -1.039  1.00  0.00    -0.352 N 
ATOM      5  O   UNL     1       1.061   0.155  -0.101  1.00  0.00    -0.269 OA
ATOM      6  C   UNL     1       2.280   0.029  -0.023  1.00  0.00     0.251 C 
ATOM      7  H   UNL     1       2.447  -0.807  -1.840  1.00  0.00     0.163 HD
BRANCH   6   8
ATOM      8  C   UNL     1       3.004   0.515   1.174  1.00  0.00     0.039 A 
ATOM      9  C   UNL     1       4.195   1.232   1.045  1.00  0.00     0.014 A 
ATOM     10  C   UNL     1       2.487   0.239   2.443  1.00  0.00     0.014 A 
ATOM     11  C   UNL     1       4.943   1.540   2.177  1.00  0.00     0.010 A 
ATOM     12  C   UNL     1       3.199   0.626   3.583  1.00  0.00     0.010 A 
ATOM     13  C   UNL     1       4.452   1.248   3.460  1.00  0.00    -0.014 A 
BRANCH  13  14
ATOM     14  C   UNL     1       5.254   1.638   4.651  1.00  0.00     0.031 A 
ATOM     15  C   UNL     1       5.828   0.600   5.577  1.00  0.00     0.074 A 
ATOM     16  C   UNL     1       5.497   2.946   4.866  1.00  0.00     0.049 A 
ATOM     17  N   UNL     1       6.585   0.763   6.633  1.00  0.00    -0.248 NA
ATOM     18  C   UNL     1       5.502  -0.803   5.285  1.00  0.00     0.031 C 
ATOM     19  C   UNL     1       4.986   4.041   4.037  1.00  0.00     0.029 A 
ATOM     20  N   UNL     1       6.250   3.577   5.821  1.00  0.00    -0.354 N 
ATOM     21  C   UNL     1       6.813  -0.511   7.144  1.00  0.00     0.074 A 
ATOM     22  C   UNL     1       6.081  -1.432   6.299  1.00  0.00     0.031 C 
ATOM     23  C   UNL     1       5.489   5.201   4.484  1.00  0.00     0.029 A 
ATOM     24  C   UNL     1       6.300   4.943   5.668  1.00  0.00     0.049 A 
ATOM     25  H   UNL     1       6.711   3.099   6.548  1.00  0.00     0.167 HD
ATOM     26  C   UNL     1       7.567  -0.876   8.212  1.00  0.00     0.034 A 
ATOM     27  C   UNL     1       6.919   5.886   6.403  1.00  0.00     0.034 A 
ATOM     28  C   UNL     1       8.292   0.060   9.043  1.00  0.00     0.049 A 
ATOM     29  C   UNL     1       7.720   5.459   7.602  1.00  0.00     0.074 A 
ATOM     30  C   UNL     1       9.113  -0.202  10.127  1.00  0.00     0.029 A 
ATOM     31  N   UNL     1       8.274   1.442   8.890  1.00  0.00    -0.354 N 
ATOM     32  N   UNL     1       7.940   4.248   8.059  1.00  0.00    -0.248 NA
ATOM     33  C   UNL     1       8.355   6.526   8.382  1.00  0.00     0.031 C 
ATOM     34  C   UNL     1       9.536   1.018  10.667  1.00  0.00     0.029 A 
ATOM     35  C   UNL     1       9.042   2.044   9.878  1.00  0.00     0.049 A 
ATOM     36  H   UNL     1       7.788   1.924   8.183  1.00  0.00     0.167 HD
ATOM     37  C   UNL     1       8.759   4.409   9.172  1.00  0.00     0.074 A 
ATOM     38  C   UNL     1       9.008   5.831   9.301  1.00  0.00     0.031 C 
ATOM     39  C   UNL     1       9.262   3.466  10.010  1.00  0.00     0.034 A 
BRANCH  26  40
ATOM     40  C   UNL     1       7.601  -2.345   8.570  1.00  0.00     0.023 A 
ATOM     41  C   UNL     1       8.139  -3.312   7.701  1.00  0.00     0.031 A 
ATOM     42  C   UNL     1       7.056  -2.790   9.788  1.00  0.00     0.131 A 
ATOM     43  C   UNL     1       8.052  -4.676   8.027  1.00  0.00     0.055 A 
ATOM     44  C   UNL     1       7.044  -4.141  10.143  1.00  0.00     0.041 A 
ATOM     45  F   UNL     1       6.509  -1.919  10.651  1.00  0.00    -0.206 F 
ATOM     46  C   UNL     1       7.530  -5.095   9.253  1.00  0.00     0.022 A 
BRANCH  43  47
ATOM     47  S   UNL     1       8.491  -5.902   6.762  1.00  0.00     0.124 S 
ATOM     48  O   UNL     1       7.589  -5.541   5.670  1.00  0.00    -0.237 OA
ATOM     49  O   UNL     1       9.906  -5.634   6.533  1.00  0.00    -0.237 OA
ATOM     50  O   UNL     1       8.195  -7.181   7.404  1.00  0.00    -0.744 OA
ENDBRANCH  43  47
ENDBRANCH  26  40
BRANCH  27  51
ATOM     51  C   UNL     1       6.793   7.324   6.036  1.00  0.00     0.023 A 
ATOM     52  C   UNL     1       7.911   8.067   5.627  1.00  0.00     0.031 A 
ATOM     53  C   UNL     1       5.552   7.982   6.109  1.00  0.00     0.131 A 
ATOM     54  C   UNL     1       7.774   9.433   5.339  1.00  0.00     0.055 A 
ATOM     55  C   UNL     1       5.411   9.329   5.773  1.00  0.00     0.041 A 
ATOM     56  F   UNL     1       4.451   7.315   6.490  1.00  0.00    -0.206 F 
ATOM     57  C   UNL     1       6.530  10.066   5.396  1.00  0.00     0.022 A 
BRANCH  54  58
ATOM     58  S   UNL     1       9.264  10.392   4.953  1.00  0.00     0.124 S 
ATOM     59  O   UNL     1      10.067  10.191   6.153  1.00  0.00    -0.237 OA
ATOM     60  O   UNL     1       9.742   9.734   3.742  1.00  0.00    -0.237 OA
ATOM     61  O   UNL     1       8.755  11.749   4.763  1.00  0.00    -0.744 OA
ENDBRANCH  54  58
ENDBRANCH  27  51
BRANCH  39  62
ATOM     62  C   UNL     1      10.160   3.959  11.118  1.00  0.00     0.023 A 
ATOM     63  C   UNL     1       9.670   4.758  12.166  1.00  0.00     0.031 A 
ATOM     64  C   UNL     1      11.534   3.663  11.099  1.00  0.00     0.131 A 
ATOM     65  C   UNL     1      10.557   5.288  13.115  1.00  0.00     0.055 A 
ATOM     66  C   UNL     1      12.403   4.143  12.080  1.00  0.00     0.041 A 
ATOM     67  F   UNL     1      12.057   2.908  10.119  1.00  0.00    -0.206 F 
ATOM     68  C   UNL     1      11.918   4.973  13.087  1.00  0.00     0.022 A 
BRANCH  65  69
ATOM     69  S   UNL     1       9.926   6.483  14.326  1.00  0.00     0.124 S 
ATOM     70  O   UNL     1       9.378   7.526  13.466  1.00  0.00    -0.237 OA
ATOM     71  O   UNL     1       8.951   5.690  15.067  1.00  0.00    -0.237 OA
ATOM     72  O   UNL     1      11.117   6.865  15.083  1.00  0.00    -0.744 OA
ENDBRANCH  65  69
ENDBRANCH  39  62
ENDBRANCH  13  14
ENDBRANCH   6   8
ENDBRANCH   3   4
ENDBRANCH   2   3
ENDBRANCH   1   2
BRANCH   1  73
ATOM     73  C   UNL     1       4.729  -1.869  -4.052  1.00  0.00     0.002 C 
BRANCH  73  74
ATOM     74  C   UNL     1       6.257  -1.744  -4.080  1.00  0.00     0.021 C 
BRANCH  74  75
ATOM     75  C   UNL     1       7.026  -3.063  -4.126  1.00  0.00     0.116 C 
BRANCH  75  76
ATOM     76  N   UNL     1       6.723  -3.835  -5.320  1.00  0.00    -0.352 N 
ATOM     77  C   UNL     1       7.577  -4.375  -6.246  1.00  0.00     0.251 C 
ATOM     78  H   UNL     1       5.766  -3.993  -5.487  1.00  0.00     0.163 HD
ATOM     79  O   UNL     1       7.142  -4.862  -7.286  1.00  0.00    -0.269 OA
BRANCH  77  80
ATOM     80  C   UNL     1       9.034  -4.362  -6.002  1.00  0.00     0.041 A 
ATOM     81  C   UNL     1       9.875  -3.855  -6.999  1.00  0.00     0.014 A 
ATOM     82  C   UNL     1       9.566  -4.870  -4.812  1.00  0.00     0.037 A 
ATOM     83  C   UNL     1      11.254  -3.805  -6.789  1.00  0.00     0.002 A 
ATOM     84  C   UNL     1      10.945  -4.800  -4.607  1.00  0.00     0.106 A 
ATOM     85  C   UNL     1      11.792  -4.266  -5.587  1.00  0.00     0.024 A 
BRANCH  84  86
ATOM     86  S   UNL     1      11.659  -5.311  -3.052  1.00  0.00     0.339 S 
ATOM     87  O   UNL     1      12.314  -6.571  -3.321  1.00  0.00    -0.181 OA
ATOM     88  O   UNL     1      12.393  -4.146  -2.584  1.00  0.00    -0.181 OA
BRANCH  86  89
ATOM     89  O   UNL     1      10.359  -5.562  -2.097  1.00  0.00    -0.379 OA
BRANCH  89  90
ATOM     90  C   UNL     1      10.490  -5.955  -0.791  1.00  0.00     0.142 A 
ATOM     91  C   UNL     1       9.577  -6.912  -0.341  1.00  0.00     0.048 A 
ATOM     92  C   UNL     1      11.387  -5.375   0.105  1.00  0.00     0.048 A 
ATOM     93  C   UNL     1       9.569  -7.298   1.001  1.00  0.00     0.004 A 
ATOM     94  C   UNL     1      11.376  -5.763   1.447  1.00  0.00     0.004 A 
ATOM     95  C   UNL     1      10.466  -6.719   1.895  1.00  0.00     0.000 A 
ENDBRANCH  89  90
ENDBRANCH  86  89
ENDBRANCH  84  86
ENDBRANCH  77  80
ENDBRANCH  75  76
ENDBRANCH  74  75
ENDBRANCH  73  74
ENDBRANCH   1  73
TORSDOF 19
