REMARK SMILES O=C(NCCCCCCNC(=O)c1ccc2c(=O)n(CCC[NH+]3CCOCC3)c(=O)[nH]c2c1)c1ccc(-c2c3nc(c(-c4cc(S(=O)(=O)[O-])ccc4F)c4ccc([nH]4)c(-c4cc(S(=O)(=O)[O-])ccc4F)c4nc(c(-c5cc(S(=O)(=O)[O-])ccc5F)c5ccc2[nH]5)C=C4)C=C3)cc1
REMARK SMILES IDX 7 1 6 2 5 3 4 4 3 5 1 6 2 7 34 9 35 10 96 11 36 12 95 13
REMARK SMILES IDX 37 14 38 15 39 16 89 17 40 18 94 19 88 20 90 21 41 22 93 23
REMARK SMILES IDX 87 24 86 25 42 27 74 28 54 29 73 30 55 31 58 32 72 33 91 34
REMARK SMILES IDX 56 35 57 36 71 38 92 39 59 40 43 41 44 42 52 43 45 44 51 45
REMARK SMILES IDX 53 46 50 47 46 48 47 49 48 50 49 51 75 52 76 53 84 54 77 55
REMARK SMILES IDX 83 56 85 57 82 58 78 59 79 60 80 61 81 62 60 63 61 64 69 65
REMARK SMILES IDX 62 66 68 67 70 68 67 69 63 70 64 71 65 72 66 73 8 74 9 75
REMARK SMILES IDX 10 76 11 77 12 79 13 80 14 81 33 82 15 83 32 84 16 85 31 86
REMARK SMILES IDX 17 87 29 88 18 90 19 91 30 92 20 93 21 94 22 95 23 96 24 97
REMARK SMILES IDX 28 98 25 100 27 101 26 102
REMARK H PARENT 3 8 90 26 58 37 10 78 31 89 23 99
REMARK Flexibility Score: inf
ROOT
ATOM      1  C   UNL     1       4.620  -1.963  -3.720  1.00  0.00     0.002 C 
ENDROOT
BRANCH   1   2
ATOM      2  C   UNL     1       4.072  -2.760  -2.533  1.00  0.00     0.002 C 
BRANCH   2   3
ATOM      3  C   UNL     1       4.604  -2.337  -1.162  1.00  0.00     0.021 C 
BRANCH   3   4
ATOM      4  C   UNL     1       4.423  -0.861  -0.832  1.00  0.00     0.116 C 
BRANCH   4   5
ATOM      5  N   UNL     1       3.029  -0.460  -0.867  1.00  0.00    -0.352 N 
ATOM      6  O   UNL     1       1.064   0.267  -0.064  1.00  0.00    -0.269 OA
ATOM      7  C   UNL     1       2.282   0.191   0.080  1.00  0.00     0.251 C 
ATOM      8  H   UNL     1       2.547  -0.691  -1.694  1.00  0.00     0.163 HD
BRANCH   7   9
ATOM      9  C   UNL     1       2.929   0.797   1.265  1.00  0.00     0.039 A 
ATOM     10  C   UNL     1       2.266   0.737   2.494  1.00  0.00     0.014 A 
ATOM     11  C   UNL     1       4.145   1.481   1.163  1.00  0.00     0.014 A 
ATOM     12  C   UNL     1       2.820   1.358   3.614  1.00  0.00     0.010 A 
ATOM     13  C   UNL     1       4.738   2.026   2.299  1.00  0.00     0.010 A 
ATOM     14  C   UNL     1       4.061   2.011   3.525  1.00  0.00    -0.014 A 
BRANCH  14  15
ATOM     15  C   UNL     1       4.609   2.763   4.683  1.00  0.00     0.031 A 
ATOM     16  C   UNL     1       4.742   4.262   4.601  1.00  0.00     0.074 A 
ATOM     17  C   UNL     1       4.988   2.107   5.797  1.00  0.00     0.049 A 
ATOM     18  N   UNL     1       5.179   5.101   5.502  1.00  0.00    -0.248 NA
ATOM     19  C   UNL     1       4.356   4.901   3.330  1.00  0.00     0.031 C 
ATOM     20  C   UNL     1       4.939   0.656   5.974  1.00  0.00     0.029 A 
ATOM     21  N   UNL     1       5.477   2.573   6.992  1.00  0.00    -0.354 N 
ATOM     22  C   UNL     1       5.136   6.357   4.905  1.00  0.00     0.074 A 
ATOM     23  C   UNL     1       4.693   6.164   3.544  1.00  0.00     0.031 C 
ATOM     24  C   UNL     1       5.333   0.354   7.222  1.00  0.00     0.029 A 
ATOM     25  C   UNL     1       5.694   1.584   7.924  1.00  0.00     0.049 A 
ATOM     26  H   UNL     1       5.655   3.526   7.166  1.00  0.00     0.167 HD
ATOM     27  C   UNL     1       5.405   7.564   5.453  1.00  0.00     0.034 A 
ATOM     28  C   UNL     1       6.114   1.663   9.204  1.00  0.00     0.034 A 
ATOM     29  C   UNL     1       5.795   7.746   6.826  1.00  0.00     0.049 A 
ATOM     30  C   UNL     1       6.378   3.025   9.801  1.00  0.00     0.074 A 
ATOM     31  C   UNL     1       6.043   8.931   7.493  1.00  0.00     0.029 A 
ATOM     32  N   UNL     1       5.973   6.723   7.745  1.00  0.00    -0.354 N 
ATOM     33  N   UNL     1       6.255   4.208   9.246  1.00  0.00    -0.248 NA
ATOM     34  C   UNL     1       6.815   3.069  11.204  1.00  0.00     0.031 C 
ATOM     35  C   UNL     1       6.421   8.624   8.800  1.00  0.00     0.029 A 
ATOM     36  C   UNL     1       6.337   7.251   8.971  1.00  0.00     0.049 A 
ATOM     37  H   UNL     1       5.857   5.764   7.554  1.00  0.00     0.167 HD
ATOM     38  C   UNL     1       6.551   5.134  10.243  1.00  0.00     0.074 A 
ATOM     39  C   UNL     1       6.846   4.374  11.439  1.00  0.00     0.031 C 
ATOM     40  C   UNL     1       6.578   6.489  10.172  1.00  0.00     0.034 A 
BRANCH  27  41
ATOM     41  C   UNL     1       5.257   8.799   4.599  1.00  0.00     0.023 A 
ATOM     42  C   UNL     1       6.372   9.620   4.352  1.00  0.00     0.031 A 
ATOM     43  C   UNL     1       3.998   9.233   4.147  1.00  0.00     0.131 A 
ATOM     44  C   UNL     1       6.200  10.852   3.708  1.00  0.00     0.055 A 
ATOM     45  C   UNL     1       3.839  10.439   3.464  1.00  0.00     0.041 A 
ATOM     46  F   UNL     1       2.902   8.485   4.357  1.00  0.00    -0.206 F 
ATOM     47  C   UNL     1       4.942  11.261   3.255  1.00  0.00     0.022 A 
BRANCH  44  48
ATOM     48  S   UNL     1       7.589  11.998   3.493  1.00  0.00     0.124 S 
ATOM     49  O   UNL     1       7.590  12.200   2.045  1.00  0.00    -0.237 OA
ATOM     50  O   UNL     1       7.160  13.148   4.283  1.00  0.00    -0.237 OA
ATOM     51  O   UNL     1       8.736  11.262   4.015  1.00  0.00    -0.744 OA
ENDBRANCH  44  48
ENDBRANCH  27  41
BRANCH  28  52
ATOM     52  C   UNL     1       6.200   0.420  10.028  1.00  0.00     0.023 A 
ATOM     53  C   UNL     1       7.080  -0.624   9.693  1.00  0.00     0.031 A 
ATOM     54  C   UNL     1       5.336   0.228  11.121  1.00  0.00     0.131 A 
ATOM     55  C   UNL     1       7.040  -1.828  10.410  1.00  0.00     0.055 A 
ATOM     56  C   UNL     1       5.346  -0.946  11.875  1.00  0.00     0.041 A 
ATOM     57  F   UNL     1       4.464   1.188  11.470  1.00  0.00    -0.206 F 
ATOM     58  C   UNL     1       6.192  -1.988  11.511  1.00  0.00     0.022 A 
BRANCH  55  59
ATOM     59  S   UNL     1       7.996  -3.270   9.864  1.00  0.00     0.124 S 
ATOM     60  O   UNL     1       8.882  -3.496  11.001  1.00  0.00    -0.237 OA
ATOM     61  O   UNL     1       6.947  -4.270   9.672  1.00  0.00    -0.237 OA
ATOM     62  O   UNL     1       8.642  -2.810   8.639  1.00  0.00    -0.744 OA
ENDBRANCH  55  59
ENDBRANCH  28  52
BRANCH  40  63
ATOM     63  C   UNL     1       6.887   7.282  11.420  1.00  0.00     0.023 A 
ATOM     64  C   UNL     1       5.929   8.182  11.926  1.00  0.00     0.031 A 
ATOM     65  C   UNL     1       8.167   7.278  12.000  1.00  0.00     0.131 A 
ATOM     66  C   UNL     1       6.277   9.069  12.951  1.00  0.00     0.055 A 
ATOM     67  C   UNL     1       8.494   8.130  13.056  1.00  0.00     0.041 A 
ATOM     68  F   UNL     1       9.121   6.452  11.541  1.00  0.00    -0.206 F 
ATOM     69  C   UNL     1       7.552   9.042  13.524  1.00  0.00     0.022 A 
BRANCH  66  70
ATOM     70  S   UNL     1       5.127  10.361  13.502  1.00  0.00     0.124 S 
ATOM     71  O   UNL     1       4.877   9.970  14.887  1.00  0.00    -0.237 OA
ATOM     72  O   UNL     1       5.921  11.575  13.330  1.00  0.00    -0.237 OA
ATOM     73  O   UNL     1       3.987  10.227  12.601  1.00  0.00    -0.744 OA
ENDBRANCH  66  70
ENDBRANCH  40  63
ENDBRANCH  14  15
ENDBRANCH   7   9
ENDBRANCH   4   5
ENDBRANCH   3   4
ENDBRANCH   2   3
ENDBRANCH   1   2
BRANCH   1  74
ATOM     74  C   UNL     1       6.147  -1.948  -3.843  1.00  0.00     0.021 C 
BRANCH  74  75
ATOM     75  C   UNL     1       6.798  -3.328  -3.823  1.00  0.00     0.116 C 
BRANCH  75  76
ATOM     76  N   UNL     1       6.288  -4.176  -4.891  1.00  0.00    -0.352 N 
ATOM     77  C   UNL     1       6.987  -4.792  -5.891  1.00  0.00     0.251 C 
ATOM     78  H   UNL     1       5.315  -4.325  -4.893  1.00  0.00     0.163 HD
ATOM     79  O   UNL     1       6.428  -5.351  -6.831  1.00  0.00    -0.269 OA
BRANCH  77  80
ATOM     80  C   UNL     1       8.451  -4.769  -5.822  1.00  0.00     0.041 A 
ATOM     81  C   UNL     1       9.093  -5.450  -4.779  1.00  0.00     0.015 A 
ATOM     82  C   UNL     1       9.163  -4.008  -6.757  1.00  0.00     0.040 A 
ATOM     83  C   UNL     1      10.473  -5.358  -4.659  1.00  0.00     0.017 A 
ATOM     84  C   UNL     1      10.537  -3.888  -6.598  1.00  0.00     0.056 A 
ATOM     85  C   UNL     1      11.180  -4.572  -5.573  1.00  0.00     0.064 A 
ATOM     86  N   UNL     1      11.287  -3.066  -7.434  1.00  0.00    -0.307 N 
ATOM     87  C   UNL     1      12.635  -4.459  -5.489  1.00  0.00     0.264 A 
ATOM     88  C   UNL     1      12.609  -2.770  -7.221  1.00  0.00     0.328 A 
ATOM     89  H   UNL     1      10.844  -2.676  -8.222  1.00  0.00     0.171 HD
ATOM     90  O   UNL     1      13.245  -5.348  -4.903  1.00  0.00    -0.268 OA
ATOM     91  N   UNL     1      13.218  -3.380  -6.131  1.00  0.00    -0.260 N 
ATOM     92  O   UNL     1      13.179  -2.017  -8.008  1.00  0.00    -0.248 OA
BRANCH  91  93
ATOM     93  C   UNL     1      14.624  -3.088  -5.856  1.00  0.00     0.137 C 
BRANCH  93  94
ATOM     94  C   UNL     1      14.921  -2.540  -4.453  1.00  0.00     0.083 C 
BRANCH  94  95
ATOM     95  C   UNL     1      14.992  -3.508  -3.254  1.00  0.00     0.264 C 
BRANCH  95  96
ATOM     96  N   UNL     1      16.073  -4.476  -3.103  1.00  0.00    -0.331 N 
ATOM     97  C   UNL     1      17.430  -4.099  -3.478  1.00  0.00     0.291 C 
ATOM     98  C   UNL     1      15.791  -5.879  -3.413  1.00  0.00     0.291 C 
ATOM     99  H   UNL     1      16.076  -4.412  -2.085  1.00  0.00     0.348 HD
ATOM    100  C   UNL     1      17.838  -4.573  -4.881  1.00  0.00     0.221 C 
ATOM    101  C   UNL     1      16.240  -6.320  -4.814  1.00  0.00     0.221 C 
ATOM    102  O   UNL     1      17.611  -5.977  -5.066  1.00  0.00    -0.370 OA
ENDBRANCH  95  96
ENDBRANCH  94  95
ENDBRANCH  93  94
ENDBRANCH  91  93
ENDBRANCH  77  80
ENDBRANCH  75  76
ENDBRANCH  74  75
ENDBRANCH   1  74
TORSDOF 20
