REMARK SMILES COc1cccc(-c2nn(-c3cc4c(cc3C(N)=O)OCO4)cc2C(=O)NCCCCCCNC(=O)c2ccc(-c3c4nc(c(-c5cc(S(=O)(=O)[O-])ccc5F)c5ccc([nH]5)c(-c5cc(S(=O)(=O)[O-])ccc5F)c5nc(c(-c6cc(S(=O)(=O)[O-])ccc6F)c6ccc3[nH]6)C=C5)C=C4)cc2)c1
REMARK SMILES IDX 31 1 30 2 29 3 28 4 27 5 25 6 26 7 24 9 8 10 9 11 10 12
REMARK SMILES IDX 23 13 7 14 3 15 4 16 100 17 5 18 6 19 2 20 1 21 11 22 12 23
REMARK SMILES IDX 16 24 13 25 15 26 14 27 22 28 20 29 21 30 17 31 18 32 19 33
REMARK SMILES IDX 32 36 33 37 34 38 35 39 36 41 37 42 38 43 99 44 39 45 98 46
REMARK SMILES IDX 40 47 41 48 42 49 92 50 43 51 97 52 91 53 93 54 44 55 96 56
REMARK SMILES IDX 90 57 89 58 45 60 77 61 57 62 76 63 58 64 61 65 75 66 94 67
REMARK SMILES IDX 59 68 60 69 74 71 95 72 62 73 46 74 47 75 55 76 48 77 54 78
REMARK SMILES IDX 56 79 53 80 49 81 50 82 51 83 52 84 78 85 79 86 87 87 80 88
REMARK SMILES IDX 86 89 88 90 85 91 81 92 82 93 83 94 84 95 63 96 64 97 72 98
REMARK SMILES IDX 65 99 71 100 73 101 70 102 66 103 67 104 68 105 69 106
REMARK H PARENT 27 8 18 34 18 35 34 40 93 59 61 70
REMARK Flexibility Score: inf
ROOT
ATOM      1  C   UNL     1       6.156   9.536  -0.442  1.00  0.00     0.002 C 
ENDROOT
BRANCH   1   2
ATOM      2  C   UNL     1       5.794   9.130  -1.882  1.00  0.00     0.002 C 
BRANCH   2   3
ATOM      3  C   UNL     1       6.341   7.774  -2.348  1.00  0.00     0.021 C 
BRANCH   3   4
ATOM      4  C   UNL     1       5.975   6.624  -1.414  1.00  0.00     0.116 C 
BRANCH   4   5
ATOM      5  N   UNL     1       4.581   6.269  -1.566  1.00  0.00    -0.352 N 
ATOM      6  C   UNL     1       3.938   5.192  -2.117  1.00  0.00     0.255 C 
ATOM      7  O   UNL     1       2.709   5.220  -2.033  1.00  0.00    -0.269 OA
ATOM      8  H   UNL     1       3.966   6.942  -1.195  1.00  0.00     0.163 HD
BRANCH   6   9
ATOM      9  C   UNL     1       4.654   4.062  -2.693  1.00  0.00     0.086 A 
ATOM     10  C   UNL     1       4.119   2.771  -3.040  1.00  0.00     0.106 A 
ATOM     11  N   UNL     1       5.093   1.901  -3.383  1.00  0.00    -0.167 NA
ATOM     12  N   UNL     1       6.227   2.592  -3.138  1.00  0.00    -0.239 N 
ATOM     13  C   UNL     1       5.977   3.939  -3.057  1.00  0.00     0.129 A 
BRANCH  10  14
ATOM     14  C   UNL     1       2.712   2.373  -3.024  1.00  0.00     0.007 A 
ATOM     15  C   UNL     1       0.907   1.068  -2.076  1.00  0.00     0.119 A 
ATOM     16  C   UNL     1      -0.012   1.763  -2.864  1.00  0.00     0.046 A 
ATOM     17  C   UNL     1       2.272   1.354  -2.171  1.00  0.00     0.056 A 
ATOM     18  C   UNL     1       0.423   2.764  -3.731  1.00  0.00     0.005 A 
ATOM     19  C   UNL     1       1.782   3.064  -3.815  1.00  0.00     0.011 A 
BRANCH  15  20
ATOM     20  O   UNL     1       0.385   0.089  -1.272  1.00  0.00    -0.497 OA
ATOM     21  C   UNL     1       0.931   0.075   0.044  1.00  0.00     0.278 C 
ENDBRANCH  15  20
ENDBRANCH  10  14
BRANCH  12  22
ATOM     22  C   UNL     1       7.513   2.000  -3.123  1.00  0.00     0.081 A 
ATOM     23  C   UNL     1       7.844   1.127  -4.175  1.00  0.00     0.079 A 
ATOM     24  C   UNL     1       8.476   2.345  -2.126  1.00  0.00     0.069 A 
ATOM     25  C   UNL     1       9.152   0.694  -4.253  1.00  0.00     0.167 A 
ATOM     26  C   UNL     1       9.812   1.946  -2.304  1.00  0.00     0.066 A 
ATOM     27  C   UNL     1      10.108   1.117  -3.361  1.00  0.00     0.166 A 
ATOM     28  O   UNL     1       9.666  -0.154  -5.183  1.00  0.00    -0.454 OA
ATOM     29  O   UNL     1      11.335   0.589  -3.614  1.00  0.00    -0.454 OA
ATOM     30  C   UNL     1      11.014  -0.316  -4.691  1.00  0.00     0.468 C 
BRANCH  24  31
ATOM     31  C   UNL     1       8.084   2.938  -0.798  1.00  0.00     0.251 C 
ATOM     32  N   UNL     1       8.963   2.823   0.247  1.00  0.00    -0.366 N 
ATOM     33  O   UNL     1       6.997   3.446  -0.565  1.00  0.00    -0.269 OA
ATOM     34  H   UNL     1       9.849   2.419   0.102  1.00  0.00     0.159 HD
ATOM     35  H   UNL     1       8.708   3.144   1.142  1.00  0.00     0.159 HD
ENDBRANCH  24  31
ENDBRANCH  12  22
ENDBRANCH   6   9
ENDBRANCH   4   5
ENDBRANCH   3   4
ENDBRANCH   2   3
ENDBRANCH   1   2
BRANCH   1  36
ATOM     36  C   UNL     1       7.635   9.415  -0.045  1.00  0.00     0.021 C 
BRANCH  36  37
ATOM     37  C   UNL     1       8.553  10.368  -0.794  1.00  0.00     0.116 C 
BRANCH  37  38
ATOM     38  N   UNL     1       8.313  11.768  -0.441  1.00  0.00    -0.352 N 
ATOM     39  C   UNL     1       8.864  12.906  -1.011  1.00  0.00     0.251 C 
ATOM     40  H   UNL     1       7.679  11.921   0.297  1.00  0.00     0.163 HD
ATOM     41  O   UNL     1       8.901  13.955  -0.395  1.00  0.00    -0.269 OA
BRANCH  39  42
ATOM     42  C   UNL     1       9.407  12.799  -2.380  1.00  0.00     0.039 A 
ATOM     43  C   UNL     1      10.594  13.426  -2.764  1.00  0.00     0.014 A 
ATOM     44  C   UNL     1       8.713  11.989  -3.270  1.00  0.00     0.014 A 
ATOM     45  C   UNL     1      11.117  13.148  -4.027  1.00  0.00     0.010 A 
ATOM     46  C   UNL     1       9.331  11.557  -4.410  1.00  0.00     0.010 A 
ATOM     47  C   UNL     1      10.489  12.188  -4.838  1.00  0.00    -0.014 A 
BRANCH  47  48
ATOM     48  C   UNL     1      11.039  11.778  -6.125  1.00  0.00     0.031 A 
ATOM     49  C   UNL     1      12.466  11.380  -6.121  1.00  0.00     0.074 A 
ATOM     50  C   UNL     1      10.279  11.594  -7.226  1.00  0.00     0.049 A 
ATOM     51  N   UNL     1      13.455  12.068  -6.580  1.00  0.00    -0.248 NA
ATOM     52  C   UNL     1      12.875  10.153  -5.423  1.00  0.00     0.031 C 
ATOM     53  C   UNL     1       8.821  11.703  -7.371  1.00  0.00     0.029 A 
ATOM     54  N   UNL     1      10.665  11.161  -8.456  1.00  0.00    -0.354 N 
ATOM     55  C   UNL     1      14.585  11.272  -6.449  1.00  0.00     0.074 A 
ATOM     56  C   UNL     1      14.204  10.199  -5.567  1.00  0.00     0.031 C 
ATOM     57  C   UNL     1       8.432  11.127  -8.529  1.00  0.00     0.029 A 
ATOM     58  C   UNL     1       9.619  10.786  -9.290  1.00  0.00     0.049 A 
ATOM     59  H   UNL     1      11.609  11.117  -8.732  1.00  0.00     0.167 HD
ATOM     60  C   UNL     1      15.669  11.462  -7.253  1.00  0.00     0.034 A 
ATOM     61  C   UNL     1       9.710  10.247 -10.532  1.00  0.00     0.034 A 
ATOM     62  C   UNL     1      15.549  12.695  -8.002  1.00  0.00     0.049 A 
ATOM     63  C   UNL     1      11.017  10.687 -11.082  1.00  0.00     0.074 A 
ATOM     64  C   UNL     1      15.417  14.027  -7.660  1.00  0.00     0.029 A 
ATOM     65  N   UNL     1      15.131  12.610  -9.314  1.00  0.00    -0.354 N 
ATOM     66  N   UNL     1      11.288  11.941 -11.329  1.00  0.00    -0.248 NA
ATOM     67  C   UNL     1      12.183   9.842 -10.870  1.00  0.00     0.031 C 
ATOM     68  C   UNL     1      14.453  14.543  -8.577  1.00  0.00     0.029 A 
ATOM     69  C   UNL     1      14.121  13.528  -9.479  1.00  0.00     0.049 A 
ATOM     70  H   UNL     1      15.488  12.005 -10.003  1.00  0.00     0.167 HD
ATOM     71  C   UNL     1      12.575  12.133 -10.851  1.00  0.00     0.074 A 
ATOM     72  C   UNL     1      13.118  10.783 -10.690  1.00  0.00     0.031 C 
ATOM     73  C   UNL     1      12.981  13.343 -10.360  1.00  0.00     0.034 A 
BRANCH  60  74
ATOM     74  C   UNL     1      16.686  10.416  -7.636  1.00  0.00     0.023 A 
ATOM     75  C   UNL     1      17.801  10.842  -8.384  1.00  0.00     0.031 A 
ATOM     76  C   UNL     1      16.488   9.021  -7.561  1.00  0.00     0.131 A 
ATOM     77  C   UNL     1      18.596   9.921  -9.086  1.00  0.00     0.055 A 
ATOM     78  C   UNL     1      17.324   8.103  -8.204  1.00  0.00     0.041 A 
ATOM     79  F   UNL     1      15.427   8.476  -6.953  1.00  0.00    -0.206 F 
ATOM     80  C   UNL     1      18.366   8.551  -8.999  1.00  0.00     0.022 A 
BRANCH  77  81
ATOM     81  S   UNL     1      19.817  10.560 -10.263  1.00  0.00     0.124 S 
ATOM     82  O   UNL     1      18.999  11.441 -11.091  1.00  0.00    -0.237 OA
ATOM     83  O   UNL     1      20.774  11.214  -9.377  1.00  0.00    -0.237 OA
ATOM     84  O   UNL     1      20.305   9.356 -10.930  1.00  0.00    -0.744 OA
ENDBRANCH  77  81
ENDBRANCH  60  74
BRANCH  61  85
ATOM     85  C   UNL     1       8.858   9.170 -11.100  1.00  0.00     0.023 A 
ATOM     86  C   UNL     1       8.754   8.915 -12.482  1.00  0.00     0.031 A 
ATOM     87  C   UNL     1       8.297   8.203 -10.232  1.00  0.00     0.131 A 
ATOM     88  C   UNL     1       8.115   7.738 -12.942  1.00  0.00     0.055 A 
ATOM     89  C   UNL     1       7.665   7.046 -10.691  1.00  0.00     0.041 A 
ATOM     90  F   UNL     1       8.421   8.310  -8.899  1.00  0.00    -0.206 F 
ATOM     91  C   UNL     1       7.580   6.803 -12.052  1.00  0.00     0.022 A 
BRANCH  88  92
ATOM     92  S   UNL     1       8.057   7.354 -14.723  1.00  0.00     0.124 S 
ATOM     93  O   UNL     1       7.144   8.370 -15.232  1.00  0.00    -0.237 OA
ATOM     94  O   UNL     1       9.456   7.483 -15.116  1.00  0.00    -0.237 OA
ATOM     95  O   UNL     1       7.538   5.986 -14.761  1.00  0.00    -0.744 OA
ENDBRANCH  88  92
ENDBRANCH  61  85
BRANCH  73  96
ATOM     96  C   UNL     1      12.067  14.540 -10.560  1.00  0.00     0.023 A 
ATOM     97  C   UNL     1      10.730  14.614 -10.104  1.00  0.00     0.031 A 
ATOM     98  C   UNL     1      12.620  15.700 -11.129  1.00  0.00     0.131 A 
ATOM     99  C   UNL     1       9.995  15.808 -10.244  1.00  0.00     0.055 A 
ATOM    100  C   UNL     1      11.899  16.889 -11.246  1.00  0.00     0.041 A 
ATOM    101  F   UNL     1      13.895  15.709 -11.553  1.00  0.00    -0.206 F 
ATOM    102  C   UNL     1      10.579  16.945 -10.810  1.00  0.00     0.022 A 
BRANCH  99 103
ATOM    103  S   UNL     1       8.257  15.896  -9.701  1.00  0.00     0.124 S 
ATOM    104  O   UNL     1       7.643  14.736 -10.338  1.00  0.00    -0.237 OA
ATOM    105  O   UNL     1       8.373  15.839  -8.247  1.00  0.00    -0.237 OA
ATOM    106  O   UNL     1       7.802  17.187 -10.223  1.00  0.00    -0.744 OA
ENDBRANCH  99 103
ENDBRANCH  73  96
ENDBRANCH  47  48
ENDBRANCH  39  42
ENDBRANCH  37  38
ENDBRANCH  36  37
ENDBRANCH   1  36
TORSDOF 20
