REMARK SMILES O=C(NCCCCCCNC(=O)[C@H]1CC=CC[C@H]1C(=O)Nc1ccc(S(=O)(=O)N2CCc3ccccc32)cc1)c1ccc(-c2c3nc(c(-c4cc(S(=O)(=O)[O-])ccc4F)c4ccc([nH]4)c(-c4cc(S(=O)(=O)[O-])ccc4F)c4nc(c(-c5cc(S(=O)(=O)[O-])ccc5F)c5ccc2[nH]5)C=C4)C=C3)cc1
REMARK SMILES IDX 7 1 6 2 5 3 4 4 3 5 1 6 2 7 40 9 41 10 102 11 42 12 101 13
REMARK SMILES IDX 43 14 44 15 45 16 95 17 46 18 100 19 94 20 96 21 47 22 99 23
REMARK SMILES IDX 93 24 92 25 48 27 80 28 60 29 79 30 61 31 64 32 78 33 97 34
REMARK SMILES IDX 62 35 63 36 77 38 98 39 65 40 49 41 50 42 58 43 51 44 57 45
REMARK SMILES IDX 59 46 56 47 52 48 53 49 54 50 55 51 81 52 82 53 90 54 83 55
REMARK SMILES IDX 89 56 91 57 88 58 84 59 85 60 86 61 87 62 66 63 67 64 75 65
REMARK SMILES IDX 68 66 74 67 76 68 73 69 69 70 70 71 71 72 72 73 8 74 9 75
REMARK SMILES IDX 10 76 11 77 12 79 13 80 14 81 18 82 15 83 17 84 16 85 19 86
REMARK SMILES IDX 20 87 21 88 22 90 23 91 39 92 24 93 38 94 25 95 26 96 27 97
REMARK SMILES IDX 28 98 29 99 30 100 37 101 31 102 32 103 36 104 33 105 35 106
REMARK SMILES IDX 34 107
REMARK H PARENT 3 8 96 26 64 37 10 78 21 89
REMARK Flexibility Score: inf
ROOT
ATOM      1  C   UNL     1       4.570   2.076   3.291  1.00  0.00     0.002 C 
ENDROOT
BRANCH   1   2
ATOM      2  C   UNL     1       4.181   2.830   2.013  1.00  0.00     0.002 C 
BRANCH   2   3
ATOM      3  C   UNL     1       4.658   2.222   0.699  1.00  0.00     0.021 C 
BRANCH   3   4
ATOM      4  C   UNL     1       4.314   0.757   0.541  1.00  0.00     0.116 C 
BRANCH   4   5
ATOM      5  N   UNL     1       2.886   0.509   0.647  1.00  0.00    -0.352 N 
ATOM      6  O   UNL     1       0.922  -0.390  -0.024  1.00  0.00    -0.269 OA
ATOM      7  C   UNL     1       2.133  -0.361  -0.107  1.00  0.00     0.251 C 
ATOM      8  H   UNL     1       2.404   1.022   1.335  1.00  0.00     0.163 HD
BRANCH   7   9
ATOM      9  C   UNL     1       2.863  -1.247  -1.036  1.00  0.00     0.039 A 
ATOM     10  C   UNL     1       3.955  -1.981  -0.564  1.00  0.00     0.014 A 
ATOM     11  C   UNL     1       2.497  -1.279  -2.381  1.00  0.00     0.014 A 
ATOM     12  C   UNL     1       4.753  -2.668  -1.462  1.00  0.00     0.010 A 
ATOM     13  C   UNL     1       3.241  -2.058  -3.266  1.00  0.00     0.010 A 
ATOM     14  C   UNL     1       4.371  -2.757  -2.809  1.00  0.00    -0.014 A 
BRANCH  14  15
ATOM     15  C   UNL     1       5.064  -3.732  -3.679  1.00  0.00     0.031 A 
ATOM     16  C   UNL     1       5.854  -3.292  -4.873  1.00  0.00     0.074 A 
ATOM     17  C   UNL     1       4.937  -5.035  -3.359  1.00  0.00     0.049 A 
ATOM     18  N   UNL     1       6.456  -4.030  -5.768  1.00  0.00    -0.248 NA
ATOM     19  C   UNL     1       5.981  -1.845  -5.102  1.00  0.00     0.031 C 
ATOM     20  C   UNL     1       4.175  -5.546  -2.211  1.00  0.00     0.029 A 
ATOM     21  N   UNL     1       5.431  -6.165  -3.951  1.00  0.00    -0.354 N 
ATOM     22  C   UNL     1       7.009  -3.145  -6.685  1.00  0.00     0.074 A 
ATOM     23  C   UNL     1       6.668  -1.810  -6.238  1.00  0.00     0.031 C 
ATOM     24  C   UNL     1       4.279  -6.880  -2.168  1.00  0.00     0.029 A 
ATOM     25  C   UNL     1       5.024  -7.326  -3.334  1.00  0.00     0.049 A 
ATOM     26  H   UNL     1       6.019  -6.149  -4.740  1.00  0.00     0.167 HD
ATOM     27  C   UNL     1       7.725  -3.437  -7.797  1.00  0.00     0.034 A 
ATOM     28  C   UNL     1       5.181  -8.611  -3.699  1.00  0.00     0.034 A 
ATOM     29  C   UNL     1       8.054  -4.784  -8.200  1.00  0.00     0.049 A 
ATOM     30  C   UNL     1       5.937  -8.895  -4.966  1.00  0.00     0.074 A 
ATOM     31  C   UNL     1       8.845  -5.195  -9.259  1.00  0.00     0.029 A 
ATOM     32  N   UNL     1       7.593  -5.937  -7.578  1.00  0.00    -0.354 N 
ATOM     33  N   UNL     1       6.502  -8.044  -5.792  1.00  0.00    -0.248 NA
ATOM     34  C   UNL     1       6.070 -10.301  -5.356  1.00  0.00     0.031 C 
ATOM     35  C   UNL     1       8.796  -6.591  -9.325  1.00  0.00     0.029 A 
ATOM     36  C   UNL     1       8.036  -7.058  -8.264  1.00  0.00     0.049 A 
ATOM     37  H   UNL     1       7.033  -5.956  -6.769  1.00  0.00     0.167 HD
ATOM     38  C   UNL     1       7.064  -8.818  -6.800  1.00  0.00     0.074 A 
ATOM     39  C   UNL     1       6.799 -10.201  -6.457  1.00  0.00     0.031 C 
ATOM     40  C   UNL     1       7.733  -8.424  -7.913  1.00  0.00     0.034 A 
BRANCH  27  41
ATOM     41  C   UNL     1       8.155  -2.300  -8.690  1.00  0.00     0.023 A 
ATOM     42  C   UNL     1       9.117  -1.356  -8.294  1.00  0.00     0.031 A 
ATOM     43  C   UNL     1       7.615  -2.191  -9.985  1.00  0.00     0.131 A 
ATOM     44  C   UNL     1       9.487  -0.326  -9.174  1.00  0.00     0.055 A 
ATOM     45  C   UNL     1       8.030  -1.199 -10.876  1.00  0.00     0.041 A 
ATOM     46  F   UNL     1       6.678  -3.053 -10.409  1.00  0.00    -0.206 F 
ATOM     47  C   UNL     1       8.968  -0.256 -10.470  1.00  0.00     0.022 A 
BRANCH  44  48
ATOM     48  S   UNL     1      10.603   0.974  -8.576  1.00  0.00     0.124 S 
ATOM     49  O   UNL     1       9.835   1.536  -7.468  1.00  0.00    -0.237 OA
ATOM     50  O   UNL     1      11.796   0.221  -8.208  1.00  0.00    -0.237 OA
ATOM     51  O   UNL     1      10.753   1.856  -9.731  1.00  0.00    -0.744 OA
ENDBRANCH  44  48
ENDBRANCH  27  41
BRANCH  28  52
ATOM     52  C   UNL     1       4.545  -9.703  -2.910  1.00  0.00     0.023 A 
ATOM     53  C   UNL     1       5.317 -10.707  -2.310  1.00  0.00     0.031 A 
ATOM     54  C   UNL     1       3.145  -9.779  -2.776  1.00  0.00     0.131 A 
ATOM     55  C   UNL     1       4.685 -11.771  -1.649  1.00  0.00     0.055 A 
ATOM     56  C   UNL     1       2.525 -10.803  -2.060  1.00  0.00     0.041 A 
ATOM     57  F   UNL     1       2.356  -8.844  -3.330  1.00  0.00    -0.206 F 
ATOM     58  C   UNL     1       3.296 -11.818  -1.506  1.00  0.00     0.022 A 
BRANCH  55  59
ATOM     59  S   UNL     1       5.703 -13.159  -1.080  1.00  0.00     0.124 S 
ATOM     60  O   UNL     1       6.419 -13.522  -2.298  1.00  0.00    -0.237 OA
ATOM     61  O   UNL     1       6.501 -12.536  -0.029  1.00  0.00    -0.237 OA
ATOM     62  O   UNL     1       4.719 -14.135  -0.620  1.00  0.00    -0.744 OA
ENDBRANCH  55  59
ENDBRANCH  28  52
BRANCH  40  63
ATOM     63  C   UNL     1       8.224  -9.521  -8.819  1.00  0.00     0.023 A 
ATOM     64  C   UNL     1       7.327 -10.316  -9.552  1.00  0.00     0.031 A 
ATOM     65  C   UNL     1       9.599  -9.788  -8.933  1.00  0.00     0.131 A 
ATOM     66  C   UNL     1       7.812 -11.377 -10.327  1.00  0.00     0.055 A 
ATOM     67  C   UNL     1      10.080 -10.806  -9.755  1.00  0.00     0.041 A 
ATOM     68  F   UNL     1      10.495  -9.060  -8.248  1.00  0.00    -0.206 F 
ATOM     69  C   UNL     1       9.184 -11.616 -10.448  1.00  0.00     0.022 A 
BRANCH  66  70
ATOM     70  S   UNL     1       6.620 -12.494 -11.114  1.00  0.00     0.124 S 
ATOM     71  O   UNL     1       5.929 -13.059  -9.960  1.00  0.00    -0.237 OA
ATOM     72  O   UNL     1       5.837 -11.584 -11.944  1.00  0.00    -0.237 OA
ATOM     73  O   UNL     1       7.465 -13.431 -11.852  1.00  0.00    -0.744 OA
ENDBRANCH  66  70
ENDBRANCH  40  63
ENDBRANCH  14  15
ENDBRANCH   7   9
ENDBRANCH   4   5
ENDBRANCH   3   4
ENDBRANCH   2   3
ENDBRANCH   1   2
BRANCH   1  74
ATOM     74  C   UNL     1       6.067   1.811   3.448  1.00  0.00     0.021 C 
BRANCH  74  75
ATOM     75  C   UNL     1       6.893   3.075   3.630  1.00  0.00     0.116 C 
BRANCH  75  76
ATOM     76  N   UNL     1       6.992   3.474   5.011  1.00  0.00    -0.356 N 
ATOM     77  C   UNL     1       7.836   4.307   5.650  1.00  0.00     0.224 C 
ATOM     78  H   UNL     1       6.316   3.061   5.596  1.00  0.00     0.163 HD
ATOM     79  O   UNL     1       7.559   4.522   6.843  1.00  0.00    -0.275 OA
BRANCH  77  80
ATOM     80  C   UNL     1       9.109   4.952   5.085  1.00  0.00     0.095 C 
ATOM     81  C   UNL     1      10.269   4.129   5.698  1.00  0.00     0.041 C 
ATOM     82  C   UNL     1       9.444   5.242   3.616  1.00  0.00     0.095 C 
ATOM     83  C   UNL     1      10.476   2.853   4.943  1.00  0.00    -0.030 C 
ATOM     84  C   UNL     1       9.962   4.023   2.796  1.00  0.00     0.041 C 
ATOM     85  C   UNL     1      10.331   2.811   3.612  1.00  0.00    -0.030 C 
BRANCH  82  86
ATOM     86  C   UNL     1       8.745   6.238   2.681  1.00  0.00     0.228 C 
ATOM     87  O   UNL     1       9.406   6.640   1.704  1.00  0.00    -0.274 OA
ATOM     88  N   UNL     1       7.469   6.671   2.658  1.00  0.00    -0.326 N 
ATOM     89  H   UNL     1       7.288   7.225   1.865  1.00  0.00     0.169 HD
BRANCH  88  90
ATOM     90  C   UNL     1       6.342   6.539   3.460  1.00  0.00     0.041 A 
ATOM     91  C   UNL     1       5.144   6.321   2.782  1.00  0.00     0.027 A 
ATOM     92  C   UNL     1       6.322   6.631   4.843  1.00  0.00     0.027 A 
ATOM     93  C   UNL     1       4.007   5.937   3.484  1.00  0.00     0.024 A 
ATOM     94  C   UNL     1       5.167   6.276   5.560  1.00  0.00     0.024 A 
ATOM     95  C   UNL     1       4.039   5.832   4.876  1.00  0.00     0.088 A 
BRANCH  95  96
ATOM     96  S   UNL     1       2.522   5.415   5.687  1.00  0.00     0.264 S 
ATOM     97  O   UNL     1       2.198   6.565   6.508  1.00  0.00    -0.201 OA
ATOM     98  O   UNL     1       1.627   4.997   4.620  1.00  0.00    -0.201 OA
BRANCH  96  99
ATOM     99  N   UNL     1       2.756   3.994   6.736  1.00  0.00    -0.266 N 
ATOM    100  C   UNL     1       3.521   4.278   8.014  1.00  0.00     0.140 C 
ATOM    101  C   UNL     1       1.423   3.695   7.249  1.00  0.00     0.055 A 
ATOM    102  C   UNL     1       2.504   4.865   9.016  1.00  0.00     0.060 C 
ATOM    103  C   UNL     1       1.206   4.409   8.428  1.00  0.00    -0.022 A 
ATOM    104  C   UNL     1       0.383   3.186   6.492  1.00  0.00     0.027 A 
ATOM    105  C   UNL     1      -0.075   4.818   8.759  1.00  0.00     0.006 A 
ATOM    106  C   UNL     1      -0.911   3.576   6.832  1.00  0.00     0.002 A 
ATOM    107  C   UNL     1      -1.131   4.428   7.926  1.00  0.00     0.000 A 
ENDBRANCH  96  99
ENDBRANCH  95  96
ENDBRANCH  88  90
ENDBRANCH  82  86
ENDBRANCH  77  80
ENDBRANCH  75  76
ENDBRANCH  74  75
ENDBRANCH   1  74
TORSDOF 20
