REMARK SMILES O=C(/C=C\c1ccc(OCc2ccc(Br)cc2)cc1)NCCCCCCNC(=O)c1ccc(-c2c3nc(c(-c4cc(S(=O)(=O)[O-])ccc4F)c4ccc([nH]4)c(-c4cc(S(=O)(=O)[O-])ccc4F)c4nc(c(-c5cc(S(=O)(=O)[O-])ccc5F)c5ccc2[nH]5)C=C4)C=C3)cc1
REMARK SMILES IDX 23 1 22 2 21 3 20 4 1 5 2 6 3 8 4 9 5 10 6 11 19 12 7 13
REMARK SMILES IDX 18 14 8 15 9 16 10 17 11 18 12 19 17 20 13 21 16 22 14 23
REMARK SMILES IDX 15 24 24 25 25 26 26 27 27 28 28 29 29 31 30 32 31 33 92 34
REMARK SMILES IDX 32 35 91 36 33 37 34 38 35 39 85 40 36 41 90 42 84 43 86 44
REMARK SMILES IDX 37 45 89 46 83 47 82 48 38 50 70 51 50 52 69 53 51 54 54 55
REMARK SMILES IDX 68 56 87 57 52 58 53 59 67 61 88 62 55 63 39 64 40 65 48 66
REMARK SMILES IDX 41 67 47 68 49 69 46 70 42 71 43 72 44 73 45 74 71 75 72 76
REMARK SMILES IDX 80 77 73 78 79 79 81 80 78 81 74 82 75 83 76 84 77 85 56 86
REMARK SMILES IDX 57 87 65 88 58 89 64 90 66 91 63 92 59 93 60 94 61 95 62 96
REMARK H PARENT 20 7 27 30 86 49 54 60
REMARK Flexibility Score: inf
ROOT
ATOM      1  C   UNL     1       3.108  -0.481   3.122  1.00  0.00     0.002 C 
ENDROOT
BRANCH   1   2
ATOM      2  C   UNL     1       1.659  -0.353   2.638  1.00  0.00     0.021 C 
BRANCH   2   3
ATOM      3  C   UNL     1       1.450   0.774   1.627  1.00  0.00     0.116 C 
BRANCH   3   4
ATOM      4  N   UNL     1       2.393   0.670   0.525  1.00  0.00    -0.353 N 
ATOM      5  O   UNL     1       1.115  -0.776  -0.705  1.00  0.00    -0.270 OA
ATOM      6  C   UNL     1       2.175  -0.188  -0.513  1.00  0.00     0.243 C 
ATOM      7  H   UNL     1       3.204   1.228   0.528  1.00  0.00     0.163 HD
BRANCH   6   8
ATOM      8  C   UNL     1       3.273  -0.352  -1.499  1.00  0.00     0.072 C 
ATOM      9  C   UNL     1       4.611  -0.388  -1.382  1.00  0.00     0.014 C 
BRANCH   9  10
ATOM     10  C   UNL     1       5.463  -0.248  -0.199  1.00  0.00    -0.025 A 
ATOM     11  C   UNL     1       6.255   0.896  -0.069  1.00  0.00     0.012 A 
ATOM     12  C   UNL     1       5.554  -1.246   0.776  1.00  0.00     0.012 A 
ATOM     13  C   UNL     1       7.039   1.087   1.071  1.00  0.00     0.047 A 
ATOM     14  C   UNL     1       6.334  -1.048   1.928  1.00  0.00     0.047 A 
ATOM     15  C   UNL     1       7.029   0.147   2.101  1.00  0.00     0.119 A 
BRANCH  15  16
ATOM     16  O   UNL     1       7.702   0.524   3.230  1.00  0.00    -0.489 OA
BRANCH  16  17
ATOM     17  C   UNL     1       7.164   0.101   4.488  1.00  0.00     0.265 C 
BRANCH  17  18
ATOM     18  C   UNL     1       5.751   0.569   4.747  1.00  0.00    -0.011 A 
ATOM     19  C   UNL     1       4.496  -0.632   5.217  1.00  0.00     0.008 A 
ATOM     20  C   UNL     1       5.288   2.306   4.516  1.00  0.00     0.008 A 
ATOM     21  C   UNL     1       2.772  -0.089   5.512  1.00  0.00     0.016 A 
ATOM     22  C   UNL     1       3.598   2.837   4.810  1.00  0.00     0.016 A 
ATOM     23  C   UNL     1       2.327   1.632   5.265  1.00  0.00     0.017 A 
ATOM     24  Br  UNL     1       0.547   2.200   5.520  1.00  0.00    -0.051 Br
ENDBRANCH  17  18
ENDBRANCH  16  17
ENDBRANCH  15  16
ENDBRANCH   9  10
ENDBRANCH   6   8
ENDBRANCH   3   4
ENDBRANCH   2   3
ENDBRANCH   1   2
BRANCH   1  25
ATOM     25  C   UNL     1       3.795   0.863   3.974  1.00  0.00     0.002 C 
BRANCH  25  26
ATOM     26  C   UNL     1       4.256   1.246   6.073  1.00  0.00     0.021 C 
BRANCH  26  27
ATOM     27  C   UNL     1       4.445   0.267   7.436  1.00  0.00     0.116 C 
BRANCH  27  28
ATOM     28  N   UNL     1       5.847   0.063   7.813  1.00  0.00    -0.352 N 
ATOM     29  C   UNL     1       6.423   0.335   9.030  1.00  0.00     0.251 C 
ATOM     30  H   UNL     1       6.439  -0.309   7.120  1.00  0.00     0.163 HD
ATOM     31  O   UNL     1       7.639   0.381   9.162  1.00  0.00    -0.269 OA
BRANCH  29  32
ATOM     32  C   UNL     1       5.505   0.588  10.156  1.00  0.00     0.039 A 
ATOM     33  C   UNL     1       5.650   1.737  10.930  1.00  0.00     0.014 A 
ATOM     34  C   UNL     1       4.403  -0.258  10.315  1.00  0.00     0.014 A 
ATOM     35  C   UNL     1       4.656   2.049  11.854  1.00  0.00     0.010 A 
ATOM     36  C   UNL     1       3.347   0.146  11.110  1.00  0.00     0.010 A 
ATOM     37  C   UNL     1       3.487   1.270  11.932  1.00  0.00    -0.014 A 
BRANCH  37  38
ATOM     38  C   UNL     1       2.437   1.554  12.937  1.00  0.00     0.031 A 
ATOM     39  C   UNL     1       2.107   0.499  13.962  1.00  0.00     0.074 A 
ATOM     40  C   UNL     1       1.781   2.729  12.911  1.00  0.00     0.049 A 
ATOM     41  N   UNL     1       1.232   0.532  14.932  1.00  0.00    -0.248 NA
ATOM     42  C   UNL     1       2.825  -0.782  13.855  1.00  0.00     0.031 C 
ATOM     43  C   UNL     1       1.991   3.794  11.927  1.00  0.00     0.029 A 
ATOM     44  N   UNL     1       0.822   3.236  13.747  1.00  0.00    -0.354 N 
ATOM     45  C   UNL     1       1.287  -0.724  15.528  1.00  0.00     0.074 A 
ATOM     46  C   UNL     1       2.197  -1.526  14.747  1.00  0.00     0.031 C 
ATOM     47  C   UNL     1       1.242   4.856  12.263  1.00  0.00     0.029 A 
ATOM     48  C   UNL     1       0.458   4.529  13.449  1.00  0.00     0.049 A 
ATOM     49  H   UNL     1       0.430   2.724  14.491  1.00  0.00     0.167 HD
ATOM     50  C   UNL     1       0.668  -1.156  16.653  1.00  0.00     0.034 A 
ATOM     51  C   UNL     1      -0.406   5.353  14.074  1.00  0.00     0.034 A 
ATOM     52  C   UNL     1      -0.220  -0.324  17.421  1.00  0.00     0.049 A 
ATOM     53  C   UNL     1      -1.114   4.841  15.303  1.00  0.00     0.074 A 
ATOM     54  C   UNL     1      -0.869  -0.618  18.605  1.00  0.00     0.029 A 
ATOM     55  N   UNL     1      -0.595   0.968  17.069  1.00  0.00    -0.354 N 
ATOM     56  N   UNL     1      -1.002   3.673  15.898  1.00  0.00    -0.248 NA
ATOM     57  C   UNL     1      -2.056   5.760  15.951  1.00  0.00     0.031 C 
ATOM     58  C   UNL     1      -1.708   0.456  18.916  1.00  0.00     0.029 A 
ATOM     59  C   UNL     1      -1.504   1.465  17.987  1.00  0.00     0.049 A 
ATOM     60  H   UNL     1      -0.262   1.457  16.282  1.00  0.00     0.167 HD
ATOM     61  C   UNL     1      -1.834   3.733  17.012  1.00  0.00     0.074 A 
ATOM     62  C   UNL     1      -2.424   5.058  17.012  1.00  0.00     0.031 C 
ATOM     63  C   UNL     1      -2.087   2.787  17.953  1.00  0.00     0.034 A 
BRANCH  50  64
ATOM     64  C   UNL     1       0.910  -2.588  17.074  1.00  0.00     0.023 A 
ATOM     65  C   UNL     1       2.202  -3.076  17.350  1.00  0.00     0.031 A 
ATOM     66  C   UNL     1      -0.157  -3.501  17.130  1.00  0.00     0.131 A 
ATOM     67  C   UNL     1       2.404  -4.449  17.561  1.00  0.00     0.055 A 
ATOM     68  C   UNL     1       0.038  -4.847  17.446  1.00  0.00     0.041 A 
ATOM     69  F   UNL     1      -1.409  -3.107  16.848  1.00  0.00    -0.206 F 
ATOM     70  C   UNL     1       1.327  -5.333  17.642  1.00  0.00     0.022 A 
BRANCH  67  71
ATOM     71  S   UNL     1       4.103  -5.088  17.525  1.00  0.00     0.124 S 
ATOM     72  O   UNL     1       4.555  -4.650  16.206  1.00  0.00    -0.237 OA
ATOM     73  O   UNL     1       4.716  -4.420  18.666  1.00  0.00    -0.237 OA
ATOM     74  O   UNL     1       3.928  -6.533  17.666  1.00  0.00    -0.744 OA
ENDBRANCH  67  71
ENDBRANCH  50  64
BRANCH  51  75
ATOM     75  C   UNL     1      -0.632   6.740  13.574  1.00  0.00     0.023 A 
ATOM     76  C   UNL     1      -0.318   7.853  14.372  1.00  0.00     0.031 A 
ATOM     77  C   UNL     1      -1.199   6.979  12.310  1.00  0.00     0.131 A 
ATOM     78  C   UNL     1      -0.617   9.148  13.919  1.00  0.00     0.055 A 
ATOM     79  C   UNL     1      -1.436   8.271  11.837  1.00  0.00     0.041 A 
ATOM     80  F   UNL     1      -1.520   5.954  11.504  1.00  0.00    -0.206 F 
ATOM     81  C   UNL     1      -1.157   9.365  12.650  1.00  0.00     0.022 A 
BRANCH  78  82
ATOM     82  S   UNL     1      -0.381  10.541  15.057  1.00  0.00     0.124 S 
ATOM     83  O   UNL     1      -1.229  10.153  16.178  1.00  0.00    -0.237 OA
ATOM     84  O   UNL     1       1.058  10.499  15.294  1.00  0.00    -0.237 OA
ATOM     85  O   UNL     1      -0.851  11.691  14.287  1.00  0.00    -0.744 OA
ENDBRANCH  78  82
ENDBRANCH  51  75
BRANCH  63  86
ATOM     86  C   UNL     1      -3.010   3.175  19.083  1.00  0.00     0.023 A 
ATOM     87  C   UNL     1      -4.360   3.492  18.860  1.00  0.00     0.031 A 
ATOM     88  C   UNL     1      -2.523   3.236  20.401  1.00  0.00     0.131 A 
ATOM     89  C   UNL     1      -5.158   3.926  19.928  1.00  0.00     0.055 A 
ATOM     90  C   UNL     1      -3.345   3.587  21.472  1.00  0.00     0.041 A 
ATOM     91  F   UNL     1      -1.240   2.949  20.672  1.00  0.00    -0.206 F 
ATOM     92  C   UNL     1      -4.667   3.952  21.235  1.00  0.00     0.022 A 
BRANCH  89  93
ATOM     93  S   UNL     1      -6.809   4.580  19.563  1.00  0.00     0.124 S 
ATOM     94  O   UNL     1      -6.507   5.660  18.630  1.00  0.00    -0.237 OA
ATOM     95  O   UNL     1      -7.487   3.419  18.996  1.00  0.00    -0.237 OA
ATOM     96  O   UNL     1      -7.303   5.009  20.870  1.00  0.00    -0.744 OA
ENDBRANCH  89  93
ENDBRANCH  63  86
ENDBRANCH  37  38
ENDBRANCH  29  32
ENDBRANCH  27  28
ENDBRANCH  26  27
ENDBRANCH  25  26
ENDBRANCH   1  25
TORSDOF 20
