REMARK SMILES O=C(CC1CC[NH+](C[C@@H]2Cc3ccccc32)CC1)NCCCCCCNC(=O)c1ccc(-c2c3nc(c(-c4cc(S(=O)(=O)[O-])ccc4F)c4ccc([nH]4)c(-c4cc(S(=O)(=O)[O-])ccc4F)c4nc(c(-c5cc(S(=O)(=O)[O-])ccc5F)c5ccc2[nH]5)C=C4)C=C3)cc1
REMARK SMILES IDX 22 1 21 2 20 3 19 4 1 5 2 6 3 8 4 9 5 10 18 11 6 12 17 13
REMARK SMILES IDX 7 14 8 16 9 17 10 18 16 19 11 20 15 21 12 22 14 23 13 24
REMARK SMILES IDX 23 25 24 26 25 27 26 28 27 29 28 31 29 32 30 33 91 34 31 35
REMARK SMILES IDX 90 36 32 37 33 38 34 39 84 40 35 41 89 42 83 43 85 44 36 45
REMARK SMILES IDX 88 46 82 47 81 48 37 50 69 51 49 52 68 53 50 54 53 55 67 56
REMARK SMILES IDX 86 57 51 58 52 59 66 61 87 62 54 63 38 64 39 65 47 66 40 67
REMARK SMILES IDX 46 68 48 69 45 70 41 71 42 72 43 73 44 74 70 75 71 76 79 77
REMARK SMILES IDX 72 78 78 79 80 80 77 81 73 82 74 83 75 84 76 85 55 86 56 87
REMARK SMILES IDX 64 88 57 89 63 90 65 91 62 92 58 93 59 94 60 95 61 96
REMARK H PARENT 19 7 7 15 26 30 85 49 53 60
REMARK Flexibility Score: inf
ROOT
ATOM      1  C   UNL     1      -6.073  -0.407   5.764  1.00  0.00     0.002 C 
ENDROOT
BRANCH   1   2
ATOM      2  C   UNL     1      -4.749   0.296   5.434  1.00  0.00     0.021 C 
BRANCH   2   3
ATOM      3  C   UNL     1      -3.527  -0.620   5.469  1.00  0.00     0.116 C 
BRANCH   3   4
ATOM      4  N   UNL     1      -3.674  -1.712   4.529  1.00  0.00    -0.356 N 
ATOM      5  O   UNL     1      -1.861  -1.164   3.243  1.00  0.00    -0.275 OA
ATOM      6  C   UNL     1      -2.827  -1.887   3.465  1.00  0.00     0.220 C 
ATOM      7  H   UNL     1      -4.409  -2.353   4.659  1.00  0.00     0.163 HD
BRANCH   6   8
ATOM      8  C   UNL     1      -3.220  -3.009   2.524  1.00  0.00     0.104 C 
BRANCH   8   9
ATOM      9  C   UNL     1      -3.466  -4.393   3.164  1.00  0.00     0.009 C 
ATOM     10  C   UNL     1      -2.404  -4.820   4.185  1.00  0.00     0.066 C 
ATOM     11  C   UNL     1      -3.516  -5.489   2.085  1.00  0.00     0.066 C 
ATOM     12  C   UNL     1      -1.039  -4.993   3.523  1.00  0.00     0.262 C 
ATOM     13  C   UNL     1      -2.141  -5.739   1.447  1.00  0.00     0.262 C 
ATOM     14  N   UNL     1      -1.073  -5.951   2.423  1.00  0.00    -0.334 N 
ATOM     15  H   UNL     1      -1.347  -6.821   2.880  1.00  0.00     0.348 HD
BRANCH  14  16
ATOM     16  C   UNL     1       0.247  -6.262   1.836  1.00  0.00     0.270 C 
BRANCH  16  17
ATOM     17  C   UNL     1       1.131  -5.175   1.182  1.00  0.00     0.079 C 
ATOM     18  C   UNL     1       1.611  -3.906   1.984  1.00  0.00     0.050 C 
ATOM     19  C   UNL     1       0.489  -4.197   0.231  1.00  0.00    -0.036 A 
ATOM     20  C   UNL     1       0.771  -3.111   1.026  1.00  0.00    -0.043 A 
ATOM     21  C   UNL     1      -0.207  -4.074  -0.950  1.00  0.00     0.004 A 
ATOM     22  C   UNL     1       0.292  -1.855   0.741  1.00  0.00     0.004 A 
ATOM     23  C   UNL     1      -0.700  -2.806  -1.273  1.00  0.00     0.000 A 
ATOM     24  C   UNL     1      -0.468  -1.708  -0.422  1.00  0.00     0.000 A 
ENDBRANCH  16  17
ENDBRANCH  14  16
ENDBRANCH   8   9
ENDBRANCH   6   8
ENDBRANCH   3   4
ENDBRANCH   2   3
ENDBRANCH   1   2
BRANCH   1  25
ATOM     25  C   UNL     1      -6.112  -1.118   7.120  1.00  0.00     0.002 C 
BRANCH  25  26
ATOM     26  C   UNL     1      -5.822  -0.225   8.328  1.00  0.00     0.021 C 
BRANCH  26  27
ATOM     27  C   UNL     1      -6.750   0.978   8.472  1.00  0.00     0.116 C 
BRANCH  27  28
ATOM     28  N   UNL     1      -8.137   0.584   8.671  1.00  0.00    -0.352 N 
ATOM     29  C   UNL     1      -9.011   0.948   9.667  1.00  0.00     0.251 C 
ATOM     30  H   UNL     1      -8.502  -0.031   7.995  1.00  0.00     0.163 HD
ATOM     31  O   UNL     1     -10.089   0.371   9.773  1.00  0.00    -0.269 OA
BRANCH  29  32
ATOM     32  C   UNL     1      -8.632   2.009  10.626  1.00  0.00     0.039 A 
ATOM     33  C   UNL     1      -8.836   1.792  11.991  1.00  0.00     0.014 A 
ATOM     34  C   UNL     1      -8.059   3.205  10.182  1.00  0.00     0.014 A 
ATOM     35  C   UNL     1      -8.389   2.739  12.916  1.00  0.00     0.010 A 
ATOM     36  C   UNL     1      -7.551   4.113  11.108  1.00  0.00     0.010 A 
ATOM     37  C   UNL     1      -7.701   3.884  12.485  1.00  0.00    -0.014 A 
BRANCH  37  38
ATOM     38  C   UNL     1      -7.101   4.835  13.458  1.00  0.00     0.031 A 
ATOM     39  C   UNL     1      -7.575   6.260  13.521  1.00  0.00     0.074 A 
ATOM     40  C   UNL     1      -6.071   4.432  14.229  1.00  0.00     0.049 A 
ATOM     41  N   UNL     1      -7.114   7.256  14.233  1.00  0.00    -0.248 NA
ATOM     42  C   UNL     1      -8.699   6.615  12.643  1.00  0.00     0.031 C 
ATOM     43  C   UNL     1      -5.490   3.088  14.223  1.00  0.00     0.029 A 
ATOM     44  N   UNL     1      -5.317   5.114  15.151  1.00  0.00    -0.354 N 
ATOM     45  C   UNL     1      -7.888   8.359  13.888  1.00  0.00     0.074 A 
ATOM     46  C   UNL     1      -8.799   7.919  12.851  1.00  0.00     0.031 C 
ATOM     47  C   UNL     1      -4.479   3.042  15.104  1.00  0.00     0.029 A 
ATOM     48  C   UNL     1      -4.305   4.362  15.700  1.00  0.00     0.049 A 
ATOM     49  H   UNL     1      -5.485   6.053  15.396  1.00  0.00     0.167 HD
ATOM     50  C   UNL     1      -7.858   9.613  14.405  1.00  0.00     0.034 A 
ATOM     51  C   UNL     1      -3.328   4.701  16.566  1.00  0.00     0.034 A 
ATOM     52  C   UNL     1      -6.933  10.035  15.431  1.00  0.00     0.049 A 
ATOM     53  C   UNL     1      -3.279   6.111  17.094  1.00  0.00     0.074 A 
ATOM     54  C   UNL     1      -6.848  11.263  16.064  1.00  0.00     0.029 A 
ATOM     55  N   UNL     1      -5.919   9.247  15.964  1.00  0.00    -0.354 N 
ATOM     56  N   UNL     1      -4.057   7.128  16.805  1.00  0.00    -0.248 NA
ATOM     57  C   UNL     1      -2.227   6.416  18.072  1.00  0.00     0.031 C 
ATOM     58  C   UNL     1      -5.738  11.242  16.918  1.00  0.00     0.029 A 
ATOM     59  C   UNL     1      -5.179   9.975  16.884  1.00  0.00     0.049 A 
ATOM     60  H   UNL     1      -5.750   8.307  15.722  1.00  0.00     0.167 HD
ATOM     61  C   UNL     1      -3.599   8.190  17.579  1.00  0.00     0.074 A 
ATOM     62  C   UNL     1      -2.490   7.682  18.362  1.00  0.00     0.031 C 
ATOM     63  C   UNL     1      -4.056   9.467  17.640  1.00  0.00     0.034 A 
BRANCH  50  64
ATOM     64  C   UNL     1      -8.837  10.617  13.839  1.00  0.00     0.023 A 
ATOM     65  C   UNL     1     -10.227  10.414  13.918  1.00  0.00     0.031 A 
ATOM     66  C   UNL     1      -8.382  11.765  13.169  1.00  0.00     0.131 A 
ATOM     67  C   UNL     1     -11.104  11.286  13.256  1.00  0.00     0.055 A 
ATOM     68  C   UNL     1      -9.265  12.682  12.592  1.00  0.00     0.041 A 
ATOM     69  F   UNL     1      -7.068  12.008  13.041  1.00  0.00    -0.206 F 
ATOM     70  C   UNL     1     -10.634  12.434  12.615  1.00  0.00     0.022 A 
BRANCH  67  71
ATOM     71  S   UNL     1     -12.844  10.799  13.092  1.00  0.00     0.124 S 
ATOM     72  O   UNL     1     -12.726   9.498  12.436  1.00  0.00    -0.237 OA
ATOM     73  O   UNL     1     -13.297  10.778  14.477  1.00  0.00    -0.237 OA
ATOM     74  O   UNL     1     -13.418  11.856  12.261  1.00  0.00    -0.744 OA
ENDBRANCH  67  71
ENDBRANCH  50  64
BRANCH  51  75
ATOM     75  C   UNL     1      -2.298   3.696  16.957  1.00  0.00     0.023 A 
ATOM     76  C   UNL     1      -2.202   3.224  18.274  1.00  0.00     0.031 A 
ATOM     77  C   UNL     1      -1.383   3.201  16.009  1.00  0.00     0.131 A 
ATOM     78  C   UNL     1      -1.192   2.310  18.617  1.00  0.00     0.055 A 
ATOM     79  C   UNL     1      -0.413   2.255  16.343  1.00  0.00     0.041 A 
ATOM     80  F   UNL     1      -1.435   3.616  14.733  1.00  0.00    -0.206 F 
ATOM     81  C   UNL     1      -0.307   1.812  17.657  1.00  0.00     0.022 A 
BRANCH  78  82
ATOM     82  S   UNL     1      -1.007   1.828  20.356  1.00  0.00     0.124 S 
ATOM     83  O   UNL     1      -0.761   3.115  20.996  1.00  0.00    -0.237 OA
ATOM     84  O   UNL     1      -2.297   1.207  20.637  1.00  0.00    -0.237 OA
ATOM     85  O   UNL     1       0.132   0.913  20.336  1.00  0.00    -0.744 OA
ENDBRANCH  78  82
ENDBRANCH  51  75
BRANCH  63  86
ATOM     86  C   UNL     1      -3.367  10.397  18.611  1.00  0.00     0.023 A 
ATOM     87  C   UNL     1      -2.032  10.800  18.429  1.00  0.00     0.031 A 
ATOM     88  C   UNL     1      -4.056  10.883  19.736  1.00  0.00     0.131 A 
ATOM     89  C   UNL     1      -1.413  11.621  19.384  1.00  0.00     0.055 A 
ATOM     90  C   UNL     1      -3.454  11.750  20.650  1.00  0.00     0.041 A 
ATOM     91  F   UNL     1      -5.331  10.527  19.964  1.00  0.00    -0.206 F 
ATOM     92  C   UNL     1      -2.122  12.114  20.483  1.00  0.00     0.022 A 
BRANCH  89  93
ATOM     93  S   UNL     1       0.359  11.971  19.217  1.00  0.00     0.124 S 
ATOM     94  O   UNL     1       0.936  10.631  19.262  1.00  0.00    -0.237 OA
ATOM     95  O   UNL     1       0.424  12.651  17.928  1.00  0.00    -0.237 OA
ATOM     96  O   UNL     1       0.653  12.811  20.377  1.00  0.00    -0.744 OA
ENDBRANCH  89  93
ENDBRANCH  63  86
ENDBRANCH  37  38
ENDBRANCH  29  32
ENDBRANCH  27  28
ENDBRANCH  26  27
ENDBRANCH  25  26
ENDBRANCH   1  25
TORSDOF 19
