REMARK SMILES Cc1ccc(C(=O)N2CCC(CC(=O)NCCCCCCNC(=O)c3ccc(-c4c5nc(c(-c6cc(S(=O)(=O)[O-])ccc6F)c6ccc([nH]6)c(-c6cc(S(=O)(=O)[O-])ccc6F)c6nc(c(-c7cc(S(=O)(=O)[O-])ccc7F)c7ccc4[nH]7)C=C6)C=C5)cc3)CC2)cn1
REMARK SMILES IDX 19 1 18 2 17 3 16 4 15 5 13 6 14 7 12 9 11 10 6 11 7 12 8 13
REMARK SMILES IDX 9 14 89 15 10 16 88 17 5 18 1 19 2 20 3 21 91 22 4 23 90 24
REMARK SMILES IDX 20 25 21 26 22 27 23 28 24 30 25 31 26 32 87 33 27 34 86 35
REMARK SMILES IDX 28 36 29 37 30 38 80 39 31 40 85 41 79 42 81 43 32 44 84 45
REMARK SMILES IDX 78 46 77 47 33 49 65 50 45 51 64 52 46 53 49 54 63 55 82 56
REMARK SMILES IDX 47 57 48 58 62 60 83 61 50 62 34 63 35 64 43 65 36 66 42 67
REMARK SMILES IDX 44 68 41 69 37 70 38 71 39 72 40 73 66 74 67 75 75 76 68 77
REMARK SMILES IDX 74 78 76 79 73 80 69 81 70 82 71 83 72 84 51 85 52 86 60 87
REMARK SMILES IDX 53 88 59 89 61 90 58 91 54 92 55 93 56 94 57 95
REMARK H PARENT 15 8 22 29 81 48 49 59
REMARK Flexibility Score: inf
ROOT
ATOM      1  C   UNL     1      -8.848   0.823  -5.128  1.00  0.00     0.002 C 
ENDROOT
BRANCH   1   2
ATOM      2  C   UNL     1      -8.241  -0.563  -4.912  1.00  0.00     0.002 C 
BRANCH   2   3
ATOM      3  C   UNL     1      -7.610  -0.783  -3.539  1.00  0.00     0.021 C 
BRANCH   3   4
ATOM      4  C   UNL     1      -8.605  -0.861  -2.375  1.00  0.00     0.116 C 
BRANCH   4   5
ATOM      5  N   UNL     1      -8.959  -2.244  -2.087  1.00  0.00    -0.356 N 
ATOM      6  C   UNL     1      -8.630  -3.043  -1.032  1.00  0.00     0.220 C 
ATOM      7  O   UNL     1      -8.970  -4.228  -1.069  1.00  0.00    -0.275 OA
ATOM      8  H   UNL     1      -9.530  -2.672  -2.765  1.00  0.00     0.163 HD
BRANCH   6   9
ATOM      9  C   UNL     1      -7.868  -2.493   0.163  1.00  0.00     0.103 C 
BRANCH   9  10
ATOM     10  C   UNL     1      -6.342  -2.695   0.087  1.00  0.00     0.002 C 
ATOM     11  C   UNL     1      -3.133  -0.276   0.319  1.00  0.00     0.255 C 
ATOM     12  O   UNL     1      -3.814   0.736   0.423  1.00  0.00    -0.269 OA
ATOM     13  N   UNL     1      -3.676  -1.540   0.176  1.00  0.00    -0.339 N 
ATOM     14  C   UNL     1      -4.218  -1.919  -1.107  1.00  0.00     0.120 C 
ATOM     15  C   UNL     1      -4.155  -2.274   1.332  1.00  0.00     0.120 C 
ATOM     16  C   UNL     1      -5.734  -1.907  -1.076  1.00  0.00     0.026 C 
ATOM     17  C   UNL     1      -5.681  -2.276   1.415  1.00  0.00     0.026 C 
BRANCH  11  18
ATOM     18  C   UNL     1      -1.650  -0.233   0.265  1.00  0.00     0.058 A 
ATOM     19  C   UNL     1       2.580   0.105   0.006  1.00  0.00     0.066 C 
ATOM     20  C   UNL     1       1.093  -0.043   0.115  1.00  0.00     0.037 A 
ATOM     21  C   UNL     1       0.506  -1.301   0.082  1.00  0.00     0.024 A 
ATOM     22  N   UNL     1       0.367   1.096   0.224  1.00  0.00    -0.261 NA
ATOM     23  C   UNL     1      -0.880  -1.395   0.162  1.00  0.00     0.017 A 
ATOM     24  C   UNL     1      -0.985   0.982   0.291  1.00  0.00     0.125 A 
ENDBRANCH  11  18
ENDBRANCH   9  10
ENDBRANCH   6   9
ENDBRANCH   4   5
ENDBRANCH   3   4
ENDBRANCH   2   3
ENDBRANCH   1   2
BRANCH   1  25
ATOM     25  C   UNL     1      -7.905   2.004  -4.874  1.00  0.00     0.021 C 
BRANCH  25  26
ATOM     26  C   UNL     1      -6.583   1.960  -5.638  1.00  0.00     0.116 C 
BRANCH  26  27
ATOM     27  N   UNL     1      -6.789   1.940  -7.077  1.00  0.00    -0.352 N 
ATOM     28  C   UNL     1      -6.427   2.867  -8.024  1.00  0.00     0.251 C 
ATOM     29  H   UNL     1      -7.257   1.146  -7.423  1.00  0.00     0.163 HD
ATOM     30  O   UNL     1      -6.902   2.801  -9.150  1.00  0.00    -0.269 OA
BRANCH  28  31
ATOM     31  C   UNL     1      -5.474   3.945  -7.675  1.00  0.00     0.039 A 
ATOM     32  C   UNL     1      -5.740   5.249  -8.099  1.00  0.00     0.014 A 
ATOM     33  C   UNL     1      -4.308   3.664  -6.957  1.00  0.00     0.014 A 
ATOM     34  C   UNL     1      -4.859   6.280  -7.762  1.00  0.00     0.010 A 
ATOM     35  C   UNL     1      -3.468   4.703  -6.564  1.00  0.00     0.010 A 
ATOM     36  C   UNL     1      -3.728   6.020  -6.971  1.00  0.00    -0.014 A 
BRANCH  36  37
ATOM     37  C   UNL     1      -2.786   7.106  -6.589  1.00  0.00     0.031 A 
ATOM     38  C   UNL     1      -1.367   7.077  -7.093  1.00  0.00     0.074 A 
ATOM     39  C   UNL     1      -3.190   8.086  -5.757  1.00  0.00     0.049 A 
ATOM     40  N   UNL     1      -0.371   7.878  -6.814  1.00  0.00    -0.248 NA
ATOM     41  C   UNL     1      -1.018   5.984  -8.013  1.00  0.00     0.031 C 
ATOM     42  C   UNL     1      -4.532   8.207  -5.183  1.00  0.00     0.029 A 
ATOM     43  N   UNL     1      -2.513   9.163  -5.241  1.00  0.00    -0.354 N 
ATOM     44  C   UNL     1       0.724   7.381  -7.515  1.00  0.00     0.074 A 
ATOM     45  C   UNL     1       0.282   6.173  -8.178  1.00  0.00     0.031 C 
ATOM     46  C   UNL     1      -4.585   9.308  -4.416  1.00  0.00     0.029 A 
ATOM     47  C   UNL     1      -3.273   9.946  -4.402  1.00  0.00     0.049 A 
ATOM     48  H   UNL     1      -1.571   9.357  -5.452  1.00  0.00     0.167 HD
ATOM     49  C   UNL     1       1.974   7.899  -7.617  1.00  0.00     0.034 A 
ATOM     50  C   UNL     1      -2.944  11.045  -3.694  1.00  0.00     0.034 A 
ATOM     51  C   UNL     1       2.395   9.110  -6.956  1.00  0.00     0.049 A 
ATOM     52  C   UNL     1      -1.535  11.579  -3.793  1.00  0.00     0.074 A 
ATOM     53  C   UNL     1       3.626   9.740  -7.013  1.00  0.00     0.029 A 
ATOM     54  N   UNL     1       1.598   9.874  -6.113  1.00  0.00    -0.354 N 
ATOM     55  N   UNL     1      -0.521  11.116  -4.488  1.00  0.00    -0.248 NA
ATOM     56  C   UNL     1      -1.231  12.792  -3.022  1.00  0.00     0.031 C 
ATOM     57  C   UNL     1       3.593  10.848  -6.159  1.00  0.00     0.029 A 
ATOM     58  C   UNL     1       2.318  10.956  -5.628  1.00  0.00     0.049 A 
ATOM     59  H   UNL     1       0.659   9.677  -5.892  1.00  0.00     0.167 HD
ATOM     60  C   UNL     1       0.527  12.006  -4.268  1.00  0.00     0.074 A 
ATOM     61  C   UNL     1       0.018  13.038  -3.388  1.00  0.00     0.031 C 
ATOM     62  C   UNL     1       1.794  11.979  -4.753  1.00  0.00     0.034 A 
BRANCH  49  63
ATOM     63  C   UNL     1       2.973   7.140  -8.459  1.00  0.00     0.023 A 
ATOM     64  C   UNL     1       2.781   6.953  -9.839  1.00  0.00     0.031 A 
ATOM     65  C   UNL     1       4.121   6.578  -7.873  1.00  0.00     0.131 A 
ATOM     66  C   UNL     1       3.679   6.162 -10.572  1.00  0.00     0.055 A 
ATOM     67  C   UNL     1       5.056   5.863  -8.625  1.00  0.00     0.041 A 
ATOM     68  F   UNL     1       4.350   6.705  -6.557  1.00  0.00    -0.206 F 
ATOM     69  C   UNL     1       4.830   5.638  -9.980  1.00  0.00     0.022 A 
BRANCH  66  70
ATOM     70  S   UNL     1       3.247   5.713 -12.275  1.00  0.00     0.124 S 
ATOM     71  O   UNL     1       1.989   4.996 -12.080  1.00  0.00    -0.237 OA
ATOM     72  O   UNL     1       3.148   7.012 -12.930  1.00  0.00    -0.237 OA
ATOM     73  O   UNL     1       4.370   4.881 -12.705  1.00  0.00    -0.744 OA
ENDBRANCH  66  70
ENDBRANCH  49  63
BRANCH  50  74
ATOM     74  C   UNL     1      -3.949  11.720  -2.822  1.00  0.00     0.023 A 
ATOM     75  C   UNL     1      -4.350  13.042  -3.073  1.00  0.00     0.031 A 
ATOM     76  C   UNL     1      -4.476  11.078  -1.687  1.00  0.00     0.131 A 
ATOM     77  C   UNL     1      -5.200  13.701  -2.172  1.00  0.00     0.055 A 
ATOM     78  C   UNL     1      -5.370  11.717  -0.825  1.00  0.00     0.041 A 
ATOM     79  F   UNL     1      -4.130   9.813  -1.399  1.00  0.00    -0.206 F 
ATOM     80  C   UNL     1      -5.723  13.043  -1.056  1.00  0.00     0.022 A 
BRANCH  77  81
ATOM     81  S   UNL     1      -5.526  15.468  -2.420  1.00  0.00     0.124 S 
ATOM     82  O   UNL     1      -4.176  16.021  -2.423  1.00  0.00    -0.237 OA
ATOM     83  O   UNL     1      -6.223  15.470  -3.701  1.00  0.00    -0.237 OA
ATOM     84  O   UNL     1      -6.346  15.828  -1.265  1.00  0.00    -0.744 OA
ENDBRANCH  77  81
ENDBRANCH  50  74
BRANCH  62  85
ATOM     85  C   UNL     1       2.694  13.136  -4.393  1.00  0.00     0.023 A 
ATOM     86  C   UNL     1       3.122  13.364  -3.073  1.00  0.00     0.031 A 
ATOM     87  C   UNL     1       3.119  14.032  -5.390  1.00  0.00     0.131 A 
ATOM     88  C   UNL     1       3.901  14.493  -2.777  1.00  0.00     0.055 A 
ATOM     89  C   UNL     1       3.946  15.118  -5.100  1.00  0.00     0.041 A 
ATOM     90  F   UNL     1       2.740  13.864  -6.667  1.00  0.00    -0.206 F 
ATOM     91  C   UNL     1       4.330  15.361  -3.785  1.00  0.00     0.022 A 
BRANCH  88  92
ATOM     92  S   UNL     1       4.269  14.867  -1.041  1.00  0.00     0.124 S 
ATOM     93  O   UNL     1       2.934  14.986  -0.465  1.00  0.00    -0.237 OA
ATOM     94  O   UNL     1       5.041  13.700  -0.627  1.00  0.00    -0.237 OA
ATOM     95  O   UNL     1       5.027  16.116  -1.112  1.00  0.00    -0.744 OA
ENDBRANCH  88  92
ENDBRANCH  62  85
ENDBRANCH  36  37
ENDBRANCH  28  31
ENDBRANCH  26  27
ENDBRANCH  25  26
ENDBRANCH   1  25
TORSDOF 18
