REMARK SMILES C[NH+](C)CCCN1c2ccccc2CCc2cc(O[C@@H]3O[C@H](C(=O)NCCCCCCNC(=O)c4ccc(-c5c6nc(c(-c7cc(S(=O)(=O)[O-])ccc7F)c7ccc([nH]7)c(-c7cc(S(=O)(=O)[O-])ccc7F)c7nc(c(-c8cc(S(=O)(=O)[O-])ccc8F)c8ccc5[nH]8)C=C7)C=C6)cc4)[C@@H](O)[C@H](O)[C@H]3O)ccc21
REMARK SMILES IDX 26 1 25 2 23 3 24 4 22 6 20 7 21 8 102 9 100 10 98 11 19 12
REMARK SMILES IDX 18 13 106 14 16 15 105 16 17 17 104 18 7 19 6 20 5 21 4 22
REMARK SMILES IDX 2 23 1 24 3 25 8 27 9 28 13 29 10 30 12 31 11 32 14 33 15 35
REMARK SMILES IDX 103 37 101 39 99 41 27 43 28 44 29 45 30 46 31 47 32 48
REMARK SMILES IDX 33 49 34 51 35 52 36 53 97 54 37 55 96 56 38 57 39 58 40 59
REMARK SMILES IDX 90 60 41 61 95 62 89 63 91 64 42 65 94 66 88 67 87 68 43 70
REMARK SMILES IDX 75 71 55 72 74 73 56 74 59 75 73 76 92 77 57 78 58 79 72 81
REMARK SMILES IDX 93 82 60 83 44 84 45 85 53 86 46 87 52 88 54 89 51 90 47 91
REMARK SMILES IDX 48 92 49 93 50 94 76 95 77 96 85 97 78 98 84 99 86 100
REMARK SMILES IDX 83 101 79 102 80 103 81 104 82 105 61 106 62 107 70 108
REMARK SMILES IDX 63 109 69 110 71 111 68 112 64 113 65 114 66 115 67 116
REMARK H PARENT 25 5 2 26 103 38 101 40 99 42 32 50 91 69 59 80
REMARK Flexibility Score: 90.00
ROOT
ATOM      1  C   UNL     1       2.722   1.909   5.302  1.00  0.00     0.116 C 
ENDROOT
BRANCH   1   2
ATOM      2  N   UNL     1       1.778   1.841   4.210  1.00  0.00    -0.354 N 
ATOM      3  C   UNL     1       2.014   1.630   2.882  1.00  0.00     0.252 C 
ATOM      4  O   UNL     1       1.054   1.667   2.106  1.00  0.00    -0.272 OA
ATOM      5  H   UNL     1       0.833   1.964   4.458  1.00  0.00     0.163 HD
BRANCH   3   6
ATOM      6  C   UNL     1       3.436   1.340   2.365  1.00  0.00     0.242 C 
ATOM      7  C   UNL     1       5.654   2.205   2.222  1.00  0.00     0.339 C 
ATOM      8  O   UNL     1       4.353   2.345   2.792  1.00  0.00    -0.324 OA
ATOM      9  C   UNL     1       6.304   0.825   2.506  1.00  0.00     0.214 C 
ATOM     10  C   UNL     1       5.314  -0.310   2.197  1.00  0.00     0.181 C 
ATOM     11  C   UNL     1       3.915  -0.055   2.787  1.00  0.00     0.184 C 
BRANCH   7  12
ATOM     12  O   UNL     1       6.511   3.306   2.554  1.00  0.00    -0.462 OA
BRANCH  12  13
ATOM     13  C   UNL     1       6.768   3.644   3.850  1.00  0.00     0.123 A 
ATOM     14  C   UNL     1       7.493   4.554   6.430  1.00  0.00     0.045 A 
ATOM     15  C   UNL     1       6.733   3.389   6.276  1.00  0.00    -0.020 A 
ATOM     16  C   UNL     1       7.946   5.207   5.280  1.00  0.00     0.030 A 
ATOM     17  C   UNL     1       6.358   2.961   4.991  1.00  0.00     0.052 A 
ATOM     18  C   UNL     1       7.575   4.769   4.006  1.00  0.00     0.049 A 
BRANCH  14  19
ATOM     19  N   UNL     1       7.864   5.030   7.703  1.00  0.00    -0.341 N 
BRANCH  19  20
ATOM     20  C   UNL     1       6.789   5.753   8.432  1.00  0.00     0.128 C 
BRANCH  20  21
ATOM     21  C   UNL     1       6.903   7.281   8.389  1.00  0.00     0.083 C 
BRANCH  21  22
ATOM     22  C   UNL     1       6.719   7.994   7.040  1.00  0.00     0.263 C 
BRANCH  22  23
ATOM     23  N   UNL     1       5.386   8.163   6.446  1.00  0.00    -0.340 N 
ATOM     24  C   UNL     1       4.656   6.935   6.179  1.00  0.00     0.332 C 
ATOM     25  C   UNL     1       4.561   9.130   7.157  1.00  0.00     0.332 C 
ATOM     26  H   UNL     1       5.596   8.547   5.525  1.00  0.00     0.347 HD
ENDBRANCH  22  23
ENDBRANCH  21  22
ENDBRANCH  20  21
ENDBRANCH  19  20
BRANCH  19  27
ATOM     27  C   UNL     1       8.738   4.310   8.560  1.00  0.00     0.044 A 
ATOM     28  C   UNL     1       9.699   5.050   9.277  1.00  0.00     0.026 A 
ATOM     29  C   UNL     1       8.738   2.902   8.684  1.00  0.00    -0.024 A 
ATOM     30  C   UNL     1      10.668   4.425  10.062  1.00  0.00     0.002 A 
ATOM     31  C   UNL     1       9.742   2.288   9.466  1.00  0.00     0.006 A 
ATOM     32  C   UNL     1      10.698   3.040  10.144  1.00  0.00     0.000 A 
BRANCH  29  33
ATOM     33  C   UNL     1       7.746   1.953   8.037  1.00  0.00     0.042 CG0
ATOM     34  G   UNL     1       6.444   2.535   7.482  1.00  0.00     0.000 G0
ENDBRANCH  29  33
ENDBRANCH  19  27
ENDBRANCH  14  19
BRANCH  15  35
ATOM     35  C   UNL     1       6.444   2.535   7.482  1.00  0.00     0.042 CG0
ATOM     36  G   UNL     1       7.746   1.953   8.037  1.00  0.00     0.000 G0
ENDBRANCH  15  35
ENDBRANCH  12  13
ENDBRANCH   7  12
BRANCH   9  37
ATOM     37  O   UNL     1       7.512   0.641   1.751  1.00  0.00    -0.384 OA
ATOM     38  H   UNL     1       7.307   0.660   0.803  1.00  0.00     0.211 HD
ENDBRANCH   9  37
BRANCH  10  39
ATOM     39  O   UNL     1       5.812  -1.570   2.666  1.00  0.00    -0.387 OA
ATOM     40  H   UNL     1       5.900  -1.544   3.632  1.00  0.00     0.211 HD
ENDBRANCH  10  39
BRANCH  11  41
ATOM     41  O   UNL     1       2.997  -1.067   2.360  1.00  0.00    -0.387 OA
ATOM     42  H   UNL     1       2.929  -1.054   1.393  1.00  0.00     0.211 HD
ENDBRANCH  11  41
ENDBRANCH   3   6
ENDBRANCH   1   2
BRANCH   1  43
ATOM     43  C   UNL     1       2.704   3.269   5.990  1.00  0.00     0.021 C 
BRANCH  43  44
ATOM     44  C   UNL     1       1.468   3.500   6.863  1.00  0.00     0.002 C 
BRANCH  44  45
ATOM     45  C   UNL     1       1.229   2.429   7.935  1.00  0.00     0.002 C 
BRANCH  45  46
ATOM     46  C   UNL     1       2.420   2.155   8.859  1.00  0.00     0.021 C 
BRANCH  46  47
ATOM     47  C   UNL     1       2.926   3.374   9.621  1.00  0.00     0.116 C 
BRANCH  47  48
ATOM     48  N   UNL     1       1.899   3.939  10.479  1.00  0.00    -0.352 N 
ATOM     49  C   UNL     1       1.923   4.177  11.831  1.00  0.00     0.251 C 
ATOM     50  H   UNL     1       1.063   4.189  10.023  1.00  0.00     0.163 HD
ATOM     51  O   UNL     1       0.879   4.443  12.417  1.00  0.00    -0.269 OA
BRANCH  49  52
ATOM     52  C   UNL     1       3.200   4.091  12.573  1.00  0.00     0.039 A 
ATOM     53  C   UNL     1       3.214   3.459  13.818  1.00  0.00     0.014 A 
ATOM     54  C   UNL     1       4.374   4.643  12.050  1.00  0.00     0.014 A 
ATOM     55  C   UNL     1       4.418   3.332  14.514  1.00  0.00     0.010 A 
ATOM     56  C   UNL     1       5.585   4.447  12.709  1.00  0.00     0.010 A 
ATOM     57  C   UNL     1       5.619   3.793  13.950  1.00  0.00    -0.014 A 
BRANCH  57  58
ATOM     58  C   UNL     1       6.917   3.604  14.649  1.00  0.00     0.031 A 
ATOM     59  C   UNL     1       7.710   4.798  15.108  1.00  0.00     0.074 A 
ATOM     60  C   UNL     1       7.402   2.360  14.828  1.00  0.00     0.049 A 
ATOM     61  N   UNL     1       8.887   4.841  15.678  1.00  0.00    -0.248 NA
ATOM     62  C   UNL     1       7.108   6.119  14.873  1.00  0.00     0.031 C 
ATOM     63  C   UNL     1       6.737   1.126  14.401  1.00  0.00     0.029 A 
ATOM     64  N   UNL     1       8.566   1.923  15.409  1.00  0.00    -0.354 N 
ATOM     65  C   UNL     1       9.172   6.191  15.860  1.00  0.00     0.074 A 
ATOM     66  C   UNL     1       8.070   6.931  15.283  1.00  0.00     0.031 C 
ATOM     67  C   UNL     1       7.489   0.074  14.761  1.00  0.00     0.029 A 
ATOM     68  C   UNL     1       8.713   0.555  15.394  1.00  0.00     0.049 A 
ATOM     69  H   UNL     1       9.233   2.531  15.801  1.00  0.00     0.167 HD
ATOM     70  C   UNL     1      10.242   6.757  16.473  1.00  0.00     0.034 A 
ATOM     71  C   UNL     1       9.725  -0.224  15.827  1.00  0.00     0.034 A 
ATOM     72  C   UNL     1      11.328   6.000  17.047  1.00  0.00     0.049 A 
ATOM     73  C   UNL     1      10.925   0.432  16.462  1.00  0.00     0.074 A 
ATOM     74  C   UNL     1      12.437   6.469  17.731  1.00  0.00     0.029 A 
ATOM     75  N   UNL     1      11.452   4.617  16.997  1.00  0.00    -0.354 N 
ATOM     76  N   UNL     1      11.159   1.708  16.668  1.00  0.00    -0.248 NA
ATOM     77  C   UNL     1      11.993  -0.459  16.934  1.00  0.00     0.031 C 
ATOM     78  C   UNL     1      13.267   5.382  18.022  1.00  0.00     0.029 A 
ATOM     79  C   UNL     1      12.635   4.221  17.603  1.00  0.00     0.049 A 
ATOM     80  H   UNL     1      10.795   4.007  16.590  1.00  0.00     0.167 HD
ATOM     81  C   UNL     1      12.385   1.768  17.325  1.00  0.00     0.074 A 
ATOM     82  C   UNL     1      12.832   0.400  17.493  1.00  0.00     0.031 C 
ATOM     83  C   UNL     1      13.077   2.854  17.755  1.00  0.00     0.034 A 
BRANCH  70  84
ATOM     84  C   UNL     1      10.299   8.266  16.523  1.00  0.00     0.023 A 
ATOM     85  C   UNL     1       9.323   9.022  17.195  1.00  0.00     0.031 A 
ATOM     86  C   UNL     1      11.334   8.962  15.872  1.00  0.00     0.131 A 
ATOM     87  C   UNL     1       9.358  10.424  17.138  1.00  0.00     0.055 A 
ATOM     88  C   UNL     1      11.412  10.356  15.893  1.00  0.00     0.041 A 
ATOM     89  F   UNL     1      12.282   8.298  15.192  1.00  0.00    -0.206 F 
ATOM     90  C   UNL     1      10.412  11.096  16.516  1.00  0.00     0.022 A 
BRANCH  87  91
ATOM     91  S   UNL     1       7.927  11.351  17.755  1.00  0.00     0.124 S 
ATOM     92  O   UNL     1       6.847  10.805  16.936  1.00  0.00    -0.237 OA
ATOM     93  O   UNL     1       7.902  10.991  19.168  1.00  0.00    -0.237 OA
ATOM     94  O   UNL     1       8.271  12.742  17.471  1.00  0.00    -0.744 OA
ENDBRANCH  87  91
ENDBRANCH  70  84
BRANCH  71  95
ATOM     95  C   UNL     1       9.662  -1.706  15.666  1.00  0.00     0.023 A 
ATOM     96  C   UNL     1       9.656  -2.554  16.784  1.00  0.00     0.031 A 
ATOM     97  C   UNL     1       9.656  -2.298  14.390  1.00  0.00     0.131 A 
ATOM     98  C   UNL     1       9.699  -3.946  16.607  1.00  0.00     0.055 A 
ATOM     99  C   UNL     1       9.636  -3.683  14.220  1.00  0.00     0.041 A 
ATOM    100  F   UNL     1       9.658  -1.534  13.286  1.00  0.00    -0.206 F 
ATOM    101  C   UNL     1       9.673  -4.516  15.333  1.00  0.00     0.022 A 
BRANCH  98 102
ATOM    102  S   UNL     1       9.890  -5.001  18.070  1.00  0.00     0.124 S 
ATOM    103  O   UNL     1      11.132  -4.493  18.641  1.00  0.00    -0.237 OA
ATOM    104  O   UNL     1       8.672  -4.707  18.817  1.00  0.00    -0.237 OA
ATOM    105  O   UNL     1       9.966  -6.348  17.509  1.00  0.00    -0.744 OA
ENDBRANCH  98 102
ENDBRANCH  71  95
BRANCH  83 106
ATOM    106  C   UNL     1      14.369   2.599  18.495  1.00  0.00     0.023 A 
ATOM    107  C   UNL     1      15.483   2.016  17.866  1.00  0.00     0.031 A 
ATOM    108  C   UNL     1      14.481   2.936  19.856  1.00  0.00     0.131 A 
ATOM    109  C   UNL     1      16.638   1.733  18.612  1.00  0.00     0.055 A 
ATOM    110  C   UNL     1      15.656   2.716  20.575  1.00  0.00     0.041 A 
ATOM    111  F   UNL     1      13.448   3.491  20.511  1.00  0.00    -0.206 F 
ATOM    112  C   UNL     1      16.739   2.097  19.957  1.00  0.00     0.022 A 
BRANCH 109 113
ATOM    113  S   UNL     1      17.971   0.788  17.825  1.00  0.00     0.124 S 
ATOM    114  O   UNL     1      17.282  -0.437  17.430  1.00  0.00    -0.237 OA
ATOM    115  O   UNL     1      18.378   1.669  16.736  1.00  0.00    -0.237 OA
ATOM    116  O   UNL     1      18.955   0.628  18.894  1.00  0.00    -0.744 OA
ENDBRANCH 109 113
ENDBRANCH  83 106
ENDBRANCH  57  58
ENDBRANCH  49  52
ENDBRANCH  47  48
ENDBRANCH  46  47
ENDBRANCH  45  46
ENDBRANCH  44  45
ENDBRANCH  43  44
ENDBRANCH   1  43
TORSDOF 25
