REMARK SMILES C[C@@H](C(=O)NCCCCCCNC(=O)c1ccc(-c2c3nc(c(-c4cc(S(=O)(=O)[O-])ccc4F)c4ccc([nH]4)c(-c4cc(S(=O)(=O)[O-])ccc4F)c4nc(c(-c5cc(S(=O)(=O)[O-])ccc5F)c5ccc2[nH]5)C=C4)C=C3)cc1)c1ccc(-c2ccn(C(F)F)c(=O)c2)cc1
REMARK SMILES IDX 8 1 7 2 6 3 5 4 3 5 4 6 2 8 1 9 78 10 79 11 93 12 80 13
REMARK SMILES IDX 92 14 81 15 82 16 83 17 91 18 84 19 89 20 85 21 90 22 86 23
REMARK SMILES IDX 87 24 88 25 9 26 10 27 11 28 12 29 13 30 14 32 15 33 16 34
REMARK SMILES IDX 77 35 17 36 76 37 18 38 19 39 20 40 70 41 21 42 75 43 69 44
REMARK SMILES IDX 71 45 22 46 74 47 68 48 67 49 23 51 55 52 35 53 54 54 36 55
REMARK SMILES IDX 39 56 53 57 72 58 37 59 38 60 52 62 73 63 40 64 24 65 25 66
REMARK SMILES IDX 33 67 26 68 32 69 34 70 31 71 27 72 28 73 29 74 30 75 56 76
REMARK SMILES IDX 57 77 65 78 58 79 64 80 66 81 63 82 59 83 60 84 61 85 62 86
REMARK SMILES IDX 41 87 42 88 50 89 43 90 49 91 51 92 48 93 44 94 45 95 46 96
REMARK SMILES IDX 47 97
REMARK H PARENT 5 7 12 31 71 50 39 61
REMARK Flexibility Score: inf
ROOT
ATOM      1  C   UNL     1       5.034  -0.824   2.625  1.00  0.00     0.002 C 
ENDROOT
BRANCH   1   2
ATOM      2  C   UNL     1       4.281  -0.558   1.313  1.00  0.00     0.021 C 
BRANCH   2   3
ATOM      3  C   UNL     1       3.465  -1.757   0.824  1.00  0.00     0.116 C 
BRANCH   3   4
ATOM      4  N   UNL     1       2.369  -2.010   1.736  1.00  0.00    -0.356 N 
ATOM      5  C   UNL     1       1.063  -1.630   1.658  1.00  0.00     0.227 C 
ATOM      6  O   UNL     1       0.386  -1.762   2.680  1.00  0.00    -0.274 OA
ATOM      7  H   UNL     1       2.604  -2.537   2.535  1.00  0.00     0.163 HD
BRANCH   5   8
ATOM      8  C   UNL     1       0.483  -1.133   0.319  1.00  0.00     0.105 C 
ATOM      9  C   UNL     1       1.012   0.254  -0.068  1.00  0.00     0.023 C 
BRANCH   8  10
ATOM     10  C   UNL     1      -1.046  -1.196   0.338  1.00  0.00    -0.036 A 
ATOM     11  C   UNL     1      -1.845  -0.049   0.458  1.00  0.00     0.005 A 
ATOM     12  C   UNL     1      -1.680  -2.448   0.283  1.00  0.00     0.005 A 
ATOM     13  C   UNL     1      -3.236  -0.146   0.491  1.00  0.00     0.009 A 
ATOM     14  C   UNL     1      -3.072  -2.548   0.328  1.00  0.00     0.009 A 
ATOM     15  C   UNL     1      -3.859  -1.395   0.416  1.00  0.00    -0.018 A 
BRANCH  15  16
ATOM     16  C   UNL     1      -5.326  -1.494   0.417  1.00  0.00    -0.011 A 
ATOM     17  C   UNL     1      -6.077  -2.114   1.489  1.00  0.00     0.027 A 
ATOM     18  C   UNL     1      -5.981  -0.998  -0.646  1.00  0.00     0.080 A 
ATOM     19  C   UNL     1      -7.408  -2.218   1.408  1.00  0.00     0.095 A 
ATOM     20  C   UNL     1      -7.461  -1.093  -0.744  1.00  0.00     0.255 A 
ATOM     21  N   UNL     1      -8.096  -1.729   0.312  1.00  0.00    -0.258 N 
ATOM     22  O   UNL     1      -8.016  -0.623  -1.731  1.00  0.00    -0.269 OA
BRANCH  21  23
ATOM     23  C   UNL     1      -9.521  -1.886   0.211  1.00  0.00     0.451 C 
ATOM     24  F   UNL     1     -10.144  -0.689   0.087  1.00  0.00    -0.185 F 
ATOM     25  F   UNL     1      -9.850  -2.643  -0.865  1.00  0.00    -0.185 F 
ENDBRANCH  21  23
ENDBRANCH  15  16
ENDBRANCH   8  10
ENDBRANCH   5   8
ENDBRANCH   3   4
ENDBRANCH   2   3
ENDBRANCH   1   2
BRANCH   1  26
ATOM     26  C   UNL     1       6.015  -1.999   2.573  1.00  0.00     0.002 C 
BRANCH  26  27
ATOM     27  C   UNL     1       7.055  -1.910   1.456  1.00  0.00     0.021 C 
BRANCH  27  28
ATOM     28  C   UNL     1       7.950  -0.678   1.536  1.00  0.00     0.116 C 
BRANCH  28  29
ATOM     29  N   UNL     1       8.779  -0.694   2.731  1.00  0.00    -0.352 N 
ATOM     30  C   UNL     1      10.146  -0.626   2.832  1.00  0.00     0.251 C 
ATOM     31  H   UNL     1       8.293  -0.762   3.585  1.00  0.00     0.163 HD
ATOM     32  O   UNL     1      10.697  -0.890   3.898  1.00  0.00    -0.269 OA
BRANCH  30  33
ATOM     33  C   UNL     1      10.945  -0.259   1.644  1.00  0.00     0.039 A 
ATOM     34  C   UNL     1      12.085  -1.003   1.332  1.00  0.00     0.014 A 
ATOM     35  C   UNL     1      10.556   0.810   0.831  1.00  0.00     0.014 A 
ATOM     36  C   UNL     1      12.798  -0.714   0.167  1.00  0.00     0.010 A 
ATOM     37  C   UNL     1      11.220   1.043  -0.368  1.00  0.00     0.010 A 
ATOM     38  C   UNL     1      12.351   0.285  -0.712  1.00  0.00    -0.014 A 
BRANCH  38  39
ATOM     39  C   UNL     1      13.052   0.559  -1.994  1.00  0.00     0.031 A 
ATOM     40  C   UNL     1      13.673   1.907  -2.238  1.00  0.00     0.074 A 
ATOM     41  C   UNL     1      13.061  -0.377  -2.964  1.00  0.00     0.049 A 
ATOM     42  N   UNL     1      14.239   2.375  -3.321  1.00  0.00    -0.248 NA
ATOM     43  C   UNL     1      13.617   2.865  -1.125  1.00  0.00     0.031 C 
ATOM     44  C   UNL     1      12.453  -1.705  -2.860  1.00  0.00     0.029 A 
ATOM     45  N   UNL     1      13.583  -0.350  -4.233  1.00  0.00    -0.354 N 
ATOM     46  C   UNL     1      14.592   3.688  -3.026  1.00  0.00     0.074 A 
ATOM     47  C   UNL     1      14.113   3.957  -1.686  1.00  0.00     0.031 C 
ATOM     48  C   UNL     1      12.648  -2.369  -4.010  1.00  0.00     0.029 A 
ATOM     49  C   UNL     1      13.345  -1.499  -4.953  1.00  0.00     0.049 A 
ATOM     50  H   UNL     1      14.081   0.418  -4.595  1.00  0.00     0.167 HD
ATOM     51  C   UNL     1      15.272   4.576  -3.793  1.00  0.00     0.034 A 
ATOM     52  C   UNL     1      13.629  -1.809  -6.234  1.00  0.00     0.034 A 
ATOM     53  C   UNL     1      15.742   4.284  -5.126  1.00  0.00     0.049 A 
ATOM     54  C   UNL     1      14.356  -0.798  -7.083  1.00  0.00     0.074 A 
ATOM     55  C   UNL     1      16.495   5.082  -5.968  1.00  0.00     0.029 A 
ATOM     56  N   UNL     1      15.488   3.106  -5.820  1.00  0.00    -0.354 N 
ATOM     57  N   UNL     1      14.742   0.418  -6.769  1.00  0.00    -0.248 NA
ATOM     58  C   UNL     1      14.695  -1.202  -8.453  1.00  0.00     0.031 C 
ATOM     59  C   UNL     1      16.621   4.427  -7.197  1.00  0.00     0.029 A 
ATOM     60  C   UNL     1      16.031   3.177  -7.095  1.00  0.00     0.049 A 
ATOM     61  H   UNL     1      14.994   2.334  -5.460  1.00  0.00     0.167 HD
ATOM     62  C   UNL     1      15.394   0.913  -7.895  1.00  0.00     0.074 A 
ATOM     63  C   UNL     1      15.359  -0.140  -8.889  1.00  0.00     0.031 C 
ATOM     64  C   UNL     1      15.976   2.125  -8.086  1.00  0.00     0.034 A 
BRANCH  51  65
ATOM     65  C   UNL     1      15.507   5.955  -3.216  1.00  0.00     0.023 A 
ATOM     66  C   UNL     1      16.228   6.146  -2.023  1.00  0.00     0.031 A 
ATOM     67  C   UNL     1      14.963   7.091  -3.840  1.00  0.00     0.131 A 
ATOM     68  C   UNL     1      16.298   7.421  -1.442  1.00  0.00     0.055 A 
ATOM     69  C   UNL     1      15.121   8.373  -3.307  1.00  0.00     0.041 A 
ATOM     70  F   UNL     1      14.246   6.975  -4.969  1.00  0.00    -0.206 F 
ATOM     71  C   UNL     1      15.774   8.541  -2.090  1.00  0.00     0.022 A 
BRANCH  68  72
ATOM     72  S   UNL     1      16.917   7.561   0.258  1.00  0.00     0.124 S 
ATOM     73  O   UNL     1      16.027   6.648   0.972  1.00  0.00    -0.237 OA
ATOM     74  O   UNL     1      18.303   7.129   0.125  1.00  0.00    -0.237 OA
ATOM     75  O   UNL     1      16.729   8.975   0.575  1.00  0.00    -0.744 OA
ENDBRANCH  68  72
ENDBRANCH  51  65
BRANCH  52  76
ATOM     76  C   UNL     1      13.197  -3.121  -6.797  1.00  0.00     0.023 A 
ATOM     77  C   UNL     1      14.131  -4.083  -7.211  1.00  0.00     0.031 A 
ATOM     78  C   UNL     1      11.831  -3.423  -6.944  1.00  0.00     0.131 A 
ATOM     79  C   UNL     1      13.688  -5.287  -7.783  1.00  0.00     0.055 A 
ATOM     80  C   UNL     1      11.395  -4.643  -7.462  1.00  0.00     0.041 A 
ATOM     81  F   UNL     1      10.895  -2.540  -6.561  1.00  0.00    -0.206 F 
ATOM     82  C   UNL     1      12.327  -5.580  -7.896  1.00  0.00     0.022 A 
BRANCH  79  83
ATOM     83  S   UNL     1      14.920  -6.440  -8.450  1.00  0.00     0.124 S 
ATOM     84  O   UNL     1      15.591  -5.613  -9.447  1.00  0.00    -0.237 OA
ATOM     85  O   UNL     1      15.698  -6.772  -7.262  1.00  0.00    -0.237 OA
ATOM     86  O   UNL     1      14.108  -7.530  -8.987  1.00  0.00    -0.744 OA
ENDBRANCH  79  83
ENDBRANCH  52  76
BRANCH  64  87
ATOM     87  C   UNL     1      16.666   2.362  -9.409  1.00  0.00     0.023 A 
ATOM     88  C   UNL     1      15.954   2.431 -10.619  1.00  0.00     0.031 A 
ATOM     89  C   UNL     1      18.061   2.533  -9.454  1.00  0.00     0.131 A 
ATOM     90  C   UNL     1      16.644   2.618 -11.826  1.00  0.00     0.055 A 
ATOM     91  C   UNL     1      18.735   2.784 -10.650  1.00  0.00     0.041 A 
ATOM     92  F   UNL     1      18.794   2.471  -8.330  1.00  0.00    -0.206 F 
ATOM     93  C   UNL     1      18.027   2.816 -11.847  1.00  0.00     0.022 A 
BRANCH  90  94
ATOM     94  S   UNL     1      15.722   2.511 -13.385  1.00  0.00     0.124 S 
ATOM     95  O   UNL     1      15.167   1.163 -13.317  1.00  0.00    -0.237 OA
ATOM     96  O   UNL     1      14.763   3.603 -13.256  1.00  0.00    -0.237 OA
ATOM     97  O   UNL     1      16.750   2.708 -14.406  1.00  0.00    -0.744 OA
ENDBRANCH  90  94
ENDBRANCH  64  87
ENDBRANCH  38  39
ENDBRANCH  30  33
ENDBRANCH  28  29
ENDBRANCH  27  28
ENDBRANCH  26  27
ENDBRANCH   1  26
TORSDOF 19
