REMARK SMILES Cc1nc([C@H](C)[NH2+]CC(=O)NCCCCCCNC(=O)c2ccc(-c3c4nc(c(-c5cc(S(=O)(=O)[O-])ccc5F)c5ccc([nH]5)c(-c5cc(S(=O)(=O)[O-])ccc5F)c5nc(c(-c6cc(S(=O)(=O)[O-])ccc6F)c6ccc3[nH]6)C=C5)C=C4)cc2)cs1
REMARK SMILES IDX 14 1 13 2 12 3 11 4 9 5 10 6 8 8 7 9 5 12 6 13 4 14 1 15
REMARK SMILES IDX 2 16 3 17 85 18 84 19 15 20 16 21 17 22 18 23 19 24 20 26
REMARK SMILES IDX 21 27 22 28 83 29 23 30 82 31 24 32 25 33 26 34 76 35 27 36
REMARK SMILES IDX 81 37 75 38 77 39 28 40 80 41 74 42 73 43 29 45 61 46 41 47
REMARK SMILES IDX 60 48 42 49 45 50 59 51 78 52 43 53 44 54 58 56 79 57 46 58
REMARK SMILES IDX 30 59 31 60 39 61 32 62 38 63 40 64 37 65 33 66 34 67 35 68
REMARK SMILES IDX 36 69 62 70 63 71 71 72 64 73 70 74 72 75 69 76 65 77 66 78
REMARK SMILES IDX 67 79 68 80 47 81 48 82 56 83 49 84 55 85 57 86 54 87 50 88
REMARK SMILES IDX 51 89 52 90 53 91
REMARK H PARENT 11 7 7 10 7 11 18 25 77 44 45 55
REMARK Flexibility Score: inf
ROOT
ATOM      1  C   UNL     1       2.356  -3.462  -3.519  1.00  0.00     0.002 C 
ENDROOT
BRANCH   1   2
ATOM      2  C   UNL     1       1.450  -3.678  -2.302  1.00  0.00     0.021 C 
BRANCH   2   3
ATOM      3  C   UNL     1       1.887  -4.756  -1.296  1.00  0.00     0.116 C 
BRANCH   3   4
ATOM      4  N   UNL     1       3.298  -4.776  -0.932  1.00  0.00    -0.351 N 
ATOM      5  C   UNL     1       3.941  -4.456   0.230  1.00  0.00     0.275 C 
ATOM      6  O   UNL     1       5.125  -4.792   0.343  1.00  0.00    -0.269 OA
ATOM      7  H   UNL     1       3.896  -5.074  -1.655  1.00  0.00     0.163 HD
BRANCH   5   8
ATOM      8  C   UNL     1       3.272  -3.607   1.319  1.00  0.00     0.362 C 
BRANCH   8   9
ATOM      9  N   UNL     1       3.678  -2.179   1.226  1.00  0.00    -0.331 N 
ATOM     10  H   UNL     1       3.356  -1.686   2.058  1.00  0.00     0.347 HD
ATOM     11  H   UNL     1       4.695  -2.136   1.154  1.00  0.00     0.347 HD
BRANCH   9  12
ATOM     12  C   UNL     1       3.099  -1.540   0.035  1.00  0.00     0.230 C 
ATOM     13  C   UNL     1       2.193  -0.373   0.421  1.00  0.00     0.082 C 
BRANCH  12  14
ATOM     14  C   UNL     1       4.119  -1.205  -1.039  1.00  0.00     0.108 A 
ATOM     15  C   UNL     1       4.777   0.942  -3.937  1.00  0.00     0.079 C 
ATOM     16  C   UNL     1       4.774  -0.064  -2.841  1.00  0.00     0.090 A 
ATOM     17  N   UNL     1       3.847  -0.152  -1.911  1.00  0.00    -0.240 NA
ATOM     18  S   UNL     1       6.020  -1.235  -2.754  1.00  0.00    -0.127 S 
ATOM     19  C   UNL     1       5.278  -1.892  -1.360  1.00  0.00     0.096 A 
ENDBRANCH  12  14
ENDBRANCH   9  12
ENDBRANCH   8   9
ENDBRANCH   5   8
ENDBRANCH   3   4
ENDBRANCH   2   3
ENDBRANCH   1   2
BRANCH   1  20
ATOM     20  C   UNL     1       2.083  -4.395  -4.700  1.00  0.00     0.002 C 
BRANCH  20  21
ATOM     21  C   UNL     1       0.636  -4.414  -5.201  1.00  0.00     0.021 C 
BRANCH  21  22
ATOM     22  C   UNL     1       0.058  -3.048  -5.565  1.00  0.00     0.116 C 
BRANCH  22  23
ATOM     23  N   UNL     1       0.601  -2.544  -6.817  1.00  0.00    -0.352 N 
ATOM     24  C   UNL     1      -0.076  -2.248  -7.981  1.00  0.00     0.251 C 
ATOM     25  H   UNL     1       1.574  -2.396  -6.835  1.00  0.00     0.163 HD
ATOM     26  O   UNL     1       0.532  -2.034  -9.018  1.00  0.00    -0.269 OA
BRANCH  24  27
ATOM     27  C   UNL     1      -1.556  -2.220  -7.951  1.00  0.00     0.039 A 
ATOM     28  C   UNL     1      -2.274  -2.999  -8.860  1.00  0.00     0.014 A 
ATOM     29  C   UNL     1      -2.221  -1.463  -6.982  1.00  0.00     0.014 A 
ATOM     30  C   UNL     1      -3.666  -3.073  -8.750  1.00  0.00     0.010 A 
ATOM     31  C   UNL     1      -3.599  -1.595  -6.832  1.00  0.00     0.010 A 
ATOM     32  C   UNL     1      -4.337  -2.402  -7.713  1.00  0.00    -0.014 A 
BRANCH  32  33
ATOM     33  C   UNL     1      -5.809  -2.524  -7.539  1.00  0.00     0.031 A 
ATOM     34  C   UNL     1      -6.684  -1.308  -7.685  1.00  0.00     0.074 A 
ATOM     35  C   UNL     1      -6.351  -3.709  -7.189  1.00  0.00     0.049 A 
ATOM     36  N   UNL     1      -7.973  -1.185  -7.496  1.00  0.00    -0.248 NA
ATOM     37  C   UNL     1      -6.010  -0.057  -8.063  1.00  0.00     0.031 C 
ATOM     38  C   UNL     1      -5.602  -4.949  -6.974  1.00  0.00     0.029 A 
ATOM     39  N   UNL     1      -7.654  -4.064  -6.944  1.00  0.00    -0.354 N 
ATOM     40  C   UNL     1      -8.262   0.157  -7.724  1.00  0.00     0.074 A 
ATOM     41  C   UNL     1      -7.002   0.817  -7.991  1.00  0.00     0.031 C 
ATOM     42  C   UNL     1      -6.460  -5.931  -6.651  1.00  0.00     0.029 A 
ATOM     43  C   UNL     1      -7.812  -5.386  -6.591  1.00  0.00     0.049 A 
ATOM     44  H   UNL     1      -8.406  -3.433  -7.013  1.00  0.00     0.167 HD
ATOM     45  C   UNL     1      -9.470   0.775  -7.741  1.00  0.00     0.034 A 
ATOM     46  C   UNL     1      -8.919  -6.076  -6.249  1.00  0.00     0.034 A 
ATOM     47  C   UNL     1     -10.717   0.101  -7.479  1.00  0.00     0.049 A 
ATOM     48  C   UNL     1     -10.249  -5.362  -6.247  1.00  0.00     0.074 A 
ATOM     49  C   UNL     1     -12.001   0.619  -7.505  1.00  0.00     0.029 A 
ATOM     50  N   UNL     1     -10.839  -1.240  -7.136  1.00  0.00    -0.354 N 
ATOM     51  N   UNL     1     -10.511  -4.103  -6.514  1.00  0.00    -0.248 NA
ATOM     52  C   UNL     1     -11.433  -6.164  -5.913  1.00  0.00     0.031 C 
ATOM     53  C   UNL     1     -12.890  -0.390  -7.117  1.00  0.00     0.029 A 
ATOM     54  C   UNL     1     -12.172  -1.559  -6.924  1.00  0.00     0.049 A 
ATOM     55  H   UNL     1     -10.089  -1.872  -7.055  1.00  0.00     0.167 HD
ATOM     56  C   UNL     1     -11.894  -3.973  -6.412  1.00  0.00     0.074 A 
ATOM     57  C   UNL     1     -12.409  -5.284  -6.076  1.00  0.00     0.031 C 
ATOM     58  C   UNL     1     -12.669  -2.872  -6.583  1.00  0.00     0.034 A 
BRANCH  45  59
ATOM     59  C   UNL     1      -9.484   2.257  -8.036  1.00  0.00     0.023 A 
ATOM     60  C   UNL     1      -9.021   2.766  -9.263  1.00  0.00     0.031 A 
ATOM     61  C   UNL     1      -9.930   3.177  -7.072  1.00  0.00     0.131 A 
ATOM     62  C   UNL     1      -8.934   4.152  -9.460  1.00  0.00     0.055 A 
ATOM     63  C   UNL     1      -9.924   4.554  -7.308  1.00  0.00     0.041 A 
ATOM     64  F   UNL     1     -10.365   2.756  -5.874  1.00  0.00    -0.206 F 
ATOM     65  C   UNL     1      -9.408   5.050  -8.502  1.00  0.00     0.022 A 
BRANCH  62  66
ATOM     66  S   UNL     1      -8.051   4.763 -10.922  1.00  0.00     0.124 S 
ATOM     67  O   UNL     1      -6.724   4.182 -10.728  1.00  0.00    -0.237 OA
ATOM     68  O   UNL     1      -8.836   4.210 -12.020  1.00  0.00    -0.237 OA
ATOM     69  O   UNL     1      -8.114   6.215 -10.779  1.00  0.00    -0.744 OA
ENDBRANCH  62  66
ENDBRANCH  45  59
BRANCH  46  70
ATOM     70  C   UNL     1      -8.829  -7.516  -5.866  1.00  0.00     0.023 A 
ATOM     71  C   UNL     1      -9.464  -8.510  -6.628  1.00  0.00     0.031 A 
ATOM     72  C   UNL     1      -8.149  -7.915  -4.701  1.00  0.00     0.131 A 
ATOM     73  C   UNL     1      -9.453  -9.844  -6.189  1.00  0.00     0.055 A 
ATOM     74  C   UNL     1      -8.092  -9.251  -4.300  1.00  0.00     0.041 A 
ATOM     75  F   UNL     1      -7.520  -7.007  -3.937  1.00  0.00    -0.206 F 
ATOM     76  C   UNL     1      -8.760 -10.223  -5.038  1.00  0.00     0.022 A 
BRANCH  73  77
ATOM     77  S   UNL     1     -10.442 -11.066  -7.096  1.00  0.00     0.124 S 
ATOM     78  O   UNL     1     -11.774 -10.476  -7.030  1.00  0.00    -0.237 OA
ATOM     79  O   UNL     1      -9.800 -11.061  -8.406  1.00  0.00    -0.237 OA
ATOM     80  O   UNL     1     -10.262 -12.291  -6.320  1.00  0.00    -0.744 OA
ENDBRANCH  73  77
ENDBRANCH  46  70
BRANCH  58  81
ATOM     81  C   UNL     1     -14.162  -3.057  -6.456  1.00  0.00     0.023 A 
ATOM     82  C   UNL     1     -14.767  -3.390  -5.231  1.00  0.00     0.031 A 
ATOM     83  C   UNL     1     -14.990  -2.903  -7.582  1.00  0.00     0.131 A 
ATOM     84  C   UNL     1     -16.151  -3.615  -5.174  1.00  0.00     0.055 A 
ATOM     85  C   UNL     1     -16.374  -3.067  -7.506  1.00  0.00     0.041 A 
ATOM     86  F   UNL     1     -14.466  -2.587  -8.778  1.00  0.00    -0.206 F 
ATOM     87  C   UNL     1     -16.960  -3.439  -6.300  1.00  0.00     0.022 A 
BRANCH  84  88
ATOM     88  S   UNL     1     -16.869  -4.234  -3.628  1.00  0.00     0.124 S 
ATOM     89  O   UNL     1     -16.131  -5.477  -3.427  1.00  0.00    -0.237 OA
ATOM     90  O   UNL     1     -16.569  -3.157  -2.691  1.00  0.00    -0.237 OA
ATOM     91  O   UNL     1     -18.286  -4.399  -3.949  1.00  0.00    -0.744 OA
ENDBRANCH  84  88
ENDBRANCH  58  81
ENDBRANCH  32  33
ENDBRANCH  24  27
ENDBRANCH  22  23
ENDBRANCH  21  22
ENDBRANCH  20  21
ENDBRANCH   1  20
TORSDOF 19
