REMARK SMILES O=C(NCCCCCCNC(=O)c1cn(C2CC2)c2cc(N3CC[NH2+]CC3)ccc2c1=O)c1ccc(-c2c3nc(c(-c4cc(S(=O)(=O)[O-])ccc4F)c4ccc([nH]4)c(-c4cc(S(=O)(=O)[O-])ccc4F)c4nc(c(-c5cc(S(=O)(=O)[O-])ccc5F)c5ccc2[nH]5)C=C4)C=C3)cc1
REMARK SMILES IDX 5 1 4 2 3 3 1 4 2 5 33 7 34 8 95 9 35 10 94 11 36 12 37 13
REMARK SMILES IDX 38 14 88 15 39 16 93 17 87 18 89 19 40 20 92 21 86 22 85 23
REMARK SMILES IDX 41 25 73 26 53 27 72 28 54 29 57 30 71 31 90 32 55 33 56 34
REMARK SMILES IDX 70 36 91 37 58 38 42 39 43 40 51 41 44 42 50 43 52 44 49 45
REMARK SMILES IDX 45 46 46 47 47 48 48 49 74 50 75 51 83 52 76 53 82 54 84 55
REMARK SMILES IDX 81 56 77 57 78 58 79 59 80 60 59 61 60 62 68 63 61 64 67 65
REMARK SMILES IDX 69 66 66 67 62 68 63 69 64 70 65 71 6 72 7 73 8 74 9 75
REMARK SMILES IDX 10 76 11 77 12 79 13 80 14 81 31 82 15 83 30 84 32 85 19 86
REMARK SMILES IDX 29 87 20 88 28 89 21 90 16 91 17 92 18 93 22 94 23 95 27 96
REMARK SMILES IDX 24 97 26 98 25 99
REMARK H PARENT 3 6 89 24 57 35 10 78 25 100 25 101
REMARK Flexibility Score: inf
ROOT
ATOM      1  C   UNL     1       4.688  -2.164  -1.511  1.00  0.00     0.021 C 
ENDROOT
BRANCH   1   2
ATOM      2  C   UNL     1       4.432  -0.742  -1.030  1.00  0.00     0.116 C 
BRANCH   2   3
ATOM      3  N   UNL     1       3.015  -0.429  -0.973  1.00  0.00    -0.352 N 
ATOM      4  O   UNL     1       1.035   0.037  -0.021  1.00  0.00    -0.269 OA
ATOM      5  C   UNL     1       2.262   0.021   0.080  1.00  0.00     0.251 C 
ATOM      6  H   UNL     1       2.523  -0.558  -1.816  1.00  0.00     0.163 HD
BRANCH   5   7
ATOM      7  C   UNL     1       2.909   0.481   1.329  1.00  0.00     0.039 A 
ATOM      8  C   UNL     1       2.293   0.197   2.550  1.00  0.00     0.014 A 
ATOM      9  C   UNL     1       4.083   1.241   1.303  1.00  0.00     0.014 A 
ATOM     10  C   UNL     1       2.854   0.672   3.738  1.00  0.00     0.010 A 
ATOM     11  C   UNL     1       4.693   1.628   2.493  1.00  0.00     0.010 A 
ATOM     12  C   UNL     1       4.060   1.392   3.720  1.00  0.00    -0.014 A 
BRANCH  12  13
ATOM     13  C   UNL     1       4.612   1.991   4.964  1.00  0.00     0.031 A 
ATOM     14  C   UNL     1       4.713   3.491   5.087  1.00  0.00     0.074 A 
ATOM     15  C   UNL     1       5.020   1.200   5.976  1.00  0.00     0.049 A 
ATOM     16  N   UNL     1       5.151   4.208   6.089  1.00  0.00    -0.248 NA
ATOM     17  C   UNL     1       4.289   4.293   3.925  1.00  0.00     0.031 C 
ATOM     18  C   UNL     1       4.998  -0.263   5.959  1.00  0.00     0.029 A 
ATOM     19  N   UNL     1       5.519   1.511   7.218  1.00  0.00    -0.354 N 
ATOM     20  C   UNL     1       5.068   5.533   5.673  1.00  0.00     0.074 A 
ATOM     21  C   UNL     1       4.607   5.521   4.306  1.00  0.00     0.031 C 
ATOM     22  C   UNL     1       5.411  -0.721   7.152  1.00  0.00     0.029 A 
ATOM     23  C   UNL     1       5.769   0.410   8.006  1.00  0.00     0.049 A 
ATOM     24  H   UNL     1       5.682   2.435   7.516  1.00  0.00     0.167 HD
ATOM     25  C   UNL     1       5.316   6.659   6.381  1.00  0.00     0.034 A 
ATOM     26  C   UNL     1       6.219   0.323   9.276  1.00  0.00     0.034 A 
ATOM     27  C   UNL     1       5.724   6.657   7.761  1.00  0.00     0.049 A 
ATOM     28  C   UNL     1       6.483   1.597  10.044  1.00  0.00     0.074 A 
ATOM     29  C   UNL     1       5.946   7.747   8.583  1.00  0.00     0.029 A 
ATOM     30  N   UNL     1       5.958   5.524   8.525  1.00  0.00    -0.354 N 
ATOM     31  N   UNL     1       6.322   2.842   9.661  1.00  0.00    -0.248 NA
ATOM     32  C   UNL     1       6.970   1.458  11.424  1.00  0.00     0.031 C 
ATOM     33  C   UNL     1       6.385   7.277   9.819  1.00  0.00     0.029 A 
ATOM     34  C   UNL     1       6.343   5.892   9.803  1.00  0.00     0.049 A 
ATOM     35  H   UNL     1       5.863   4.598   8.207  1.00  0.00     0.167 HD
ATOM     36  C   UNL     1       6.637   3.629  10.767  1.00  0.00     0.074 A 
ATOM     37  C   UNL     1       6.983   2.718  11.837  1.00  0.00     0.031 C 
ATOM     38  C   UNL     1       6.641   4.981  10.882  1.00  0.00     0.034 A 
BRANCH  25  39
ATOM     39  C   UNL     1       5.124   8.000   5.716  1.00  0.00     0.023 A 
ATOM     40  C   UNL     1       6.211   8.887   5.611  1.00  0.00     0.031 A 
ATOM     41  C   UNL     1       3.849   8.463   5.344  1.00  0.00     0.131 A 
ATOM     42  C   UNL     1       5.995  10.208   5.203  1.00  0.00     0.055 A 
ATOM     43  C   UNL     1       3.648   9.765   4.884  1.00  0.00     0.041 A 
ATOM     44  F   UNL     1       2.779   7.656   5.425  1.00  0.00    -0.206 F 
ATOM     45  C   UNL     1       4.721  10.650   4.831  1.00  0.00     0.022 A 
BRANCH  42  46
ATOM     46  S   UNL     1       7.339  11.424   5.227  1.00  0.00     0.124 S 
ATOM     47  O   UNL     1       7.337  11.903   3.846  1.00  0.00    -0.237 OA
ATOM     48  O   UNL     1       6.864  12.383   6.221  1.00  0.00    -0.237 OA
ATOM     49  O   UNL     1       8.511  10.645   5.609  1.00  0.00    -0.744 OA
ENDBRANCH  42  46
ENDBRANCH  25  39
BRANCH  26  50
ATOM     50  C   UNL     1       6.353  -1.018   9.921  1.00  0.00     0.023 A 
ATOM     51  C   UNL     1       7.221  -1.997   9.405  1.00  0.00     0.031 A 
ATOM     52  C   UNL     1       5.551  -1.367  11.023  1.00  0.00     0.131 A 
ATOM     53  C   UNL     1       7.225  -3.287   9.953  1.00  0.00     0.055 A 
ATOM     54  C   UNL     1       5.614  -2.630  11.615  1.00  0.00     0.041 A 
ATOM     55  F   UNL     1       4.692  -0.476  11.544  1.00  0.00    -0.206 F 
ATOM     56  C   UNL     1       6.444  -3.603  11.069  1.00  0.00     0.022 A 
BRANCH  53  57
ATOM     57  S   UNL     1       8.148  -4.632   9.158  1.00  0.00     0.124 S 
ATOM     58  O   UNL     1       9.072  -5.034  10.213  1.00  0.00    -0.237 OA
ATOM     59  O   UNL     1       7.083  -5.585   8.854  1.00  0.00    -0.237 OA
ATOM     60  O   UNL     1       8.756  -3.993   7.995  1.00  0.00    -0.744 OA
ENDBRANCH  53  57
ENDBRANCH  26  50
BRANCH  38  61
ATOM     61  C   UNL     1       6.979   5.605  12.217  1.00  0.00     0.023 A 
ATOM     62  C   UNL     1       6.037   6.443  12.849  1.00  0.00     0.031 A 
ATOM     63  C   UNL     1       8.264   5.515  12.776  1.00  0.00     0.131 A 
ATOM     64  C   UNL     1       6.409   7.192  13.971  1.00  0.00     0.055 A 
ATOM     65  C   UNL     1       8.612   6.217  13.931  1.00  0.00     0.041 A 
ATOM     66  F   UNL     1       9.206   4.750  12.202  1.00  0.00    -0.206 F 
ATOM     67  C   UNL     1       7.688   7.073  14.524  1.00  0.00     0.022 A 
BRANCH  64  68
ATOM     68  S   UNL     1       5.290   8.430  14.683  1.00  0.00     0.124 S 
ATOM     69  O   UNL     1       5.067   7.898  16.025  1.00  0.00    -0.237 OA
ATOM     70  O   UNL     1       6.097   9.646  14.621  1.00  0.00    -0.237 OA
ATOM     71  O   UNL     1       4.127   8.404  13.802  1.00  0.00    -0.744 OA
ENDBRANCH  64  68
ENDBRANCH  38  61
ENDBRANCH  12  13
ENDBRANCH   5   7
ENDBRANCH   2   3
ENDBRANCH   1   2
BRANCH   1  72
ATOM     72  C   UNL     1       4.184  -2.467  -2.923  1.00  0.00     0.002 C 
BRANCH  72  73
ATOM     73  C   UNL     1       4.699  -1.528  -4.018  1.00  0.00     0.002 C 
BRANCH  73  74
ATOM     74  C   UNL     1       6.221  -1.402  -4.111  1.00  0.00     0.021 C 
BRANCH  74  75
ATOM     75  C   UNL     1       6.967  -2.723  -4.257  1.00  0.00     0.116 C 
BRANCH  75  76
ATOM     76  N   UNL     1       6.585  -3.451  -5.459  1.00  0.00    -0.352 N 
ATOM     77  C   UNL     1       7.382  -3.968  -6.445  1.00  0.00     0.256 C 
ATOM     78  H   UNL     1       5.618  -3.592  -5.580  1.00  0.00     0.163 HD
ATOM     79  O   UNL     1       6.883  -4.553  -7.405  1.00  0.00    -0.269 OA
BRANCH  77  80
ATOM     80  C   UNL     1       8.840  -3.839  -6.287  1.00  0.00     0.104 A 
ATOM     81  C   UNL     1       9.418  -4.427  -5.229  1.00  0.00     0.104 A 
ATOM     82  C   UNL     1       9.684  -3.043  -7.198  1.00  0.00     0.202 A 
ATOM     83  N   UNL     1      10.736  -4.288  -4.843  1.00  0.00    -0.343 N 
ATOM     84  C   UNL     1      11.129  -2.955  -6.869  1.00  0.00     0.047 A 
ATOM     85  O   UNL     1       9.226  -2.452  -8.170  1.00  0.00    -0.288 OA
ATOM     86  C   UNL     1      11.628  -3.589  -5.714  1.00  0.00     0.054 A 
ATOM     87  C   UNL     1      11.969  -2.204  -7.700  1.00  0.00     0.016 A 
ATOM     88  C   UNL     1      13.004  -3.481  -5.458  1.00  0.00     0.053 A 
ATOM     89  C   UNL     1      13.319  -2.068  -7.381  1.00  0.00     0.027 A 
ATOM     90  C   UNL     1      13.857  -2.706  -6.260  1.00  0.00     0.039 A 
BRANCH  83  91
ATOM     91  C   UNL     1      11.142  -4.650  -3.459  1.00  0.00     0.087 C 
ATOM     92  C   UNL     1      10.214  -5.066  -2.343  1.00  0.00     0.027 C 
ATOM     93  C   UNL     1      11.113  -6.080  -2.989  1.00  0.00     0.027 C 
ENDBRANCH  83  91
BRANCH  90  94
ATOM     94  N   UNL     1      15.188  -2.588  -5.926  1.00  0.00    -0.360 N 
ATOM     95  C   UNL     1      16.053  -3.768  -5.973  1.00  0.00     0.178 C 
ATOM     96  C   UNL     1      15.843  -1.282  -5.831  1.00  0.00     0.178 C 
ATOM     97  C   UNL     1      17.172  -3.559  -7.020  1.00  0.00     0.282 C 
ATOM     98  C   UNL     1      16.991  -1.165  -6.858  1.00  0.00     0.282 C 
ATOM     99  N   UNL     1      17.937  -2.305  -6.828  1.00  0.00    -0.343 N 
ATOM    100  H   UNL     1      18.622  -2.203  -7.577  1.00  0.00     0.346 HD
ATOM    101  H   UNL     1      18.426  -2.329  -5.933  1.00  0.00     0.346 HD
ENDBRANCH  90  94
ENDBRANCH  77  80
ENDBRANCH  75  76
ENDBRANCH  74  75
ENDBRANCH  73  74
ENDBRANCH  72  73
ENDBRANCH   1  72
TORSDOF 18
