REMARK SMILES O=C(CSc1nnc2sc3ccccc3n12)N[C@H](Cc1c[nH]c2ccccc12)C(=O)NCCCCCCNC(=O)c1ccc(-c2c3nc(c(-c4cc(S(=O)(=O)[O-])ccc4F)c4ccc([nH]4)c(-c4cc(S(=O)(=O)[O-])ccc4F)c4nc(c(-c5cc(S(=O)(=O)[O-])ccc5F)c5ccc2[nH]5)C=C4)C=C3)cc1
REMARK SMILES IDX 34 1 33 2 32 3 31 4 29 5 30 6 18 8 17 9 1 10 2 11 3 13 4 14
REMARK SMILES IDX 5 15 6 16 16 17 7 18 8 19 15 20 9 21 10 22 14 23 11 24 13 25
REMARK SMILES IDX 12 26 19 27 20 28 21 29 28 30 22 31 23 32 27 33 24 35 26 36
REMARK SMILES IDX 25 37 35 38 36 39 37 40 38 41 39 42 40 44 41 45 42 46 103 47
REMARK SMILES IDX 43 48 102 49 44 50 45 51 46 52 96 53 47 54 101 55 95 56
REMARK SMILES IDX 97 57 48 58 100 59 94 60 93 61 49 63 81 64 61 65 80 66 62 67
REMARK SMILES IDX 65 68 79 69 98 70 63 71 64 72 78 74 99 75 66 76 50 77 51 78
REMARK SMILES IDX 59 79 52 80 58 81 60 82 57 83 53 84 54 85 55 86 56 87 82 88
REMARK SMILES IDX 83 89 91 90 84 91 90 92 92 93 89 94 85 95 86 96 87 97 88 98
REMARK SMILES IDX 67 99 68 100 76 101 69 102 75 103 77 104 74 105 70 106
REMARK SMILES IDX 71 107 72 108 73 109
REMARK H PARENT 31 7 17 12 22 34 38 43 97 62 65 73
REMARK Flexibility Score: inf
ROOT
ATOM      1  C   UNL     1       6.951   0.150  -4.434  1.00  0.00     0.002 C 
ENDROOT
BRANCH   1   2
ATOM      2  C   UNL     1       6.234   0.271  -3.092  1.00  0.00     0.021 C 
BRANCH   2   3
ATOM      3  C   UNL     1       5.263   1.431  -3.003  1.00  0.00     0.116 C 
BRANCH   3   4
ATOM      4  N   UNL     1       4.030   1.211  -3.725  1.00  0.00    -0.354 N 
ATOM      5  C   UNL     1       2.752   1.466  -3.326  1.00  0.00     0.242 C 
ATOM      6  O   UNL     1       1.881   1.563  -4.200  1.00  0.00    -0.273 OA
ATOM      7  H   UNL     1       4.127   0.826  -4.625  1.00  0.00     0.163 HD
BRANCH   5   8
ATOM      8  C   UNL     1       2.400   1.781  -1.856  1.00  0.00     0.175 C 
BRANCH   8   9
ATOM      9  N   UNL     1       2.876   3.159  -1.644  1.00  0.00    -0.343 N 
ATOM     10  O   UNL     1       4.418   2.909   0.021  1.00  0.00    -0.274 OA
ATOM     11  C   UNL     1       3.968   3.557  -0.923  1.00  0.00     0.231 C 
ATOM     12  H   UNL     1       2.349   3.874  -2.070  1.00  0.00     0.164 HD
BRANCH  11  13
ATOM     13  C   UNL     1       4.686   4.816  -1.405  1.00  0.00     0.178 C 
BRANCH  13  14
ATOM     14  S   UNL     1       3.835   5.719  -2.729  1.00  0.00    -0.076 SA
BRANCH  14  15
ATOM     15  C   UNL     1       4.637   5.128  -4.144  1.00  0.00     0.197 A 
ATOM     16  N   UNL     1       4.299   4.037  -4.809  1.00  0.00    -0.122 NA
ATOM     17  N   UNL     1       5.590   5.801  -4.853  1.00  0.00    -0.260 N 
ATOM     18  N   UNL     1       5.032   3.997  -5.993  1.00  0.00    -0.118 NA
ATOM     19  C   UNL     1       5.762   5.080  -5.997  1.00  0.00     0.217 A 
ATOM     20  C   UNL     1       6.339   6.966  -4.756  1.00  0.00     0.068 A 
ATOM     21  S   UNL     1       6.854   5.815  -7.118  1.00  0.00    -0.094 S 
ATOM     22  C   UNL     1       7.072   7.157  -5.941  1.00  0.00     0.055 A 
ATOM     23  C   UNL     1       6.393   7.848  -3.692  1.00  0.00     0.028 A 
ATOM     24  C   UNL     1       7.842   8.295  -6.101  1.00  0.00     0.021 A 
ATOM     25  C   UNL     1       7.184   8.983  -3.850  1.00  0.00     0.002 A 
ATOM     26  C   UNL     1       7.885   9.211  -5.045  1.00  0.00     0.002 A 
ENDBRANCH  14  15
ENDBRANCH  13  14
ENDBRANCH  11  13
ENDBRANCH   8   9
BRANCH   8  27
ATOM     27  C   UNL     1       2.758   0.681  -0.845  1.00  0.00     0.072 C 
BRANCH  27  28
ATOM     28  C   UNL     1       2.328  -0.734  -1.179  1.00  0.00    -0.020 A 
ATOM     29  C   UNL     1       2.985  -1.855  -0.697  1.00  0.00     0.087 A 
ATOM     30  C   UNL     1       1.257  -1.226  -2.010  1.00  0.00     0.003 A 
ATOM     31  N   UNL     1       2.403  -2.972  -1.226  1.00  0.00    -0.361 N 
ATOM     32  C   UNL     1       1.368  -2.620  -2.054  1.00  0.00     0.046 A 
ATOM     33  C   UNL     1       0.219  -0.640  -2.767  1.00  0.00     0.010 A 
ATOM     34  H   UNL     1       2.686  -3.896  -1.039  1.00  0.00     0.166 HD
ATOM     35  C   UNL     1       0.537  -3.433  -2.840  1.00  0.00     0.026 A 
ATOM     36  C   UNL     1      -0.604  -1.433  -3.577  1.00  0.00     0.001 A 
ATOM     37  C   UNL     1      -0.441  -2.811  -3.616  1.00  0.00     0.002 A 
ENDBRANCH  27  28
ENDBRANCH   8  27
ENDBRANCH   5   8
ENDBRANCH   3   4
ENDBRANCH   2   3
ENDBRANCH   1   2
BRANCH   1  38
ATOM     38  C   UNL     1       7.726   1.393  -4.893  1.00  0.00     0.002 C 
BRANCH  38  39
ATOM     39  C   UNL     1       8.716   1.992  -3.882  1.00  0.00     0.021 C 
BRANCH  39  40
ATOM     40  C   UNL     1       9.712   0.992  -3.296  1.00  0.00     0.116 C 
BRANCH  40  41
ATOM     41  N   UNL     1      10.428   0.247  -4.307  1.00  0.00    -0.352 N 
ATOM     42  C   UNL     1      11.560   0.438  -5.043  1.00  0.00     0.251 C 
ATOM     43  H   UNL     1       9.991  -0.610  -4.516  1.00  0.00     0.163 HD
ATOM     44  O   UNL     1      11.848  -0.483  -5.814  1.00  0.00    -0.269 OA
BRANCH  42  45
ATOM     45  C   UNL     1      12.417   1.654  -5.021  1.00  0.00     0.039 A 
ATOM     46  C   UNL     1      12.261   2.754  -4.176  1.00  0.00     0.014 A 
ATOM     47  C   UNL     1      13.450   1.685  -5.977  1.00  0.00     0.014 A 
ATOM     48  C   UNL     1      13.051   3.889  -4.347  1.00  0.00     0.010 A 
ATOM     49  C   UNL     1      14.254   2.807  -6.138  1.00  0.00     0.010 A 
ATOM     50  C   UNL     1      14.015   3.931  -5.358  1.00  0.00    -0.014 A 
BRANCH  50  51
ATOM     51  C   UNL     1      14.780   5.164  -5.525  1.00  0.00     0.031 A 
ATOM     52  C   UNL     1      15.596   5.578  -4.346  1.00  0.00     0.074 A 
ATOM     53  C   UNL     1      14.843   5.843  -6.689  1.00  0.00     0.049 A 
ATOM     54  N   UNL     1      15.467   6.633  -3.607  1.00  0.00    -0.248 NA
ATOM     55  C   UNL     1      16.610   4.631  -3.863  1.00  0.00     0.031 C 
ATOM     56  C   UNL     1      14.375   5.424  -8.014  1.00  0.00     0.029 A 
ATOM     57  N   UNL     1      15.447   7.035  -6.943  1.00  0.00    -0.354 N 
ATOM     58  C   UNL     1      16.498   6.577  -2.666  1.00  0.00     0.074 A 
ATOM     59  C   UNL     1      17.073   5.260  -2.784  1.00  0.00     0.031 C 
ATOM     60  C   UNL     1      14.928   6.225  -8.954  1.00  0.00     0.029 A 
ATOM     61  C   UNL     1      15.645   7.300  -8.290  1.00  0.00     0.049 A 
ATOM     62  H   UNL     1      15.720   7.658  -6.231  1.00  0.00     0.167 HD
ATOM     63  C   UNL     1      16.921   7.676  -1.976  1.00  0.00     0.034 A 
ATOM     64  C   UNL     1      16.412   8.286  -8.818  1.00  0.00     0.034 A 
ATOM     65  C   UNL     1      15.976   8.753  -2.069  1.00  0.00     0.049 A 
ATOM     66  C   UNL     1      16.639   9.309  -7.769  1.00  0.00     0.074 A 
ATOM     67  C   UNL     1      14.677   8.950  -1.647  1.00  0.00     0.029 A 
ATOM     68  N   UNL     1      16.227   9.746  -2.983  1.00  0.00    -0.354 N 
ATOM     69  N   UNL     1      15.713  10.098  -7.302  1.00  0.00    -0.248 NA
ATOM     70  C   UNL     1      17.812   9.153  -6.923  1.00  0.00     0.031 C 
ATOM     71  C   UNL     1      14.072   9.725  -2.677  1.00  0.00     0.029 A 
ATOM     72  C   UNL     1      15.050  10.001  -3.636  1.00  0.00     0.049 A 
ATOM     73  H   UNL     1      17.091  10.191  -3.140  1.00  0.00     0.167 HD
ATOM     74  C   UNL     1      15.966  10.162  -5.940  1.00  0.00     0.074 A 
ATOM     75  C   UNL     1      17.325   9.647  -5.783  1.00  0.00     0.031 C 
ATOM     76  C   UNL     1      14.961  10.360  -5.036  1.00  0.00     0.034 A 
BRANCH  63  77
ATOM     77  C   UNL     1      18.332   7.886  -1.475  1.00  0.00     0.023 A 
ATOM     78  C   UNL     1      19.413   7.086  -1.886  1.00  0.00     0.031 A 
ATOM     79  C   UNL     1      18.673   9.049  -0.750  1.00  0.00     0.131 A 
ATOM     80  C   UNL     1      20.739   7.427  -1.585  1.00  0.00     0.055 A 
ATOM     81  C   UNL     1      20.001   9.426  -0.507  1.00  0.00     0.041 A 
ATOM     82  F   UNL     1      17.726   9.891  -0.306  1.00  0.00    -0.206 F 
ATOM     83  C   UNL     1      21.044   8.612  -0.927  1.00  0.00     0.022 A 
BRANCH  80  84
ATOM     84  S   UNL     1      22.094   6.321  -2.067  1.00  0.00     0.124 S 
ATOM     85  O   UNL     1      22.862   7.173  -2.975  1.00  0.00    -0.237 OA
ATOM     86  O   UNL     1      22.726   6.051  -0.774  1.00  0.00    -0.237 OA
ATOM     87  O   UNL     1      21.415   5.190  -2.672  1.00  0.00    -0.744 OA
ENDBRANCH  80  84
ENDBRANCH  63  77
BRANCH  64  88
ATOM     88  C   UNL     1      17.354   8.129  -9.951  1.00  0.00     0.023 A 
ATOM     89  C   UNL     1      17.974   6.884 -10.166  1.00  0.00     0.031 A 
ATOM     90  C   UNL     1      17.898   9.247 -10.606  1.00  0.00     0.131 A 
ATOM     91  C   UNL     1      19.125   6.790 -10.959  1.00  0.00     0.055 A 
ATOM     92  C   UNL     1      19.036   9.147 -11.415  1.00  0.00     0.041 A 
ATOM     93  F   UNL     1      17.376  10.468 -10.413  1.00  0.00    -0.206 F 
ATOM     94  C   UNL     1      19.665   7.916 -11.581  1.00  0.00     0.022 A 
BRANCH  91  95
ATOM     95  S   UNL     1      20.000   5.209 -11.116  1.00  0.00     0.124 S 
ATOM     96  O   UNL     1      20.212   5.117 -12.558  1.00  0.00    -0.237 OA
ATOM     97  O   UNL     1      21.196   5.454 -10.318  1.00  0.00    -0.237 OA
ATOM     98  O   UNL     1      19.055   4.240 -10.568  1.00  0.00    -0.744 OA
ENDBRANCH  91  95
ENDBRANCH  64  88
BRANCH  76  99
ATOM     99  C   UNL     1      13.586  10.734  -5.544  1.00  0.00     0.023 A 
ATOM    100  C   UNL     1      12.924  11.795  -4.900  1.00  0.00     0.031 A 
ATOM    101  C   UNL     1      12.839   9.967  -6.460  1.00  0.00     0.131 A 
ATOM    102  C   UNL     1      11.573  12.045  -5.158  1.00  0.00     0.055 A 
ATOM    103  C   UNL     1      11.515  10.277  -6.780  1.00  0.00     0.041 A 
ATOM    104  F   UNL     1      13.333   8.850  -7.008  1.00  0.00    -0.206 F 
ATOM    105  C   UNL     1      10.875  11.321  -6.127  1.00  0.00     0.022 A 
BRANCH 102 106
ATOM    106  S   UNL     1      10.632  13.184  -4.112  1.00  0.00     0.124 S 
ATOM    107  O   UNL     1      10.198  14.196  -5.069  1.00  0.00    -0.237 OA
ATOM    108  O   UNL     1       9.572  12.316  -3.597  1.00  0.00    -0.237 OA
ATOM    109  O   UNL     1      11.599  13.634  -3.116  1.00  0.00    -0.744 OA
ENDBRANCH 102 106
ENDBRANCH  76  99
ENDBRANCH  50  51
ENDBRANCH  42  45
ENDBRANCH  40  41
ENDBRANCH  39  40
ENDBRANCH  38  39
ENDBRANCH   1  38
TORSDOF 22
