REMARK SMILES CCc1n[nH]c2cc(CCC(=O)NCCCCCCNC(=O)c3ccc(-c4c5nc(c(-c6cc(S(=O)(=O)[O-])ccc6F)c6ccc([nH]6)c(-c6cc(S(=O)(=O)[O-])ccc6F)c6nc(c(-c7cc(S(=O)(=O)[O-])ccc7F)c7ccc4[nH]7)C=C6)C=C5)cc3)ccc12
REMARK SMILES IDX 16 1 15 2 14 3 13 4 11 5 12 6 10 8 9 9 8 10 3 11 4 12 88 13
REMARK SMILES IDX 5 14 6 15 87 16 7 18 86 19 2 20 1 21 17 22 18 23 19 24 20 25
REMARK SMILES IDX 21 26 22 28 23 29 24 30 85 31 25 32 84 33 26 34 27 35 28 36
REMARK SMILES IDX 78 37 29 38 83 39 77 40 79 41 30 42 82 43 76 44 75 45 31 47
REMARK SMILES IDX 63 48 43 49 62 50 44 51 47 52 61 53 80 54 45 55 46 56 60 58
REMARK SMILES IDX 81 59 48 60 32 61 33 62 41 63 34 64 40 65 42 66 39 67 35 68
REMARK SMILES IDX 36 69 37 70 38 71 64 72 65 73 73 74 66 75 72 76 74 77 71 78
REMARK SMILES IDX 67 79 68 80 69 81 70 82 49 83 50 84 58 85 51 86 57 87 59 88
REMARK SMILES IDX 56 89 52 90 53 91 54 92 55 93
REMARK H PARENT 13 7 5 17 20 27 79 46 47 57
REMARK Flexibility Score: inf
ROOT
ATOM      1  C   UNL     1       1.482  -1.931  -6.072  1.00  0.00     0.002 C 
ENDROOT
BRANCH   1   2
ATOM      2  C   UNL     1       0.958  -2.864  -4.980  1.00  0.00     0.021 C 
BRANCH   2   3
ATOM      3  C   UNL     1      -0.298  -3.671  -5.309  1.00  0.00     0.116 C 
BRANCH   3   4
ATOM      4  N   UNL     1       0.064  -4.963  -5.873  1.00  0.00    -0.356 N 
ATOM      5  C   UNL     1       0.119  -6.191  -5.284  1.00  0.00     0.220 C 
ATOM      6  O   UNL     1       0.682  -7.104  -5.894  1.00  0.00    -0.275 OA
ATOM      7  H   UNL     1       0.305  -4.948  -6.827  1.00  0.00     0.163 HD
BRANCH   5   8
ATOM      8  C   UNL     1      -0.533  -6.455  -3.939  1.00  0.00     0.105 C 
BRANCH   8   9
ATOM      9  C   UNL     1       0.469  -6.558  -2.784  1.00  0.00     0.045 C 
BRANCH   9  10
ATOM     10  C   UNL     1       0.712  -5.230  -2.104  1.00  0.00    -0.045 A 
ATOM     11  C   UNL     1       1.378  -1.245  -1.047  1.00  0.00     0.070 A 
ATOM     12  N   UNL     1       2.602  -1.052  -1.559  1.00  0.00    -0.180 NA
ATOM     13  C   UNL     1       0.958  -2.596  -1.178  1.00  0.00     0.023 A 
ATOM     14  N   UNL     1       2.968  -2.272  -1.987  1.00  0.00    -0.278 N 
ATOM     15  C   UNL     1       2.002  -3.231  -1.839  1.00  0.00     0.066 A 
ATOM     16  C   UNL     1      -0.199  -3.328  -0.868  1.00  0.00     0.012 A 
ATOM     17  H   UNL     1       3.854  -2.460  -2.373  1.00  0.00     0.190 HD
ATOM     18  C   UNL     1       1.929  -4.555  -2.290  1.00  0.00     0.032 A 
ATOM     19  C   UNL     1      -0.310  -4.640  -1.344  1.00  0.00     0.004 A 
BRANCH  11  20
ATOM     20  C   UNL     1       0.595  -0.092  -0.513  1.00  0.00     0.055 C 
ATOM     21  C   UNL     1       0.945   0.232   0.927  1.00  0.00     0.011 C 
ENDBRANCH  11  20
ENDBRANCH   9  10
ENDBRANCH   8   9
ENDBRANCH   5   8
ENDBRANCH   3   4
ENDBRANCH   2   3
ENDBRANCH   1   2
BRANCH   1  22
ATOM     22  C   UNL     1       0.674  -0.646  -6.290  1.00  0.00     0.002 C 
BRANCH  22  23
ATOM     23  C   UNL     1       0.406   0.221  -5.050  1.00  0.00     0.021 C 
BRANCH  23  24
ATOM     24  C   UNL     1       1.635   0.742  -4.302  1.00  0.00     0.116 C 
BRANCH  24  25
ATOM     25  N   UNL     1       2.364   1.758  -5.037  1.00  0.00    -0.352 N 
ATOM     26  C   UNL     1       2.724   3.040  -4.692  1.00  0.00     0.251 C 
ATOM     27  H   UNL     1       2.651   1.482  -5.937  1.00  0.00     0.163 HD
ATOM     28  O   UNL     1       3.281   3.730  -5.543  1.00  0.00    -0.269 OA
BRANCH  26  29
ATOM     29  C   UNL     1       2.420   3.633  -3.360  1.00  0.00     0.039 A 
ATOM     30  C   UNL     1       2.010   4.971  -3.332  1.00  0.00     0.014 A 
ATOM     31  C   UNL     1       2.590   2.955  -2.149  1.00  0.00     0.014 A 
ATOM     32  C   UNL     1       1.729   5.605  -2.116  1.00  0.00     0.010 A 
ATOM     33  C   UNL     1       2.248   3.575  -0.933  1.00  0.00     0.010 A 
ATOM     34  C   UNL     1       1.811   4.909  -0.899  1.00  0.00    -0.014 A 
BRANCH  34  35
ATOM     35  C   UNL     1       1.423   5.599   0.371  1.00  0.00     0.031 A 
ATOM     36  C   UNL     1       2.433   5.888   1.453  1.00  0.00     0.074 A 
ATOM     37  C   UNL     1       0.149   6.015   0.536  1.00  0.00     0.049 A 
ATOM     38  N   UNL     1       2.289   6.589   2.553  1.00  0.00    -0.248 NA
ATOM     39  C   UNL     1       3.770   5.304   1.289  1.00  0.00     0.031 C 
ATOM     40  C   UNL     1      -0.944   5.767  -0.408  1.00  0.00     0.029 A 
ATOM     41  N   UNL     1      -0.442   6.752   1.535  1.00  0.00    -0.354 N 
ATOM     42  C   UNL     1       3.517   6.540   3.205  1.00  0.00     0.074 A 
ATOM     43  C   UNL     1       4.371   5.683   2.408  1.00  0.00     0.031 C 
ATOM     44  C   UNL     1      -2.052   6.387   0.028  1.00  0.00     0.029 A 
ATOM     45  C   UNL     1      -1.768   7.043   1.301  1.00  0.00     0.049 A 
ATOM     46  H   UNL     1       0.038   7.045   2.343  1.00  0.00     0.167 HD
ATOM     47  C   UNL     1       3.907   7.167   4.346  1.00  0.00     0.034 A 
ATOM     48  C   UNL     1      -2.658   7.761   2.018  1.00  0.00     0.034 A 
ATOM     49  C   UNL     1       3.046   8.012   5.145  1.00  0.00     0.049 A 
ATOM     50  C   UNL     1      -2.209   8.427   3.295  1.00  0.00     0.074 A 
ATOM     51  C   UNL     1       3.359   8.721   6.293  1.00  0.00     0.029 A 
ATOM     52  N   UNL     1       1.701   8.252   4.894  1.00  0.00    -0.354 N 
ATOM     53  N   UNL     1      -1.023   8.423   3.858  1.00  0.00    -0.248 NA
ATOM     54  C   UNL     1      -3.216   9.212   4.019  1.00  0.00     0.031 C 
ATOM     55  C   UNL     1       2.191   9.319   6.779  1.00  0.00     0.029 A 
ATOM     56  C   UNL     1       1.165   9.066   5.884  1.00  0.00     0.049 A 
ATOM     57  H   UNL     1       1.199   7.896   4.126  1.00  0.00     0.167 HD
ATOM     58  C   UNL     1      -1.137   9.236   4.985  1.00  0.00     0.074 A 
ATOM     59  C   UNL     1      -2.497   9.731   5.002  1.00  0.00     0.031 C 
ATOM     60  C   UNL     1      -0.198   9.547   5.917  1.00  0.00     0.034 A 
BRANCH  47  61
ATOM     61  C   UNL     1       5.328   6.939   4.817  1.00  0.00     0.023 A 
ATOM     62  C   UNL     1       6.436   7.332   4.044  1.00  0.00     0.031 A 
ATOM     63  C   UNL     1       5.581   6.315   6.052  1.00  0.00     0.131 A 
ATOM     64  C   UNL     1       7.737   7.031   4.477  1.00  0.00     0.055 A 
ATOM     65  C   UNL     1       6.880   6.096   6.517  1.00  0.00     0.041 A 
ATOM     66  F   UNL     1       4.567   5.900   6.829  1.00  0.00    -0.206 F 
ATOM     67  C   UNL     1       7.968   6.441   5.721  1.00  0.00     0.022 A 
BRANCH  64  68
ATOM     68  S   UNL     1       9.117   7.289   3.327  1.00  0.00     0.124 S 
ATOM     69  O   UNL     1       8.712   6.465   2.191  1.00  0.00    -0.237 OA
ATOM     70  O   UNL     1       9.086   8.731   3.115  1.00  0.00    -0.237 OA
ATOM     71  O   UNL     1      10.276   6.791   4.065  1.00  0.00    -0.744 OA
ENDBRANCH  64  68
ENDBRANCH  47  61
BRANCH  48  72
ATOM     72  C   UNL     1      -4.073   7.893   1.555  1.00  0.00     0.023 A 
ATOM     73  C   UNL     1      -4.624   9.145   1.232  1.00  0.00     0.031 A 
ATOM     74  C   UNL     1      -4.915   6.768   1.488  1.00  0.00     0.131 A 
ATOM     75  C   UNL     1      -5.988   9.248   0.911  1.00  0.00     0.055 A 
ATOM     76  C   UNL     1      -6.254   6.868   1.106  1.00  0.00     0.041 A 
ATOM     77  F   UNL     1      -4.442   5.547   1.786  1.00  0.00    -0.206 F 
ATOM     78  C   UNL     1      -6.801   8.116   0.831  1.00  0.00     0.022 A 
BRANCH  75  79
ATOM     79  S   UNL     1      -6.711  10.899   0.699  1.00  0.00     0.124 S 
ATOM     80  O   UNL     1      -6.420  11.518   1.986  1.00  0.00    -0.237 OA
ATOM     81  O   UNL     1      -5.965  11.412  -0.445  1.00  0.00    -0.237 OA
ATOM     82  O   UNL     1      -8.123  10.620   0.445  1.00  0.00    -0.744 OA
ENDBRANCH  75  79
ENDBRANCH  48  72
BRANCH  60  83
ATOM     83  C   UNL     1      -0.609  10.509   7.012  1.00  0.00     0.023 A 
ATOM     84  C   UNL     1      -1.639  10.207   7.922  1.00  0.00     0.031 A 
ATOM     85  C   UNL     1       0.004  11.771   7.113  1.00  0.00     0.131 A 
ATOM     86  C   UNL     1      -2.084  11.183   8.828  1.00  0.00     0.055 A 
ATOM     87  C   UNL     1      -0.389  12.709   8.071  1.00  0.00     0.041 A 
ATOM     88  F   UNL     1       0.991  12.123   6.273  1.00  0.00    -0.206 F 
ATOM     89  C   UNL     1      -1.454  12.425   8.921  1.00  0.00     0.022 A 
BRANCH  86  90
ATOM     90  S   UNL     1      -3.596  10.861   9.780  1.00  0.00     0.124 S 
ATOM     91  O   UNL     1      -4.556  10.547   8.727  1.00  0.00    -0.237 OA
ATOM     92  O   UNL     1      -3.196   9.745  10.631  1.00  0.00    -0.237 OA
ATOM     93  O   UNL     1      -3.834  12.121  10.482  1.00  0.00    -0.744 OA
ENDBRANCH  86  90
ENDBRANCH  60  83
ENDBRANCH  34  35
ENDBRANCH  26  29
ENDBRANCH  24  25
ENDBRANCH  23  24
ENDBRANCH  22  23
ENDBRANCH   1  22
TORSDOF 19
