REMARK SMILES Cc1csc(C[C@@H](Cc2ccc(Br)cc2)C(=O)NCCCCCCNC(=O)c2ccc(-c3c4nc(c(-c5cc(S(=O)(=O)[O-])ccc5F)c5ccc([nH]5)c(-c5cc(S(=O)(=O)[O-])ccc5F)c5nc(c(-c6cc(S(=O)(=O)[O-])ccc6F)c6ccc3[nH]6)C=C5)C=C4)cc2)n1
REMARK SMILES IDX 22 1 21 2 20 3 19 4 18 5 16 6 17 7 7 9 6 10 5 11 1 12 2 13
REMARK SMILES IDX 3 14 91 15 4 16 8 17 9 18 10 19 15 20 11 21 14 22 12 23
REMARK SMILES IDX 13 24 23 25 24 26 25 27 26 28 27 30 28 31 29 32 90 33 30 34
REMARK SMILES IDX 89 35 31 36 32 37 33 38 83 39 34 40 88 41 82 42 84 43 35 44
REMARK SMILES IDX 87 45 81 46 80 47 36 49 68 50 48 51 67 52 49 53 52 54 66 55
REMARK SMILES IDX 85 56 50 57 51 58 65 60 86 61 53 62 37 63 38 64 46 65 39 66
REMARK SMILES IDX 45 67 47 68 44 69 40 70 41 71 42 72 43 73 69 74 70 75 78 76
REMARK SMILES IDX 71 77 77 78 79 79 76 80 72 81 73 82 74 83 75 84 54 85 55 86
REMARK SMILES IDX 63 87 56 88 62 89 64 90 61 91 57 92 58 93 59 94 60 95
REMARK H PARENT 18 8 25 29 84 48 52 59
REMARK Flexibility Score: inf
ROOT
ATOM      1  C   UNL     1       1.839   8.034   2.575  1.00  0.00     0.002 C 
ENDROOT
BRANCH   1   2
ATOM      2  C   UNL     1       2.946   6.973   2.530  1.00  0.00     0.002 C 
BRANCH   2   3
ATOM      3  C   UNL     1       2.486   5.522   2.365  1.00  0.00     0.021 C 
BRANCH   3   4
ATOM      4  C   UNL     1       1.529   5.282   1.204  1.00  0.00     0.116 C 
BRANCH   4   5
ATOM      5  N   UNL     1       2.182   5.204  -0.086  1.00  0.00    -0.356 N 
ATOM      6  C   UNL     1       1.886   4.452  -1.180  1.00  0.00     0.223 C 
ATOM      7  O   UNL     1       2.467   4.747  -2.231  1.00  0.00    -0.275 OA
ATOM      8  H   UNL     1       2.966   5.790  -0.187  1.00  0.00     0.163 HD
BRANCH   6   9
ATOM      9  C   UNL     1       0.909   3.275  -1.161  1.00  0.00     0.089 C 
BRANCH   9  10
ATOM     10  C   UNL     1       1.333   2.208  -0.142  1.00  0.00     0.081 C 
BRANCH  10  11
ATOM     11  C   UNL     1       0.590   0.910  -0.248  1.00  0.00     0.094 A 
ATOM     12  C   UNL     1      -2.570  -0.789  -0.067  1.00  0.00     0.067 C 
ATOM     13  C   UNL     1      -1.116  -0.506  -0.157  1.00  0.00     0.048 A 
ATOM     14  C   UNL     1      -0.077  -1.414  -0.148  1.00  0.00     0.090 A 
ATOM     15  N   UNL     1      -0.721   0.814  -0.234  1.00  0.00    -0.247 NA
ATOM     16  S   UNL     1       1.425  -0.592  -0.236  1.00  0.00    -0.127 S 
ENDBRANCH  10  11
ENDBRANCH   9  10
BRANCH   9  17
ATOM     17  C   UNL     1      -0.569   3.714  -1.276  1.00  0.00     0.049 C 
BRANCH  17  18
ATOM     18  C   UNL     1      -1.250   4.426  -0.131  1.00  0.00    -0.047 A 
ATOM     19  C   UNL     1      -1.650   3.739   1.024  1.00  0.00     0.005 A 
ATOM     20  C   UNL     1      -1.533   5.798  -0.225  1.00  0.00     0.005 A 
ATOM     21  C   UNL     1      -2.266   4.414   2.083  1.00  0.00     0.016 A 
ATOM     22  C   UNL     1      -2.155   6.474   0.830  1.00  0.00     0.016 A 
ATOM     23  C   UNL     1      -2.509   5.780   1.983  1.00  0.00     0.017 A 
ATOM     24  Br  UNL     1      -3.310   6.699   3.426  1.00  0.00    -0.051 Br
ENDBRANCH  17  18
ENDBRANCH   9  17
ENDBRANCH   6   9
ENDBRANCH   4   5
ENDBRANCH   3   4
ENDBRANCH   2   3
ENDBRANCH   1   2
BRANCH   1  25
ATOM     25  C   UNL     1       0.667   7.756   3.522  1.00  0.00     0.021 C 
BRANCH  25  26
ATOM     26  C   UNL     1       1.029   7.573   4.992  1.00  0.00     0.116 C 
BRANCH  26  27
ATOM     27  N   UNL     1       1.638   8.759   5.562  1.00  0.00    -0.352 N 
ATOM     28  C   UNL     1       1.350   9.428   6.725  1.00  0.00     0.251 C 
ATOM     29  H   UNL     1       2.373   9.144   5.032  1.00  0.00     0.163 HD
ATOM     30  O   UNL     1       1.881  10.518   6.927  1.00  0.00    -0.269 OA
BRANCH  28  31
ATOM     31  C   UNL     1       0.402   8.870   7.722  1.00  0.00     0.039 A 
ATOM     32  C   UNL     1      -0.440   9.754   8.404  1.00  0.00     0.014 A 
ATOM     33  C   UNL     1       0.373   7.508   8.038  1.00  0.00     0.014 A 
ATOM     34  C   UNL     1      -1.327   9.274   9.372  1.00  0.00     0.010 A 
ATOM     35  C   UNL     1      -0.560   7.020   8.954  1.00  0.00     0.010 A 
ATOM     36  C   UNL     1      -1.409   7.899   9.644  1.00  0.00    -0.014 A 
BRANCH  36  37
ATOM     37  C   UNL     1      -2.344   7.379  10.678  1.00  0.00     0.031 A 
ATOM     38  C   UNL     1      -1.806   6.733  11.928  1.00  0.00     0.074 A 
ATOM     39  C   UNL     1      -3.674   7.457  10.481  1.00  0.00     0.049 A 
ATOM     40  N   UNL     1      -2.453   6.182  12.924  1.00  0.00    -0.248 NA
ATOM     41  C   UNL     1      -0.342   6.675  12.059  1.00  0.00     0.031 C 
ATOM     42  C   UNL     1      -4.320   8.028   9.297  1.00  0.00     0.029 A 
ATOM     43  N   UNL     1      -4.724   7.055  11.268  1.00  0.00    -0.354 N 
ATOM     44  C   UNL     1      -1.478   5.701  13.792  1.00  0.00     0.074 A 
ATOM     45  C   UNL     1      -0.198   5.969  13.170  1.00  0.00     0.031 C 
ATOM     46  C   UNL     1      -5.652   7.963   9.448  1.00  0.00     0.029 A 
ATOM     47  C   UNL     1      -5.958   7.313  10.719  1.00  0.00     0.049 A 
ATOM     48  H   UNL     1      -4.604   6.622  12.145  1.00  0.00     0.167 HD
ATOM     49  C   UNL     1      -1.632   5.112  15.005  1.00  0.00     0.034 A 
ATOM     50  C   UNL     1      -7.196   7.051  11.184  1.00  0.00     0.034 A 
ATOM     51  C   UNL     1      -2.915   4.862  15.619  1.00  0.00     0.049 A 
ATOM     52  C   UNL     1      -7.346   6.388  12.530  1.00  0.00     0.074 A 
ATOM     53  C   UNL     1      -3.188   4.311  16.860  1.00  0.00     0.029 A 
ATOM     54  N   UNL     1      -4.144   5.144  15.035  1.00  0.00    -0.354 N 
ATOM     55  N   UNL     1      -6.414   5.975  13.357  1.00  0.00    -0.248 NA
ATOM     56  C   UNL     1      -8.717   6.172  13.010  1.00  0.00     0.031 C 
ATOM     57  C   UNL     1      -4.577   4.205  17.000  1.00  0.00     0.029 A 
ATOM     58  C   UNL     1      -5.175   4.757  15.879  1.00  0.00     0.049 A 
ATOM     59  H   UNL     1      -4.266   5.558  14.150  1.00  0.00     0.167 HD
ATOM     60  C   UNL     1      -7.087   5.479  14.470  1.00  0.00     0.074 A 
ATOM     61  C   UNL     1      -8.502   5.659  14.213  1.00  0.00     0.031 C 
ATOM     62  C   UNL     1      -6.583   4.931  15.605  1.00  0.00     0.034 A 
BRANCH  49  63
ATOM     63  C   UNL     1      -0.377   4.675  15.727  1.00  0.00     0.023 A 
ATOM     64  C   UNL     1       0.605   5.600  16.125  1.00  0.00     0.031 A 
ATOM     65  C   UNL     1      -0.138   3.314  15.986  1.00  0.00     0.131 A 
ATOM     66  C   UNL     1       1.814   5.147  16.674  1.00  0.00     0.055 A 
ATOM     67  C   UNL     1       1.030   2.877  16.614  1.00  0.00     0.041 A 
ATOM     68  F   UNL     1      -1.028   2.380  15.614  1.00  0.00    -0.206 F 
ATOM     69  C   UNL     1       2.023   3.794  16.946  1.00  0.00     0.022 A 
BRANCH  66  70
ATOM     70  S   UNL     1       3.170   6.335  16.879  1.00  0.00     0.124 S 
ATOM     71  O   UNL     1       3.354   6.811  15.510  1.00  0.00    -0.237 OA
ATOM     72  O   UNL     1       2.609   7.296  17.820  1.00  0.00    -0.237 OA
ATOM     73  O   UNL     1       4.266   5.518  17.398  1.00  0.00    -0.744 OA
ENDBRANCH  66  70
ENDBRANCH  49  63
BRANCH  50  74
ATOM     74  C   UNL     1      -8.396   7.416  10.379  1.00  0.00     0.023 A 
ATOM     75  C   UNL     1      -9.297   8.395  10.826  1.00  0.00     0.031 A 
ATOM     76  C   UNL     1      -8.678   6.763   9.166  1.00  0.00     0.131 A 
ATOM     77  C   UNL     1     -10.461   8.664  10.090  1.00  0.00     0.055 A 
ATOM     78  C   UNL     1      -9.812   7.070   8.411  1.00  0.00     0.041 A 
ATOM     79  F   UNL     1      -7.846   5.824   8.691  1.00  0.00    -0.206 F 
ATOM     80  C   UNL     1     -10.718   8.016   8.879  1.00  0.00     0.022 A 
BRANCH  77  81
ATOM     81  S   UNL     1     -11.676   9.821  10.777  1.00  0.00     0.124 S 
ATOM     82  O   UNL     1     -12.004   9.188  12.049  1.00  0.00    -0.237 OA
ATOM     83  O   UNL     1     -10.906  11.058  10.856  1.00  0.00    -0.237 OA
ATOM     84  O   UNL     1     -12.748   9.819   9.784  1.00  0.00    -0.744 OA
ENDBRANCH  77  81
ENDBRANCH  50  74
BRANCH  62  85
ATOM     85  C   UNL     1      -7.575   4.534  16.672  1.00  0.00     0.023 A 
ATOM     86  C   UNL     1      -8.493   3.486  16.478  1.00  0.00     0.031 A 
ATOM     87  C   UNL     1      -7.617   5.233  17.891  1.00  0.00     0.131 A 
ATOM     88  C   UNL     1      -9.453   3.208  17.463  1.00  0.00     0.055 A 
ATOM     89  C   UNL     1      -8.535   4.912  18.892  1.00  0.00     0.041 A 
ATOM     90  F   UNL     1      -6.765   6.243  18.130  1.00  0.00    -0.206 F 
ATOM     91  C   UNL     1      -9.470   3.904  18.674  1.00  0.00     0.022 A 
BRANCH  88  92
ATOM     92  S   UNL     1     -10.746   1.988  17.099  1.00  0.00     0.124 S 
ATOM     93  O   UNL     1     -11.352   2.538  15.891  1.00  0.00    -0.237 OA
ATOM     94  O   UNL     1      -9.976   0.761  16.924  1.00  0.00    -0.237 OA
ATOM     95  O   UNL     1     -11.595   2.023  18.289  1.00  0.00    -0.744 OA
ENDBRANCH  88  92
ENDBRANCH  62  85
ENDBRANCH  36  37
ENDBRANCH  28  31
ENDBRANCH  26  27
ENDBRANCH  25  26
ENDBRANCH   1  25
TORSDOF 20
