REMARK SMILES CCOc1cc(OCC)cc(-c2ccc([C@@H](C)C(=O)NCCCCCCNC(=O)c3ccc(-c4c5nc(c(-c6cc(S(=O)(=O)[O-])ccc6F)c6ccc([nH]6)c(-c6cc(S(=O)(=O)[O-])ccc6F)c6nc(c(-c7cc(S(=O)(=O)[O-])ccc7F)c7ccc4[nH]7)C=C6)C=C5)cc3)cc2F)c1
REMARK SMILES IDX 23 1 22 2 21 3 20 4 18 5 19 6 16 8 17 9 15 10 12 11 13 12
REMARK SMILES IDX 94 13 14 14 93 15 95 16 11 17 4 18 5 19 96 20 6 21 10 22
REMARK SMILES IDX 3 23 2 24 1 25 7 26 8 27 9 28 24 29 25 30 26 31 27 32 28 33
REMARK SMILES IDX 29 35 30 36 31 37 92 38 32 39 91 40 33 41 34 42 35 43 85 44
REMARK SMILES IDX 36 45 90 46 84 47 86 48 37 49 89 50 83 51 82 52 38 54 70 55
REMARK SMILES IDX 50 56 69 57 51 58 54 59 68 60 87 61 52 62 53 63 67 65 88 66
REMARK SMILES IDX 55 67 39 68 40 69 48 70 41 71 47 72 49 73 46 74 42 75 43 76
REMARK SMILES IDX 44 77 45 78 71 79 72 80 80 81 73 82 79 83 81 84 78 85 74 86
REMARK SMILES IDX 75 87 76 88 77 89 56 90 57 91 65 92 58 93 64 94 66 95 63 96
REMARK SMILES IDX 59 97 60 98 61 99 62 100
REMARK H PARENT 20 7 27 34 86 53 54 64
REMARK Flexibility Score: inf
ROOT
ATOM      1  C   UNL     1       8.556  -1.950   2.926  1.00  0.00     0.002 C 
ENDROOT
BRANCH   1   2
ATOM      2  C   UNL     1       8.407  -1.507   1.467  1.00  0.00     0.021 C 
BRANCH   2   3
ATOM      3  C   UNL     1       9.253  -2.325   0.488  1.00  0.00     0.116 C 
BRANCH   3   4
ATOM      4  N   UNL     1       8.542  -3.495   0.016  1.00  0.00    -0.356 N 
ATOM      5  C   UNL     1       7.912  -3.764  -1.158  1.00  0.00     0.227 C 
ATOM      6  O   UNL     1       7.311  -4.844  -1.224  1.00  0.00    -0.274 OA
ATOM      7  H   UNL     1       8.510  -4.234   0.666  1.00  0.00     0.163 HD
BRANCH   5   8
ATOM      8  C   UNL     1       7.918  -2.821  -2.372  1.00  0.00     0.105 C 
ATOM      9  C   UNL     1       9.308  -2.516  -2.928  1.00  0.00     0.023 C 
BRANCH   8  10
ATOM     10  C   UNL     1       7.005  -1.619  -2.207  1.00  0.00    -0.033 A 
ATOM     11  C   UNL     1       5.195   0.545  -1.776  1.00  0.00     0.018 A 
ATOM     12  C   UNL     1       6.530   0.600  -1.346  1.00  0.00     0.012 A 
ATOM     13  C   UNL     1       4.798  -0.616  -2.451  1.00  0.00     0.131 A 
ATOM     14  C   UNL     1       7.426  -0.437  -1.600  1.00  0.00     0.005 A 
ATOM     15  C   UNL     1       5.674  -1.688  -2.645  1.00  0.00     0.044 A 
ATOM     16  F   UNL     1       3.552  -0.734  -2.937  1.00  0.00    -0.206 F 
BRANCH  11  17
ATOM     17  C   UNL     1       4.293   1.678  -1.494  1.00  0.00    -0.008 A 
ATOM     18  C   UNL     1       2.149   2.576  -0.779  1.00  0.00     0.123 A 
ATOM     19  C   UNL     1       2.676   3.869  -0.773  1.00  0.00     0.092 A 
ATOM     20  C   UNL     1       2.948   1.496  -1.153  1.00  0.00     0.055 A 
ATOM     21  C   UNL     1       4.005   4.086  -1.142  1.00  0.00     0.123 A 
ATOM     22  C   UNL     1       4.787   2.994  -1.513  1.00  0.00     0.055 A 
BRANCH  18  23
ATOM     23  O   UNL     1       0.811   2.417  -0.541  1.00  0.00    -0.494 OA
BRANCH  23  24
ATOM     24  C   UNL     1       0.502   1.647   0.629  1.00  0.00     0.226 C 
ATOM     25  C   UNL     1       0.432   0.151   0.355  1.00  0.00     0.049 C 
ENDBRANCH  23  24
ENDBRANCH  18  23
BRANCH  21  26
ATOM     26  O   UNL     1       4.449   5.380  -1.085  1.00  0.00    -0.494 OA
BRANCH  26  27
ATOM     27  C   UNL     1       5.721   5.685  -1.672  1.00  0.00     0.226 C 
ATOM     28  C   UNL     1       6.872   5.463  -0.700  1.00  0.00     0.049 C 
ENDBRANCH  26  27
ENDBRANCH  21  26
ENDBRANCH  11  17
ENDBRANCH   8  10
ENDBRANCH   5   8
ENDBRANCH   3   4
ENDBRANCH   2   3
ENDBRANCH   1   2
BRANCH   1  29
ATOM     29  C   UNL     1       9.973  -1.811   3.499  1.00  0.00     0.002 C 
BRANCH  29  30
ATOM     30  C   UNL     1      10.580  -0.408   3.400  1.00  0.00     0.021 C 
BRANCH  30  31
ATOM     31  C   UNL     1       9.802   0.667   4.153  1.00  0.00     0.116 C 
BRANCH  31  32
ATOM     32  N   UNL     1       9.765   0.393   5.581  1.00  0.00    -0.352 N 
ATOM     33  C   UNL     1      10.272   1.131   6.621  1.00  0.00     0.251 C 
ATOM     34  H   UNL     1       9.310  -0.442   5.838  1.00  0.00     0.163 HD
ATOM     35  O   UNL     1      10.404   0.619   7.726  1.00  0.00    -0.269 OA
BRANCH  33  36
ATOM     36  C   UNL     1      10.663   2.539   6.394  1.00  0.00     0.039 A 
ATOM     37  C   UNL     1      11.851   3.018   6.951  1.00  0.00     0.014 A 
ATOM     38  C   UNL     1       9.843   3.389   5.647  1.00  0.00     0.014 A 
ATOM     39  C   UNL     1      12.242   4.339   6.715  1.00  0.00     0.010 A 
ATOM     40  C   UNL     1      10.270   4.678   5.350  1.00  0.00     0.010 A 
ATOM     41  C   UNL     1      11.468   5.171   5.890  1.00  0.00    -0.014 A 
BRANCH  41  42
ATOM     42  C   UNL     1      11.867   6.573   5.603  1.00  0.00     0.031 A 
ATOM     43  C   UNL     1      10.986   7.705   6.058  1.00  0.00     0.074 A 
ATOM     44  C   UNL     1      12.975   6.823   4.879  1.00  0.00     0.049 A 
ATOM     45  N   UNL     1      11.085   8.986   5.809  1.00  0.00    -0.248 NA
ATOM     46  C   UNL     1       9.819   7.340   6.875  1.00  0.00     0.031 C 
ATOM     47  C   UNL     1      13.896   5.808   4.365  1.00  0.00     0.029 A 
ATOM     48  N   UNL     1      13.510   8.008   4.438  1.00  0.00    -0.354 N 
ATOM     49  C   UNL     1       9.986   9.576   6.424  1.00  0.00     0.074 A 
ATOM     50  C   UNL     1       9.201   8.503   6.997  1.00  0.00     0.031 C 
ATOM     51  C   UNL     1      14.892   6.414   3.699  1.00  0.00     0.029 A 
ATOM     52  C   UNL     1      14.654   7.854   3.689  1.00  0.00     0.049 A 
ATOM     53  H   UNL     1      13.112   8.886   4.638  1.00  0.00     0.167 HD
ATOM     54  C   UNL     1       9.674  10.893   6.523  1.00  0.00     0.034 A 
ATOM     55  C   UNL     1      15.414   8.768   3.053  1.00  0.00     0.034 A 
ATOM     56  C   UNL     1      10.475  11.947   5.950  1.00  0.00     0.049 A 
ATOM     57  C   UNL     1      15.023  10.223   3.135  1.00  0.00     0.074 A 
ATOM     58  C   UNL     1      10.276  13.315   6.020  1.00  0.00     0.029 A 
ATOM     59  N   UNL     1      11.625  11.752   5.195  1.00  0.00    -0.354 N 
ATOM     60  N   UNL     1      13.997  10.771   3.746  1.00  0.00    -0.248 NA
ATOM     61  C   UNL     1      15.898  11.184   2.451  1.00  0.00     0.031 C 
ATOM     62  C   UNL     1      11.260  13.941   5.247  1.00  0.00     0.029 A 
ATOM     63  C   UNL     1      12.127  12.972   4.768  1.00  0.00     0.049 A 
ATOM     64  H   UNL     1      12.025  10.876   4.993  1.00  0.00     0.167 HD
ATOM     65  C   UNL     1      14.129  12.144   3.554  1.00  0.00     0.074 A 
ATOM     66  C   UNL     1      15.335  12.339   2.776  1.00  0.00     0.031 C 
ATOM     67  C   UNL     1      13.332  13.152   3.991  1.00  0.00     0.034 A 
BRANCH  54  68
ATOM     68  C   UNL     1       8.398  11.251   7.249  1.00  0.00     0.023 A 
ATOM     69  C   UNL     1       8.204  10.929   8.605  1.00  0.00     0.031 A 
ATOM     70  C   UNL     1       7.345  11.890   6.571  1.00  0.00     0.131 A 
ATOM     71  C   UNL     1       6.960  11.162   9.211  1.00  0.00     0.055 A 
ATOM     72  C   UNL     1       6.141  12.204   7.207  1.00  0.00     0.041 A 
ATOM     73  F   UNL     1       7.459  12.204   5.271  1.00  0.00    -0.206 F 
ATOM     74  C   UNL     1       5.937  11.823   8.530  1.00  0.00     0.022 A 
BRANCH  71  75
ATOM     75  S   UNL     1       6.647  10.439  10.844  1.00  0.00     0.124 S 
ATOM     76  O   UNL     1       6.867   9.018  10.583  1.00  0.00    -0.237 OA
ATOM     77  O   UNL     1       7.645  11.097  11.678  1.00  0.00    -0.237 OA
ATOM     78  O   UNL     1       5.260  10.806  11.121  1.00  0.00    -0.744 OA
ENDBRANCH  71  75
ENDBRANCH  54  68
BRANCH  55  79
ATOM     79  C   UNL     1      16.612   8.344   2.273  1.00  0.00     0.023 A 
ATOM     80  C   UNL     1      17.901   8.755   2.649  1.00  0.00     0.031 A 
ATOM     81  C   UNL     1      16.485   7.553   1.117  1.00  0.00     0.131 A 
ATOM     82  C   UNL     1      19.004   8.418   1.851  1.00  0.00     0.055 A 
ATOM     83  C   UNL     1      17.593   7.171   0.358  1.00  0.00     0.041 A 
ATOM     84  F   UNL     1      15.277   7.128   0.714  1.00  0.00    -0.206 F 
ATOM     85  C   UNL     1      18.861   7.616   0.716  1.00  0.00     0.022 A 
BRANCH  82  86
ATOM     86  S   UNL     1      20.624   9.121   2.267  1.00  0.00     0.124 S 
ATOM     87  O   UNL     1      20.348  10.552   2.209  1.00  0.00    -0.237 OA
ATOM     88  O   UNL     1      20.862   8.565   3.595  1.00  0.00    -0.237 OA
ATOM     89  O   UNL     1      21.497   8.609   1.213  1.00  0.00    -0.744 OA
ENDBRANCH  82  86
ENDBRANCH  55  79
BRANCH  67  90
ATOM     90  C   UNL     1      13.777  14.564   3.693  1.00  0.00     0.023 A 
ATOM     91  C   UNL     1      13.823  15.073   2.383  1.00  0.00     0.031 A 
ATOM     92  C   UNL     1      14.156  15.416   4.746  1.00  0.00     0.131 A 
ATOM     93  C   UNL     1      14.287  16.378   2.157  1.00  0.00     0.055 A 
ATOM     94  C   UNL     1      14.556  16.733   4.521  1.00  0.00     0.041 A 
ATOM     95  F   UNL     1      14.136  14.982   6.017  1.00  0.00    -0.206 F 
ATOM     96  C   UNL     1      14.635  17.217   3.219  1.00  0.00     0.022 A 
BRANCH  93  97
ATOM     97  S   UNL     1      14.518  16.937   0.447  1.00  0.00     0.124 S 
ATOM     98  O   UNL     1      15.463  15.952  -0.070  1.00  0.00    -0.237 OA
ATOM     99  O   UNL     1      13.164  16.864  -0.091  1.00  0.00    -0.237 OA
ATOM    100  O   UNL     1      15.053  18.289   0.597  1.00  0.00    -0.744 OA
ENDBRANCH  93  97
ENDBRANCH  67  90
ENDBRANCH  41  42
ENDBRANCH  33  36
ENDBRANCH  31  32
ENDBRANCH  30  31
ENDBRANCH  29  30
ENDBRANCH   1  29
TORSDOF 22
