REMARK SMILES CC1CCN(S(=O)(=O)N2CCC[C@H](c3cccc(C(=O)NCCCCCCNC(=O)c4ccc(-c5c6nc(c(-c7cc(S(=O)(=O)[O-])ccc7F)c7ccc([nH]7)c(-c7cc(S(=O)(=O)[O-])ccc7F)c7nc(c(-c8cc(S(=O)(=O)[O-])ccc8F)c8ccc5[nH]8)C=C7)C=C6)cc4)c3)C2)CC1
REMARK SMILES IDX 24 1 23 2 22 3 21 4 19 5 20 6 18 8 14 9 15 10 94 11 16 12
REMARK SMILES IDX 17 13 13 14 9 15 10 16 95 17 11 18 12 19 6 20 7 21 8 22 5 23
REMARK SMILES IDX 1 24 2 25 3 26 97 27 4 28 96 29 25 30 26 31 27 32 28 33
REMARK SMILES IDX 29 34 30 36 31 37 32 38 93 39 33 40 92 41 34 42 35 43 36 44
REMARK SMILES IDX 86 45 37 46 91 47 85 48 87 49 38 50 90 51 84 52 83 53 39 55
REMARK SMILES IDX 71 56 51 57 70 58 52 59 55 60 69 61 88 62 53 63 54 64 68 66
REMARK SMILES IDX 89 67 56 68 40 69 41 70 49 71 42 72 48 73 50 74 47 75 43 76
REMARK SMILES IDX 44 77 45 78 46 79 72 80 73 81 81 82 74 83 80 84 82 85 79 86
REMARK SMILES IDX 75 87 76 88 77 89 78 90 57 91 58 92 66 93 59 94 65 95 67 96
REMARK SMILES IDX 64 97 60 98 61 99 62 100 63 101
REMARK H PARENT 21 7 28 35 87 54 55 65
REMARK Flexibility Score: inf
ROOT
ATOM      1  C   UNL     1       3.789 -10.110  -4.872  1.00  0.00     0.002 C 
ENDROOT
BRANCH   1   2
ATOM      2  C   UNL     1       2.970  -8.900  -4.435  1.00  0.00     0.021 C 
BRANCH   2   3
ATOM      3  C   UNL     1       3.484  -7.545  -4.897  1.00  0.00     0.116 C 
BRANCH   3   4
ATOM      4  N   UNL     1       3.468  -7.343  -6.341  1.00  0.00    -0.352 N 
ATOM      5  C   UNL     1       3.133  -6.239  -7.104  1.00  0.00     0.251 C 
ATOM      6  O   UNL     1       3.167  -6.332  -8.330  1.00  0.00    -0.269 OA
ATOM      7  H   UNL     1       3.744  -8.130  -6.865  1.00  0.00     0.163 HD
BRANCH   5   8
ATOM      8  C   UNL     1       2.671  -4.968  -6.481  1.00  0.00     0.040 A 
ATOM      9  C   UNL     1       2.406  -3.635  -4.461  1.00  0.00    -0.043 A 
ATOM     10  C   UNL     1       1.456  -2.852  -5.129  1.00  0.00     0.004 A 
ATOM     11  C   UNL     1       3.102  -4.587  -5.214  1.00  0.00     0.017 A 
ATOM     12  C   UNL     1       1.153  -3.093  -6.474  1.00  0.00     0.001 A 
ATOM     13  C   UNL     1       1.725  -4.180  -7.137  1.00  0.00     0.014 A 
BRANCH   9  14
ATOM     14  C   UNL     1       2.541  -3.700  -2.942  1.00  0.00     0.034 C 
ATOM     15  N   UNL     1       2.584  -1.325  -2.228  1.00  0.00    -0.188 NA
ATOM     16  C   UNL     1       3.995  -1.386  -1.801  1.00  0.00     0.103 C 
ATOM     17  C   UNL     1       1.838  -2.598  -2.146  1.00  0.00     0.111 C 
ATOM     18  C   UNL     1       4.724  -2.515  -2.532  1.00  0.00     0.017 C 
ATOM     19  C   UNL     1       3.974  -3.833  -2.392  1.00  0.00     0.011 C 
BRANCH  15  20
ATOM     20  S   UNL     1       1.752   0.104  -1.976  1.00  0.00     0.281 S 
ATOM     21  O   UNL     1       0.437  -0.046  -2.562  1.00  0.00    -0.195 OA
ATOM     22  O   UNL     1       2.602   1.196  -2.390  1.00  0.00    -0.195 OA
BRANCH  20  23
ATOM     23  N   UNL     1       1.599   0.214  -0.289  1.00  0.00    -0.189 NA
ATOM     24  C   UNL     1      -2.650   0.085   0.001  1.00  0.00     0.008 C 
ATOM     25  C   UNL     1      -1.221   0.205   0.533  1.00  0.00    -0.012 C 
ATOM     26  C   UNL     1      -0.539   1.467  -0.032  1.00  0.00     0.020 C 
ATOM     27  C   UNL     1      -0.439  -1.085   0.238  1.00  0.00     0.020 C 
ATOM     28  C   UNL     1       0.979   1.492   0.169  1.00  0.00     0.104 C 
ATOM     29  C   UNL     1       1.041  -0.891   0.519  1.00  0.00     0.104 C 
ENDBRANCH  20  23
ENDBRANCH  15  20
ENDBRANCH   9  14
ENDBRANCH   5   8
ENDBRANCH   3   4
ENDBRANCH   2   3
ENDBRANCH   1   2
BRANCH   1  30
ATOM     30  C   UNL     1       5.274 -10.081  -4.499  1.00  0.00     0.002 C 
BRANCH  30  31
ATOM     31  C   UNL     1       5.593  -9.848  -3.020  1.00  0.00     0.021 C 
BRANCH  31  32
ATOM     32  C   UNL     1       4.912 -10.800  -2.041  1.00  0.00     0.116 C 
BRANCH  32  33
ATOM     33  N   UNL     1       5.241 -12.189  -2.304  1.00  0.00    -0.352 N 
ATOM     34  C   UNL     1       5.760 -13.144  -1.465  1.00  0.00     0.251 C 
ATOM     35  H   UNL     1       5.064 -12.493  -3.223  1.00  0.00     0.163 HD
ATOM     36  O   UNL     1       6.158 -14.206  -1.937  1.00  0.00    -0.269 OA
BRANCH  34  37
ATOM     37  C   UNL     1       5.859 -12.892  -0.009  1.00  0.00     0.039 A 
ATOM     38  C   UNL     1       7.005 -13.318   0.668  1.00  0.00     0.014 A 
ATOM     39  C   UNL     1       4.824 -12.271   0.695  1.00  0.00     0.014 A 
ATOM     40  C   UNL     1       7.130 -13.078   2.038  1.00  0.00     0.010 A 
ATOM     41  C   UNL     1       4.986 -11.961   2.045  1.00  0.00     0.010 A 
ATOM     42  C   UNL     1       6.137 -12.370   2.735  1.00  0.00    -0.014 A 
BRANCH  42  43
ATOM     43  C   UNL     1       6.290 -12.067   4.183  1.00  0.00     0.031 A 
ATOM     44  C   UNL     1       5.324 -12.638   5.186  1.00  0.00     0.074 A 
ATOM     45  C   UNL     1       7.283 -11.251   4.590  1.00  0.00     0.049 A 
ATOM     46  N   UNL     1       5.280 -12.468   6.483  1.00  0.00    -0.248 NA
ATOM     47  C   UNL     1       4.248 -13.491   4.658  1.00  0.00     0.031 C 
ATOM     48  C   UNL     1       8.259 -10.606   3.708  1.00  0.00     0.029 A 
ATOM     49  N   UNL     1       7.641 -10.824   5.844  1.00  0.00    -0.354 N 
ATOM     50  C   UNL     1       4.173 -13.186   6.925  1.00  0.00     0.074 A 
ATOM     51  C   UNL     1       3.535 -13.734   5.747  1.00  0.00     0.031 C 
ATOM     52  C   UNL     1       9.124  -9.899   4.450  1.00  0.00     0.029 A 
ATOM     53  C   UNL     1       8.738  -9.993   5.855  1.00  0.00     0.049 A 
ATOM     54  H   UNL     1       7.158 -11.088   6.661  1.00  0.00     0.167 HD
ATOM     55  C   UNL     1       3.744 -13.390   8.196  1.00  0.00     0.034 A 
ATOM     56  C   UNL     1       9.358  -9.370   6.877  1.00  0.00     0.034 A 
ATOM     57  C   UNL     1       4.397 -12.839   9.359  1.00  0.00     0.049 A 
ATOM     58  C   UNL     1       8.842  -9.585   8.277  1.00  0.00     0.074 A 
ATOM     59  C   UNL     1       4.077 -13.021  10.694  1.00  0.00     0.029 A 
ATOM     60  N   UNL     1       5.496 -11.989   9.330  1.00  0.00    -0.354 N 
ATOM     61  N   UNL     1       7.824 -10.310   8.682  1.00  0.00    -0.248 NA
ATOM     62  C   UNL     1       9.567  -8.908   9.360  1.00  0.00     0.031 C 
ATOM     63  C   UNL     1       4.925 -12.218  11.463  1.00  0.00     0.029 A 
ATOM     64  C   UNL     1       5.839 -11.608  10.619  1.00  0.00     0.049 A 
ATOM     65  H   UNL     1       5.963 -11.699   8.513  1.00  0.00     0.167 HD
ATOM     66  C   UNL     1       7.811 -10.203  10.071  1.00  0.00     0.074 A 
ATOM     67  C   UNL     1       8.933  -9.361  10.431  1.00  0.00     0.031 C 
ATOM     68  C   UNL     1       6.952 -10.754  10.967  1.00  0.00     0.034 A 
BRANCH  55  69
ATOM     69  C   UNL     1       2.493 -14.218   8.386  1.00  0.00     0.023 A 
ATOM     70  C   UNL     1       2.424 -15.562   7.978  1.00  0.00     0.031 A 
ATOM     71  C   UNL     1       1.344 -13.651   8.966  1.00  0.00     0.131 A 
ATOM     72  C   UNL     1       1.214 -16.266   8.081  1.00  0.00     0.055 A 
ATOM     73  C   UNL     1       0.170 -14.385   9.149  1.00  0.00     0.041 A 
ATOM     74  F   UNL     1       1.337 -12.366   9.354  1.00  0.00    -0.206 F 
ATOM     75  C   UNL     1       0.095 -15.696   8.691  1.00  0.00     0.022 A 
BRANCH  72  76
ATOM     76  S   UNL     1       1.080 -17.880   7.264  1.00  0.00     0.124 S 
ATOM     77  O   UNL     1       1.395 -17.536   5.879  1.00  0.00    -0.237 OA
ATOM     78  O   UNL     1       2.079 -18.675   7.968  1.00  0.00    -0.237 OA
ATOM     79  O   UNL     1      -0.309 -18.269   7.500  1.00  0.00    -0.744 OA
ENDBRANCH  72  76
ENDBRANCH  55  69
BRANCH  56  80
ATOM     80  C   UNL     1      10.525  -8.474   6.622  1.00  0.00     0.023 A 
ATOM     81  C   UNL     1      11.792  -8.762   7.152  1.00  0.00     0.031 A 
ATOM     82  C   UNL     1      10.377  -7.288   5.880  1.00  0.00     0.131 A 
ATOM     83  C   UNL     1      12.847  -7.852   6.981  1.00  0.00     0.055 A 
ATOM     84  C   UNL     1      11.445  -6.417   5.659  1.00  0.00     0.041 A 
ATOM     85  F   UNL     1       9.188  -6.962   5.349  1.00  0.00    -0.206 F 
ATOM     86  C   UNL     1      12.686  -6.689   6.224  1.00  0.00     0.022 A 
BRANCH  83  87
ATOM     87  S   UNL     1      14.409  -8.159   7.851  1.00  0.00     0.124 S 
ATOM     88  O   UNL     1      13.968  -8.220   9.239  1.00  0.00    -0.237 OA
ATOM     89  O   UNL     1      14.843  -9.419   7.258  1.00  0.00    -0.237 OA
ATOM     90  O   UNL     1      15.224  -6.996   7.504  1.00  0.00    -0.744 OA
ENDBRANCH  83  87
ENDBRANCH  56  80
BRANCH  68  91
ATOM     91  C   UNL     1       7.228 -10.495  12.431  1.00  0.00     0.023 A 
ATOM     92  C   UNL     1       7.171  -9.202  12.980  1.00  0.00     0.031 A 
ATOM     93  C   UNL     1       7.578 -11.557  13.284  1.00  0.00     0.131 A 
ATOM     94  C   UNL     1       7.531  -8.994  14.320  1.00  0.00     0.055 A 
ATOM     95  C   UNL     1       7.860 -11.355  14.635  1.00  0.00     0.041 A 
ATOM     96  F   UNL     1       7.653 -12.814  12.816  1.00  0.00    -0.206 F 
ATOM     97  C   UNL     1       7.855 -10.065  15.156  1.00  0.00     0.022 A 
BRANCH  94  98
ATOM     98  S   UNL     1       7.692  -7.290  14.921  1.00  0.00     0.124 S 
ATOM     99  O   UNL     1       8.668  -6.732  13.990  1.00  0.00    -0.237 OA
ATOM    100  O   UNL     1       6.329  -6.785  14.795  1.00  0.00    -0.237 OA
ATOM    101  O   UNL     1       8.168  -7.455  16.294  1.00  0.00    -0.744 OA
ENDBRANCH  94  98
ENDBRANCH  68  91
ENDBRANCH  42  43
ENDBRANCH  34  37
ENDBRANCH  32  33
ENDBRANCH  31  32
ENDBRANCH  30  31
ENDBRANCH   1  30
TORSDOF 19
