REMARK SMILES O=C(Cn1nc(-c2ccc(Br)cc2)ccc1=O)N[C@H](C(=O)NCCCCCCNC(=O)c1ccc(-c2c3nc(c(-c4cc(S(=O)(=O)[O-])ccc4F)c4ccc([nH]4)c(-c4cc(S(=O)(=O)[O-])ccc4F)c4nc(c(-c5cc(S(=O)(=O)[O-])ccc5F)c5ccc2[nH]5)C=C4)C=C3)cc1)c1ccccc1
REMARK SMILES IDX 25 1 24 2 23 3 22 4 20 5 21 6 19 8 18 9 1 10 2 11 3 13 4 14
REMARK SMILES IDX 5 15 16 16 6 17 15 18 17 19 14 20 7 21 8 22 13 23 9 24 12 25
REMARK SMILES IDX 10 26 11 27 95 28 96 29 100 30 97 31 99 32 98 33 26 34 27 35
REMARK SMILES IDX 28 36 29 37 30 38 31 40 32 41 33 42 94 43 34 44 93 45 35 46
REMARK SMILES IDX 36 47 37 48 87 49 38 50 92 51 86 52 88 53 39 54 91 55 85 56
REMARK SMILES IDX 84 57 40 59 72 60 52 61 71 62 53 63 56 64 70 65 89 66 54 67
REMARK SMILES IDX 55 68 69 70 90 71 57 72 41 73 42 74 50 75 43 76 49 77 51 78
REMARK SMILES IDX 48 79 44 80 45 81 46 82 47 83 73 84 74 85 82 86 75 87 81 88
REMARK SMILES IDX 83 89 80 90 76 91 77 92 78 93 79 94 58 95 59 96 67 97 60 98
REMARK SMILES IDX 66 99 68 100 65 101 61 102 62 103 63 104 64 105
REMARK H PARENT 22 7 18 12 29 39 88 58 56 69
REMARK Flexibility Score: inf
ROOT
ATOM      1  C   UNL     1       7.019   1.884   2.649  1.00  0.00     0.002 C 
ENDROOT
BRANCH   1   2
ATOM      2  C   UNL     1       5.583   2.350   2.367  1.00  0.00     0.021 C 
BRANCH   2   3
ATOM      3  C   UNL     1       5.230   2.478   0.881  1.00  0.00     0.116 C 
BRANCH   3   4
ATOM      4  N   UNL     1       4.417   1.367   0.423  1.00  0.00    -0.354 N 
ATOM      5  C   UNL     1       3.078   1.304   0.137  1.00  0.00     0.247 C 
ATOM      6  O   UNL     1       2.687   0.259  -0.402  1.00  0.00    -0.272 OA
ATOM      7  H   UNL     1       4.906   0.521   0.298  1.00  0.00     0.163 HD
BRANCH   5   8
ATOM      8  C   UNL     1       2.127   2.538   0.279  1.00  0.00     0.202 C 
BRANCH   8   9
ATOM      9  N   UNL     1       2.387   3.241   1.523  1.00  0.00    -0.339 N 
ATOM     10  O   UNL     1       1.370   1.772   2.929  1.00  0.00    -0.273 OA
ATOM     11  C   UNL     1       2.015   2.804   2.760  1.00  0.00     0.242 C 
ATOM     12  H   UNL     1       2.869   4.098   1.469  1.00  0.00     0.164 HD
BRANCH  11  13
ATOM     13  C   UNL     1       2.360   3.754   3.916  1.00  0.00     0.248 C 
BRANCH  13  14
ATOM     14  N   UNL     1       3.385   4.798   3.741  1.00  0.00    -0.220 N 
ATOM     15  N   UNL     1       3.650   5.297   2.472  1.00  0.00    -0.169 NA
ATOM     16  C   UNL     1       4.043   5.246   4.883  1.00  0.00     0.267 A 
ATOM     17  C   UNL     1       4.569   6.206   2.356  1.00  0.00     0.091 A 
ATOM     18  C   UNL     1       5.011   6.344   4.692  1.00  0.00     0.075 A 
ATOM     19  O   UNL     1       3.885   4.785   6.010  1.00  0.00    -0.268 OA
ATOM     20  C   UNL     1       5.291   6.824   3.480  1.00  0.00     0.036 A 
BRANCH  17  21
ATOM     21  C   UNL     1       4.995   6.643   1.009  1.00  0.00     0.002 A 
ATOM     22  C   UNL     1       4.310   7.657   0.344  1.00  0.00     0.011 A 
ATOM     23  C   UNL     1       6.066   5.990   0.387  1.00  0.00     0.011 A 
ATOM     24  C   UNL     1       4.707   8.018  -0.949  1.00  0.00     0.016 A 
ATOM     25  C   UNL     1       6.461   6.350  -0.900  1.00  0.00     0.016 A 
ATOM     26  C   UNL     1       5.774   7.360  -1.566  1.00  0.00     0.018 A 
ATOM     27  Br  UNL     1       6.280   7.819  -3.327  1.00  0.00    -0.051 Br
ENDBRANCH  17  21
ENDBRANCH  13  14
ENDBRANCH  11  13
ENDBRANCH   8   9
BRANCH   8  28
ATOM     28  C   UNL     1       2.198   3.478  -0.931  1.00  0.00    -0.016 A 
ATOM     29  C   UNL     1       1.968   4.863  -0.808  1.00  0.00     0.006 A 
ATOM     30  C   UNL     1       2.440   2.978  -2.223  1.00  0.00     0.006 A 
ATOM     31  C   UNL     1       2.076   5.717  -1.909  1.00  0.00     0.000 A 
ATOM     32  C   UNL     1       2.546   3.833  -3.324  1.00  0.00     0.000 A 
ATOM     33  C   UNL     1       2.385   5.205  -3.163  1.00  0.00     0.000 A 
ENDBRANCH   8  28
ENDBRANCH   5   8
ENDBRANCH   3   4
ENDBRANCH   2   3
ENDBRANCH   1   2
BRANCH   1  34
ATOM     34  C   UNL     1       8.136   2.876   2.276  1.00  0.00     0.002 C 
BRANCH  34  35
ATOM     35  C   UNL     1       8.066   4.250   2.957  1.00  0.00     0.021 C 
BRANCH  35  36
ATOM     36  C   UNL     1       8.392   4.263   4.447  1.00  0.00     0.116 C 
BRANCH  36  37
ATOM     37  N   UNL     1       9.782   4.598   4.696  1.00  0.00    -0.352 N 
ATOM     38  C   UNL     1      10.438   5.795   4.870  1.00  0.00     0.251 C 
ATOM     39  H   UNL     1      10.374   3.813   4.750  1.00  0.00     0.163 HD
ATOM     40  O   UNL     1      11.669   5.770   4.845  1.00  0.00    -0.269 OA
BRANCH  38  41
ATOM     41  C   UNL     1       9.748   7.105   5.049  1.00  0.00     0.039 A 
ATOM     42  C   UNL     1       8.548   7.265   5.742  1.00  0.00     0.014 A 
ATOM     43  C   UNL     1      10.406   8.258   4.596  1.00  0.00     0.014 A 
ATOM     44  C   UNL     1       7.954   8.533   5.863  1.00  0.00     0.010 A 
ATOM     45  C   UNL     1       9.855   9.533   4.794  1.00  0.00     0.010 A 
ATOM     46  C   UNL     1       8.600   9.690   5.398  1.00  0.00    -0.014 A 
BRANCH  46  47
ATOM     47  C   UNL     1       7.991  11.049   5.564  1.00  0.00     0.031 A 
ATOM     48  C   UNL     1       7.720  11.925   4.363  1.00  0.00     0.074 A 
ATOM     49  C   UNL     1       7.691  11.523   6.793  1.00  0.00     0.049 A 
ATOM     50  N   UNL     1       7.272  13.155   4.319  1.00  0.00    -0.248 NA
ATOM     51  C   UNL     1       7.994  11.346   3.037  1.00  0.00     0.031 C 
ATOM     52  C   UNL     1       7.894  10.796   8.045  1.00  0.00     0.029 A 
ATOM     53  N   UNL     1       7.154  12.726   7.195  1.00  0.00    -0.354 N 
ATOM     54  C   UNL     1       7.240  13.507   2.973  1.00  0.00     0.074 A 
ATOM     55  C   UNL     1       7.743  12.371   2.234  1.00  0.00     0.031 C 
ATOM     56  C   UNL     1       7.456  11.546   9.067  1.00  0.00     0.029 A 
ATOM     57  C   UNL     1       7.013  12.844   8.560  1.00  0.00     0.049 A 
ATOM     58  H   UNL     1       6.896  13.437   6.564  1.00  0.00     0.167 HD
ATOM     59  C   UNL     1       6.818  14.662   2.402  1.00  0.00     0.034 A 
ATOM     60  C   UNL     1       6.604  13.877   9.330  1.00  0.00     0.034 A 
ATOM     61  C   UNL     1       6.293  15.786   3.138  1.00  0.00     0.049 A 
ATOM     62  C   UNL     1       6.175  15.167   8.677  1.00  0.00     0.074 A 
ATOM     63  C   UNL     1       5.806  16.980   2.632  1.00  0.00     0.029 A 
ATOM     64  N   UNL     1       6.179  15.864   4.517  1.00  0.00    -0.354 N 
ATOM     65  N   UNL     1       6.107  15.460   7.400  1.00  0.00    -0.248 NA
ATOM     66  C   UNL     1       5.766  16.269   9.561  1.00  0.00     0.031 C 
ATOM     67  C   UNL     1       5.463  17.803   3.704  1.00  0.00     0.029 A 
ATOM     68  C   UNL     1       5.654  17.095   4.878  1.00  0.00     0.049 A 
ATOM     69  H   UNL     1       6.434  15.151   5.146  1.00  0.00     0.167 HD
ATOM     70  C   UNL     1       5.620  16.764   7.329  1.00  0.00     0.074 A 
ATOM     71  C   UNL     1       5.393  17.198   8.690  1.00  0.00     0.031 C 
ATOM     72  C   UNL     1       5.389  17.525   6.231  1.00  0.00     0.034 A 
BRANCH  59  73
ATOM     73  C   UNL     1       6.878  14.795   0.898  1.00  0.00     0.023 A 
ATOM     74  C   UNL     1       7.675  15.797   0.312  1.00  0.00     0.031 A 
ATOM     75  C   UNL     1       6.041  14.037   0.060  1.00  0.00     0.131 A 
ATOM     76  C   UNL     1       7.587  16.042  -1.064  1.00  0.00     0.055 A 
ATOM     77  C   UNL     1       5.992  14.255  -1.318  1.00  0.00     0.041 A 
ATOM     78  F   UNL     1       5.260  13.070   0.570  1.00  0.00    -0.206 F 
ATOM     79  C   UNL     1       6.755  15.271  -1.883  1.00  0.00     0.022 A 
BRANCH  76  80
ATOM     80  S   UNL     1       8.484  17.418  -1.834  1.00  0.00     0.124 S 
ATOM     81  O   UNL     1       9.315  16.720  -2.812  1.00  0.00    -0.237 OA
ATOM     82  O   UNL     1       7.398  18.216  -2.393  1.00  0.00    -0.237 OA
ATOM     83  O   UNL     1       9.210  18.027  -0.724  1.00  0.00    -0.744 OA
ENDBRANCH  76  80
ENDBRANCH  59  73
BRANCH  60  84
ATOM     84  C   UNL     1       6.550  13.703  10.814  1.00  0.00     0.023 A 
ATOM     85  C   UNL     1       7.711  13.411  11.554  1.00  0.00     0.031 A 
ATOM     86  C   UNL     1       5.323  13.728  11.498  1.00  0.00     0.131 A 
ATOM     87  C   UNL     1       7.609  13.078  12.911  1.00  0.00     0.055 A 
ATOM     88  C   UNL     1       5.236  13.474  12.869  1.00  0.00     0.041 A 
ATOM     89  F   UNL     1       4.186  13.994  10.837  1.00  0.00    -0.206 F 
ATOM     90  C   UNL     1       6.382  13.127  13.578  1.00  0.00     0.022 A 
BRANCH  87  91
ATOM     91  S   UNL     1       9.043  12.434  13.819  1.00  0.00     0.124 S 
ATOM     92  O   UNL     1       9.175  13.399  14.905  1.00  0.00    -0.237 OA
ATOM     93  O   UNL     1       8.574  11.106  14.207  1.00  0.00    -0.237 OA
ATOM     94  O   UNL     1      10.112  12.447  12.826  1.00  0.00    -0.744 OA
ENDBRANCH  87  91
ENDBRANCH  60  84
BRANCH  72  95
ATOM     95  C   UNL     1       4.827  18.918   6.401  1.00  0.00     0.023 A 
ATOM     96  C   UNL     1       3.580  19.241   5.829  1.00  0.00     0.031 A 
ATOM     97  C   UNL     1       5.591  19.960   6.954  1.00  0.00     0.131 A 
ATOM     98  C   UNL     1       3.162  20.577   5.769  1.00  0.00     0.055 A 
ATOM     99  C   UNL     1       5.145  21.283   6.940  1.00  0.00     0.041 A 
ATOM    100  F   UNL     1       6.791  19.708   7.502  1.00  0.00    -0.206 F 
ATOM    101  C   UNL     1       3.934  21.599   6.329  1.00  0.00     0.022 A 
BRANCH  98 102
ATOM    102  S   UNL     1       1.656  21.047   4.872  1.00  0.00     0.124 S 
ATOM    103  O   UNL     1       0.867  21.689   5.921  1.00  0.00    -0.237 OA
ATOM    104  O   UNL     1       2.178  21.946   3.846  1.00  0.00    -0.237 OA
ATOM    105  O   UNL     1       1.125  19.778   4.385  1.00  0.00    -0.744 OA
ENDBRANCH  98 102
ENDBRANCH  72  95
ENDBRANCH  46  47
ENDBRANCH  38  41
ENDBRANCH  36  37
ENDBRANCH  35  36
ENDBRANCH  34  35
ENDBRANCH   1  34
TORSDOF 21
