REMARK SMILES O=C(NCCCCCCNC(=O)[C@@H]1CSc2ccccc21)c1ccc(-c2c3nc(c(-c4cc(S(=O)(=O)[O-])ccc4F)c4ccc([nH]4)c(-c4cc(S(=O)(=O)[O-])ccc4F)c4nc(c(-c5cc(S(=O)(=O)[O-])ccc5F)c5ccc2[nH]5)C=C4)C=C3)cc1
REMARK SMILES IDX 5 1 4 2 3 3 1 4 2 5 22 7 23 8 84 9 24 10 83 11 25 12 26 13
REMARK SMILES IDX 27 14 77 15 28 16 82 17 76 18 78 19 29 20 81 21 75 22 74 23
REMARK SMILES IDX 30 25 62 26 42 27 61 28 43 29 46 30 60 31 79 32 44 33 45 34
REMARK SMILES IDX 59 36 80 37 47 38 31 39 32 40 40 41 33 42 39 43 41 44 38 45
REMARK SMILES IDX 34 46 35 47 36 48 37 49 63 50 64 51 72 52 65 53 71 54 73 55
REMARK SMILES IDX 70 56 66 57 67 58 68 59 69 60 48 61 49 62 57 63 50 64 56 65
REMARK SMILES IDX 58 66 55 67 51 68 52 69 53 70 54 71 6 72 7 73 8 74 9 75
REMARK SMILES IDX 10 76 11 77 12 79 13 80 14 81 21 82 15 83 16 84 20 85 17 86
REMARK SMILES IDX 19 87 18 88
REMARK H PARENT 3 6 78 24 46 35 10 78
REMARK Flexibility Score: inf
ROOT
ATOM      1  C   UNL     1       5.508   7.803   0.092  1.00  0.00     0.021 C 
ENDROOT
BRANCH   1   2
ATOM      2  C   UNL     1       5.519   9.278  -0.303  1.00  0.00     0.116 C 
BRANCH   2   3
ATOM      3  N   UNL     1       5.778   9.459  -1.721  1.00  0.00    -0.352 N 
ATOM      4  O   UNL     1       5.364  10.130  -3.827  1.00  0.00    -0.269 OA
ATOM      5  C   UNL     1       5.124  10.253  -2.626  1.00  0.00     0.251 C 
ATOM      6  H   UNL     1       6.530   8.937  -2.083  1.00  0.00     0.163 HD
BRANCH   5   7
ATOM      7  C   UNL     1       4.136  11.253  -2.169  1.00  0.00     0.039 A 
ATOM      8  C   UNL     1       2.946  11.402  -2.890  1.00  0.00     0.014 A 
ATOM      9  C   UNL     1       4.404  12.086  -1.078  1.00  0.00     0.014 A 
ATOM     10  C   UNL     1       2.019  12.375  -2.509  1.00  0.00     0.010 A 
ATOM     11  C   UNL     1       3.455  13.019  -0.667  1.00  0.00     0.010 A 
ATOM     12  C   UNL     1       2.267  13.188  -1.394  1.00  0.00    -0.014 A 
BRANCH  12  13
ATOM     13  C   UNL     1       1.322  14.260  -0.994  1.00  0.00     0.031 A 
ATOM     14  C   UNL     1       1.730  15.699  -1.126  1.00  0.00     0.074 A 
ATOM     15  C   UNL     1       0.133  13.940  -0.450  1.00  0.00     0.049 A 
ATOM     16  N   UNL     1       1.090  16.775  -0.751  1.00  0.00    -0.248 NA
ATOM     17  C   UNL     1       3.041  15.963  -1.741  1.00  0.00     0.031 C 
ATOM     18  C   UNL     1      -0.355  12.576  -0.252  1.00  0.00     0.029 A 
ATOM     19  N   UNL     1      -0.868  14.733   0.053  1.00  0.00    -0.354 N 
ATOM     20  C   UNL     1       1.928  17.840  -1.061  1.00  0.00     0.074 A 
ATOM     21  C   UNL     1       3.139  17.278  -1.615  1.00  0.00     0.031 C 
ATOM     22  C   UNL     1      -1.564  12.627   0.327  1.00  0.00     0.029 A 
ATOM     23  C   UNL     1      -1.918  14.023   0.584  1.00  0.00     0.049 A 
ATOM     24  H   UNL     1      -0.837  15.717   0.035  1.00  0.00     0.167 HD
ATOM     25  C   UNL     1       1.695  19.165  -0.914  1.00  0.00     0.034 A 
ATOM     26  C   UNL     1      -3.031  14.442   1.222  1.00  0.00     0.034 A 
ATOM     27  C   UNL     1       0.465  19.706  -0.400  1.00  0.00     0.049 A 
ATOM     28  C   UNL     1      -3.266  15.921   1.392  1.00  0.00     0.074 A 
ATOM     29  C   UNL     1       0.087  21.034  -0.322  1.00  0.00     0.029 A 
ATOM     30  N   UNL     1      -0.578  18.959   0.128  1.00  0.00    -0.354 N 
ATOM     31  N   UNL     1      -2.514  16.922   0.996  1.00  0.00    -0.248 NA
ATOM     32  C   UNL     1      -4.492  16.335   2.089  1.00  0.00     0.031 C 
ATOM     33  C   UNL     1      -1.153  21.095   0.314  1.00  0.00     0.029 A 
ATOM     34  C   UNL     1      -1.581  19.802   0.577  1.00  0.00     0.049 A 
ATOM     35  H   UNL     1      -0.602  17.976   0.176  1.00  0.00     0.167 HD
ATOM     36  C   UNL     1      -3.179  18.082   1.384  1.00  0.00     0.074 A 
ATOM     37  C   UNL     1      -4.406  17.660   2.028  1.00  0.00     0.031 C 
ATOM     38  C   UNL     1      -2.803  19.376   1.220  1.00  0.00     0.034 A 
BRANCH  25  39
ATOM     39  C   UNL     1       2.772  20.136  -1.326  1.00  0.00     0.023 A 
ATOM     40  C   UNL     1       3.363  20.976  -0.364  1.00  0.00     0.031 A 
ATOM     41  C   UNL     1       3.135  20.306  -2.674  1.00  0.00     0.131 A 
ATOM     42  C   UNL     1       4.275  21.959  -0.766  1.00  0.00     0.055 A 
ATOM     43  C   UNL     1       4.072  21.264  -3.064  1.00  0.00     0.041 A 
ATOM     44  F   UNL     1       2.595  19.532  -3.629  1.00  0.00    -0.206 F 
ATOM     45  C   UNL     1       4.638  22.102  -2.109  1.00  0.00     0.022 A 
BRANCH  42  46
ATOM     46  S   UNL     1       4.984  23.126   0.427  1.00  0.00     0.124 S 
ATOM     47  O   UNL     1       6.410  22.818   0.333  1.00  0.00    -0.237 OA
ATOM     48  O   UNL     1       4.586  24.415  -0.132  1.00  0.00    -0.237 OA
ATOM     49  O   UNL     1       4.353  22.764   1.691  1.00  0.00    -0.744 OA
ENDBRANCH  42  46
ENDBRANCH  25  39
BRANCH  26  50
ATOM     50  C   UNL     1      -4.011  13.420   1.691  1.00  0.00     0.023 A 
ATOM     51  C   UNL     1      -3.651  12.468   2.662  1.00  0.00     0.031 A 
ATOM     52  C   UNL     1      -5.259  13.287   1.062  1.00  0.00     0.131 A 
ATOM     53  C   UNL     1      -4.491  11.374   2.910  1.00  0.00     0.055 A 
ATOM     54  C   UNL     1      -6.126  12.234   1.365  1.00  0.00     0.041 A 
ATOM     55  F   UNL     1      -5.640  14.166   0.123  1.00  0.00    -0.206 F 
ATOM     56  C   UNL     1      -5.733  11.260   2.278  1.00  0.00     0.022 A 
BRANCH  53  57
ATOM     57  S   UNL     1      -3.937   9.995   3.950  1.00  0.00     0.124 S 
ATOM     58  O   UNL     1      -5.011   9.899   4.934  1.00  0.00    -0.237 OA
ATOM     59  O   UNL     1      -3.870   8.903   2.981  1.00  0.00    -0.237 OA
ATOM     60  O   UNL     1      -2.649  10.446   4.466  1.00  0.00    -0.744 OA
ENDBRANCH  53  57
ENDBRANCH  26  50
BRANCH  38  61
ATOM     61  C   UNL     1      -3.696  20.468   1.756  1.00  0.00     0.023 A 
ATOM     62  C   UNL     1      -4.287  21.393   0.872  1.00  0.00     0.031 A 
ATOM     63  C   UNL     1      -3.801  20.705   3.137  1.00  0.00     0.131 A 
ATOM     64  C   UNL     1      -4.901  22.545   1.379  1.00  0.00     0.055 A 
ATOM     65  C   UNL     1      -4.457  21.831   3.638  1.00  0.00     0.041 A 
ATOM     66  F   UNL     1      -3.249  19.855   4.017  1.00  0.00    -0.206 F 
ATOM     67  C   UNL     1      -4.994  22.766   2.757  1.00  0.00     0.022 A 
BRANCH  64  68
ATOM     68  S   UNL     1      -5.512  23.844   0.270  1.00  0.00     0.124 S 
ATOM     69  O   UNL     1      -6.918  23.937   0.657  1.00  0.00    -0.237 OA
ATOM     70  O   UNL     1      -4.684  24.986   0.648  1.00  0.00    -0.237 OA
ATOM     71  O   UNL     1      -5.272  23.308  -1.066  1.00  0.00    -0.744 OA
ENDBRANCH  64  68
ENDBRANCH  38  61
ENDBRANCH  12  13
ENDBRANCH   5   7
ENDBRANCH   2   3
ENDBRANCH   1   2
BRANCH   1  72
ATOM     72  C   UNL     1       6.824   7.059  -0.150  1.00  0.00     0.002 C 
BRANCH  72  73
ATOM     73  C   UNL     1       8.053   7.659   0.540  1.00  0.00     0.002 C 
BRANCH  73  74
ATOM     74  C   UNL     1       7.939   7.818   2.062  1.00  0.00     0.021 C 
BRANCH  74  75
ATOM     75  C   UNL     1       7.588   6.537   2.816  1.00  0.00     0.116 C 
BRANCH  75  76
ATOM     76  N   UNL     1       8.588   5.508   2.600  1.00  0.00    -0.356 N 
ATOM     77  C   UNL     1       9.303   4.777   3.502  1.00  0.00     0.228 C 
ATOM     78  H   UNL     1       8.781   5.307   1.655  1.00  0.00     0.163 HD
ATOM     79  O   UNL     1      10.140   3.989   3.060  1.00  0.00    -0.274 OA
BRANCH  77  80
ATOM     80  C   UNL     1       9.027   4.965   4.989  1.00  0.00     0.120 C 
ATOM     81  C   UNL     1       9.771   6.207   5.508  1.00  0.00     0.093 C 
ATOM     82  C   UNL     1       9.439   3.776   5.822  1.00  0.00    -0.021 A 
ATOM     83  S   UNL     1      10.968   5.705   6.786  1.00  0.00    -0.125 SA
ATOM     84  C   UNL     1      10.426   4.027   6.772  1.00  0.00     0.011 A 
ATOM     85  C   UNL     1       8.910   2.493   5.683  1.00  0.00     0.006 A 
ATOM     86  C   UNL     1      10.902   3.014   7.591  1.00  0.00     0.015 A 
ATOM     87  C   UNL     1       9.387   1.467   6.499  1.00  0.00     0.000 A 
ATOM     88  C   UNL     1      10.379   1.726   7.451  1.00  0.00     0.001 A 
ENDBRANCH  77  80
ENDBRANCH  75  76
ENDBRANCH  74  75
ENDBRANCH  73  74
ENDBRANCH  72  73
ENDBRANCH   1  72
TORSDOF 16
