REMARK SMILES O=C(CSc1ccc2ccccc2n1)NCc1ccc(C(=O)NCCCCCCNC(=O)c2ccc(-c3c4nc(c(-c5cc(S(=O)(=O)[O-])ccc5F)c5ccc([nH]5)c(-c5cc(S(=O)(=O)[O-])ccc5F)c5nc(c(-c6cc(S(=O)(=O)[O-])ccc6F)c6ccc3[nH]6)C=C5)C=C4)cc2)cc1
REMARK SMILES IDX 25 1 24 2 23 3 21 4 22 5 20 7 17 8 18 9 97 10 19 11 96 12
REMARK SMILES IDX 16 13 15 14 1 15 2 16 3 18 4 19 5 20 6 21 14 22 7 23 13 24
REMARK SMILES IDX 8 25 12 26 9 27 11 28 10 29 26 30 27 31 28 32 29 33 30 34
REMARK SMILES IDX 31 35 32 37 33 38 34 39 95 40 35 41 94 42 36 43 37 44 38 45
REMARK SMILES IDX 88 46 39 47 93 48 87 49 89 50 40 51 92 52 86 53 85 54 41 56
REMARK SMILES IDX 73 57 53 58 72 59 54 60 57 61 71 62 90 63 55 64 56 65 70 67
REMARK SMILES IDX 91 68 58 69 42 70 43 71 51 72 44 73 50 74 52 75 49 76 45 77
REMARK SMILES IDX 46 78 47 79 48 80 74 81 75 82 83 83 76 84 82 85 84 86 81 87
REMARK SMILES IDX 77 88 78 89 79 90 80 91 59 92 60 93 68 94 61 95 67 96 69 97
REMARK SMILES IDX 66 98 62 99 63 100 64 101 65 102
REMARK H PARENT 23 6 15 17 30 36 89 55 57 66
REMARK Flexibility Score: inf
ROOT
ATOM      1  C   UNL     1       2.323   5.639  -5.236  1.00  0.00     0.021 C 
ENDROOT
BRANCH   1   2
ATOM      2  C   UNL     1       1.723   4.424  -5.947  1.00  0.00     0.116 C 
BRANCH   2   3
ATOM      3  N   UNL     1       2.749   3.753  -6.726  1.00  0.00    -0.352 N 
ATOM      4  C   UNL     1       3.461   2.601  -6.516  1.00  0.00     0.251 C 
ATOM      5  O   UNL     1       4.288   2.273  -7.367  1.00  0.00    -0.269 OA
ATOM      6  H   UNL     1       2.977   4.214  -7.565  1.00  0.00     0.163 HD
BRANCH   4   7
ATOM      7  C   UNL     1       3.229   1.702  -5.352  1.00  0.00     0.039 A 
ATOM      8  C   UNL     1       2.727  -0.168  -3.294  1.00  0.00    -0.029 A 
ATOM      9  C   UNL     1       3.200  -0.595  -4.539  1.00  0.00     0.006 A 
ATOM     10  C   UNL     1       2.541   1.206  -3.083  1.00  0.00     0.006 A 
ATOM     11  C   UNL     1       3.445   0.332  -5.557  1.00  0.00     0.014 A 
ATOM     12  C   UNL     1       2.832   2.135  -4.087  1.00  0.00     0.014 A 
BRANCH   8  13
ATOM     13  C   UNL     1       2.382  -1.169  -2.219  1.00  0.00     0.151 C 
BRANCH  13  14
ATOM     14  N   UNL     1       2.968  -0.794  -0.953  1.00  0.00    -0.351 N 
ATOM     15  O   UNL     1       0.996  -0.203   0.058  1.00  0.00    -0.274 OA
ATOM     16  C   UNL     1       2.219  -0.307   0.092  1.00  0.00     0.230 C 
ATOM     17  H   UNL     1       3.940  -0.890  -0.835  1.00  0.00     0.163 HD
BRANCH  16  18
ATOM     18  C   UNL     1       3.026   0.199   1.273  1.00  0.00     0.176 C 
BRANCH  18  19
ATOM     19  S   UNL     1       4.143  -1.069   1.943  1.00  0.00    -0.096 SA
BRANCH  19  20
ATOM     20  C   UNL     1       3.023  -2.411   2.288  1.00  0.00     0.097 A 
ATOM     21  C   UNL     1       1.741  -2.228   2.784  1.00  0.00     0.036 A 
ATOM     22  N   UNL     1       3.547  -3.639   2.065  1.00  0.00    -0.241 NA
ATOM     23  C   UNL     1       0.960  -3.349   3.051  1.00  0.00     0.013 A 
ATOM     24  C   UNL     1       2.800  -4.721   2.341  1.00  0.00     0.072 A 
ATOM     25  C   UNL     1       1.485  -4.626   2.839  1.00  0.00     0.000 A 
ATOM     26  C   UNL     1       3.333  -5.988   2.142  1.00  0.00     0.029 A 
ATOM     27  C   UNL     1       0.745  -5.787   3.119  1.00  0.00     0.010 A 
ATOM     28  C   UNL     1       2.604  -7.147   2.425  1.00  0.00     0.002 A 
ATOM     29  C   UNL     1       1.307  -7.045   2.914  1.00  0.00     0.001 A 
ENDBRANCH  19  20
ENDBRANCH  18  19
ENDBRANCH  16  18
ENDBRANCH  13  14
ENDBRANCH   8  13
ENDBRANCH   4   7
ENDBRANCH   2   3
ENDBRANCH   1   2
BRANCH   1  30
ATOM     30  C   UNL     1       2.481   6.857  -6.156  1.00  0.00     0.002 C 
BRANCH  30  31
ATOM     31  C   UNL     1       1.162   7.436  -6.683  1.00  0.00     0.002 C 
BRANCH  31  32
ATOM     32  C   UNL     1       0.153   7.831  -5.600  1.00  0.00     0.021 C 
BRANCH  32  33
ATOM     33  C   UNL     1       0.650   8.912  -4.645  1.00  0.00     0.116 C 
BRANCH  33  34
ATOM     34  N   UNL     1       0.878  10.171  -5.337  1.00  0.00    -0.352 N 
ATOM     35  C   UNL     1       0.331  11.406  -5.093  1.00  0.00     0.251 C 
ATOM     36  H   UNL     1       1.514  10.131  -6.087  1.00  0.00     0.163 HD
ATOM     37  O   UNL     1       0.435  12.294  -5.933  1.00  0.00    -0.269 OA
BRANCH  35  38
ATOM     38  C   UNL     1      -0.391  11.654  -3.826  1.00  0.00     0.039 A 
ATOM     39  C   UNL     1      -1.592  12.367  -3.858  1.00  0.00     0.014 A 
ATOM     40  C   UNL     1       0.125  11.200  -2.609  1.00  0.00     0.014 A 
ATOM     41  C   UNL     1      -2.300  12.581  -2.673  1.00  0.00     0.010 A 
ATOM     42  C   UNL     1      -0.617  11.352  -1.441  1.00  0.00     0.010 A 
ATOM     43  C   UNL     1      -1.833  12.051  -1.459  1.00  0.00    -0.014 A 
BRANCH  43  44
ATOM     44  C   UNL     1      -2.600  12.228  -0.199  1.00  0.00     0.031 A 
ATOM     45  C   UNL     1      -2.011  13.016   0.939  1.00  0.00     0.074 A 
ATOM     46  C   UNL     1      -3.798  11.626  -0.059  1.00  0.00     0.049 A 
ATOM     47  N   UNL     1      -2.491  13.227   2.138  1.00  0.00    -0.248 NA
ATOM     48  C   UNL     1      -0.691  13.621   0.707  1.00  0.00     0.031 C 
ATOM     49  C   UNL     1      -4.449  10.798  -1.077  1.00  0.00     0.029 A 
ATOM     50  N   UNL     1      -4.677  11.608   0.994  1.00  0.00    -0.354 N 
ATOM     51  C   UNL     1      -1.528  13.973   2.808  1.00  0.00     0.074 A 
ATOM     52  C   UNL     1      -0.411  14.124   1.899  1.00  0.00     0.031 C 
ATOM     53  C   UNL     1      -5.631  10.370  -0.605  1.00  0.00     0.029 A 
ATOM     54  C   UNL     1      -5.804  10.854   0.761  1.00  0.00     0.049 A 
ATOM     55  H   UNL     1      -4.516  12.088   1.838  1.00  0.00     0.167 HD
ATOM     56  C   UNL     1      -1.580  14.502   4.056  1.00  0.00     0.034 A 
ATOM     57  C   UNL     1      -6.852  10.572   1.561  1.00  0.00     0.034 A 
ATOM     58  C   UNL     1      -2.710  14.350   4.942  1.00  0.00     0.049 A 
ATOM     59  C   UNL     1      -6.885  11.162   2.948  1.00  0.00     0.074 A 
ATOM     60  C   UNL     1      -2.900  14.897   6.199  1.00  0.00     0.029 A 
ATOM     61  N   UNL     1      -3.840  13.588   4.669  1.00  0.00    -0.354 N 
ATOM     62  N   UNL     1      -5.993  11.918   3.546  1.00  0.00    -0.248 NA
ATOM     63  C   UNL     1      -8.071  10.871   3.762  1.00  0.00     0.031 C 
ATOM     64  C   UNL     1      -4.105  14.406   6.715  1.00  0.00     0.029 A 
ATOM     65  C   UNL     1      -4.711  13.620   5.748  1.00  0.00     0.049 A 
ATOM     66  H   UNL     1      -3.998  13.095   3.831  1.00  0.00     0.167 HD
ATOM     67  C   UNL     1      -6.526  12.216   4.797  1.00  0.00     0.074 A 
ATOM     68  C   UNL     1      -7.822  11.572   4.858  1.00  0.00     0.031 C 
ATOM     69  C   UNL     1      -5.995  12.959   5.802  1.00  0.00     0.034 A 
BRANCH  56  70
ATOM     70  C   UNL     1      -0.367  15.263   4.542  1.00  0.00     0.023 A 
ATOM     71  C   UNL     1       0.085  16.428   3.897  1.00  0.00     0.031 A 
ATOM     72  C   UNL     1       0.367  14.800   5.649  1.00  0.00     0.131 A 
ATOM     73  C   UNL     1       1.278  17.041   4.309  1.00  0.00     0.055 A 
ATOM     74  C   UNL     1       1.506  15.465   6.108  1.00  0.00     0.041 A 
ATOM     75  F   UNL     1      -0.000  13.682   6.295  1.00  0.00    -0.206 F 
ATOM     76  C   UNL     1       1.978  16.583   5.426  1.00  0.00     0.022 A 
BRANCH  73  77
ATOM     77  S   UNL     1       1.985  18.347   3.267  1.00  0.00     0.124 S 
ATOM     78  O   UNL     1       2.142  17.653   1.991  1.00  0.00    -0.237 OA
ATOM     79  O   UNL     1       0.955  19.378   3.312  1.00  0.00    -0.237 OA
ATOM     80  O   UNL     1       3.236  18.684   3.942  1.00  0.00    -0.744 OA
ENDBRANCH  73  77
ENDBRANCH  56  70
BRANCH  57  81
ATOM     81  C   UNL     1      -7.948   9.684   1.080  1.00  0.00     0.023 A 
ATOM     82  C   UNL     1      -9.253  10.169   0.904  1.00  0.00     0.031 A 
ATOM     83  C   UNL     1      -7.710   8.322   0.816  1.00  0.00     0.131 A 
ATOM     84  C   UNL     1     -10.280   9.293   0.519  1.00  0.00     0.055 A 
ATOM     85  C   UNL     1      -8.724   7.466   0.383  1.00  0.00     0.041 A 
ATOM     86  F   UNL     1      -6.479   7.808   0.962  1.00  0.00    -0.206 F 
ATOM     87  C   UNL     1     -10.021   7.948   0.244  1.00  0.00     0.022 A 
BRANCH  84  88
ATOM     88  S   UNL     1     -11.981   9.921   0.460  1.00  0.00     0.124 S 
ATOM     89  O   UNL     1     -12.175  10.385   1.828  1.00  0.00    -0.237 OA
ATOM     90  O   UNL     1     -11.885  10.957  -0.563  1.00  0.00    -0.237 OA
ATOM     91  O   UNL     1     -12.763   8.746   0.081  1.00  0.00    -0.744 OA
ENDBRANCH  84  88
ENDBRANCH  57  81
BRANCH  69  92
ATOM     92  C   UNL     1      -6.842  13.143   7.039  1.00  0.00     0.023 A 
ATOM     93  C   UNL     1      -7.167  12.066   7.882  1.00  0.00     0.031 A 
ATOM     94  C   UNL     1      -7.343  14.415   7.368  1.00  0.00     0.131 A 
ATOM     95  C   UNL     1      -8.019  12.270   8.978  1.00  0.00     0.055 A 
ATOM     96  C   UNL     1      -8.137  14.624   8.497  1.00  0.00     0.041 A 
ATOM     97  F   UNL     1      -7.068  15.479   6.597  1.00  0.00    -0.206 F 
ATOM     98  C   UNL     1      -8.491  13.545   9.301  1.00  0.00     0.022 A 
BRANCH  95  99
ATOM     99  S   UNL     1      -8.586  10.827   9.921  1.00  0.00     0.124 S 
ATOM    100  O   UNL     1      -9.233  10.026   8.887  1.00  0.00    -0.237 OA
ATOM    101  O   UNL     1      -7.337  10.292  10.453  1.00  0.00    -0.237 OA
ATOM    102  O   UNL     1      -9.489  11.401  10.917  1.00  0.00    -0.744 OA
ENDBRANCH  95  99
ENDBRANCH  69  92
ENDBRANCH  43  44
ENDBRANCH  35  38
ENDBRANCH  33  34
ENDBRANCH  32  33
ENDBRANCH  31  32
ENDBRANCH  30  31
ENDBRANCH   1  30
TORSDOF 21
