REMARK SMILES C[C@@]([NH2+]CC(=O)NC1CCCCCC1)(C(=O)NCCCCCCNC(=O)c1ccc(-c2c3nc(c(-c4cc(S(=O)(=O)[O-])ccc4F)c4ccc([nH]4)c(-c4cc(S(=O)(=O)[O-])ccc4F)c4nc(c(-c5cc(S(=O)(=O)[O-])ccc5F)c5ccc2[nH]5)C=C4)C=C3)cc1)C(F)(F)F
REMARK SMILES IDX 18 1 17 2 15 3 16 4 2 6 1 7 3 8 4 11 5 12 6 13 7 14 8 16
REMARK SMILES IDX 9 17 10 18 11 19 14 21 13 22 12 23 90 25 91 26 92 27 93 28
REMARK SMILES IDX 19 29 20 30 21 31 22 32 23 33 24 34 25 35 26 37 27 38 28 39
REMARK SMILES IDX 89 40 29 41 88 42 30 43 31 44 32 45 82 46 33 47 87 48 81 49
REMARK SMILES IDX 83 50 34 51 86 52 80 53 79 54 35 56 67 57 47 58 66 59 48 60
REMARK SMILES IDX 51 61 65 62 84 63 49 64 50 65 64 67 85 68 52 69 36 70 37 71
REMARK SMILES IDX 45 72 38 73 44 74 46 75 43 76 39 77 40 78 41 79 42 80 68 81
REMARK SMILES IDX 69 82 77 83 70 84 76 85 78 86 75 87 71 88 72 89 73 90 74 91
REMARK SMILES IDX 53 92 54 93 62 94 55 95 61 96 63 97 60 98 56 99 57 100
REMARK SMILES IDX 58 101 59 102
REMARK H PARENT 17 5 3 9 3 10 7 15 24 36 83 55 51 66
REMARK Flexibility Score: 80.00
ROOT
ATOM      1  C   UNL     1      -0.643  -0.243  -2.874  1.00  0.00     0.116 C 
ENDROOT
BRANCH   1   2
ATOM      2  N   UNL     1      -0.836   0.727  -1.829  1.00  0.00    -0.350 N 
ATOM      3  C   UNL     1      -0.148   1.693  -1.205  1.00  0.00     0.290 C 
ATOM      4  O   UNL     1      -1.000   2.495  -0.769  1.00  0.00    -0.267 OA
ATOM      5  H   UNL     1      -1.747   0.661  -1.462  1.00  0.00     0.163 HD
BRANCH   3   6
ATOM      6  C   UNL     1       1.457   1.915  -0.966  1.00  0.00     0.268 C 
ATOM      7  C   UNL     1       2.188   0.870  -1.826  1.00  0.00     0.101 C 
BRANCH   6   8
ATOM      8  N   UNL     1       1.618   3.350  -1.406  1.00  0.00    -0.318 N 
ATOM      9  H   UNL     1       1.399   3.412  -2.401  1.00  0.00     0.347 HD
ATOM     10  H   UNL     1       2.581   3.624  -1.212  1.00  0.00     0.347 HD
BRANCH   8  11
ATOM     11  C   UNL     1       0.703   4.310  -0.643  1.00  0.00     0.362 C 
BRANCH  11  12
ATOM     12  C   UNL     1       0.663   4.338   0.931  1.00  0.00     0.275 C 
ATOM     13  O   UNL     1       1.208   5.338   1.449  1.00  0.00    -0.268 OA
ATOM     14  N   UNL     1       0.176   3.500   1.896  1.00  0.00    -0.348 N 
ATOM     15  H   UNL     1       0.721   3.665   2.699  1.00  0.00     0.163 HD
BRANCH  14  16
ATOM     16  C   UNL     1      -0.846   2.410   2.291  1.00  0.00     0.082 C 
BRANCH  16  17
ATOM     17  C   UNL     1      -0.873   1.099   1.505  1.00  0.00     0.025 C 
BRANCH  17  18
ATOM     18  C   UNL     1      -0.397  -0.269   1.984  1.00  0.00     0.002 C 
BRANCH  18  19
ATOM     19  C   UNL     1      -1.366  -0.978   2.885  1.00  0.00     0.000 CG0
ATOM     20  G   UNL     1      -1.306  -0.394   4.282  1.00  0.00     0.000 G0
ENDBRANCH  18  19
ENDBRANCH  17  18
ENDBRANCH  16  17
BRANCH  16  21
ATOM     21  C   UNL     1      -0.687   2.092   3.798  1.00  0.00     0.025 C 
BRANCH  21  22
ATOM     22  C   UNL     1      -1.704   1.084   4.366  1.00  0.00     0.002 C 
BRANCH  22  23
ATOM     23  C   UNL     1      -1.306  -0.394   4.282  1.00  0.00     0.000 CG0
ATOM     24  G   UNL     1      -1.366  -0.978   2.885  1.00  0.00     0.000 G0
ENDBRANCH  22  23
ENDBRANCH  21  22
ENDBRANCH  16  21
ENDBRANCH  14  16
ENDBRANCH  11  12
ENDBRANCH   8  11
ENDBRANCH   6   8
BRANCH   6  25
ATOM     25  C   UNL     1       2.307   1.797   0.414  1.00  0.00     0.453 C 
ATOM     26  F   UNL     1       1.734   1.231   1.474  1.00  0.00    -0.164 F 
ATOM     27  F   UNL     1       3.470   1.100   0.240  1.00  0.00    -0.164 F 
ATOM     28  F   UNL     1       2.761   3.019   0.821  1.00  0.00    -0.164 F 
ENDBRANCH   6  25
ENDBRANCH   3   6
ENDBRANCH   1   2
BRANCH   1  29
ATOM     29  C   UNL     1      -1.389  -1.531  -2.543  1.00  0.00     0.021 C 
BRANCH  29  30
ATOM     30  C   UNL     1      -2.924  -1.432  -2.517  1.00  0.00     0.002 C 
BRANCH  30  31
ATOM     31  C   UNL     1      -3.586  -0.791  -3.743  1.00  0.00     0.002 C 
BRANCH  31  32
ATOM     32  C   UNL     1      -3.059  -1.259  -5.098  1.00  0.00     0.021 C 
BRANCH  32  33
ATOM     33  C   UNL     1      -3.107  -2.764  -5.306  1.00  0.00     0.116 C 
BRANCH  33  34
ATOM     34  N   UNL     1      -4.467  -3.241  -5.469  1.00  0.00    -0.352 N 
ATOM     35  C   UNL     1      -4.987  -3.944  -6.524  1.00  0.00     0.251 C 
ATOM     36  H   UNL     1      -5.090  -3.035  -4.735  1.00  0.00     0.163 HD
ATOM     37  O   UNL     1      -6.208  -4.077  -6.637  1.00  0.00    -0.269 OA
BRANCH  35  38
ATOM     38  C   UNL     1      -4.069  -4.506  -7.536  1.00  0.00     0.039 A 
ATOM     39  C   UNL     1      -4.332  -4.287  -8.888  1.00  0.00     0.014 A 
ATOM     40  C   UNL     1      -2.921  -5.202  -7.140  1.00  0.00     0.014 A 
ATOM     41  C   UNL     1      -3.412  -4.718  -9.845  1.00  0.00     0.010 A 
ATOM     42  C   UNL     1      -1.967  -5.555  -8.089  1.00  0.00     0.010 A 
ATOM     43  C   UNL     1      -2.205  -5.323  -9.452  1.00  0.00    -0.014 A 
BRANCH  43  44
ATOM     44  C   UNL     1      -1.185  -5.726 -10.455  1.00  0.00     0.031 A 
ATOM     45  C   UNL     1      -0.812  -7.175 -10.606  1.00  0.00     0.074 A 
ATOM     46  C   UNL     1      -0.557  -4.784 -11.186  1.00  0.00     0.049 A 
ATOM     47  N   UNL     1       0.100  -7.721 -11.369  1.00  0.00    -0.248 NA
ATOM     48  C   UNL     1      -1.540  -8.133  -9.760  1.00  0.00     0.031 C 
ATOM     49  C   UNL     1      -0.804  -3.343 -11.095  1.00  0.00     0.029 A 
ATOM     50  N   UNL     1       0.424  -4.891 -12.139  1.00  0.00    -0.354 N 
ATOM     51  C   UNL     1       0.060  -9.083 -11.091  1.00  0.00     0.074 A 
ATOM     52  C   UNL     1      -0.914  -9.266 -10.036  1.00  0.00     0.031 C 
ATOM     53  C   UNL     1      -0.012  -2.705 -11.971  1.00  0.00     0.029 A 
ATOM     54  C   UNL     1       0.836  -3.681 -12.647  1.00  0.00     0.049 A 
ATOM     55  H   UNL     1       0.798  -5.753 -12.432  1.00  0.00     0.167 HD
ATOM     56  C   UNL     1       0.751 -10.090 -11.681  1.00  0.00     0.034 A 
ATOM     57  C   UNL     1       1.803  -3.387 -13.540  1.00  0.00     0.034 A 
ATOM     58  C   UNL     1       1.718  -9.884 -12.732  1.00  0.00     0.049 A 
ATOM     59  C   UNL     1       2.592  -4.516 -14.153  1.00  0.00     0.074 A 
ATOM     60  C   UNL     1       2.438 -10.831 -13.438  1.00  0.00     0.029 A 
ATOM     61  N   UNL     1       2.115  -8.643 -13.218  1.00  0.00    -0.354 N 
ATOM     62  N   UNL     1       2.499  -5.807 -13.925  1.00  0.00    -0.248 NA
ATOM     63  C   UNL     1       3.606  -4.152 -15.150  1.00  0.00     0.031 C 
ATOM     64  C   UNL     1       3.327 -10.164 -14.288  1.00  0.00     0.029 A 
ATOM     65  C   UNL     1       3.100  -8.800 -14.182  1.00  0.00     0.049 A 
ATOM     66  H   UNL     1       1.751  -7.779 -12.921  1.00  0.00     0.167 HD
ATOM     67  C   UNL     1       3.428  -6.409 -14.770  1.00  0.00     0.074 A 
ATOM     68  C   UNL     1       4.054  -5.342 -15.524  1.00  0.00     0.031 C 
ATOM     69  C   UNL     1       3.732  -7.725 -14.913  1.00  0.00     0.034 A 
BRANCH  56  70
ATOM     70  C   UNL     1       0.502 -11.492 -11.174  1.00  0.00     0.023 A 
ATOM     71  C   UNL     1      -0.771 -12.086 -11.237  1.00  0.00     0.031 A 
ATOM     72  C   UNL     1       1.540 -12.232 -10.581  1.00  0.00     0.131 A 
ATOM     73  C   UNL     1      -0.996 -13.333 -10.635  1.00  0.00     0.055 A 
ATOM     74  C   UNL     1       1.332 -13.515 -10.068  1.00  0.00     0.041 A 
ATOM     75  F   UNL     1       2.773 -11.714 -10.469  1.00  0.00    -0.206 F 
ATOM     76  C   UNL     1       0.053 -14.065 -10.076  1.00  0.00     0.022 A 
BRANCH  73  77
ATOM     77  S   UNL     1      -2.707 -13.901 -10.438  1.00  0.00     0.124 S 
ATOM     78  O   UNL     1      -3.299 -12.796  -9.686  1.00  0.00    -0.237 OA
ATOM     79  O   UNL     1      -3.153 -14.045 -11.819  1.00  0.00    -0.237 OA
ATOM     80  O   UNL     1      -2.570 -15.149  -9.691  1.00  0.00    -0.744 OA
ENDBRANCH  73  77
ENDBRANCH  56  70
BRANCH  57  81
ATOM     81  C   UNL     1       2.100  -1.966 -13.884  1.00  0.00     0.023 A 
ATOM     82  C   UNL     1       1.906  -1.473 -15.183  1.00  0.00     0.031 A 
ATOM     83  C   UNL     1       2.611  -1.083 -12.914  1.00  0.00     0.131 A 
ATOM     84  C   UNL     1       2.259  -0.148 -15.489  1.00  0.00     0.055 A 
ATOM     85  C   UNL     1       2.906   0.248 -13.209  1.00  0.00     0.041 A 
ATOM     86  F   UNL     1       2.814  -1.502 -11.654  1.00  0.00    -0.206 F 
ATOM     87  C   UNL     1       2.742   0.720 -14.507  1.00  0.00     0.022 A 
BRANCH  84  88
ATOM     88  S   UNL     1       2.156   0.403 -17.214  1.00  0.00     0.124 S 
ATOM     89  O   UNL     1       3.040  -0.545 -17.881  1.00  0.00    -0.237 OA
ATOM     90  O   UNL     1       0.731   0.260 -17.493  1.00  0.00    -0.237 OA
ATOM     91  O   UNL     1       2.643   1.780 -17.160  1.00  0.00    -0.744 OA
ENDBRANCH  84  88
ENDBRANCH  57  81
BRANCH  69  92
ATOM     92  C   UNL     1       4.767  -8.084 -15.952  1.00  0.00     0.023 A 
ATOM     93  C   UNL     1       6.112  -7.697 -15.823  1.00  0.00     0.031 A 
ATOM     94  C   UNL     1       4.400  -8.826 -17.090  1.00  0.00     0.131 A 
ATOM     95  C   UNL     1       7.030  -8.007 -16.839  1.00  0.00     0.055 A 
ATOM     96  C   UNL     1       5.330  -9.189 -18.064  1.00  0.00     0.041 A 
ATOM     97  F   UNL     1       3.128  -9.218 -17.268  1.00  0.00    -0.206 F 
ATOM     98  C   UNL     1       6.652  -8.769 -17.948  1.00  0.00     0.022 A 
BRANCH  95  99
ATOM     99  S   UNL     1       8.706  -7.322 -16.738  1.00  0.00     0.124 S 
ATOM    100  O   UNL     1       8.445  -5.887 -16.704  1.00  0.00    -0.237 OA
ATOM    101  O   UNL     1       9.210  -7.908 -15.500  1.00  0.00    -0.237 OA
ATOM    102  O   UNL     1       9.349  -7.807 -17.959  1.00  0.00    -0.744 OA
ENDBRANCH  95  99
ENDBRANCH  69  92
ENDBRANCH  43  44
ENDBRANCH  35  38
ENDBRANCH  33  34
ENDBRANCH  32  33
ENDBRANCH  31  32
ENDBRANCH  30  31
ENDBRANCH  29  30
ENDBRANCH   1  29
TORSDOF 21
