REMARK SMILES O=C(COCC(=O)N1CCC([NH+]2CCN(c3ccc(F)cc3)CC2)CC1)NCCCCCCNC(=O)c1ccc(-c2c3nc(c(-c4cc(S(=O)(=O)[O-])ccc4F)c4ccc([nH]4)c(-c4cc(S(=O)(=O)[O-])ccc4F)c4nc(c(-c5cc(S(=O)(=O)[O-])ccc5F)c5ccc2[nH]5)C=C4)C=C3)cc1
REMARK SMILES IDX 29 1 28 2 27 3 1 4 2 5 3 7 4 8 5 9 6 10 7 11 8 12 9 13 26 14
REMARK SMILES IDX 10 15 25 16 11 17 12 18 13 19 24 20 14 22 23 23 15 24 16 25
REMARK SMILES IDX 17 26 22 27 18 28 21 29 19 30 20 31 30 32 31 33 32 34 33 35
REMARK SMILES IDX 34 36 35 37 36 39 37 40 38 41 99 42 39 43 98 44 40 45 41 46
REMARK SMILES IDX 42 47 92 48 43 49 97 50 91 51 93 52 44 53 96 54 90 55 89 56
REMARK SMILES IDX 45 58 77 59 57 60 76 61 58 62 61 63 75 64 94 65 59 66 60 67
REMARK SMILES IDX 74 69 95 70 62 71 46 72 47 73 55 74 48 75 54 76 56 77 53 78
REMARK SMILES IDX 49 79 50 80 51 81 52 82 78 83 79 84 87 85 80 86 86 87 88 88
REMARK SMILES IDX 85 89 81 90 82 91 83 92 84 93 63 94 64 95 72 96 65 97 71 98
REMARK SMILES IDX 73 99 70 100 66 101 67 102 68 103 69 104
REMARK H PARENT 27 6 12 21 34 38 93 57 61 68
REMARK Flexibility Score: inf
ROOT
ATOM      1  C   UNL     1       2.696  -3.102   1.281  1.00  0.00     0.021 C 
ENDROOT
BRANCH   1   2
ATOM      2  C   UNL     1       2.121  -1.728   1.622  1.00  0.00     0.116 C 
BRANCH   2   3
ATOM      3  N   UNL     1       2.705  -0.691   0.801  1.00  0.00    -0.354 N 
ATOM      4  O   UNL     1       0.921  -0.447  -0.636  1.00  0.00    -0.272 OA
ATOM      5  C   UNL     1       2.051  -0.136  -0.276  1.00  0.00     0.246 C 
ATOM      6  H   UNL     1       3.609  -0.369   1.020  1.00  0.00     0.163 HD
BRANCH   5   7
ATOM      7  C   UNL     1       2.900   0.877  -1.048  1.00  0.00     0.260 C 
BRANCH   7   8
ATOM      8  O   UNL     1       3.831   1.631  -0.284  1.00  0.00    -0.362 OA
BRANCH   8   9
ATOM      9  C   UNL     1       3.226   2.586   0.565  1.00  0.00     0.260 C 
BRANCH   9  10
ATOM     10  C   UNL     1       2.417   3.787   0.026  1.00  0.00     0.248 C 
ATOM     11  O   UNL     1       1.286   4.010   0.464  1.00  0.00    -0.272 OA
ATOM     12  N   UNL     1       3.054   4.675  -0.830  1.00  0.00    -0.340 N 
ATOM     13  C   UNL     1       2.521   6.018  -0.971  1.00  0.00     0.125 C 
ATOM     14  C   UNL     1       3.978   4.293  -1.889  1.00  0.00     0.125 C 
ATOM     15  C   UNL     1       1.758   6.173  -2.278  1.00  0.00     0.086 C 
ATOM     16  C   UNL     1       3.221   4.297  -3.220  1.00  0.00     0.086 C 
ATOM     17  C   UNL     1       2.558   5.672  -3.497  1.00  0.00     0.187 C 
BRANCH  17  18
ATOM     18  N   UNL     1       1.857   5.702  -4.798  1.00  0.00    -0.329 N 
ATOM     19  C   UNL     1       0.818   4.682  -5.051  1.00  0.00     0.284 C 
ATOM     20  C   UNL     1       1.338   7.029  -5.197  1.00  0.00     0.284 C 
ATOM     21  H   UNL     1       2.645   5.450  -5.395  1.00  0.00     0.348 HD
ATOM     22  C   UNL     1      -0.594   4.972  -4.495  1.00  0.00     0.178 C 
ATOM     23  C   UNL     1      -0.086   7.411  -4.714  1.00  0.00     0.178 C 
ATOM     24  N   UNL     1      -1.035   6.307  -4.907  1.00  0.00    -0.360 N 
BRANCH  24  25
ATOM     25  C   UNL     1      -2.385   6.617  -4.878  1.00  0.00     0.037 A 
ATOM     26  C   UNL     1      -2.937   7.341  -5.947  1.00  0.00     0.029 A 
ATOM     27  C   UNL     1      -3.238   6.217  -3.840  1.00  0.00     0.029 A 
ATOM     28  C   UNL     1      -4.301   7.630  -5.997  1.00  0.00     0.041 A 
ATOM     29  C   UNL     1      -4.603   6.518  -3.877  1.00  0.00     0.041 A 
ATOM     30  C   UNL     1      -5.122   7.213  -4.961  1.00  0.00     0.123 A 
ATOM     31  F   UNL     1      -6.433   7.483  -5.010  1.00  0.00    -0.207 F 
ENDBRANCH  24  25
ENDBRANCH  17  18
ENDBRANCH   9  10
ENDBRANCH   8   9
ENDBRANCH   7   8
ENDBRANCH   5   7
ENDBRANCH   2   3
ENDBRANCH   1   2
BRANCH   1  32
ATOM     32  C   UNL     1       4.207  -3.232   1.516  1.00  0.00     0.002 C 
BRANCH  32  33
ATOM     33  C   UNL     1       4.679  -2.930   2.942  1.00  0.00     0.002 C 
BRANCH  33  34
ATOM     34  C   UNL     1       4.002  -3.751   4.041  1.00  0.00     0.021 C 
BRANCH  34  35
ATOM     35  C   UNL     1       4.146  -5.262   3.892  1.00  0.00     0.116 C 
BRANCH  35  36
ATOM     36  N   UNL     1       5.529  -5.696   3.993  1.00  0.00    -0.352 N 
ATOM     37  C   UNL     1       6.072  -6.692   4.769  1.00  0.00     0.251 C 
ATOM     38  H   UNL     1       6.168  -5.207   3.426  1.00  0.00     0.163 HD
ATOM     39  O   UNL     1       7.290  -6.788   4.866  1.00  0.00    -0.269 OA
BRANCH  37  40
ATOM     40  C   UNL     1       5.186  -7.628   5.499  1.00  0.00     0.039 A 
ATOM     41  C   UNL     1       5.511  -7.981   6.811  1.00  0.00     0.014 A 
ATOM     42  C   UNL     1       4.049  -8.168   4.890  1.00  0.00     0.014 A 
ATOM     43  C   UNL     1       4.672  -8.841   7.525  1.00  0.00     0.010 A 
ATOM     44  C   UNL     1       3.172  -8.957   5.630  1.00  0.00     0.010 A 
ATOM     45  C   UNL     1       3.482  -9.316   6.949  1.00  0.00    -0.014 A 
BRANCH  45  46
ATOM     46  C   UNL     1       2.572 -10.220   7.700  1.00  0.00     0.031 A 
ATOM     47  C   UNL     1       2.327 -11.620   7.207  1.00  0.00     0.074 A 
ATOM     48  C   UNL     1       1.936  -9.770   8.800  1.00  0.00     0.049 A 
ATOM     49  N   UNL     1       1.534 -12.541   7.692  1.00  0.00    -0.248 NA
ATOM     50  C   UNL     1       3.047 -12.030   5.991  1.00  0.00     0.031 C 
ATOM     51  C   UNL     1       2.065  -8.422   9.357  1.00  0.00     0.029 A 
ATOM     52  N   UNL     1       1.058 -10.397   9.647  1.00  0.00    -0.354 N 
ATOM     53  C   UNL     1       1.646 -13.628   6.832  1.00  0.00     0.074 A 
ATOM     54  C   UNL     1       2.535 -13.230   5.763  1.00  0.00     0.031 C 
ATOM     55  C   UNL     1       1.327  -8.337  10.474  1.00  0.00     0.029 A 
ATOM     56  C   UNL     1       0.635  -9.605  10.689  1.00  0.00     0.049 A 
ATOM     57  H   UNL     1       0.758 -11.327   9.521  1.00  0.00     0.167 HD
ATOM     58  C   UNL     1       1.079 -14.854   6.939  1.00  0.00     0.034 A 
ATOM     59  C   UNL     1      -0.220  -9.864  11.699  1.00  0.00     0.034 A 
ATOM     60  C   UNL     1       0.221 -15.246   8.027  1.00  0.00     0.049 A 
ATOM     61  C   UNL     1      -0.865 -11.220  11.785  1.00  0.00     0.074 A 
ATOM     62  C   UNL     1      -0.337 -16.487   8.277  1.00  0.00     0.029 A 
ATOM     63  N   UNL     1      -0.216 -14.402   9.040  1.00  0.00    -0.354 N 
ATOM     64  N   UNL     1      -0.714 -12.253  10.989  1.00  0.00    -0.248 NA
ATOM     65  C   UNL     1      -1.798 -11.445  12.896  1.00  0.00     0.031 C 
ATOM     66  C   UNL     1      -1.169 -16.375   9.395  1.00  0.00     0.029 A 
ATOM     67  C   UNL     1      -1.074 -15.082   9.888  1.00  0.00     0.049 A 
ATOM     68  H   UNL     1       0.047 -13.458   9.141  1.00  0.00     0.167 HD
ATOM     69  C   UNL     1      -1.528 -13.254  11.507  1.00  0.00     0.074 A 
ATOM     70  C   UNL     1      -2.163 -12.705  12.689  1.00  0.00     0.031 C 
ATOM     71  C   UNL     1      -1.725 -14.515  11.046  1.00  0.00     0.034 A 
BRANCH  58  72
ATOM     72  C   UNL     1       1.355 -15.850   5.840  1.00  0.00     0.023 A 
ATOM     73  C   UNL     1       2.648 -16.345   5.599  1.00  0.00     0.031 A 
ATOM     74  C   UNL     1       0.311 -16.303   5.016  1.00  0.00     0.131 A 
ATOM     75  C   UNL     1       2.875 -17.211   4.519  1.00  0.00     0.055 A 
ATOM     76  C   UNL     1       0.530 -17.224   3.990  1.00  0.00     0.041 A 
ATOM     77  F   UNL     1      -0.941 -15.850   5.188  1.00  0.00    -0.206 F 
ATOM     78  C   UNL     1       1.821 -17.674   3.728  1.00  0.00     0.022 A 
BRANCH  75  79
ATOM     79  S   UNL     1       4.586 -17.631   4.090  1.00  0.00     0.124 S 
ATOM     80  O   UNL     1       5.138 -16.319   3.763  1.00  0.00    -0.237 OA
ATOM     81  O   UNL     1       5.079 -18.244   5.318  1.00  0.00    -0.237 OA
ATOM     82  O   UNL     1       4.442 -18.540   2.954  1.00  0.00    -0.744 OA
ENDBRANCH  75  79
ENDBRANCH  58  72
BRANCH  59  83
ATOM     83  C   UNL     1      -0.508  -8.799  12.698  1.00  0.00     0.023 A 
ATOM     84  C   UNL     1       0.016  -8.867  13.997  1.00  0.00     0.031 A 
ATOM     85  C   UNL     1      -1.260  -7.665  12.341  1.00  0.00     0.131 A 
ATOM     86  C   UNL     1      -0.217  -7.814  14.897  1.00  0.00     0.055 A 
ATOM     87  C   UNL     1      -1.463  -6.608  13.229  1.00  0.00     0.041 A 
ATOM     88  F   UNL     1      -1.767  -7.551  11.103  1.00  0.00    -0.206 F 
ATOM     89  C   UNL     1      -0.940  -6.679  14.516  1.00  0.00     0.022 A 
BRANCH  86  90
ATOM     90  S   UNL     1       0.455  -7.934  16.578  1.00  0.00     0.124 S 
ATOM     91  O   UNL     1      -0.335  -9.027  17.135  1.00  0.00    -0.237 OA
ATOM     92  O   UNL     1       1.863  -8.221  16.326  1.00  0.00    -0.237 OA
ATOM     93  O   UNL     1       0.185  -6.615  17.146  1.00  0.00    -0.744 OA
ENDBRANCH  86  90
ENDBRANCH  59  83
BRANCH  71  94
ATOM     94  C   UNL     1      -2.669 -15.402  11.813  1.00  0.00     0.023 A 
ATOM     95  C   UNL     1      -4.059 -15.201  11.765  1.00  0.00     0.031 A 
ATOM     96  C   UNL     1      -2.179 -16.508  12.530  1.00  0.00     0.131 A 
ATOM     97  C   UNL     1      -4.913 -16.090  12.434  1.00  0.00     0.055 A 
ATOM     98  C   UNL     1      -3.036 -17.413  13.156  1.00  0.00     0.041 A 
ATOM     99  F   UNL     1      -0.859 -16.744  12.601  1.00  0.00    -0.206 F 
ATOM    100  C   UNL     1      -4.411 -17.206  13.111  1.00  0.00     0.022 A 
BRANCH  97 101
ATOM    101  S   UNL     1      -6.697 -15.765  12.421  1.00  0.00     0.124 S 
ATOM    102  O   UNL     1      -6.781 -14.521  13.180  1.00  0.00    -0.237 OA
ATOM    103  O   UNL     1      -6.990 -15.663  10.995  1.00  0.00    -0.237 OA
ATOM    104  O   UNL     1      -7.264 -16.936  13.086  1.00  0.00    -0.744 OA
ENDBRANCH  97 101
ENDBRANCH  71  94
ENDBRANCH  45  46
ENDBRANCH  37  40
ENDBRANCH  35  36
ENDBRANCH  34  35
ENDBRANCH  33  34
ENDBRANCH  32  33
ENDBRANCH   1  32
TORSDOF 21
