REMARK SMILES C[C@@H](Sc1nc(-c2ccc3c(c2)OCO3)ccc1C#N)C(=O)NCCCCCCNC(=O)c1ccc(-c2c3nc(c(-c4cc(S(=O)(=O)[O-])ccc4F)c4ccc([nH]4)c(-c4cc(S(=O)(=O)[O-])ccc4F)c4nc(c(-c5cc(S(=O)(=O)[O-])ccc5F)c5ccc2[nH]5)C=C4)C=C3)cc1
REMARK SMILES IDX 26 1 25 2 24 3 23 4 21 5 22 6 2 8 1 9 3 10 4 11 5 12 18 13
REMARK SMILES IDX 6 14 17 15 16 16 19 17 20 18 7 19 8 20 12 21 9 22 11 23
REMARK SMILES IDX 10 24 13 25 15 26 14 27 27 28 28 29 29 30 30 31 31 32 32 34
REMARK SMILES IDX 33 35 34 36 95 37 35 38 94 39 36 40 37 41 38 42 88 43 39 44
REMARK SMILES IDX 93 45 87 46 89 47 40 48 92 49 86 50 85 51 41 53 73 54 53 55
REMARK SMILES IDX 72 56 54 57 57 58 71 59 90 60 55 61 56 62 70 64 91 65 58 66
REMARK SMILES IDX 42 67 43 68 51 69 44 70 50 71 52 72 49 73 45 74 46 75 47 76
REMARK SMILES IDX 48 77 74 78 75 79 83 80 76 81 82 82 84 83 81 84 77 85 78 86
REMARK SMILES IDX 79 87 80 88 59 89 60 90 68 91 61 92 67 93 69 94 66 95 62 96
REMARK SMILES IDX 63 97 64 98 65 99
REMARK H PARENT 23 7 30 33 89 52 57 63
REMARK Flexibility Score: inf
ROOT
ATOM      1  C   UNL     1      -3.001   1.892  -2.161  1.00  0.00     0.002 C 
ENDROOT
BRANCH   1   2
ATOM      2  C   UNL     1      -1.494   1.714  -1.950  1.00  0.00     0.021 C 
BRANCH   2   3
ATOM      3  C   UNL     1      -1.002   2.266  -0.612  1.00  0.00     0.116 C 
BRANCH   3   4
ATOM      4  N   UNL     1      -1.494   1.449   0.480  1.00  0.00    -0.355 N 
ATOM      5  C   UNL     1      -0.830   0.610   1.324  1.00  0.00     0.233 C 
ATOM      6  O   UNL     1      -1.506  -0.019   2.145  1.00  0.00    -0.274 OA
ATOM      7  H   UNL     1      -2.464   1.510   0.638  1.00  0.00     0.163 HD
BRANCH   5   8
ATOM      8  C   UNL     1       0.697   0.448   1.276  1.00  0.00     0.139 C 
ATOM      9  C   UNL     1       1.175  -0.106  -0.064  1.00  0.00     0.030 C 
BRANCH   8  10
ATOM     10  S   UNL     1       1.435   2.036   1.871  1.00  0.00    -0.092 SA
BRANCH  10  11
ATOM     11  C   UNL     1       3.209   1.893   1.812  1.00  0.00     0.115 A 
ATOM     12  N   UNL     1       3.780   3.130   1.681  1.00  0.00    -0.240 NA
ATOM     13  C   UNL     1       3.999   0.751   1.936  1.00  0.00     0.084 A 
ATOM     14  C   UNL     1       5.128   3.251   1.621  1.00  0.00     0.072 A 
ATOM     15  C   UNL     1       5.389   0.887   1.844  1.00  0.00     0.024 A 
ATOM     16  C   UNL     1       5.959   2.142   1.683  1.00  0.00     0.030 A 
BRANCH  13  17
ATOM     17  C   UNL     1       3.503  -0.565   2.183  1.00  0.00     0.102 C 
ATOM     18  N   UNL     1       3.151  -1.656   2.353  1.00  0.00    -0.192 NA
ENDBRANCH  13  17
BRANCH  14  19
ATOM     19  C   UNL     1       5.693   4.606   1.526  1.00  0.00     0.004 A 
ATOM     20  C   UNL     1       6.604   4.927   0.485  1.00  0.00     0.014 A 
ATOM     21  C   UNL     1       5.425   5.577   2.509  1.00  0.00     0.061 A 
ATOM     22  C   UNL     1       7.266   6.158   0.442  1.00  0.00     0.051 A 
ATOM     23  C   UNL     1       6.107   6.779   2.451  1.00  0.00     0.166 A 
ATOM     24  C   UNL     1       7.007   7.056   1.450  1.00  0.00     0.165 A 
ATOM     25  O   UNL     1       6.015   7.794   3.354  1.00  0.00    -0.454 OA
ATOM     26  O   UNL     1       7.595   8.273   1.596  1.00  0.00    -0.454 OA
ATOM     27  C   UNL     1       6.965   8.735   2.806  1.00  0.00     0.468 C 
ENDBRANCH  14  19
ENDBRANCH  10  11
ENDBRANCH   8  10
ENDBRANCH   5   8
ENDBRANCH   3   4
ENDBRANCH   2   3
ENDBRANCH   1   2
BRANCH   1  28
ATOM     28  C   UNL     1      -3.487   3.341  -2.053  1.00  0.00     0.002 C 
BRANCH  28  29
ATOM     29  C   UNL     1      -2.744   4.323  -2.961  1.00  0.00     0.021 C 
BRANCH  29  30
ATOM     30  C   UNL     1      -2.836   3.978  -4.441  1.00  0.00     0.116 C 
BRANCH  30  31
ATOM     31  N   UNL     1      -4.208   4.043  -4.919  1.00  0.00    -0.352 N 
ATOM     32  C   UNL     1      -4.727   4.811  -5.931  1.00  0.00     0.251 C 
ATOM     33  H   UNL     1      -4.851   3.459  -4.455  1.00  0.00     0.163 HD
ATOM     34  O   UNL     1      -5.940   4.947  -6.046  1.00  0.00    -0.269 OA
BRANCH  32  35
ATOM     35  C   UNL     1      -3.798   5.485  -6.862  1.00  0.00     0.039 A 
ATOM     36  C   UNL     1      -4.000   6.829  -7.176  1.00  0.00     0.014 A 
ATOM     37  C   UNL     1      -2.708   4.789  -7.392  1.00  0.00     0.014 A 
ATOM     38  C   UNL     1      -3.069   7.494  -7.978  1.00  0.00     0.010 A 
ATOM     39  C   UNL     1      -1.739   5.474  -8.114  1.00  0.00     0.010 A 
ATOM     40  C   UNL     1      -1.911   6.833  -8.421  1.00  0.00    -0.014 A 
BRANCH  40  41
ATOM     41  C   UNL     1      -0.872   7.534  -9.220  1.00  0.00     0.031 A 
ATOM     42  C   UNL     1      -0.559   7.058 -10.615  1.00  0.00     0.074 A 
ATOM     43  C   UNL     1      -0.170   8.547  -8.672  1.00  0.00     0.049 A 
ATOM     44  N   UNL     1       0.376   7.462 -11.434  1.00  0.00    -0.248 NA
ATOM     45  C   UNL     1      -1.392   5.967 -11.149  1.00  0.00     0.031 C 
ATOM     46  C   UNL     1      -0.371   9.084  -7.324  1.00  0.00     0.029 A 
ATOM     47  N   UNL     1       0.863   9.302  -9.174  1.00  0.00    -0.354 N 
ATOM     48  C   UNL     1       0.259   6.664 -12.567  1.00  0.00     0.074 A 
ATOM     49  C   UNL     1      -0.808   5.722 -12.313  1.00  0.00     0.031 C 
ATOM     50  C   UNL     1       0.488  10.095  -7.118  1.00  0.00     0.029 A 
ATOM     51  C   UNL     1       1.349  10.238  -8.288  1.00  0.00     0.049 A 
ATOM     52  H   UNL     1       1.222   9.184 -10.083  1.00  0.00     0.167 HD
ATOM     53  C   UNL     1       0.971   6.724 -13.718  1.00  0.00     0.034 A 
ATOM     54  C   UNL     1       2.387  11.094  -8.396  1.00  0.00     0.034 A 
ATOM     55  C   UNL     1       2.018   7.683 -13.962  1.00  0.00     0.049 A 
ATOM     56  C   UNL     1       3.196  11.097  -9.675  1.00  0.00     0.074 A 
ATOM     57  C   UNL     1       2.752   7.870 -15.120  1.00  0.00     0.029 A 
ATOM     58  N   UNL     1       2.492   8.602 -13.037  1.00  0.00    -0.354 N 
ATOM     59  N   UNL     1       3.033  10.371 -10.757  1.00  0.00    -0.248 NA
ATOM     60  C   UNL     1       4.322  12.037  -9.750  1.00  0.00     0.031 C 
ATOM     61  C   UNL     1       3.735   8.827 -14.863  1.00  0.00     0.029 A 
ATOM     62  C   UNL     1       3.542   9.322 -13.584  1.00  0.00     0.049 A 
ATOM     63  H   UNL     1       2.135   8.725 -12.128  1.00  0.00     0.167 HD
ATOM     64  C   UNL     1       4.004  10.809 -11.656  1.00  0.00     0.074 A 
ATOM     65  C   UNL     1       4.739  11.863 -10.994  1.00  0.00     0.031 C 
ATOM     66  C   UNL     1       4.260  10.382 -12.918  1.00  0.00     0.034 A 
BRANCH  53  67
ATOM     67  C   UNL     1       0.677   5.706 -14.791  1.00  0.00     0.023 A 
ATOM     68  C   UNL     1      -0.555   5.660 -15.463  1.00  0.00     0.031 A 
ATOM     69  C   UNL     1       1.674   4.790 -15.176  1.00  0.00     0.131 A 
ATOM     70  C   UNL     1      -0.773   4.694 -16.456  1.00  0.00     0.055 A 
ATOM     71  C   UNL     1       1.479   3.884 -16.219  1.00  0.00     0.041 A 
ATOM     72  F   UNL     1       2.861   4.768 -14.549  1.00  0.00    -0.206 F 
ATOM     73  C   UNL     1       0.246   3.828 -16.861  1.00  0.00     0.022 A 
BRANCH  70  74
ATOM     74  S   UNL     1      -2.442   4.508 -17.139  1.00  0.00     0.124 S 
ATOM     75  O   UNL     1      -3.217   4.192 -15.941  1.00  0.00    -0.237 OA
ATOM     76  O   UNL     1      -2.689   5.817 -17.732  1.00  0.00    -0.237 OA
ATOM     77  O   UNL     1      -2.303   3.408 -18.090  1.00  0.00    -0.744 OA
ENDBRANCH  70  74
ENDBRANCH  53  67
BRANCH  54  78
ATOM     78  C   UNL     1       2.764  12.001  -7.268  1.00  0.00     0.023 A 
ATOM     79  C   UNL     1       2.807  13.393  -7.447  1.00  0.00     0.031 A 
ATOM     80  C   UNL     1       3.194  11.487  -6.031  1.00  0.00     0.131 A 
ATOM     81  C   UNL     1       3.357  14.211  -6.448  1.00  0.00     0.055 A 
ATOM     82  C   UNL     1       3.659  12.315  -5.007  1.00  0.00     0.041 A 
ATOM     83  F   UNL     1       3.182  10.164  -5.801  1.00  0.00    -0.206 F 
ATOM     84  C   UNL     1       3.765  13.685  -5.222  1.00  0.00     0.022 A 
BRANCH  81  85
ATOM     85  S   UNL     1       3.692  15.950  -6.846  1.00  0.00     0.124 S 
ATOM     86  O   UNL     1       4.525  15.821  -8.036  1.00  0.00    -0.237 OA
ATOM     87  O   UNL     1       2.348  16.477  -7.056  1.00  0.00    -0.237 OA
ATOM     88  O   UNL     1       4.377  16.445  -5.654  1.00  0.00    -0.744 OA
ENDBRANCH  81  85
ENDBRANCH  54  78
BRANCH  66  89
ATOM     89  C   UNL     1       5.327  11.109 -13.701  1.00  0.00     0.023 A 
ATOM     90  C   UNL     1       6.682  11.079 -13.330  1.00  0.00     0.031 A 
ATOM     91  C   UNL     1       4.973  11.833 -14.855  1.00  0.00     0.131 A 
ATOM     92  C   UNL     1       7.625  11.800 -14.078  1.00  0.00     0.055 A 
ATOM     93  C   UNL     1       5.926  12.486 -15.636  1.00  0.00     0.041 A 
ATOM     94  F   UNL     1       3.693  11.904 -15.253  1.00  0.00    -0.206 F 
ATOM     95  C   UNL     1       7.260  12.482 -15.241  1.00  0.00     0.022 A 
BRANCH  92  96
ATOM     96  S   UNL     1       9.326  11.914 -13.458  1.00  0.00     0.124 S 
ATOM     97  O   UNL     1       9.130  12.517 -12.144  1.00  0.00    -0.237 OA
ATOM     98  O   UNL     1       9.755  10.519 -13.461  1.00  0.00    -0.237 OA
ATOM     99  O   UNL     1       9.992  12.769 -14.439  1.00  0.00    -0.744 OA
ENDBRANCH  92  96
ENDBRANCH  66  89
ENDBRANCH  40  41
ENDBRANCH  32  35
ENDBRANCH  30  31
ENDBRANCH  29  30
ENDBRANCH  28  29
ENDBRANCH   1  28
TORSDOF 20
