REMARK SMILES CC[C@@H](C)c1ccccc1NC(=O)[C@@H]1[C@@H](C(=O)NCCCCCCNC(=O)c2ccc(-c3c4nc(c(-c5cc(S(=O)(=O)[O-])ccc5F)c5ccc([nH]5)c(-c5cc(S(=O)(=O)[O-])ccc5F)c5nc(c(-c6cc(S(=O)(=O)[O-])ccc6F)c6ccc3[nH]6)C=C5)C=C4)cc2)[C@@H]2C=C[C@H]1C2
REMARK SMILES IDX 21 1 20 2 19 3 18 4 16 5 17 6 15 8 14 9 94 10 91 11 93 12
REMARK SMILES IDX 95 13 92 14 12 15 11 16 13 18 10 19 5 20 6 21 7 22 9 23 8 24
REMARK SMILES IDX 3 25 4 26 2 27 1 28 22 29 23 30 24 31 25 32 26 33 27 35
REMARK SMILES IDX 28 36 29 37 90 38 30 39 89 40 31 41 32 42 33 43 83 44 34 45
REMARK SMILES IDX 88 46 82 47 84 48 35 49 87 50 81 51 80 52 36 54 68 55 48 56
REMARK SMILES IDX 67 57 49 58 52 59 66 60 85 61 50 62 51 63 65 65 86 66 53 67
REMARK SMILES IDX 37 68 38 69 46 70 39 71 45 72 47 73 44 74 40 75 41 76 42 77
REMARK SMILES IDX 43 78 69 79 70 80 78 81 71 82 77 83 79 84 76 85 72 86 73 87
REMARK SMILES IDX 74 88 75 89 54 90 55 91 63 92 56 93 62 94 64 95 61 96 57 97
REMARK SMILES IDX 58 98 59 99 60 100
REMARK H PARENT 18 7 11 17 25 34 84 53 52 64
REMARK Flexibility Score: inf
ROOT
ATOM      1  C   UNL     1       2.096 -11.218  -4.757  1.00  0.00     0.002 C 
ENDROOT
BRANCH   1   2
ATOM      2  C   UNL     1       3.362 -10.362  -4.597  1.00  0.00     0.021 C 
BRANCH   2   3
ATOM      3  C   UNL     1       3.208  -9.120  -3.719  1.00  0.00     0.116 C 
BRANCH   3   4
ATOM      4  N   UNL     1       2.910  -9.451  -2.335  1.00  0.00    -0.356 N 
ATOM      5  C   UNL     1       2.649  -8.630  -1.275  1.00  0.00     0.224 C 
ATOM      6  O   UNL     1       2.578  -9.147  -0.159  1.00  0.00    -0.275 OA
ATOM      7  H   UNL     1       2.893 -10.414  -2.130  1.00  0.00     0.163 HD
BRANCH   5   8
ATOM      8  C   UNL     1       2.458  -7.132  -1.500  1.00  0.00     0.098 C 
ATOM      9  C   UNL     1       2.066  -6.354  -0.166  1.00  0.00     0.099 C 
ATOM     10  C   UNL     1       0.684  -5.750  -0.553  1.00  0.00     0.025 C 
ATOM     11  C   UNL     1       1.208  -6.884  -2.387  1.00  0.00     0.025 C 
ATOM     12  C   UNL     1       0.866  -4.745  -1.665  1.00  0.00    -0.027 C 
ATOM     13  C   UNL     1       0.079  -6.889  -1.359  1.00  0.00     0.017 C 
ATOM     14  C   UNL     1       1.196  -5.426  -2.768  1.00  0.00    -0.027 C 
BRANCH   9  15
ATOM     15  C   UNL     1       3.079  -5.294   0.302  1.00  0.00     0.228 C 
ATOM     16  N   UNL     1       2.725  -4.380   1.280  1.00  0.00    -0.326 N 
ATOM     17  H   UNL     1       3.365  -3.651   1.445  1.00  0.00     0.169 HD
ATOM     18  O   UNL     1       4.206  -5.210  -0.191  1.00  0.00    -0.274 OA
BRANCH  16  19
ATOM     19  C   UNL     1       1.558  -4.373   2.066  1.00  0.00     0.044 A 
ATOM     20  C   UNL     1       0.761  -3.216   2.182  1.00  0.00    -0.022 A 
ATOM     21  C   UNL     1      -0.555  -3.385   2.664  1.00  0.00     0.006 A 
ATOM     22  C   UNL     1      -1.008  -4.615   3.148  1.00  0.00     0.000 A 
ATOM     23  C   UNL     1       1.138  -5.571   2.666  1.00  0.00     0.026 A 
ATOM     24  C   UNL     1      -0.141  -5.695   3.202  1.00  0.00     0.002 A 
BRANCH  20  25
ATOM     25  C   UNL     1       1.229  -1.812   1.794  1.00  0.00     0.018 C 
ATOM     26  C   UNL     1       0.957  -0.830   2.948  1.00  0.00     0.013 C 
BRANCH  25  27
ATOM     27  C   UNL     1       0.603  -1.327   0.472  1.00  0.00     0.005 C 
ATOM     28  C   UNL     1       1.032   0.077   0.061  1.00  0.00     0.004 C 
ENDBRANCH  25  27
ENDBRANCH  20  25
ENDBRANCH  16  19
ENDBRANCH   9  15
ENDBRANCH   5   8
ENDBRANCH   3   4
ENDBRANCH   2   3
ENDBRANCH   1   2
BRANCH   1  29
ATOM     29  C   UNL     1       0.891 -10.547  -5.424  1.00  0.00     0.002 C 
BRANCH  29  30
ATOM     30  C   UNL     1       1.134  -9.917  -6.799  1.00  0.00     0.021 C 
BRANCH  30  31
ATOM     31  C   UNL     1       1.784 -10.815  -7.851  1.00  0.00     0.116 C 
BRANCH  31  32
ATOM     32  N   UNL     1       1.006 -12.002  -8.156  1.00  0.00    -0.352 N 
ATOM     33  C   UNL     1       0.765 -12.604  -9.366  1.00  0.00     0.251 C 
ATOM     34  H   UNL     1       0.590 -12.442  -7.379  1.00  0.00     0.163 HD
ATOM     35  O   UNL     1      -0.019 -13.556  -9.413  1.00  0.00    -0.269 OA
BRANCH  33  36
ATOM     36  C   UNL     1       1.393 -12.106 -10.613  1.00  0.00     0.039 A 
ATOM     37  C   UNL     1       0.613 -12.044 -11.772  1.00  0.00     0.014 A 
ATOM     38  C   UNL     1       2.737 -11.722 -10.666  1.00  0.00     0.014 A 
ATOM     39  C   UNL     1       1.158 -11.544 -12.958  1.00  0.00     0.010 A 
ATOM     40  C   UNL     1       3.263 -11.162 -11.834  1.00  0.00     0.010 A 
ATOM     41  C   UNL     1       2.478 -11.066 -12.993  1.00  0.00    -0.014 A 
BRANCH  41  42
ATOM     42  C   UNL     1       3.022 -10.450 -14.234  1.00  0.00     0.031 A 
ATOM     43  C   UNL     1       4.145 -11.104 -14.994  1.00  0.00     0.074 A 
ATOM     44  C   UNL     1       2.512  -9.279 -14.664  1.00  0.00     0.049 A 
ATOM     45  N   UNL     1       4.715 -10.729 -16.112  1.00  0.00    -0.248 NA
ATOM     46  C   UNL     1       4.720 -12.322 -14.407  1.00  0.00     0.031 C 
ATOM     47  C   UNL     1       1.466  -8.514 -13.980  1.00  0.00     0.029 A 
ATOM     48  N   UNL     1       2.795  -8.528 -15.777  1.00  0.00    -0.354 N 
ATOM     49  C   UNL     1       5.715 -11.664 -16.363  1.00  0.00     0.074 A 
ATOM     50  C   UNL     1       5.713 -12.583 -15.244  1.00  0.00     0.031 C 
ATOM     51  C   UNL     1       1.170  -7.425 -14.707  1.00  0.00     0.029 A 
ATOM     52  C   UNL     1       2.022  -7.395 -15.891  1.00  0.00     0.049 A 
ATOM     53  H   UNL     1       3.486  -8.776 -16.433  1.00  0.00     0.167 HD
ATOM     54  C   UNL     1       6.539 -11.761 -17.437  1.00  0.00     0.034 A 
ATOM     55  C   UNL     1       1.996  -6.443 -16.844  1.00  0.00     0.034 A 
ATOM     56  C   UNL     1       6.527 -10.837 -18.548  1.00  0.00     0.049 A 
ATOM     57  C   UNL     1       2.913  -6.577 -18.032  1.00  0.00     0.074 A 
ATOM     58  C   UNL     1       7.278 -10.874 -19.711  1.00  0.00     0.029 A 
ATOM     59  N   UNL     1       5.730  -9.702 -18.631  1.00  0.00    -0.354 N 
ATOM     60  N   UNL     1       3.802  -7.509 -18.290  1.00  0.00    -0.248 NA
ATOM     61  C   UNL     1       2.805  -5.542 -19.067  1.00  0.00     0.031 C 
ATOM     62  C   UNL     1       6.982  -9.731 -20.464  1.00  0.00     0.029 A 
ATOM     63  C   UNL     1       5.993  -9.016 -19.809  1.00  0.00     0.049 A 
ATOM     64  H   UNL     1       5.073  -9.424 -17.952  1.00  0.00     0.167 HD
ATOM     65  C   UNL     1       4.346  -7.180 -19.528  1.00  0.00     0.074 A 
ATOM     66  C   UNL     1       3.661  -5.984 -19.976  1.00  0.00     0.031 C 
ATOM     67  C   UNL     1       5.325  -7.806 -20.231  1.00  0.00     0.034 A 
BRANCH  54  68
ATOM     68  C   UNL     1       7.538 -12.896 -17.444  1.00  0.00     0.023 A 
ATOM     69  C   UNL     1       7.126 -14.241 -17.453  1.00  0.00     0.031 A 
ATOM     70  C   UNL     1       8.919 -12.634 -17.416  1.00  0.00     0.131 A 
ATOM     71  C   UNL     1       8.078 -15.268 -17.355  1.00  0.00     0.055 A 
ATOM     72  C   UNL     1       9.865 -13.662 -17.401  1.00  0.00     0.041 A 
ATOM     73  F   UNL     1       9.375 -11.372 -17.388  1.00  0.00    -0.206 F 
ATOM     74  C   UNL     1       9.446 -14.989 -17.354  1.00  0.00     0.022 A 
BRANCH  71  75
ATOM     75  S   UNL     1       7.497 -16.965 -17.084  1.00  0.00     0.124 S 
ATOM     76  O   UNL     1       6.748 -16.825 -15.838  1.00  0.00    -0.237 OA
ATOM     77  O   UNL     1       6.705 -17.223 -18.281  1.00  0.00    -0.237 OA
ATOM     78  O   UNL     1       8.733 -17.737 -16.975  1.00  0.00    -0.744 OA
ENDBRANCH  71  75
ENDBRANCH  54  68
BRANCH  55  79
ATOM     79  C   UNL     1       1.068  -5.282 -16.727  1.00  0.00     0.023 A 
ATOM     80  C   UNL     1       0.018  -5.099 -17.641  1.00  0.00     0.031 A 
ATOM     81  C   UNL     1       1.242  -4.317 -15.719  1.00  0.00     0.131 A 
ATOM     82  C   UNL     1      -0.790  -3.954 -17.558  1.00  0.00     0.055 A 
ATOM     83  C   UNL     1       0.405  -3.206 -15.611  1.00  0.00     0.041 A 
ATOM     84  F   UNL     1       2.225  -4.450 -14.815  1.00  0.00    -0.206 F 
ATOM     85  C   UNL     1      -0.611  -3.013 -16.542  1.00  0.00     0.022 A 
BRANCH  82  86
ATOM     86  S   UNL     1      -2.034  -3.674 -18.848  1.00  0.00     0.124 S 
ATOM     87  O   UNL     1      -1.215  -3.656 -20.054  1.00  0.00    -0.237 OA
ATOM     88  O   UNL     1      -2.908  -4.830 -18.682  1.00  0.00    -0.237 OA
ATOM     89  O   UNL     1      -2.626  -2.390 -18.476  1.00  0.00    -0.744 OA
ENDBRANCH  82  86
ENDBRANCH  55  79
BRANCH  67  90
ATOM     90  C   UNL     1       5.687  -7.204 -21.568  1.00  0.00     0.023 A 
ATOM     91  C   UNL     1       6.260  -5.923 -21.666  1.00  0.00     0.031 A 
ATOM     92  C   UNL     1       5.407  -7.894 -22.760  1.00  0.00     0.131 A 
ATOM     93  C   UNL     1       6.461  -5.340 -22.926  1.00  0.00     0.055 A 
ATOM     94  C   UNL     1       5.673  -7.337 -24.012  1.00  0.00     0.041 A 
ATOM     95  F   UNL     1       4.859  -9.119 -22.729  1.00  0.00    -0.206 F 
ATOM     96  C   UNL     1       6.185  -6.045 -24.100  1.00  0.00     0.022 A 
BRANCH  93  97
ATOM     97  S   UNL     1       6.967  -3.600 -23.008  1.00  0.00     0.124 S 
ATOM     98  O   UNL     1       5.920  -2.942 -22.232  1.00  0.00    -0.237 OA
ATOM     99  O   UNL     1       8.290  -3.631 -22.394  1.00  0.00    -0.237 OA
ATOM    100  O   UNL     1       6.954  -3.306 -24.440  1.00  0.00    -0.744 OA
ENDBRANCH  93  97
ENDBRANCH  67  90
ENDBRANCH  41  42
ENDBRANCH  33  36
ENDBRANCH  31  32
ENDBRANCH  30  31
ENDBRANCH  29  30
ENDBRANCH   1  29
TORSDOF 20
