REMARK SMILES CC1(C)OC(=O)C(=CNc2ccccc2C(=O)NCCCCCCNC(=O)c2ccc(-c3c4nc(c(-c5cc(S(=O)(=O)[O-])ccc5F)c5ccc([nH]5)c(-c5cc(S(=O)(=O)[O-])ccc5F)c5nc(c(-c6cc(S(=O)(=O)[O-])ccc6F)c6ccc3[nH]6)C=C5)C=C4)cc2)C(=O)O1
REMARK SMILES IDX 22 1 21 2 20 3 19 4 18 5 16 6 17 7 15 9 10 10 11 11 12 12
REMARK SMILES IDX 14 13 13 14 9 15 8 17 1 18 2 19 3 20 4 21 93 22 5 23 91 24
REMARK SMILES IDX 6 25 7 26 92 27 23 28 24 29 25 30 26 31 27 33 28 34 29 35
REMARK SMILES IDX 90 36 30 37 89 38 31 39 32 40 33 41 83 42 34 43 88 44 82 45
REMARK SMILES IDX 84 46 35 47 87 48 81 49 80 50 36 52 68 53 48 54 67 55 49 56
REMARK SMILES IDX 52 57 66 58 85 59 50 60 51 61 65 63 86 64 53 65 37 66 38 67
REMARK SMILES IDX 46 68 39 69 45 70 47 71 44 72 40 73 41 74 42 75 43 76 69 77
REMARK SMILES IDX 70 78 78 79 71 80 77 81 79 82 76 83 72 84 73 85 74 86 75 87
REMARK SMILES IDX 54 88 55 89 63 90 56 91 62 92 64 93 61 94 57 95 58 96 59 97
REMARK SMILES IDX 60 98
REMARK H PARENT 18 8 9 16 25 32 84 51 52 62
REMARK Flexibility Score: inf
ROOT
ATOM      1  C   UNL     1      -0.102   0.631  -1.140  1.00  0.00     0.002 C 
ENDROOT
BRANCH   1   2
ATOM      2  C   UNL     1       0.140  -0.082  -2.708  1.00  0.00     0.002 C 
BRANCH   2   3
ATOM      3  C   UNL     1      -0.725  -1.205  -3.311  1.00  0.00     0.021 C 
BRANCH   3   4
ATOM      4  C   UNL     1      -2.221  -1.165  -3.072  1.00  0.00     0.116 C 
BRANCH   4   5
ATOM      5  N   UNL     1      -2.785   0.160  -3.158  1.00  0.00    -0.352 N 
ATOM      6  C   UNL     1      -4.019   0.570  -2.720  1.00  0.00     0.253 C 
ATOM      7  O   UNL     1      -4.381   1.726  -2.928  1.00  0.00    -0.269 OA
ATOM      8  H   UNL     1      -2.221   0.848  -3.580  1.00  0.00     0.163 HD
BRANCH   6   9
ATOM      9  C   UNL     1      -4.979  -0.419  -2.177  1.00  0.00     0.063 A 
ATOM     10  C   UNL     1      -4.796  -1.243  -1.042  1.00  0.00     0.051 A 
ATOM     11  C   UNL     1      -5.797  -2.200  -0.781  1.00  0.00     0.027 A 
ATOM     12  C   UNL     1      -6.911  -2.359  -1.614  1.00  0.00     0.002 A 
ATOM     13  C   UNL     1      -6.116  -0.575  -3.002  1.00  0.00     0.016 A 
ATOM     14  C   UNL     1      -7.069  -1.550  -2.731  1.00  0.00     0.001 A 
BRANCH  10  15
ATOM     15  N   UNL     1      -3.677  -1.265  -0.170  1.00  0.00    -0.360 N 
ATOM     16  H   UNL     1      -3.443  -2.143   0.209  1.00  0.00     0.166 HD
BRANCH  15  17
ATOM     17  C   UNL     1      -2.882  -0.216   0.212  1.00  0.00     0.106 C 
ATOM     18  C   UNL     1       2.477   1.666  -1.774  1.00  0.00     0.106 C 
ATOM     19  C   UNL     1       1.859   1.117  -0.453  1.00  0.00     0.252 C 
ATOM     20  C   UNL     1       2.978   1.453   0.609  1.00  0.00     0.106 C 
ATOM     21  O   UNL     1       0.503   2.114   0.230  1.00  0.00    -0.419 OA
ATOM     22  O   UNL     1       1.315  -0.639  -0.815  1.00  0.00    -0.419 OA
ATOM     23  C   UNL     1      -0.985   1.626   0.666  1.00  0.00     0.350 C 
ATOM     24  C   UNL     1      -0.278  -1.321  -0.432  1.00  0.00     0.350 C 
ATOM     25  O   UNL     1      -1.737   2.425   1.215  1.00  0.00    -0.246 OA
ATOM     26  C   UNL     1      -1.541  -0.102   0.278  1.00  0.00     0.161 C 
ATOM     27  O   UNL     1      -0.498  -2.512  -0.587  1.00  0.00    -0.246 OA
ENDBRANCH  15  17
ENDBRANCH  10  15
ENDBRANCH   6   9
ENDBRANCH   4   5
ENDBRANCH   3   4
ENDBRANCH   2   3
ENDBRANCH   1   2
BRANCH   1  28
ATOM     28  C   UNL     1       0.587   0.053   0.827  1.00  0.00     0.021 C 
BRANCH  28  29
ATOM     29  C   UNL     1       1.826  -1.194   1.284  1.00  0.00     0.116 C 
BRANCH  29  30
ATOM     30  N   UNL     1       3.091  -1.231   0.510  1.00  0.00    -0.352 N 
ATOM     31  C   UNL     1       4.393  -1.287   0.930  1.00  0.00     0.251 C 
ATOM     32  H   UNL     1       2.975  -1.213  -0.468  1.00  0.00     0.163 HD
ATOM     33  O   UNL     1       5.329  -0.919   0.236  1.00  0.00    -0.269 OA
BRANCH  31  34
ATOM     34  C   UNL     1       4.593  -1.905   2.229  1.00  0.00     0.039 A 
ATOM     35  C   UNL     1       5.157  -1.227   3.308  1.00  0.00     0.014 A 
ATOM     36  C   UNL     1       4.084  -3.199   2.328  1.00  0.00     0.014 A 
ATOM     37  C   UNL     1       5.186  -1.873   4.540  1.00  0.00     0.010 A 
ATOM     38  C   UNL     1       4.043  -3.799   3.559  1.00  0.00     0.010 A 
ATOM     39  C   UNL     1       4.620  -3.153   4.663  1.00  0.00    -0.014 A 
BRANCH  39  40
ATOM     40  C   UNL     1       4.673  -3.937   5.907  1.00  0.00     0.031 A 
ATOM     41  C   UNL     1       5.447  -5.223   5.883  1.00  0.00     0.074 A 
ATOM     42  C   UNL     1       3.906  -3.577   6.948  1.00  0.00     0.049 A 
ATOM     43  N   UNL     1       5.435  -6.212   6.731  1.00  0.00    -0.248 NA
ATOM     44  C   UNL     1       6.294  -5.452   4.697  1.00  0.00     0.031 C 
ATOM     45  C   UNL     1       3.088  -2.364   7.024  1.00  0.00     0.029 A 
ATOM     46  N   UNL     1       3.669  -4.216   8.133  1.00  0.00    -0.354 N 
ATOM     47  C   UNL     1       6.250  -7.189   6.171  1.00  0.00     0.074 A 
ATOM     48  C   UNL     1       6.660  -6.711   4.870  1.00  0.00     0.031 C 
ATOM     49  C   UNL     1       2.455  -2.338   8.208  1.00  0.00     0.029 A 
ATOM     50  C   UNL     1       2.780  -3.554   8.945  1.00  0.00     0.049 A 
ATOM     51  H   UNL     1       4.094  -5.068   8.380  1.00  0.00     0.167 HD
ATOM     52  C   UNL     1       6.648  -8.361   6.717  1.00  0.00     0.034 A 
ATOM     53  C   UNL     1       2.284  -3.913  10.144  1.00  0.00     0.034 A 
ATOM     54  C   UNL     1       6.236  -8.786   8.029  1.00  0.00     0.049 A 
ATOM     55  C   UNL     1       2.735  -5.231  10.728  1.00  0.00     0.074 A 
ATOM     56  C   UNL     1       6.595  -9.925   8.723  1.00  0.00     0.029 A 
ATOM     57  N   UNL     1       5.371  -8.070   8.851  1.00  0.00    -0.354 N 
ATOM     58  N   UNL     1       3.540  -6.134  10.212  1.00  0.00    -0.248 NA
ATOM     59  C   UNL     1       2.223  -5.571  12.060  1.00  0.00     0.031 C 
ATOM     60  C   UNL     1       5.904  -9.926   9.939  1.00  0.00     0.029 A 
ATOM     61  C   UNL     1       5.175  -8.751  10.039  1.00  0.00     0.049 A 
ATOM     62  H   UNL     1       4.959  -7.207   8.620  1.00  0.00     0.167 HD
ATOM     63  C   UNL     1       3.666  -7.127  11.180  1.00  0.00     0.074 A 
ATOM     64  C   UNL     1       2.866  -6.701  12.311  1.00  0.00     0.031 C 
ATOM     65  C   UNL     1       4.375  -8.285  11.147  1.00  0.00     0.034 A 
BRANCH  52  66
ATOM     66  C   UNL     1       7.564  -9.236   5.896  1.00  0.00     0.023 A 
ATOM     67  C   UNL     1       8.828  -8.782   5.477  1.00  0.00     0.031 A 
ATOM     68  C   UNL     1       7.161 -10.519   5.491  1.00  0.00     0.131 A 
ATOM     69  C   UNL     1       9.605  -9.565   4.612  1.00  0.00     0.055 A 
ATOM     70  C   UNL     1       7.980 -11.333   4.704  1.00  0.00     0.041 A 
ATOM     71  F   UNL     1       5.955 -10.999   5.836  1.00  0.00    -0.206 F 
ATOM     72  C   UNL     1       9.203 -10.851   4.247  1.00  0.00     0.022 A 
BRANCH  69  73
ATOM     73  S   UNL     1      11.074  -8.818   3.857  1.00  0.00     0.124 S 
ATOM     74  O   UNL     1      10.488  -7.708   3.109  1.00  0.00    -0.237 OA
ATOM     75  O   UNL     1      11.876  -8.451   5.018  1.00  0.00    -0.237 OA
ATOM     76  O   UNL     1      11.622  -9.895   3.035  1.00  0.00    -0.744 OA
ENDBRANCH  69  73
ENDBRANCH  52  66
BRANCH  53  77
ATOM     77  C   UNL     1       1.341  -3.026  10.881  1.00  0.00     0.023 A 
ATOM     78  C   UNL     1       1.697  -2.498  12.132  1.00  0.00     0.031 A 
ATOM     79  C   UNL     1       0.059  -2.734  10.385  1.00  0.00     0.131 A 
ATOM     80  C   UNL     1       0.760  -1.771  12.879  1.00  0.00     0.055 A 
ATOM     81  C   UNL     1      -0.849  -1.952  11.104  1.00  0.00     0.041 A 
ATOM     82  F   UNL     1      -0.332  -3.202   9.189  1.00  0.00    -0.206 F 
ATOM     83  C   UNL     1      -0.507  -1.483  12.369  1.00  0.00     0.022 A 
BRANCH  80  84
ATOM     84  S   UNL     1       1.184  -1.319  14.583  1.00  0.00     0.124 S 
ATOM     85  O   UNL     1       1.516  -2.617  15.159  1.00  0.00    -0.237 OA
ATOM     86  O   UNL     1       2.301  -0.401  14.382  1.00  0.00    -0.237 OA
ATOM     87  O   UNL     1      -0.043  -0.706  15.087  1.00  0.00    -0.744 OA
ENDBRANCH  80  84
ENDBRANCH  53  77
BRANCH  65  88
ATOM     88  C   UNL     1       4.360  -9.126  12.397  1.00  0.00     0.023 A 
ATOM     89  C   UNL     1       3.189  -9.755  12.851  1.00  0.00     0.031 A 
ATOM     90  C   UNL     1       5.540  -9.297  13.143  1.00  0.00     0.131 A 
ATOM     91  C   UNL     1       3.208 -10.474  14.053  1.00  0.00     0.055 A 
ATOM     92  C   UNL     1       5.568 -10.074  14.300  1.00  0.00     0.041 A 
ATOM     93  F   UNL     1       6.686  -8.718  12.752  1.00  0.00    -0.206 F 
ATOM     94  C   UNL     1       4.394 -10.655  14.770  1.00  0.00     0.022 A 
BRANCH  91  95
ATOM     95  S   UNL     1       1.637 -11.084  14.720  1.00  0.00     0.124 S 
ATOM     96  O   UNL     1       0.867  -9.852  14.856  1.00  0.00    -0.237 OA
ATOM     97  O   UNL     1       1.191 -12.003  13.678  1.00  0.00    -0.237 OA
ATOM     98  O   UNL     1       2.023 -11.717  15.980  1.00  0.00    -0.744 OA
ENDBRANCH  91  95
ENDBRANCH  65  88
ENDBRANCH  39  40
ENDBRANCH  31  34
ENDBRANCH  29  30
ENDBRANCH  28  29
ENDBRANCH   1  28
TORSDOF 18
