REMARK SMILES O=C(NCCCCCCNC(=O)[C@@H]1CN(c2nccc(N3CCC(O)CC3)n2)CC[NH2+]1)c1ccc(-c2c3nc(c(-c4cc(S(=O)(=O)[O-])ccc4F)c4ccc([nH]4)c(-c4cc(S(=O)(=O)[O-])ccc4F)c4nc(c(-c5cc(S(=O)(=O)[O-])ccc5F)c5ccc2[nH]5)C=C4)C=C3)cc1
REMARK SMILES IDX 6 1 5 2 4 3 3 4 1 5 2 6 32 8 33 9 94 10 34 11 93 12 35 13
REMARK SMILES IDX 36 14 37 15 87 16 38 17 92 18 86 19 88 20 39 21 91 22 85 23
REMARK SMILES IDX 84 24 40 26 72 27 52 28 71 29 53 30 56 31 70 32 89 33 54 34
REMARK SMILES IDX 55 35 69 37 90 38 57 39 41 40 42 41 50 42 43 43 49 44 51 45
REMARK SMILES IDX 48 46 44 47 45 48 46 49 47 50 73 51 74 52 82 53 75 54 81 55
REMARK SMILES IDX 83 56 80 57 76 58 77 59 78 60 79 61 58 62 59 63 67 64 60 65
REMARK SMILES IDX 66 66 68 67 65 68 61 69 62 70 63 71 64 72 7 73 8 74 9 75
REMARK SMILES IDX 10 76 11 77 12 79 13 80 14 81 31 82 15 83 30 84 29 87 16 88
REMARK SMILES IDX 17 89 28 90 18 91 20 92 19 93 21 94 22 95 27 96 23 97 26 98
REMARK SMILES IDX 24 99 25 100
REMARK H PARENT 3 7 88 25 56 36 10 78 31 85 31 86 25 101
REMARK Flexibility Score: inf
ROOT
ATOM      1  C   UNL     1       4.039  -3.404   1.883  1.00  0.00     0.002 C 
ENDROOT
BRANCH   1   2
ATOM      2  C   UNL     1       4.561  -1.967   1.836  1.00  0.00     0.021 C 
BRANCH   2   3
ATOM      3  C   UNL     1       4.409  -1.291   0.479  1.00  0.00     0.116 C 
BRANCH   3   4
ATOM      4  N   UNL     1       3.012  -1.142   0.104  1.00  0.00    -0.352 N 
ATOM      5  O   UNL     1       1.087  -0.024  -0.246  1.00  0.00    -0.269 OA
ATOM      6  C   UNL     1       2.307   0.007  -0.164  1.00  0.00     0.251 C 
ATOM      7  H   UNL     1       2.501  -1.980   0.032  1.00  0.00     0.163 HD
BRANCH   6   8
ATOM      8  C   UNL     1       3.041   1.278  -0.344  1.00  0.00     0.039 A 
ATOM      9  C   UNL     1       4.195   1.318  -1.131  1.00  0.00     0.014 A 
ATOM     10  C   UNL     1       2.565   2.438   0.270  1.00  0.00     0.014 A 
ATOM     11  C   UNL     1       4.944   2.485  -1.199  1.00  0.00     0.010 A 
ATOM     12  C   UNL     1       3.272   3.635   0.125  1.00  0.00     0.010 A 
ATOM     13  C   UNL     1       4.477   3.664  -0.595  1.00  0.00    -0.014 A 
BRANCH  13  14
ATOM     14  C   UNL     1       5.231   4.928  -0.792  1.00  0.00     0.031 A 
ATOM     15  C   UNL     1       5.863   5.645   0.367  1.00  0.00     0.074 A 
ATOM     16  C   UNL     1       5.352   5.414  -2.043  1.00  0.00     0.049 A 
ATOM     17  N   UNL     1       6.537   6.766   0.373  1.00  0.00    -0.248 NA
ATOM     18  C   UNL     1       5.710   5.027   1.692  1.00  0.00     0.031 C 
ATOM     19  C   UNL     1       4.779   4.796  -3.243  1.00  0.00     0.029 A 
ATOM     20  N   UNL     1       6.000   6.523  -2.521  1.00  0.00    -0.354 N 
ATOM     21  C   UNL     1       6.880   7.000   1.700  1.00  0.00     0.074 A 
ATOM     22  C   UNL     1       6.304   5.918   2.474  1.00  0.00     0.031 C 
ATOM     23  C   UNL     1       5.136   5.510  -4.319  1.00  0.00     0.029 A 
ATOM     24  C   UNL     1       5.890   6.678  -3.884  1.00  0.00     0.049 A 
ATOM     25  H   UNL     1       6.496   7.149  -1.945  1.00  0.00     0.167 HD
ATOM     26  C   UNL     1       7.613   8.018   2.218  1.00  0.00     0.034 A 
ATOM     27  C   UNL     1       6.319   7.666  -4.691  1.00  0.00     0.034 A 
ATOM     28  C   UNL     1       8.168   9.091   1.425  1.00  0.00     0.049 A 
ATOM     29  C   UNL     1       7.072   8.817  -4.083  1.00  0.00     0.074 A 
ATOM     30  C   UNL     1       8.943  10.160   1.841  1.00  0.00     0.029 A 
ATOM     31  N   UNL     1       7.995   9.242   0.053  1.00  0.00    -0.354 N 
ATOM     32  N   UNL     1       7.402   9.015  -2.827  1.00  0.00    -0.248 NA
ATOM     33  C   UNL     1       7.513   9.874  -4.998  1.00  0.00     0.031 C 
ATOM     34  C   UNL     1       9.172  10.994   0.742  1.00  0.00     0.029 A 
ATOM     35  C   UNL     1       8.618  10.403  -0.383  1.00  0.00     0.049 A 
ATOM     36  H   UNL     1       7.502   8.617  -0.525  1.00  0.00     0.167 HD
ATOM     37  C   UNL     1       8.113  10.211  -2.808  1.00  0.00     0.074 A 
ATOM     38  C   UNL     1       8.180  10.674  -4.179  1.00  0.00     0.031 C 
ATOM     39  C   UNL     1       8.664  10.864  -1.752  1.00  0.00     0.034 A 
BRANCH  26  40
ATOM     40  C   UNL     1       7.813   8.041   3.716  1.00  0.00     0.023 A 
ATOM     41  C   UNL     1       8.508   7.021   4.388  1.00  0.00     0.031 A 
ATOM     42  C   UNL     1       7.281   9.090   4.489  1.00  0.00     0.131 A 
ATOM     43  C   UNL     1       8.591   7.031   5.790  1.00  0.00     0.055 A 
ATOM     44  C   UNL     1       7.438   9.139   5.875  1.00  0.00     0.041 A 
ATOM     45  F   UNL     1       6.589  10.083   3.909  1.00  0.00    -0.206 F 
ATOM     46  C   UNL     1       8.083   8.097   6.536  1.00  0.00     0.022 A 
BRANCH  43  47
ATOM     47  S   UNL     1       9.241   5.560   6.630  1.00  0.00     0.124 S 
ATOM     48  O   UNL     1       8.347   4.514   6.138  1.00  0.00    -0.237 OA
ATOM     49  O   UNL     1      10.616   5.498   6.146  1.00  0.00    -0.237 OA
ATOM     50  O   UNL     1       9.092   5.880   8.048  1.00  0.00    -0.744 OA
ENDBRANCH  43  47
ENDBRANCH  26  40
BRANCH  27  51
ATOM     51  C   UNL     1       6.012   7.628  -6.149  1.00  0.00     0.023 A 
ATOM     52  C   UNL     1       7.036   7.552  -7.104  1.00  0.00     0.031 A 
ATOM     53  C   UNL     1       4.683   7.691  -6.610  1.00  0.00     0.131 A 
ATOM     54  C   UNL     1       6.720   7.585  -8.471  1.00  0.00     0.055 A 
ATOM     55  C   UNL     1       4.370   7.662  -7.969  1.00  0.00     0.041 A 
ATOM     56  F   UNL     1       3.664   7.761  -5.738  1.00  0.00    -0.206 F 
ATOM     57  C   UNL     1       5.394   7.622  -8.909  1.00  0.00     0.022 A 
BRANCH  54  58
ATOM     58  S   UNL     1       8.076   7.666  -9.671  1.00  0.00     0.124 S 
ATOM     59  O   UNL     1       8.773   8.875  -9.250  1.00  0.00    -0.237 OA
ATOM     60  O   UNL     1       8.771   6.406  -9.427  1.00  0.00    -0.237 OA
ATOM     61  O   UNL     1       7.387   7.756 -10.957  1.00  0.00    -0.744 OA
ENDBRANCH  54  58
ENDBRANCH  27  51
BRANCH  39  62
ATOM     62  C   UNL     1       9.427  12.130  -2.059  1.00  0.00     0.023 A 
ATOM     63  C   UNL     1       8.790  13.278  -2.562  1.00  0.00     0.031 A 
ATOM     64  C   UNL     1      10.819  12.178  -1.865  1.00  0.00     0.131 A 
ATOM     65  C   UNL     1       9.552  14.403  -2.911  1.00  0.00     0.055 A 
ATOM     66  C   UNL     1      11.563  13.323  -2.150  1.00  0.00     0.041 A 
ATOM     67  F   UNL     1      11.481  11.109  -1.393  1.00  0.00    -0.206 F 
ATOM     68  C   UNL     1      10.931  14.440  -2.690  1.00  0.00     0.022 A 
BRANCH  65  69
ATOM     69  S   UNL     1       8.732  15.783  -3.755  1.00  0.00     0.124 S 
ATOM     70  O   UNL     1       8.188  15.130  -4.942  1.00  0.00    -0.237 OA
ATOM     71  O   UNL     1       7.754  16.218  -2.764  1.00  0.00    -0.237 OA
ATOM     72  O   UNL     1       9.820  16.725  -4.009  1.00  0.00    -0.744 OA
ENDBRANCH  65  69
ENDBRANCH  39  62
ENDBRANCH  13  14
ENDBRANCH   6   8
ENDBRANCH   3   4
ENDBRANCH   2   3
ENDBRANCH   1   2
BRANCH   1  73
ATOM     73  C   UNL     1       4.691  -4.368   0.883  1.00  0.00     0.002 C 
BRANCH  73  74
ATOM     74  C   UNL     1       6.224  -4.369   0.884  1.00  0.00     0.021 C 
BRANCH  74  75
ATOM     75  C   UNL     1       6.836  -4.696   2.244  1.00  0.00     0.116 C 
BRANCH  75  76
ATOM     76  N   UNL     1       6.816  -6.127   2.501  1.00  0.00    -0.351 N 
ATOM     77  C   UNL     1       7.738  -7.109   2.664  1.00  0.00     0.280 C 
ATOM     78  H   UNL     1       5.897  -6.472   2.576  1.00  0.00     0.163 HD
ATOM     79  O   UNL     1       7.247  -8.227   2.886  1.00  0.00    -0.268 OA
BRANCH  77  80
ATOM     80  C   UNL     1       9.281  -6.954   2.577  1.00  0.00     0.292 C 
ATOM     81  C   UNL     1       9.819  -5.527   2.453  1.00  0.00     0.195 C 
ATOM     82  N   UNL     1       9.805  -7.853   1.488  1.00  0.00    -0.333 N 
ATOM     83  N   UNL     1      11.276  -5.514   2.348  1.00  0.00    -0.329 N 
ATOM     84  C   UNL     1      11.283  -7.751   1.425  1.00  0.00     0.283 C 
ATOM     85  H   UNL     1       9.407  -7.568   0.593  1.00  0.00     0.347 HD
ATOM     86  H   UNL     1       9.540  -8.817   1.689  1.00  0.00     0.347 HD
ATOM     87  C   UNL     1      11.817  -6.304   1.258  1.00  0.00     0.181 C 
BRANCH  83  88
ATOM     88  C   UNL     1      11.799  -4.278   2.648  1.00  0.00     0.227 A 
ATOM     89  N   UNL     1      12.218  -3.466   1.673  1.00  0.00    -0.221 NA
ATOM     90  N   UNL     1      11.742  -3.926   3.941  1.00  0.00    -0.196 NA
ATOM     91  C   UNL     1      12.530  -2.211   2.050  1.00  0.00     0.119 A 
ATOM     92  C   UNL     1      12.086  -2.681   4.300  1.00  0.00     0.134 A 
ATOM     93  C   UNL     1      12.460  -1.760   3.349  1.00  0.00     0.067 A 
BRANCH  92  94
ATOM     94  N   UNL     1      12.101  -2.381   5.645  1.00  0.00    -0.356 N 
ATOM     95  C   UNL     1      11.409  -1.214   6.176  1.00  0.00     0.121 C 
ATOM     96  C   UNL     1      12.570  -3.404   6.572  1.00  0.00     0.121 C 
ATOM     97  C   UNL     1      10.289  -1.652   7.128  1.00  0.00     0.053 C 
ATOM     98  C   UNL     1      11.437  -3.880   7.468  1.00  0.00     0.053 C 
ATOM     99  C   UNL     1      10.741  -2.703   8.144  1.00  0.00     0.118 C 
BRANCH  99 100
ATOM    100  O   UNL     1      11.596  -2.141   9.142  1.00  0.00    -0.393 OA
ATOM    101  H   UNL     1      12.406  -1.809   8.724  1.00  0.00     0.210 HD
ENDBRANCH  99 100
ENDBRANCH  92  94
ENDBRANCH  83  88
ENDBRANCH  77  80
ENDBRANCH  75  76
ENDBRANCH  74  75
ENDBRANCH  73  74
ENDBRANCH   1  73
TORSDOF 19
