REMARK SMILES O=C(NCCCCCCNC(=O)[C@@H](Cc1c(F)cccc1Cl)c1ccc(Cl)cc1)c1ccc(-c2c3nc(c(-c4cc(S(=O)(=O)[O-])ccc4F)c4ccc([nH]4)c(-c4cc(S(=O)(=O)[O-])ccc4F)c4nc(c(-c5cc(S(=O)(=O)[O-])ccc5F)c5ccc2[nH]5)C=C4)C=C3)cc1
REMARK SMILES IDX 6 1 5 2 4 3 3 4 1 5 2 6 30 8 31 9 92 10 32 11 91 12 33 13
REMARK SMILES IDX 34 14 35 15 85 16 36 17 90 18 84 19 86 20 37 21 89 22 83 23
REMARK SMILES IDX 82 24 38 26 70 27 50 28 69 29 51 30 54 31 68 32 87 33 52 34
REMARK SMILES IDX 53 35 67 37 88 38 55 39 39 40 40 41 48 42 41 43 47 44 49 45
REMARK SMILES IDX 46 46 42 47 43 48 44 49 45 50 71 51 72 52 80 53 73 54 79 55
REMARK SMILES IDX 81 56 78 57 74 58 75 59 76 60 77 61 56 62 57 63 65 64 58 65
REMARK SMILES IDX 64 66 66 67 63 68 59 69 60 70 61 71 62 72 7 73 8 74 9 75
REMARK SMILES IDX 10 76 11 77 12 79 13 80 14 81 15 82 16 83 21 84 17 85 18 86
REMARK SMILES IDX 20 87 22 88 19 89 23 90 24 91 29 92 25 93 28 94 26 95 27 96
REMARK H PARENT 3 7 86 25 54 36 10 78
REMARK Flexibility Score: inf
ROOT
ATOM      1  C   UNL     1       3.748  -3.504  -1.885  1.00  0.00     0.002 C 
ENDROOT
BRANCH   1   2
ATOM      2  C   UNL     1       4.495  -2.626  -0.883  1.00  0.00     0.021 C 
BRANCH   2   3
ATOM      3  C   UNL     1       4.344  -1.123  -1.084  1.00  0.00     0.116 C 
BRANCH   3   4
ATOM      4  N   UNL     1       2.955  -0.686  -1.033  1.00  0.00    -0.352 N 
ATOM      5  O   UNL     1       1.087   0.240  -0.191  1.00  0.00    -0.269 OA
ATOM      6  C   UNL     1       2.308   0.148  -0.150  1.00  0.00     0.251 C 
ATOM      7  H   UNL     1       2.384  -1.048  -1.748  1.00  0.00     0.163 HD
BRANCH   6   8
ATOM      8  C   UNL     1       3.075   0.923   0.853  1.00  0.00     0.039 A 
ATOM      9  C   UNL     1       4.277   1.544   0.513  1.00  0.00     0.014 A 
ATOM     10  C   UNL     1       2.565   1.059   2.149  1.00  0.00     0.014 A 
ATOM     11  C   UNL     1       5.046   2.151   1.500  1.00  0.00     0.010 A 
ATOM     12  C   UNL     1       3.296   1.759   3.118  1.00  0.00     0.010 A 
ATOM     13  C   UNL     1       4.564   2.277   2.813  1.00  0.00    -0.014 A 
BRANCH  13  14
ATOM     14  C   UNL     1       5.395   2.981   3.829  1.00  0.00     0.031 A 
ATOM     15  C   UNL     1       5.905   2.262   5.051  1.00  0.00     0.074 A 
ATOM     16  C   UNL     1       5.730   4.270   3.619  1.00  0.00     0.049 A 
ATOM     17  N   UNL     1       6.679   2.709   6.008  1.00  0.00    -0.248 NA
ATOM     18  C   UNL     1       5.485   0.865   5.226  1.00  0.00     0.031 C 
ATOM     19  C   UNL     1       5.290   5.076   2.476  1.00  0.00     0.029 A 
ATOM     20  N   UNL     1       6.532   5.123   4.333  1.00  0.00    -0.354 N 
ATOM     21  C   UNL     1       6.823   1.659   6.910  1.00  0.00     0.074 A 
ATOM     22  C   UNL     1       6.023   0.565   6.400  1.00  0.00     0.031 C 
ATOM     23  C   UNL     1       5.876   6.280   2.534  1.00  0.00     0.029 A 
ATOM     24  C   UNL     1       6.670   6.364   3.754  1.00  0.00     0.049 A 
ATOM     25  H   UNL     1       6.968   4.872   5.179  1.00  0.00     0.167 HD
ATOM     26  C   UNL     1       7.559   1.611   8.050  1.00  0.00     0.034 A 
ATOM     27  C   UNL     1       7.345   7.456   4.163  1.00  0.00     0.034 A 
ATOM     28  C   UNL     1       8.354   2.712   8.542  1.00  0.00     0.049 A 
ATOM     29  C   UNL     1       8.121   7.387   5.452  1.00  0.00     0.074 A 
ATOM     30  C   UNL     1       9.167   2.755   9.663  1.00  0.00     0.029 A 
ATOM     31  N   UNL     1       8.430   3.970   7.955  1.00  0.00    -0.354 N 
ATOM     32  N   UNL     1       8.269   6.375   6.275  1.00  0.00    -0.248 NA
ATOM     33  C   UNL     1       8.826   8.607   5.861  1.00  0.00     0.031 C 
ATOM     34  C   UNL     1       9.664   4.056   9.798  1.00  0.00     0.029 A 
ATOM     35  C   UNL     1       9.244   4.803   8.710  1.00  0.00     0.049 A 
ATOM     36  H   UNL     1       7.972   4.232   7.124  1.00  0.00     0.167 HD
ATOM     37  C   UNL     1       9.116   6.829   7.282  1.00  0.00     0.074 A 
ATOM     38  C   UNL     1       9.457   8.197   6.950  1.00  0.00     0.031 C 
ATOM     39  C   UNL     1       9.573   6.171   8.379  1.00  0.00     0.034 A 
BRANCH  26  40
ATOM     40  C   UNL     1       7.498   0.340   8.870  1.00  0.00     0.023 A 
ATOM     41  C   UNL     1       7.946  -0.894   8.367  1.00  0.00     0.031 A 
ATOM     42  C   UNL     1       6.965   0.361  10.172  1.00  0.00     0.131 A 
ATOM     43  C   UNL     1       7.783  -2.063   9.127  1.00  0.00     0.055 A 
ATOM     44  C   UNL     1       6.885  -0.791  10.957  1.00  0.00     0.041 A 
ATOM     45  F   UNL     1       6.500   1.504  10.702  1.00  0.00    -0.206 F 
ATOM     46  C   UNL     1       7.281  -2.016  10.429  1.00  0.00     0.022 A 
BRANCH  43  47
ATOM     47  S   UNL     1       8.092  -3.663   8.331  1.00  0.00     0.124 S 
ATOM     48  O   UNL     1       7.186  -3.602   7.186  1.00  0.00    -0.237 OA
ATOM     49  O   UNL     1       9.515  -3.590   8.022  1.00  0.00    -0.237 OA
ATOM     50  O   UNL     1       7.723  -4.634   9.358  1.00  0.00    -0.744 OA
ENDBRANCH  43  47
ENDBRANCH  26  40
BRANCH  27  51
ATOM     51  C   UNL     1       7.305   8.713   3.361  1.00  0.00     0.023 A 
ATOM     52  C   UNL     1       8.474   9.256   2.806  1.00  0.00     0.031 A 
ATOM     53  C   UNL     1       6.100   9.414   3.174  1.00  0.00     0.131 A 
ATOM     54  C   UNL     1       8.422  10.487   2.134  1.00  0.00     0.055 A 
ATOM     55  C   UNL     1       6.043  10.606   2.450  1.00  0.00     0.041 A 
ATOM     56  F   UNL     1       4.951   8.939   3.682  1.00  0.00    -0.206 F 
ATOM     57  C   UNL     1       7.213  11.157   1.938  1.00  0.00     0.022 A 
BRANCH  54  58
ATOM     58  S   UNL     1       9.979  11.248   1.600  1.00  0.00     0.124 S 
ATOM     59  O   UNL     1      10.705  11.353   2.861  1.00  0.00    -0.237 OA
ATOM     60  O   UNL     1      10.485  10.266   0.648  1.00  0.00    -0.237 OA
ATOM     61  O   UNL     1       9.553  12.518   1.016  1.00  0.00    -0.744 OA
ENDBRANCH  54  58
ENDBRANCH  27  51
BRANCH  39  62
ATOM     62  C   UNL     1      10.545   6.914   9.266  1.00  0.00     0.023 A 
ATOM     63  C   UNL     1      10.178   8.077   9.966  1.00  0.00     0.031 A 
ATOM     64  C   UNL     1      11.874   6.468   9.383  1.00  0.00     0.131 A 
ATOM     65  C   UNL     1      11.145   8.795  10.686  1.00  0.00     0.055 A 
ATOM     66  C   UNL     1      12.813   7.144  10.162  1.00  0.00     0.041 A 
ATOM     67  F   UNL     1      12.286   5.367   8.733  1.00  0.00    -0.206 F 
ATOM     68  C   UNL     1      12.455   8.325  10.805  1.00  0.00     0.022 A 
BRANCH  65  69
ATOM     69  S   UNL     1      10.700  10.419  11.361  1.00  0.00     0.124 S 
ATOM     70  O   UNL     1      10.244  11.128  10.170  1.00  0.00    -0.237 OA
ATOM     71  O   UNL     1       9.667  10.079  12.335  1.00  0.00    -0.237 OA
ATOM     72  O   UNL     1      11.953  10.909  11.933  1.00  0.00    -0.744 OA
ENDBRANCH  65  69
ENDBRANCH  39  62
ENDBRANCH  13  14
ENDBRANCH   6   8
ENDBRANCH   3   4
ENDBRANCH   2   3
ENDBRANCH   1   2
BRANCH   1  73
ATOM     73  C   UNL     1       4.091  -3.286  -3.365  1.00  0.00     0.002 C 
BRANCH  73  74
ATOM     74  C   UNL     1       5.545  -3.558  -3.773  1.00  0.00     0.021 C 
BRANCH  74  75
ATOM     75  C   UNL     1       6.038  -4.954  -3.389  1.00  0.00     0.116 C 
BRANCH  75  76
ATOM     76  N   UNL     1       6.631  -5.698  -4.476  1.00  0.00    -0.356 N 
ATOM     77  C   UNL     1       7.868  -6.258  -4.571  1.00  0.00     0.227 C 
ATOM     78  H   UNL     1       6.055  -5.817  -5.265  1.00  0.00     0.163 HD
ATOM     79  O   UNL     1       7.950  -7.245  -5.316  1.00  0.00    -0.274 OA
BRANCH  77  80
ATOM     80  C   UNL     1       9.129  -5.705  -3.874  1.00  0.00     0.113 C 
BRANCH  80  81
ATOM     81  C   UNL     1       9.253  -4.162  -3.903  1.00  0.00     0.058 C 
BRANCH  81  82
ATOM     82  C   UNL     1       8.953  -3.106  -2.843  1.00  0.00     0.008 A 
ATOM     83  C   UNL     1       9.129  -1.789  -3.338  1.00  0.00     0.127 A 
ATOM     84  C   UNL     1       8.568  -3.196  -1.493  1.00  0.00     0.047 A 
ATOM     85  F   UNL     1       9.519  -1.617  -4.612  1.00  0.00    -0.207 F 
ATOM     86  C   UNL     1       8.911  -0.641  -2.581  1.00  0.00     0.039 A 
ATOM     87  C   UNL     1       8.357  -2.033  -0.724  1.00  0.00     0.021 A 
ATOM     88  Cl  UNL     1       8.239  -4.634  -0.602  1.00  0.00    -0.084 Cl
ATOM     89  C   UNL     1       8.517  -0.762  -1.262  1.00  0.00     0.005 A 
ENDBRANCH  81  82
ENDBRANCH  80  81
BRANCH  80  90
ATOM     90  C   UNL     1       9.684  -6.457  -2.675  1.00  0.00    -0.035 A 
ATOM     91  C   UNL     1       9.144  -7.675  -2.237  1.00  0.00     0.006 A 
ATOM     92  C   UNL     1      10.779  -5.924  -1.962  1.00  0.00     0.006 A 
ATOM     93  C   UNL     1       9.579  -8.255  -1.039  1.00  0.00     0.021 A 
ATOM     94  C   UNL     1      11.191  -6.484  -0.751  1.00  0.00     0.021 A 
ATOM     95  C   UNL     1      10.567  -7.633  -0.280  1.00  0.00     0.041 A 
ATOM     96  Cl  UNL     1      11.002  -8.275   1.254  1.00  0.00    -0.084 Cl
ENDBRANCH  80  90
ENDBRANCH  77  80
ENDBRANCH  75  76
ENDBRANCH  74  75
ENDBRANCH  73  74
ENDBRANCH   1  73
TORSDOF 19
