REMARK SMILES CCN(CC(=O)NC(C)C)C(=O)N[C@H]1C=C[C@H](C(=O)NCCCCCCNC(=O)c2ccc(-c3c4nc(c(-c5cc(S(=O)(=O)[O-])ccc5F)c5ccc([nH]5)c(-c5cc(S(=O)(=O)[O-])ccc5F)c5nc(c(-c6cc(S(=O)(=O)[O-])ccc6F)c6ccc3[nH]6)C=C5)C=C4)cc2)C1
REMARK SMILES IDX 22 1 21 2 20 3 18 4 19 5 17 7 14 8 15 9 93 10 16 11 13 12
REMARK SMILES IDX 11 13 12 14 3 16 2 17 1 18 4 19 5 20 6 21 7 22 8 24 9 25
REMARK SMILES IDX 10 26 23 27 24 28 25 29 26 30 27 31 28 32 29 34 30 35 31 36
REMARK SMILES IDX 92 37 32 38 91 39 33 40 34 41 35 42 85 43 36 44 90 45 84 46
REMARK SMILES IDX 86 47 37 48 89 49 83 50 82 51 38 53 70 54 50 55 69 56 51 57
REMARK SMILES IDX 54 58 68 59 87 60 52 61 53 62 67 64 88 65 55 66 39 67 40 68
REMARK SMILES IDX 48 69 41 70 47 71 49 72 46 73 42 74 43 75 44 76 45 77 71 78
REMARK SMILES IDX 72 79 80 80 73 81 79 82 81 83 78 84 74 85 75 86 76 87 77 88
REMARK SMILES IDX 56 89 57 90 65 91 58 92 64 93 66 94 63 95 59 96 60 97 61 98
REMARK SMILES IDX 62 99
REMARK H PARENT 20 6 13 15 7 23 27 33 86 52 54 63
REMARK Flexibility Score: inf
ROOT
ATOM      1  C   UNL     1      -1.585  -8.581   2.118  1.00  0.00     0.021 C 
ENDROOT
BRANCH   1   2
ATOM      2  C   UNL     1      -0.709  -8.703   0.872  1.00  0.00     0.116 C 
BRANCH   2   3
ATOM      3  N   UNL     1      -1.076  -7.683  -0.075  1.00  0.00    -0.356 N 
ATOM      4  C   UNL     1      -0.486  -6.471  -0.234  1.00  0.00     0.227 C 
ATOM      5  O   UNL     1      -1.153  -5.584  -0.767  1.00  0.00    -0.274 OA
ATOM      6  H   UNL     1      -1.834  -7.885  -0.669  1.00  0.00     0.163 HD
BRANCH   4   7
ATOM      7  C   UNL     1       0.957  -6.265   0.261  1.00  0.00     0.103 C 
ATOM      8  C   UNL     1       1.751  -4.705  -1.356  1.00  0.00     0.107 C 
ATOM      9  C   UNL     1       2.468  -6.004  -1.536  1.00  0.00    -0.006 C 
ATOM     10  C   UNL     1       1.361  -4.797   0.119  1.00  0.00     0.047 C 
ATOM     11  C   UNL     1       1.967  -6.901  -0.670  1.00  0.00    -0.016 C 
BRANCH   8  12
ATOM     12  N   UNL     1       2.527  -3.551  -1.683  1.00  0.00    -0.332 N 
ATOM     13  C   UNL     1       2.175  -2.250  -1.764  1.00  0.00     0.318 C 
ATOM     14  O   UNL     1       3.108  -1.441  -1.801  1.00  0.00    -0.249 OA
ATOM     15  H   UNL     1       3.474  -3.735  -1.882  1.00  0.00     0.165 HD
BRANCH  13  16
ATOM     16  N   UNL     1       0.864  -1.826  -1.767  1.00  0.00    -0.316 N 
BRANCH  16  17
ATOM     17  C   UNL     1       0.639  -0.426  -1.395  1.00  0.00     0.118 C 
ATOM     18  C   UNL     1       0.965  -0.139   0.066  1.00  0.00     0.027 C 
ENDBRANCH  16  17
BRANCH  16  19
ATOM     19  C   UNL     1      -0.344  -2.634  -2.048  1.00  0.00     0.221 C 
BRANCH  19  20
ATOM     20  C   UNL     1      -0.394  -3.286  -3.446  1.00  0.00     0.239 C 
ATOM     21  O   UNL     1      -0.729  -4.459  -3.628  1.00  0.00    -0.273 OA
ATOM     22  N   UNL     1      -0.184  -2.537  -4.563  1.00  0.00    -0.352 N 
ATOM     23  H   UNL     1       0.166  -3.010  -5.353  1.00  0.00     0.163 HD
BRANCH  22  24
ATOM     24  C   UNL     1      -0.423  -1.118  -4.709  1.00  0.00     0.075 C 
ATOM     25  C   UNL     1       0.758  -0.449  -5.389  1.00  0.00     0.030 C 
ATOM     26  C   UNL     1      -1.726  -0.925  -5.479  1.00  0.00     0.030 C 
ENDBRANCH  22  24
ENDBRANCH  19  20
ENDBRANCH  16  19
ENDBRANCH  13  16
ENDBRANCH   8  12
ENDBRANCH   4   7
ENDBRANCH   2   3
ENDBRANCH   1   2
BRANCH   1  27
ATOM     27  C   UNL     1      -3.064  -8.914   1.870  1.00  0.00     0.002 C 
BRANCH  27  28
ATOM     28  C   UNL     1      -3.314 -10.273   1.207  1.00  0.00     0.002 C 
BRANCH  28  29
ATOM     29  C   UNL     1      -2.605 -11.450   1.880  1.00  0.00     0.021 C 
BRANCH  29  30
ATOM     30  C   UNL     1      -2.972 -11.643   3.345  1.00  0.00     0.116 C 
BRANCH  30  31
ATOM     31  N   UNL     1      -4.366 -12.019   3.503  1.00  0.00    -0.352 N 
ATOM     32  C   UNL     1      -4.889 -13.120   4.133  1.00  0.00     0.251 C 
ATOM     33  H   UNL     1      -5.023 -11.401   3.107  1.00  0.00     0.163 HD
ATOM     34  O   UNL     1      -6.074 -13.410   3.977  1.00  0.00    -0.269 OA
BRANCH  32  35
ATOM     35  C   UNL     1      -4.012 -13.962   4.973  1.00  0.00     0.039 A 
ATOM     36  C   UNL     1      -4.068 -15.350   4.836  1.00  0.00     0.014 A 
ATOM     37  C   UNL     1      -3.122 -13.377   5.879  1.00  0.00     0.014 A 
ATOM     38  C   UNL     1      -3.187 -16.150   5.566  1.00  0.00     0.010 A 
ATOM     39  C   UNL     1      -2.192 -14.171   6.544  1.00  0.00     0.010 A 
ATOM     40  C   UNL     1      -2.217 -15.567   6.399  1.00  0.00    -0.014 A 
BRANCH  40  41
ATOM     41  C   UNL     1      -1.226 -16.397   7.133  1.00  0.00     0.031 A 
ATOM     42  C   UNL     1      -1.212 -16.393   8.637  1.00  0.00     0.074 A 
ATOM     43  C   UNL     1      -0.304 -17.102   6.447  1.00  0.00     0.049 A 
ATOM     44  N   UNL     1      -0.375 -16.973   9.459  1.00  0.00    -0.248 NA
ATOM     45  C   UNL     1      -2.260 -15.606   9.304  1.00  0.00     0.031 C 
ATOM     46  C   UNL     1      -0.201 -17.163   4.988  1.00  0.00     0.029 A 
ATOM     47  N   UNL     1       0.727 -17.896   6.884  1.00  0.00    -0.354 N 
ATOM     48  C   UNL     1      -0.788 -16.613  10.738  1.00  0.00     0.074 A 
ATOM     49  C   UNL     1      -1.909 -15.712  10.577  1.00  0.00     0.031 C 
ATOM     50  C   UNL     1       0.817 -17.971   4.652  1.00  0.00     0.029 A 
ATOM     51  C   UNL     1       1.475 -18.442   5.866  1.00  0.00     0.049 A 
ATOM     52  H   UNL     1       0.913 -18.060   7.837  1.00  0.00     0.167 HD
ATOM     53  C   UNL     1      -0.292 -17.016  11.934  1.00  0.00     0.034 A 
ATOM     54  C   UNL     1       2.577 -19.219   5.906  1.00  0.00     0.034 A 
ATOM     55  C   UNL     1       0.822 -17.922  12.074  1.00  0.00     0.049 A 
ATOM     56  C   UNL     1       3.141 -19.613   7.249  1.00  0.00     0.074 A 
ATOM     57  C   UNL     1       1.374 -18.434  13.235  1.00  0.00     0.029 A 
ATOM     58  N   UNL     1       1.564 -18.442  11.021  1.00  0.00    -0.354 N 
ATOM     59  N   UNL     1       2.711 -19.300   8.450  1.00  0.00    -0.248 NA
ATOM     60  C   UNL     1       4.332 -20.472   7.242  1.00  0.00     0.031 C 
ATOM     61  C   UNL     1       2.494 -19.196  12.890  1.00  0.00     0.029 A 
ATOM     62  C   UNL     1       2.590 -19.238  11.508  1.00  0.00     0.049 A 
ATOM     63  H   UNL     1       1.387 -18.271  10.067  1.00  0.00     0.167 HD
ATOM     64  C   UNL     1       3.559 -19.956   9.339  1.00  0.00     0.074 A 
ATOM     65  C   UNL     1       4.516 -20.688   8.536  1.00  0.00     0.031 C 
ATOM     66  C   UNL     1       3.543 -19.959  10.697  1.00  0.00     0.034 A 
BRANCH  53  67
ATOM     67  C   UNL     1      -0.934 -16.452  13.180  1.00  0.00     0.023 A 
ATOM     68  C   UNL     1      -2.285 -16.687  13.489  1.00  0.00     0.031 A 
ATOM     69  C   UNL     1      -0.189 -15.651  14.064  1.00  0.00     0.131 A 
ATOM     70  C   UNL     1      -2.869 -16.066  14.603  1.00  0.00     0.055 A 
ATOM     71  C   UNL     1      -0.754 -15.107  15.220  1.00  0.00     0.041 A 
ATOM     72  F   UNL     1       1.099 -15.370  13.813  1.00  0.00    -0.206 F 
ATOM     73  C   UNL     1      -2.106 -15.300  15.487  1.00  0.00     0.022 A 
BRANCH  70  74
ATOM     74  S   UNL     1      -4.671 -16.146  14.792  1.00  0.00     0.124 S 
ATOM     75  O   UNL     1      -5.126 -15.547  13.539  1.00  0.00    -0.237 OA
ATOM     76  O   UNL     1      -4.909 -17.577  14.941  1.00  0.00    -0.237 OA
ATOM     77  O   UNL     1      -4.926 -15.343  15.986  1.00  0.00    -0.744 OA
ENDBRANCH  70  74
ENDBRANCH  53  67
BRANCH  54  78
ATOM     78  C   UNL     1       3.236 -19.665   4.644  1.00  0.00     0.023 A 
ATOM     79  C   UNL     1       3.323 -21.027   4.316  1.00  0.00     0.031 A 
ATOM     80  C   UNL     1       3.832 -18.739   3.768  1.00  0.00     0.131 A 
ATOM     81  C   UNL     1       4.035 -21.430   3.176  1.00  0.00     0.055 A 
ATOM     82  C   UNL     1       4.487 -19.140   2.602  1.00  0.00     0.041 A 
ATOM     83  F   UNL     1       3.778 -17.423   4.031  1.00  0.00    -0.206 F 
ATOM     84  C   UNL     1       4.604 -20.495   2.308  1.00  0.00     0.022 A 
BRANCH  81  85
ATOM     85  S   UNL     1       4.295 -23.203   2.896  1.00  0.00     0.124 S 
ATOM     86  O   UNL     1       4.976 -23.599   4.124  1.00  0.00    -0.237 OA
ATOM     87  O   UNL     1       2.929 -23.688   2.735  1.00  0.00    -0.237 OA
ATOM     88  O   UNL     1       5.115 -23.239   1.687  1.00  0.00    -0.744 OA
ENDBRANCH  81  85
ENDBRANCH  54  78
BRANCH  66  89
ATOM     89  C   UNL     1       4.559 -20.828  11.399  1.00  0.00     0.023 A 
ATOM     90  C   UNL     1       5.938 -20.560  11.338  1.00  0.00     0.031 A 
ATOM     91  C   UNL     1       4.135 -21.942  12.146  1.00  0.00     0.131 A 
ATOM     92  C   UNL     1       6.846 -21.424  11.970  1.00  0.00     0.055 A 
ATOM     93  C   UNL     1       5.038 -22.759  12.827  1.00  0.00     0.041 A 
ATOM     94  F   UNL     1       2.831 -22.249  12.236  1.00  0.00    -0.206 F 
ATOM     95  C   UNL     1       6.403 -22.509  12.731  1.00  0.00     0.022 A 
BRANCH  92  96
ATOM     96  S   UNL     1       8.622 -21.163  11.712  1.00  0.00     0.124 S 
ATOM     97  O   UNL     1       8.736 -21.270  10.261  1.00  0.00    -0.237 OA
ATOM     98  O   UNL     1       8.827 -19.830  12.271  1.00  0.00    -0.237 OA
ATOM     99  O   UNL     1       9.242 -22.251  12.465  1.00  0.00    -0.744 OA
ENDBRANCH  92  96
ENDBRANCH  66  89
ENDBRANCH  40  41
ENDBRANCH  32  35
ENDBRANCH  30  31
ENDBRANCH  29  30
ENDBRANCH  28  29
ENDBRANCH  27  28
ENDBRANCH   1  27
TORSDOF 22
