REMARK SMILES CC(C)CCN1C(=O)/C(=C2/SC(=S)N(CCC(=O)NCCCCCCNC(=O)c3ccc(-c4c5nc(c(-c6cc(S(=O)(=O)[O-])ccc6F)c6ccc([nH]6)c(-c6cc(S(=O)(=O)[O-])ccc6F)c6nc(c(-c7cc(S(=O)(=O)[O-])ccc7F)c7ccc4[nH]7)C=C6)C=C5)cc3)C2=O)c2ccccc21
REMARK SMILES IDX 21 1 20 2 19 3 17 4 18 5 16 7 15 8 14 9 6 10 7 11 99 12 8 13
REMARK SMILES IDX 9 14 94 15 98 16 10 17 95 18 97 19 11 20 92 21 96 22 12 23
REMARK SMILES IDX 93 24 13 25 5 26 4 27 2 28 1 29 3 30 22 31 23 32 24 33 25 34
REMARK SMILES IDX 26 35 27 36 28 38 29 39 30 40 91 41 31 42 90 43 32 44 33 45
REMARK SMILES IDX 34 46 84 47 35 48 89 49 83 50 85 51 36 52 88 53 82 54 81 55
REMARK SMILES IDX 37 57 69 58 49 59 68 60 50 61 53 62 67 63 86 64 51 65 52 66
REMARK SMILES IDX 66 68 87 69 54 70 38 71 39 72 47 73 40 74 46 75 48 76 45 77
REMARK SMILES IDX 41 78 42 79 43 80 44 81 70 82 71 83 79 84 72 85 78 86 80 87
REMARK SMILES IDX 77 88 73 89 74 90 75 91 76 92 55 93 56 94 64 95 57 96 63 97
REMARK SMILES IDX 65 98 62 99 58 100 59 101 60 102 61 103
REMARK H PARENT 19 6 26 37 85 56 53 67
REMARK Flexibility Score: inf
ROOT
ATOM      1  C   UNL     1      -0.559  -0.117   8.975  1.00  0.00     0.021 C 
ENDROOT
BRANCH   1   2
ATOM      2  C   UNL     1      -1.622   0.949   9.251  1.00  0.00     0.116 C 
BRANCH   2   3
ATOM      3  N   UNL     1      -1.279   1.706  10.444  1.00  0.00    -0.356 N 
ATOM      4  C   UNL     1      -0.729   2.947  10.572  1.00  0.00     0.221 C 
ATOM      5  O   UNL     1      -0.318   3.290  11.683  1.00  0.00    -0.275 OA
ATOM      6  H   UNL     1      -1.475   1.250  11.294  1.00  0.00     0.163 HD
BRANCH   4   7
ATOM      7  C   UNL     1      -0.676   3.904   9.399  1.00  0.00     0.122 C 
BRANCH   7   8
ATOM      8  C   UNL     1       0.719   4.080   8.789  1.00  0.00     0.137 C 
BRANCH   8   9
ATOM      9  N   UNL     1       1.091   3.055   7.802  1.00  0.00    -0.292 N 
ATOM     10  N   UNL     1      -1.201   1.149   2.858  1.00  0.00    -0.308 N 
ATOM     11  C   UNL     1      -0.607   2.113   3.682  1.00  0.00     0.260 C 
ATOM     12  C   UNL     1      -1.087  -0.120   3.420  1.00  0.00     0.052 A 
ATOM     13  O   UNL     1      -0.534   3.312   3.510  1.00  0.00    -0.269 OA
ATOM     14  C   UNL     1       0.124   1.317   4.750  1.00  0.00     0.069 C 
ATOM     15  C   UNL     1      -0.180  -0.098   4.482  1.00  0.00     0.012 A 
ATOM     16  C   UNL     1      -1.841  -1.230   3.086  1.00  0.00     0.027 A 
ATOM     17  C   UNL     1       0.804   1.802   5.802  1.00  0.00     0.093 C 
ATOM     18  C   UNL     1       0.053  -1.252   5.186  1.00  0.00     0.011 A 
ATOM     19  C   UNL     1      -1.714  -2.334   3.893  1.00  0.00     0.002 A 
ATOM     20  S   UNL     1       2.049   0.968   6.673  1.00  0.00    -0.053 SA
ATOM     21  C   UNL     1       0.431   3.032   6.568  1.00  0.00     0.267 C 
ATOM     22  C   UNL     1      -0.755  -2.343   4.894  1.00  0.00     0.001 A 
ATOM     23  C   UNL     1       2.064   2.103   8.003  1.00  0.00     0.148 C 
ATOM     24  O   UNL     1      -0.455   3.813   6.261  1.00  0.00    -0.268 OA
ATOM     25  S   UNL     1       3.114   1.932   9.289  1.00  0.00    -0.052 S 
BRANCH  10  26
ATOM     26  C   UNL     1      -1.760   1.325   1.524  1.00  0.00     0.126 C 
BRANCH  26  27
ATOM     27  C   UNL     1      -0.844   2.084   0.564  1.00  0.00     0.025 C 
BRANCH  27  28
ATOM     28  C   UNL     1       0.641   1.657   0.556  1.00  0.00    -0.016 C 
ATOM     29  C   UNL     1       0.879   0.272  -0.049  1.00  0.00     0.007 C 
ATOM     30  C   UNL     1       1.449   2.712  -0.200  1.00  0.00     0.007 C 
ENDBRANCH  27  28
ENDBRANCH  26  27
ENDBRANCH  10  26
ENDBRANCH   8   9
ENDBRANCH   7   8
ENDBRANCH   4   7
ENDBRANCH   2   3
ENDBRANCH   1   2
BRANCH   1  31
ATOM     31  C   UNL     1      -0.625  -1.386   9.838  1.00  0.00     0.002 C 
BRANCH  31  32
ATOM     32  C   UNL     1      -1.602  -2.475   9.367  1.00  0.00     0.002 C 
BRANCH  32  33
ATOM     33  C   UNL     1      -1.297  -3.111   8.001  1.00  0.00     0.021 C 
BRANCH  33  34
ATOM     34  C   UNL     1       0.022  -3.906   7.862  1.00  0.00     0.116 C 
BRANCH  34  35
ATOM     35  N   UNL     1      -0.178  -5.341   7.646  1.00  0.00    -0.352 N 
ATOM     36  C   UNL     1      -0.279  -6.203   6.574  1.00  0.00     0.251 C 
ATOM     37  H   UNL     1      -0.265  -5.822   8.501  1.00  0.00     0.163 HD
ATOM     38  O   UNL     1      -0.491  -7.388   6.847  1.00  0.00    -0.269 OA
BRANCH  36  39
ATOM     39  C   UNL     1      -0.242  -5.830   5.128  1.00  0.00     0.039 A 
ATOM     40  C   UNL     1       0.724  -5.027   4.530  1.00  0.00     0.014 A 
ATOM     41  C   UNL     1      -1.220  -6.394   4.291  1.00  0.00     0.014 A 
ATOM     42  C   UNL     1       0.568  -4.622   3.175  1.00  0.00     0.010 A 
ATOM     43  C   UNL     1      -1.315  -6.058   2.923  1.00  0.00     0.010 A 
ATOM     44  C   UNL     1      -0.487  -5.084   2.352  1.00  0.00    -0.014 A 
BRANCH  44  45
ATOM     45  C   UNL     1      -0.751  -4.528   0.959  1.00  0.00     0.031 A 
ATOM     46  C   UNL     1      -2.120  -3.983   0.528  1.00  0.00     0.074 A 
ATOM     47  C   UNL     1       0.239  -4.451   0.039  1.00  0.00     0.049 A 
ATOM     48  N   UNL     1      -2.447  -3.341  -0.575  1.00  0.00    -0.248 NA
ATOM     49  C   UNL     1      -3.257  -4.133   1.450  1.00  0.00     0.031 C 
ATOM     50  C   UNL     1       1.613  -4.899   0.244  1.00  0.00     0.029 A 
ATOM     51  N   UNL     1       0.242  -3.976  -1.260  1.00  0.00    -0.354 N 
ATOM     52  C   UNL     1      -3.786  -2.970  -0.445  1.00  0.00     0.074 A 
ATOM     53  C   UNL     1      -4.230  -3.476   0.830  1.00  0.00     0.031 C 
ATOM     54  C   UNL     1       2.328  -4.658  -0.863  1.00  0.00     0.029 A 
ATOM     55  C   UNL     1       1.450  -4.128  -1.906  1.00  0.00     0.049 A 
ATOM     56  H   UNL     1      -0.547  -3.568  -1.685  1.00  0.00     0.167 HD
ATOM     57  C   UNL     1      -4.591  -2.285  -1.295  1.00  0.00     0.034 A 
ATOM     58  C   UNL     1       1.826  -3.925  -3.190  1.00  0.00     0.034 A 
ATOM     59  C   UNL     1      -4.232  -1.888  -2.632  1.00  0.00     0.049 A 
ATOM     60  C   UNL     1       0.850  -3.360  -4.192  1.00  0.00     0.074 A 
ATOM     61  C   UNL     1      -5.015  -1.215  -3.558  1.00  0.00     0.029 A 
ATOM     62  N   UNL     1      -3.035  -2.176  -3.263  1.00  0.00    -0.354 N 
ATOM     63  N   UNL     1      -0.369  -2.922  -3.995  1.00  0.00    -0.248 NA
ATOM     64  C   UNL     1       1.296  -3.260  -5.592  1.00  0.00     0.031 C 
ATOM     65  C   UNL     1      -4.341  -1.206  -4.777  1.00  0.00     0.029 A 
ATOM     66  C   UNL     1      -3.089  -1.762  -4.586  1.00  0.00     0.049 A 
ATOM     67  H   UNL     1      -2.261  -2.609  -2.837  1.00  0.00     0.167 HD
ATOM     68  C   UNL     1      -0.822  -2.470  -5.235  1.00  0.00     0.074 A 
ATOM     69  C   UNL     1       0.258  -2.672  -6.174  1.00  0.00     0.031 C 
ATOM     70  C   UNL     1      -2.028  -1.935  -5.548  1.00  0.00     0.034 A 
BRANCH  57  71
ATOM     71  C   UNL     1      -5.988  -1.913  -0.844  1.00  0.00     0.023 A 
ATOM     72  C   UNL     1      -7.113  -2.450  -1.500  1.00  0.00     0.031 A 
ATOM     73  C   UNL     1      -6.191  -0.883   0.092  1.00  0.00     0.131 A 
ATOM     74  C   UNL     1      -8.386  -1.919  -1.249  1.00  0.00     0.055 A 
ATOM     75  C   UNL     1      -7.466  -0.381   0.363  1.00  0.00     0.041 A 
ATOM     76  F   UNL     1      -5.147  -0.336   0.738  1.00  0.00    -0.206 F 
ATOM     77  C   UNL     1      -8.568  -0.889  -0.320  1.00  0.00     0.022 A 
BRANCH  74  78
ATOM     78  S   UNL     1      -9.839  -2.483  -2.178  1.00  0.00     0.124 S 
ATOM     79  O   UNL     1     -10.703  -2.976  -1.107  1.00  0.00    -0.237 OA
ATOM     80  O   UNL     1     -10.286  -1.254  -2.825  1.00  0.00    -0.237 OA
ATOM     81  O   UNL     1      -9.308  -3.511  -3.067  1.00  0.00    -0.744 OA
ENDBRANCH  74  78
ENDBRANCH  57  71
BRANCH  58  82
ATOM     82  C   UNL     1       3.219  -4.291  -3.596  1.00  0.00     0.023 A 
ATOM     83  C   UNL     1       3.682  -5.611  -3.436  1.00  0.00     0.031 A 
ATOM     84  C   UNL     1       4.132  -3.323  -4.045  1.00  0.00     0.131 A 
ATOM     85  C   UNL     1       5.039  -5.902  -3.614  1.00  0.00     0.055 A 
ATOM     86  C   UNL     1       5.466  -3.640  -4.313  1.00  0.00     0.041 A 
ATOM     87  F   UNL     1       3.740  -2.052  -4.220  1.00  0.00    -0.206 F 
ATOM     88  C   UNL     1       5.931  -4.930  -4.072  1.00  0.00     0.022 A 
BRANCH  85  89
ATOM     89  S   UNL     1       5.713  -7.505  -3.095  1.00  0.00     0.124 S 
ATOM     90  O   UNL     1       6.291  -8.010  -4.336  1.00  0.00    -0.237 OA
ATOM     91  O   UNL     1       6.671  -7.104  -2.068  1.00  0.00    -0.237 OA
ATOM     92  O   UNL     1       4.545  -8.227  -2.602  1.00  0.00    -0.744 OA
ENDBRANCH  85  89
ENDBRANCH  58  82
BRANCH  70  93
ATOM     93  C   UNL     1      -2.309  -1.490  -6.966  1.00  0.00     0.023 A 
ATOM     94  C   UNL     1      -2.648  -0.145  -7.222  1.00  0.00     0.031 A 
ATOM     95  C   UNL     1      -2.432  -2.412  -8.020  1.00  0.00     0.131 A 
ATOM     96  C   UNL     1      -3.158   0.225  -8.473  1.00  0.00     0.055 A 
ATOM     97  C   UNL     1      -2.885  -2.026  -9.284  1.00  0.00     0.041 A 
ATOM     98  F   UNL     1      -2.134  -3.707  -7.831  1.00  0.00    -0.206 F 
ATOM     99  C   UNL     1      -3.270  -0.707  -9.509  1.00  0.00     0.022 A 
BRANCH  96 100
ATOM    100  S   UNL     1      -3.802   1.897  -8.763  1.00  0.00     0.124 S 
ATOM    101  O   UNL     1      -2.979   2.348  -9.883  1.00  0.00    -0.237 OA
ATOM    102  O   UNL     1      -5.202   1.635  -9.084  1.00  0.00    -0.237 OA
ATOM    103  O   UNL     1      -3.565   2.589  -7.501  1.00  0.00    -0.744 OA
ENDBRANCH  96 100
ENDBRANCH  70  93
ENDBRANCH  44  45
ENDBRANCH  36  39
ENDBRANCH  34  35
ENDBRANCH  33  34
ENDBRANCH  32  33
ENDBRANCH  31  32
ENDBRANCH   1  31
TORSDOF 21
