REMARK SMILES CC(C)Oc1ccc(-c2ccc(/C(=C\c3ccc(S(C)(=O)=O)cc3)C(=O)NCCCCCCNC(=O)c3ccc(-c4c5nc(c(-c6cc(S(=O)(=O)[O-])ccc6F)c6ccc([nH]6)c(-c6cc(S(=O)(=O)[O-])ccc6F)c6nc(c(-c7cc(S(=O)(=O)[O-])ccc7F)c7ccc4[nH]7)C=C6)C=C5)cc3)cc2)cc1
REMARK SMILES IDX 30 1 29 2 28 3 27 4 25 5 26 6 13 8 14 9 12 10 9 11 10 12
REMARK SMILES IDX 101 13 11 14 100 15 8 16 5 17 6 18 103 19 7 20 102 21 4 22
REMARK SMILES IDX 2 23 1 24 3 25 15 26 16 27 24 28 17 29 23 30 18 31 19 32
REMARK SMILES IDX 20 33 21 34 22 35 31 36 32 37 33 38 34 39 35 40 36 42 37 43
REMARK SMILES IDX 38 44 99 45 39 46 98 47 40 48 41 49 42 50 92 51 43 52 97 53
REMARK SMILES IDX 91 54 93 55 44 56 96 57 90 58 89 59 45 61 77 62 57 63 76 64
REMARK SMILES IDX 58 65 61 66 75 67 94 68 59 69 60 70 74 72 95 73 62 74 46 75
REMARK SMILES IDX 47 76 55 77 48 78 54 79 56 80 53 81 49 82 50 83 51 84 52 85
REMARK SMILES IDX 78 86 79 87 87 88 80 89 86 90 88 91 85 92 81 93 82 94 83 95
REMARK SMILES IDX 84 96 63 97 64 98 72 99 65 100 71 101 73 102 70 103 66 104
REMARK SMILES IDX 67 105 68 106 69 107
REMARK H PARENT 27 7 34 41 93 60 61 71
REMARK Flexibility Score: inf
ROOT
ATOM      1  C   UNL     1      -9.028   6.241   9.728  1.00  0.00     0.002 C 
ENDROOT
BRANCH   1   2
ATOM      2  C   UNL     1      -8.524   4.793   9.629  1.00  0.00     0.021 C 
BRANCH   2   3
ATOM      3  C   UNL     1      -9.117   4.027   8.442  1.00  0.00     0.116 C 
BRANCH   3   4
ATOM      4  N   UNL     1      -8.488   4.468   7.215  1.00  0.00    -0.352 N 
ATOM      5  C   UNL     1      -7.500   3.993   6.415  1.00  0.00     0.251 C 
ATOM      6  O   UNL     1      -7.232   4.730   5.461  1.00  0.00    -0.269 OA
ATOM      7  H   UNL     1      -8.868   5.313   6.882  1.00  0.00     0.163 HD
BRANCH   5   8
ATOM      8  C   UNL     1      -6.817   2.641   6.595  1.00  0.00     0.047 C 
ATOM      9  C   UNL     1      -6.747   2.086   7.830  1.00  0.00     0.022 C 
BRANCH   8  10
ATOM     10  C   UNL     1      -6.085   2.032   5.425  1.00  0.00    -0.013 A 
ATOM     11  C   UNL     1      -4.331   0.905   3.438  1.00  0.00    -0.018 A 
ATOM     12  C   UNL     1      -5.122   0.101   4.270  1.00  0.00     0.009 A 
ATOM     13  C   UNL     1      -4.506   2.288   3.563  1.00  0.00     0.009 A 
ATOM     14  C   UNL     1      -6.021   0.653   5.196  1.00  0.00     0.009 A 
ATOM     15  C   UNL     1      -5.333   2.835   4.554  1.00  0.00     0.009 A 
BRANCH  11  16
ATOM     16  C   UNL     1      -3.353   0.326   2.487  1.00  0.00    -0.018 A 
ATOM     17  C   UNL     1      -1.491  -0.763   0.641  1.00  0.00     0.119 A 
ATOM     18  C   UNL     1      -2.639  -1.469   0.988  1.00  0.00     0.047 A 
ATOM     19  C   UNL     1      -1.272   0.489   1.198  1.00  0.00     0.047 A 
ATOM     20  C   UNL     1      -3.556  -0.933   1.898  1.00  0.00     0.012 A 
ATOM     21  C   UNL     1      -2.182   1.016   2.124  1.00  0.00     0.012 A 
BRANCH  17  22
ATOM     22  O   UNL     1      -0.721  -1.312  -0.340  1.00  0.00    -0.491 OA
BRANCH  22  23
ATOM     23  C   UNL     1       0.686  -1.486  -0.118  1.00  0.00     0.167 C 
ATOM     24  C   UNL     1       1.494  -0.207  -0.316  1.00  0.00     0.052 C 
ATOM     25  C   UNL     1       1.027  -2.217   1.178  1.00  0.00     0.052 C 
ENDBRANCH  22  23
ENDBRANCH  17  22
ENDBRANCH  11  16
ENDBRANCH   8  10
BRANCH   9  26
ATOM     26  C   UNL     1      -6.318   0.733   8.219  1.00  0.00    -0.025 A 
ATOM     27  C   UNL     1      -7.312  -0.229   8.480  1.00  0.00     0.009 A 
ATOM     28  C   UNL     1      -4.972   0.360   8.254  1.00  0.00     0.009 A 
ATOM     29  C   UNL     1      -6.967  -1.560   8.724  1.00  0.00     0.021 A 
ATOM     30  C   UNL     1      -4.621  -0.972   8.497  1.00  0.00     0.021 A 
ATOM     31  C   UNL     1      -5.620  -1.924   8.726  1.00  0.00     0.067 A 
BRANCH  31  32
ATOM     32  S   UNL     1      -5.188  -3.638   8.924  1.00  0.00     0.175 S 
ATOM     33  C   UNL     1      -5.402  -3.932  10.659  1.00  0.00     0.163 C 
ATOM     34  O   UNL     1      -6.176  -4.414   8.201  1.00  0.00    -0.224 OA
ATOM     35  O   UNL     1      -3.775  -3.774   8.619  1.00  0.00    -0.224 OA
ENDBRANCH  31  32
ENDBRANCH   9  26
ENDBRANCH   5   8
ENDBRANCH   3   4
ENDBRANCH   2   3
ENDBRANCH   1   2
BRANCH   1  36
ATOM     36  C   UNL     1     -10.551   6.378   9.838  1.00  0.00     0.002 C 
BRANCH  36  37
ATOM     37  C   UNL     1     -11.187   5.530  10.944  1.00  0.00     0.021 C 
BRANCH  37  38
ATOM     38  C   UNL     1     -10.688   5.869  12.344  1.00  0.00     0.116 C 
BRANCH  38  39
ATOM     39  N   UNL     1     -11.033   7.233  12.704  1.00  0.00    -0.352 N 
ATOM     40  C   UNL     1     -11.790   7.687  13.752  1.00  0.00     0.251 C 
ATOM     41  H   UNL     1     -10.672   7.930  12.111  1.00  0.00     0.163 HD
ATOM     42  O   UNL     1     -12.231   8.832  13.724  1.00  0.00    -0.269 OA
BRANCH  40  43
ATOM     43  C   UNL     1     -12.071   6.802  14.903  1.00  0.00     0.039 A 
ATOM     44  C   UNL     1     -13.324   6.874  15.515  1.00  0.00     0.014 A 
ATOM     45  C   UNL     1     -11.091   5.942  15.411  1.00  0.00     0.014 A 
ATOM     46  C   UNL     1     -13.597   6.073  16.623  1.00  0.00     0.010 A 
ATOM     47  C   UNL     1     -11.395   5.081  16.461  1.00  0.00     0.010 A 
ATOM     48  C   UNL     1     -12.642   5.158  17.097  1.00  0.00    -0.014 A 
BRANCH  48  49
ATOM     49  C   UNL     1     -12.931   4.313  18.285  1.00  0.00     0.031 A 
ATOM     50  C   UNL     1     -12.123   4.476  19.545  1.00  0.00     0.074 A 
ATOM     51  C   UNL     1     -13.912   3.393  18.219  1.00  0.00     0.049 A 
ATOM     52  N   UNL     1     -12.237   3.849  20.688  1.00  0.00    -0.248 NA
ATOM     53  C   UNL     1     -11.023   5.452  19.506  1.00  0.00     0.031 C 
ATOM     54  C   UNL     1     -14.724   3.111  17.033  1.00  0.00     0.029 A 
ATOM     55  N   UNL     1     -14.399   2.530  19.167  1.00  0.00    -0.354 N 
ATOM     56  C   UNL     1     -11.220   4.346  21.498  1.00  0.00     0.074 A 
ATOM     57  C   UNL     1     -10.457   5.270  20.688  1.00  0.00     0.031 C 
ATOM     58  C   UNL     1     -15.634   2.173  17.337  1.00  0.00     0.029 A 
ATOM     59  C   UNL     1     -15.445   1.755  18.722  1.00  0.00     0.049 A 
ATOM     60  H   UNL     1     -14.034   2.471  20.079  1.00  0.00     0.167 HD
ATOM     61  C   UNL     1     -10.966   4.077  22.803  1.00  0.00     0.034 A 
ATOM     62  C   UNL     1     -16.169   0.814  19.359  1.00  0.00     0.034 A 
ATOM     63  C   UNL     1     -11.747   3.155  23.593  1.00  0.00     0.049 A 
ATOM     64  C   UNL     1     -15.868   0.530  20.808  1.00  0.00     0.074 A 
ATOM     65  C   UNL     1     -11.616   2.844  24.935  1.00  0.00     0.029 A 
ATOM     66  N   UNL     1     -12.800   2.386  23.111  1.00  0.00    -0.354 N 
ATOM     67  N   UNL     1     -14.944   1.056  21.581  1.00  0.00    -0.248 NA
ATOM     68  C   UNL     1     -16.723  -0.457  21.476  1.00  0.00     0.031 C 
ATOM     69  C   UNL     1     -12.532   1.831  25.243  1.00  0.00     0.029 A 
ATOM     70  C   UNL     1     -13.302   1.576  24.119  1.00  0.00     0.049 A 
ATOM     71  H   UNL     1     -13.140   2.412  22.187  1.00  0.00     0.167 HD
ATOM     72  C   UNL     1     -15.129   0.483  22.837  1.00  0.00     0.074 A 
ATOM     73  C   UNL     1     -16.267  -0.406  22.718  1.00  0.00     0.031 C 
ATOM     74  C   UNL     1     -14.425   0.675  23.983  1.00  0.00     0.034 A 
BRANCH  61  75
ATOM     75  C   UNL     1      -9.776   4.765  23.436  1.00  0.00     0.023 A 
ATOM     76  C   UNL     1      -9.687   6.167  23.525  1.00  0.00     0.031 A 
ATOM     77  C   UNL     1      -8.694   4.011  23.924  1.00  0.00     0.131 A 
ATOM     78  C   UNL     1      -8.512   6.768  24.002  1.00  0.00     0.055 A 
ATOM     79  C   UNL     1      -7.566   4.614  24.485  1.00  0.00     0.041 A 
ATOM     80  F   UNL     1      -8.704   2.671  23.847  1.00  0.00    -0.206 F 
ATOM     81  C   UNL     1      -7.462   6.002  24.509  1.00  0.00     0.022 A 
BRANCH  78  82
ATOM     82  S   UNL     1      -8.308   8.559  23.790  1.00  0.00     0.124 S 
ATOM     83  O   UNL     1      -8.457   8.703  22.344  1.00  0.00    -0.237 OA
ATOM     84  O   UNL     1      -9.393   9.098  24.602  1.00  0.00    -0.237 OA
ATOM     85  O   UNL     1      -6.961   8.813  24.298  1.00  0.00    -0.744 OA
ENDBRANCH  78  82
ENDBRANCH  61  75
BRANCH  62  86
ATOM     86  C   UNL     1     -17.244   0.075  18.637  1.00  0.00     0.023 A 
ATOM     87  C   UNL     1     -18.591   0.190  19.017  1.00  0.00     0.031 A 
ATOM     88  C   UNL     1     -16.933  -0.784  17.567  1.00  0.00     0.131 A 
ATOM     89  C   UNL     1     -19.569  -0.578  18.365  1.00  0.00     0.055 A 
ATOM     90  C   UNL     1     -17.916  -1.501  16.885  1.00  0.00     0.041 A 
ATOM     91  F   UNL     1     -15.661  -0.925  17.158  1.00  0.00    -0.206 F 
ATOM     92  C   UNL     1     -19.243  -1.410  17.292  1.00  0.00     0.022 A 
BRANCH  89  93
ATOM     93  S   UNL     1     -21.270  -0.536  18.995  1.00  0.00     0.124 S 
ATOM     94  O   UNL     1     -21.088  -0.981  20.372  1.00  0.00    -0.237 OA
ATOM     95  O   UNL     1     -21.625   0.868  18.814  1.00  0.00    -0.237 OA
ATOM     96  O   UNL     1     -21.977  -1.472  18.124  1.00  0.00    -0.744 OA
ENDBRANCH  89  93
ENDBRANCH  62  86
BRANCH  74  97
ATOM     97  C   UNL     1     -14.904  -0.069  25.209  1.00  0.00     0.023 A 
ATOM     98  C   UNL     1     -14.911  -1.474  25.269  1.00  0.00     0.031 A 
ATOM     99  C   UNL     1     -15.406   0.639  26.317  1.00  0.00     0.131 A 
ATOM    100  C   UNL     1     -15.491  -2.125  26.368  1.00  0.00     0.055 A 
ATOM    101  C   UNL     1     -15.906  -0.015  27.444  1.00  0.00     0.041 A 
ATOM    102  F   UNL     1     -15.429   1.981  26.319  1.00  0.00    -0.206 F 
ATOM    103  C   UNL     1     -15.970  -1.405  27.465  1.00  0.00     0.022 A 
BRANCH 100 104
ATOM    104  S   UNL     1     -15.747  -3.919  26.276  1.00  0.00     0.124 S 
ATOM    105  O   UNL     1     -16.511  -4.052  25.040  1.00  0.00    -0.237 OA
ATOM    106  O   UNL     1     -14.380  -4.426  26.238  1.00  0.00    -0.237 OA
ATOM    107  O   UNL     1     -16.488  -4.222  27.499  1.00  0.00    -0.744 OA
ENDBRANCH 100 104
ENDBRANCH  74  97
ENDBRANCH  48  49
ENDBRANCH  40  43
ENDBRANCH  38  39
ENDBRANCH  37  38
ENDBRANCH  36  37
ENDBRANCH   1  36
TORSDOF 22
