REMARK SMILES CC(C)[C@H](C)CNC(=O)N1CC(n2cc(C(=O)NCCCCCCNC(=O)c3ccc(-c4c5nc(c(-c6cc(S(=O)(=O)[O-])ccc6F)c6ccc([nH]6)c(-c6cc(S(=O)(=O)[O-])ccc6F)c6nc(c(-c7cc(S(=O)(=O)[O-])ccc7F)c7ccc4[nH]7)C=C6)C=C5)cc3)nn2)C1
REMARK SMILES IDX 21 1 20 2 19 3 18 4 16 5 17 6 15 8 13 9 14 10 92 11 91 12
REMARK SMILES IDX 12 13 7 14 8 15 9 17 10 18 11 19 93 20 6 21 4 22 5 23 2 24
REMARK SMILES IDX 1 25 3 26 22 27 23 28 24 29 25 30 26 31 27 33 28 34 29 35
REMARK SMILES IDX 90 36 30 37 89 38 31 39 32 40 33 41 83 42 34 43 88 44 82 45
REMARK SMILES IDX 84 46 35 47 87 48 81 49 80 50 36 52 68 53 48 54 67 55 49 56
REMARK SMILES IDX 52 57 66 58 85 59 50 60 51 61 65 63 86 64 53 65 37 66 38 67
REMARK SMILES IDX 46 68 39 69 45 70 47 71 44 72 40 73 41 74 42 75 43 76 69 77
REMARK SMILES IDX 70 78 78 79 71 80 77 81 79 82 76 83 72 84 73 85 74 86 75 87
REMARK SMILES IDX 54 88 55 89 63 90 56 91 62 92 64 93 61 94 57 95 58 96 59 97
REMARK SMILES IDX 60 98
REMARK H PARENT 18 7 7 16 25 32 84 51 52 62
REMARK Flexibility Score: inf
ROOT
ATOM      1  C   UNL     1     -10.202   7.031   4.391  1.00  0.00     0.002 C 
ENDROOT
BRANCH   1   2
ATOM      2  C   UNL     1      -9.166   6.791   3.284  1.00  0.00     0.021 C 
BRANCH   2   3
ATOM      3  C   UNL     1      -8.873   5.316   3.020  1.00  0.00     0.116 C 
BRANCH   3   4
ATOM      4  N   UNL     1      -9.923   4.709   2.227  1.00  0.00    -0.351 N 
ATOM      5  C   UNL     1      -9.914   4.110   0.990  1.00  0.00     0.273 C 
ATOM      6  O   UNL     1     -10.960   3.559   0.638  1.00  0.00    -0.267 OA
ATOM      7  H   UNL     1     -10.809   4.729   2.655  1.00  0.00     0.163 HD
BRANCH   5   8
ATOM      8  C   UNL     1      -8.714   4.078   0.159  1.00  0.00     0.170 A 
ATOM      9  N   UNL     1      -6.779   4.325  -0.802  1.00  0.00    -0.245 N 
ATOM     10  C   UNL     1      -7.624   4.924   0.092  1.00  0.00     0.145 A 
ATOM     11  N   UNL     1      -7.332   3.222  -1.326  1.00  0.00    -0.066 NA
ATOM     12  N   UNL     1      -8.529   3.078  -0.775  1.00  0.00    -0.125 NA
BRANCH   9  13
ATOM     13  C   UNL     1      -5.435   4.756  -1.029  1.00  0.00     0.148 C 
ATOM     14  N   UNL     1      -1.407   3.820  -0.342  1.00  0.00    -0.338 N 
ATOM     15  C   UNL     1      -2.267   4.107  -1.353  1.00  0.00     0.317 C 
ATOM     16  H   UNL     1      -0.540   4.285  -0.387  1.00  0.00     0.165 HD
ATOM     17  O   UNL     1      -1.808   4.574  -2.395  1.00  0.00    -0.249 OA
ATOM     18  N   UNL     1      -3.591   3.864  -1.189  1.00  0.00    -0.320 N 
ATOM     19  C   UNL     1      -4.669   4.054  -2.159  1.00  0.00     0.150 C 
ATOM     20  C   UNL     1      -4.472   4.049  -0.049  1.00  0.00     0.150 C 
BRANCH  14  21
ATOM     21  C   UNL     1      -1.570   2.930   0.798  1.00  0.00     0.121 C 
BRANCH  21  22
ATOM     22  C   UNL     1      -1.150   1.482   0.465  1.00  0.00     0.008 C 
ATOM     23  C   UNL     1       0.378   1.403   0.287  1.00  0.00     0.010 C 
BRANCH  22  24
ATOM     24  C   UNL     1      -1.590   0.402   1.508  1.00  0.00    -0.013 C 
ATOM     25  C   UNL     1      -2.542   0.884   2.604  1.00  0.00     0.008 C 
ATOM     26  C   UNL     1      -2.225  -0.795   0.787  1.00  0.00     0.008 C 
ENDBRANCH  22  24
ENDBRANCH  21  22
ENDBRANCH  14  21
ENDBRANCH   9  13
ENDBRANCH   5   8
ENDBRANCH   3   4
ENDBRANCH   2   3
ENDBRANCH   1   2
BRANCH   1  27
ATOM     27  C   UNL     1      -9.886   6.396   5.756  1.00  0.00     0.002 C 
BRANCH  27  28
ATOM     28  C   UNL     1      -8.477   6.642   6.317  1.00  0.00     0.021 C 
BRANCH  28  29
ATOM     29  C   UNL     1      -8.182   8.102   6.619  1.00  0.00     0.116 C 
BRANCH  29  30
ATOM     30  N   UNL     1      -8.984   8.619   7.727  1.00  0.00    -0.352 N 
ATOM     31  C   UNL     1      -8.986   9.897   8.246  1.00  0.00     0.251 C 
ATOM     32  H   UNL     1      -9.597   7.977   8.153  1.00  0.00     0.163 HD
ATOM     33  O   UNL     1      -9.371  10.095   9.400  1.00  0.00    -0.269 OA
BRANCH  31  34
ATOM     34  C   UNL     1      -8.519  11.012   7.403  1.00  0.00     0.039 A 
ATOM     35  C   UNL     1      -7.774  12.071   7.924  1.00  0.00     0.014 A 
ATOM     36  C   UNL     1      -8.823  10.967   6.044  1.00  0.00     0.014 A 
ATOM     37  C   UNL     1      -7.274  13.032   7.045  1.00  0.00     0.010 A 
ATOM     38  C   UNL     1      -8.189  11.809   5.165  1.00  0.00     0.010 A 
ATOM     39  C   UNL     1      -7.462  12.880   5.658  1.00  0.00    -0.014 A 
BRANCH  39  40
ATOM     40  C   UNL     1      -6.782  13.749   4.699  1.00  0.00     0.031 A 
ATOM     41  C   UNL     1      -5.326  13.883   4.956  1.00  0.00     0.074 A 
ATOM     42  C   UNL     1      -7.343  14.250   3.574  1.00  0.00     0.049 A 
ATOM     43  N   UNL     1      -4.728  14.900   5.476  1.00  0.00    -0.248 NA
ATOM     44  C   UNL     1      -4.462  12.700   4.813  1.00  0.00     0.031 C 
ATOM     45  C   UNL     1      -8.684  14.013   3.029  1.00  0.00     0.029 A 
ATOM     46  N   UNL     1      -6.780  15.041   2.617  1.00  0.00    -0.354 N 
ATOM     47  C   UNL     1      -3.374  14.594   5.470  1.00  0.00     0.074 A 
ATOM     48  C   UNL     1      -3.300  13.171   5.274  1.00  0.00     0.031 C 
ATOM     49  C   UNL     1      -8.749  14.460   1.752  1.00  0.00     0.029 A 
ATOM     50  C   UNL     1      -7.519  15.166   1.439  1.00  0.00     0.049 A 
ATOM     51  H   UNL     1      -5.914  15.491   2.748  1.00  0.00     0.167 HD
ATOM     52  C   UNL     1      -2.445  15.585   5.366  1.00  0.00     0.034 A 
ATOM     53  C   UNL     1      -7.157  15.822   0.299  1.00  0.00     0.034 A 
ATOM     54  C   UNL     1      -3.043  16.878   5.642  1.00  0.00     0.049 A 
ATOM     55  C   UNL     1      -6.152  16.834   0.707  1.00  0.00     0.074 A 
ATOM     56  C   UNL     1      -3.735  17.412   6.715  1.00  0.00     0.029 A 
ATOM     57  N   UNL     1      -3.349  17.694   4.574  1.00  0.00    -0.354 N 
ATOM     58  N   UNL     1      -6.439  17.843   1.482  1.00  0.00    -0.248 NA
ATOM     59  C   UNL     1      -4.750  16.445   0.687  1.00  0.00     0.031 C 
ATOM     60  C   UNL     1      -4.805  18.152   6.126  1.00  0.00     0.029 A 
ATOM     61  C   UNL     1      -4.646  18.122   4.739  1.00  0.00     0.049 A 
ATOM     62  H   UNL     1      -2.750  17.927   3.829  1.00  0.00     0.167 HD
ATOM     63  C   UNL     1      -5.383  17.916   2.375  1.00  0.00     0.074 A 
ATOM     64  C   UNL     1      -4.330  17.090   1.780  1.00  0.00     0.031 C 
ATOM     65  C   UNL     1      -5.556  18.398   3.642  1.00  0.00     0.034 A 
BRANCH  52  66
ATOM     66  C   UNL     1      -1.123  15.455   4.640  1.00  0.00     0.023 A 
ATOM     67  C   UNL     1      -0.311  16.605   4.593  1.00  0.00     0.031 A 
ATOM     68  C   UNL     1      -0.752  14.409   3.765  1.00  0.00     0.131 A 
ATOM     69  C   UNL     1       0.706  16.733   3.633  1.00  0.00     0.055 A 
ATOM     70  C   UNL     1       0.306  14.516   2.858  1.00  0.00     0.041 A 
ATOM     71  F   UNL     1      -1.436  13.265   3.666  1.00  0.00    -0.206 F 
ATOM     72  C   UNL     1       1.020  15.697   2.761  1.00  0.00     0.022 A 
BRANCH  69  73
ATOM     73  S   UNL     1       1.478  18.357   3.424  1.00  0.00     0.124 S 
ATOM     74  O   UNL     1       0.314  19.203   3.190  1.00  0.00    -0.237 OA
ATOM     75  O   UNL     1       2.156  18.532   4.705  1.00  0.00    -0.237 OA
ATOM     76  O   UNL     1       2.357  18.167   2.273  1.00  0.00    -0.744 OA
ENDBRANCH  69  73
ENDBRANCH  52  66
BRANCH  53  77
ATOM     77  C   UNL     1      -7.372  15.425  -1.125  1.00  0.00     0.023 A 
ATOM     78  C   UNL     1      -7.153  16.309  -2.211  1.00  0.00     0.031 A 
ATOM     79  C   UNL     1      -7.526  14.060  -1.451  1.00  0.00     0.131 A 
ATOM     80  C   UNL     1      -7.076  15.815  -3.538  1.00  0.00     0.055 A 
ATOM     81  C   UNL     1      -7.438  13.578  -2.761  1.00  0.00     0.041 A 
ATOM     82  F   UNL     1      -7.672  13.130  -0.494  1.00  0.00    -0.206 F 
ATOM     83  C   UNL     1      -7.198  14.451  -3.809  1.00  0.00     0.022 A 
BRANCH  80  84
ATOM     84  S   UNL     1      -6.708  16.927  -4.941  1.00  0.00     0.124 S 
ATOM     85  O   UNL     1      -7.965  17.651  -5.099  1.00  0.00    -0.237 OA
ATOM     86  O   UNL     1      -5.572  17.698  -4.448  1.00  0.00    -0.237 OA
ATOM     87  O   UNL     1      -6.391  16.005  -6.033  1.00  0.00    -0.744 OA
ENDBRANCH  80  84
ENDBRANCH  53  77
BRANCH  65  88
ATOM     88  C   UNL     1      -6.859  19.105   3.976  1.00  0.00     0.023 A 
ATOM     89  C   UNL     1      -8.156  18.555   3.823  1.00  0.00     0.031 A 
ATOM     90  C   UNL     1      -6.764  20.374   4.575  1.00  0.00     0.131 A 
ATOM     91  C   UNL     1      -9.289  19.282   4.248  1.00  0.00     0.055 A 
ATOM     92  C   UNL     1      -7.883  21.078   5.016  1.00  0.00     0.041 A 
ATOM     93  F   UNL     1      -5.564  20.945   4.769  1.00  0.00    -0.206 F 
ATOM     94  C   UNL     1      -9.152  20.537   4.847  1.00  0.00     0.022 A 
BRANCH  91  95
ATOM     95  S   UNL     1     -10.973  18.622   4.003  1.00  0.00     0.124 S 
ATOM     96  O   UNL     1     -10.972  18.189   2.611  1.00  0.00    -0.237 OA
ATOM     97  O   UNL     1     -11.046  17.559   5.002  1.00  0.00    -0.237 OA
ATOM     98  O   UNL     1     -11.833  19.774   4.280  1.00  0.00    -0.744 OA
ENDBRANCH  91  95
ENDBRANCH  65  88
ENDBRANCH  39  40
ENDBRANCH  31  34
ENDBRANCH  29  30
ENDBRANCH  28  29
ENDBRANCH  27  28
ENDBRANCH   1  27
TORSDOF 20
