REMARK SMILES Cc1ccc([C@H](C)NC(=O)[C@H]2[C@@H]3CC[C@@H](C3)[C@@H]2C(=O)NCCCCCCNC(=O)c2ccc(-c3c4nc(c(-c5cc(S(=O)(=O)[O-])ccc5F)c5ccc([nH]5)c(-c5cc(S(=O)(=O)[O-])ccc5F)c5nc(c(-c6cc(S(=O)(=O)[O-])ccc6F)c6ccc3[nH]6)C=C5)C=C4)cc2)cc1
REMARK SMILES IDX 23 1 22 2 21 3 20 4 18 5 19 6 17 8 11 9 12 10 13 11 16 12
REMARK SMILES IDX 15 13 14 14 9 15 8 16 10 18 6 19 7 20 5 21 1 22 2 23 3 24
REMARK SMILES IDX 94 25 4 26 93 27 24 28 25 29 26 30 27 31 28 32 29 34 30 35
REMARK SMILES IDX 31 36 92 37 32 38 91 39 33 40 34 41 35 42 85 43 36 44 90 45
REMARK SMILES IDX 84 46 86 47 37 48 89 49 83 50 82 51 38 53 70 54 50 55 69 56
REMARK SMILES IDX 51 57 54 58 68 59 87 60 52 61 53 62 67 64 88 65 55 66 39 67
REMARK SMILES IDX 40 68 48 69 41 70 47 71 49 72 46 73 42 74 43 75 44 76 45 77
REMARK SMILES IDX 71 78 72 79 80 80 73 81 79 82 81 83 78 84 74 85 75 86 76 87
REMARK SMILES IDX 77 88 56 89 57 90 65 91 58 92 64 93 66 94 63 95 59 96 60 97
REMARK SMILES IDX 61 98 62 99
REMARK H PARENT 20 7 8 17 27 33 86 52 54 63
REMARK Flexibility Score: inf
ROOT
ATOM      1  C   UNL     1      -9.926   0.359   1.718  1.00  0.00     0.002 C 
ENDROOT
BRANCH   1   2
ATOM      2  C   UNL     1      -8.419   0.359   2.021  1.00  0.00     0.021 C 
BRANCH   2   3
ATOM      3  C   UNL     1      -7.531   0.212   0.784  1.00  0.00     0.116 C 
BRANCH   3   4
ATOM      4  N   UNL     1      -7.487   1.444   0.023  1.00  0.00    -0.356 N 
ATOM      5  C   UNL     1      -6.528   2.387  -0.139  1.00  0.00     0.224 C 
ATOM      6  O   UNL     1      -6.804   3.335  -0.883  1.00  0.00    -0.275 OA
ATOM      7  H   UNL     1      -8.316   1.634  -0.473  1.00  0.00     0.163 HD
BRANCH   5   8
ATOM      8  C   UNL     1      -5.102   2.226   0.391  1.00  0.00     0.094 C 
ATOM      9  C   UNL     1      -4.839   1.685   1.800  1.00  0.00     0.094 C 
ATOM     10  C   UNL     1      -3.930   2.761   2.452  1.00  0.00     0.002 C 
ATOM     11  C   UNL     1      -4.801   3.988   2.783  1.00  0.00     0.005 C 
ATOM     12  C   UNL     1      -3.120   3.294   1.278  1.00  0.00     0.009 C 
ATOM     13  C   UNL     1      -4.363   3.601   0.442  1.00  0.00     0.002 C 
ATOM     14  C   UNL     1      -5.094   4.576   1.394  1.00  0.00     0.005 C 
BRANCH   9  15
ATOM     15  C   UNL     1      -4.252   0.279   1.968  1.00  0.00     0.224 C 
ATOM     16  N   UNL     1      -3.425  -0.377   1.125  1.00  0.00    -0.349 N 
ATOM     17  H   UNL     1      -3.244  -1.295   1.431  1.00  0.00     0.164 HD
ATOM     18  O   UNL     1      -4.531  -0.348   3.001  1.00  0.00    -0.275 OA
BRANCH  16  19
ATOM     19  C   UNL     1      -2.729  -0.076  -0.122  1.00  0.00     0.109 C 
ATOM     20  C   UNL     1      -1.239  -0.396   0.032  1.00  0.00     0.036 C 
BRANCH  19  21
ATOM     21  C   UNL     1      -3.323  -0.824  -1.306  1.00  0.00    -0.026 A 
ATOM     22  C   UNL     1      -4.755  -2.855  -4.853  1.00  0.00     0.044 C 
ATOM     23  C   UNL     1      -4.282  -2.164  -3.609  1.00  0.00    -0.051 A 
ATOM     24  C   UNL     1      -4.303  -0.769  -3.540  1.00  0.00     0.004 A 
ATOM     25  C   UNL     1      -3.808  -2.888  -2.510  1.00  0.00     0.004 A 
ATOM     26  C   UNL     1      -3.823  -0.109  -2.406  1.00  0.00     0.006 A 
ATOM     27  C   UNL     1      -3.340  -2.226  -1.368  1.00  0.00     0.006 A 
ENDBRANCH  19  21
ENDBRANCH  16  19
ENDBRANCH   9  15
ENDBRANCH   5   8
ENDBRANCH   3   4
ENDBRANCH   2   3
ENDBRANCH   1   2
BRANCH   1  28
ATOM     28  C   UNL     1     -10.470  -0.869   0.964  1.00  0.00     0.002 C 
BRANCH  28  29
ATOM     29  C   UNL     1     -10.075  -2.231   1.540  1.00  0.00     0.021 C 
BRANCH  29  30
ATOM     30  C   UNL     1     -10.711  -2.527   2.893  1.00  0.00     0.116 C 
BRANCH  30  31
ATOM     31  N   UNL     1     -11.885  -3.390   2.830  1.00  0.00    -0.352 N 
ATOM     32  C   UNL     1     -12.769  -3.733   3.839  1.00  0.00     0.251 C 
ATOM     33  H   UNL     1     -12.075  -3.783   1.947  1.00  0.00     0.163 HD
ATOM     34  O   UNL     1     -13.656  -4.551   3.646  1.00  0.00    -0.269 OA
BRANCH  32  35
ATOM     35  C   UNL     1     -12.685  -3.022   5.138  1.00  0.00     0.039 A 
ATOM     36  C   UNL     1     -13.854  -2.440   5.646  1.00  0.00     0.014 A 
ATOM     37  C   UNL     1     -11.454  -2.762   5.731  1.00  0.00     0.014 A 
ATOM     38  C   UNL     1     -13.756  -1.433   6.606  1.00  0.00     0.010 A 
ATOM     39  C   UNL     1     -11.346  -1.697   6.602  1.00  0.00     0.010 A 
ATOM     40  C   UNL     1     -12.491  -0.999   7.003  1.00  0.00    -0.014 A 
BRANCH  40  41
ATOM     41  C   UNL     1     -12.257   0.249   7.720  1.00  0.00     0.031 A 
ATOM     42  C   UNL     1     -11.799   0.251   9.126  1.00  0.00     0.074 A 
ATOM     43  C   UNL     1     -12.398   1.433   7.085  1.00  0.00     0.049 A 
ATOM     44  N   UNL     1     -12.027   1.217   9.953  1.00  0.00    -0.248 NA
ATOM     45  C   UNL     1     -11.077  -0.860   9.732  1.00  0.00     0.031 C 
ATOM     46  C   UNL     1     -11.923   2.737   7.540  1.00  0.00     0.029 A 
ATOM     47  N   UNL     1     -13.198   1.725   5.990  1.00  0.00    -0.354 N 
ATOM     48  C   UNL     1     -11.243   1.012  11.063  1.00  0.00     0.074 A 
ATOM     49  C   UNL     1     -10.739  -0.335  10.915  1.00  0.00     0.031 C 
ATOM     50  C   UNL     1     -12.605   3.698   6.899  1.00  0.00     0.029 A 
ATOM     51  C   UNL     1     -13.639   3.050   6.114  1.00  0.00     0.049 A 
ATOM     52  H   UNL     1     -13.418   1.110   5.254  1.00  0.00     0.167 HD
ATOM     53  C   UNL     1     -10.985   2.051  11.907  1.00  0.00     0.034 A 
ATOM     54  C   UNL     1     -14.967   3.360   6.160  1.00  0.00     0.034 A 
ATOM     55  C   UNL     1     -11.627   3.288  11.460  1.00  0.00     0.049 A 
ATOM     56  C   UNL     1     -15.391   4.062   7.431  1.00  0.00     0.074 A 
ATOM     57  C   UNL     1     -11.144   4.421  10.823  1.00  0.00     0.029 A 
ATOM     58  N   UNL     1     -13.012   3.387  11.436  1.00  0.00    -0.354 N 
ATOM     59  N   UNL     1     -14.668   4.118   8.515  1.00  0.00    -0.248 NA
ATOM     60  C   UNL     1     -16.678   4.728   7.594  1.00  0.00     0.031 C 
ATOM     61  C   UNL     1     -12.251   5.213  10.430  1.00  0.00     0.029 A 
ATOM     62  C   UNL     1     -13.405   4.568  10.835  1.00  0.00     0.049 A 
ATOM     63  H   UNL     1     -13.628   2.710  11.797  1.00  0.00     0.167 HD
ATOM     64  C   UNL     1     -15.357   4.776   9.508  1.00  0.00     0.074 A 
ATOM     65  C   UNL     1     -16.608   5.148   8.870  1.00  0.00     0.031 C 
ATOM     66  C   UNL     1     -14.817   4.927  10.759  1.00  0.00     0.034 A 
BRANCH  53  67
ATOM     67  C   UNL     1      -9.909   2.046  12.974  1.00  0.00     0.023 A 
ATOM     68  C   UNL     1      -9.316   3.269  13.355  1.00  0.00     0.031 A 
ATOM     69  C   UNL     1      -9.404   0.907  13.628  1.00  0.00     0.131 A 
ATOM     70  C   UNL     1      -8.215   3.319  14.227  1.00  0.00     0.055 A 
ATOM     71  C   UNL     1      -8.274   0.947  14.458  1.00  0.00     0.041 A 
ATOM     72  F   UNL     1     -10.013  -0.283  13.543  1.00  0.00    -0.206 F 
ATOM     73  C   UNL     1      -7.660   2.156  14.748  1.00  0.00     0.022 A 
BRANCH  70  74
ATOM     74  S   UNL     1      -7.516   4.934  14.666  1.00  0.00     0.124 S 
ATOM     75  O   UNL     1      -7.147   5.478  13.363  1.00  0.00    -0.237 OA
ATOM     76  O   UNL     1      -8.634   5.581  15.344  1.00  0.00    -0.237 OA
ATOM     77  O   UNL     1      -6.388   4.591  15.531  1.00  0.00    -0.744 OA
ENDBRANCH  70  74
ENDBRANCH  53  67
BRANCH  54  78
ATOM     78  C   UNL     1     -15.812   2.428   5.363  1.00  0.00     0.023 A 
ATOM     79  C   UNL     1     -15.585   2.381   3.972  1.00  0.00     0.031 A 
ATOM     80  C   UNL     1     -16.481   1.351   5.959  1.00  0.00     0.131 A 
ATOM     81  C   UNL     1     -15.888   1.221   3.246  1.00  0.00     0.055 A 
ATOM     82  C   UNL     1     -16.828   0.213   5.219  1.00  0.00     0.041 A 
ATOM     83  F   UNL     1     -16.691   1.324   7.284  1.00  0.00    -0.206 F 
ATOM     84  C   UNL     1     -16.495   0.127   3.866  1.00  0.00     0.022 A 
BRANCH  81  85
ATOM     85  S   UNL     1     -15.246   1.073   1.552  1.00  0.00     0.124 S 
ATOM     86  O   UNL     1     -16.209   1.863   0.793  1.00  0.00    -0.237 OA
ATOM     87  O   UNL     1     -13.905   1.642   1.672  1.00  0.00    -0.237 OA
ATOM     88  O   UNL     1     -15.273  -0.366   1.298  1.00  0.00    -0.744 OA
ENDBRANCH  81  85
ENDBRANCH  54  78
BRANCH  66  89
ATOM     89  C   UNL     1     -15.486   5.473  12.017  1.00  0.00     0.023 A 
ATOM     90  C   UNL     1     -16.809   5.930  12.080  1.00  0.00     0.031 A 
ATOM     91  C   UNL     1     -14.781   5.522  13.253  1.00  0.00     0.131 A 
ATOM     92  C   UNL     1     -17.368   6.416  13.282  1.00  0.00     0.055 A 
ATOM     93  C   UNL     1     -15.345   5.972  14.451  1.00  0.00     0.041 A 
ATOM     94  F   UNL     1     -13.508   5.121  13.366  1.00  0.00    -0.206 F 
ATOM     95  C   UNL     1     -16.649   6.428  14.473  1.00  0.00     0.022 A 
BRANCH  92  96
ATOM     96  S   UNL     1     -19.061   7.062  13.245  1.00  0.00     0.124 S 
ATOM     97  O   UNL     1     -18.943   8.173  12.304  1.00  0.00    -0.237 OA
ATOM     98  O   UNL     1     -19.822   5.910  12.770  1.00  0.00    -0.237 OA
ATOM     99  O   UNL     1     -19.318   7.447  14.631  1.00  0.00    -0.744 OA
ENDBRANCH  92  96
ENDBRANCH  66  89
ENDBRANCH  40  41
ENDBRANCH  32  35
ENDBRANCH  30  31
ENDBRANCH  29  30
ENDBRANCH  28  29
ENDBRANCH   1  28
TORSDOF 19
