REMARK SMILES Cc1cccc(C(=O)NCCCCCCNC(=O)c2ccc(-c3c4nc(c(-c5cc(S(=O)(=O)[O-])ccc5F)c5ccc([nH]5)c(-c5cc(S(=O)(=O)[O-])ccc5F)c5nc(c(-c6cc(S(=O)(=O)[O-])ccc6F)c6ccc3[nH]6)C=C5)C=C4)cc2)c1O[C@H](C)[C@H](C)O
REMARK SMILES IDX 12 1 11 2 10 3 9 4 7 5 8 6 6 8 1 9 2 10 3 11 82 12 4 13 5 14
REMARK SMILES IDX 83 15 84 16 85 17 86 18 87 19 88 20 13 22 14 23 15 24 16 25
REMARK SMILES IDX 17 26 18 28 19 29 20 30 81 31 21 32 80 33 22 34 23 35 24 36
REMARK SMILES IDX 74 37 25 38 79 39 73 40 75 41 26 42 78 43 72 44 71 45 27 47
REMARK SMILES IDX 59 48 39 49 58 50 40 51 43 52 57 53 76 54 41 55 42 56 56 58
REMARK SMILES IDX 77 59 44 60 28 61 29 62 37 63 30 64 36 65 38 66 35 67 31 68
REMARK SMILES IDX 32 69 33 70 34 71 60 72 61 73 69 74 62 75 68 76 70 77 67 78
REMARK SMILES IDX 63 79 64 80 65 81 66 82 45 83 46 84 54 85 47 86 53 87 55 88
REMARK SMILES IDX 52 89 48 90 49 91 50 92 51 93
REMARK H PARENT 9 7 88 21 16 27 75 46 43 57
REMARK Flexibility Score: inf
ROOT
ATOM      1  C   UNL     1       4.083   5.234  -0.772  1.00  0.00     0.002 C 
ENDROOT
BRANCH   1   2
ATOM      2  C   UNL     1       3.565   3.805  -1.006  1.00  0.00     0.021 C 
BRANCH   2   3
ATOM      3  C   UNL     1       4.116   3.024  -2.217  1.00  0.00     0.116 C 
BRANCH   3   4
ATOM      4  N   UNL     1       3.923   1.547  -2.048  1.00  0.00    -0.352 N 
ATOM      5  C   UNL     1       3.911   0.590  -3.072  1.00  0.00     0.255 C 
ATOM      6  O   UNL     1       4.964   0.451  -3.704  1.00  0.00    -0.269 OA
ATOM      7  H   UNL     1       3.792   1.218  -1.129  1.00  0.00     0.163 HD
BRANCH   5   8
ATOM      8  C   UNL     1       2.813  -0.504  -3.255  1.00  0.00     0.082 A 
ATOM      9  C   UNL     1      -0.752  -1.442  -4.474  1.00  0.00     0.048 C 
ATOM     10  C   UNL     1       0.705  -1.563  -4.058  1.00  0.00    -0.008 A 
ATOM     11  C   UNL     1       1.329  -2.797  -4.194  1.00  0.00     0.007 A 
ATOM     12  C   UNL     1       1.411  -0.449  -3.495  1.00  0.00     0.135 A 
ATOM     13  C   UNL     1       2.659  -2.918  -3.831  1.00  0.00     0.001 A 
ATOM     14  C   UNL     1       3.386  -1.792  -3.405  1.00  0.00     0.018 A 
BRANCH  12  15
ATOM     15  O   UNL     1       0.466   0.506  -3.289  1.00  0.00    -0.487 OA
BRANCH  15  16
ATOM     16  C   UNL     1       0.650   1.632  -2.455  1.00  0.00     0.198 C 
ATOM     17  C   UNL     1       1.304   2.585  -3.443  1.00  0.00     0.056 C 
BRANCH  16  18
ATOM     18  C   UNL     1       0.904   1.134  -0.987  1.00  0.00     0.151 C 
ATOM     19  C   UNL     1       0.573   2.082   0.151  1.00  0.00     0.042 C 
BRANCH  18  20
ATOM     20  O   UNL     1       2.136   0.510  -0.661  1.00  0.00    -0.390 OA
ATOM     21  H   UNL     1       2.831   1.183  -0.593  1.00  0.00     0.211 HD
ENDBRANCH  18  20
ENDBRANCH  16  18
ENDBRANCH  15  16
ENDBRANCH  12  15
ENDBRANCH   5   8
ENDBRANCH   3   4
ENDBRANCH   2   3
ENDBRANCH   1   2
BRANCH   1  22
ATOM     22  C   UNL     1       4.175   6.177  -1.975  1.00  0.00     0.002 C 
BRANCH  22  23
ATOM     23  C   UNL     1       2.869   6.499  -2.689  1.00  0.00     0.021 C 
BRANCH  23  24
ATOM     24  C   UNL     1       1.904   7.403  -1.928  1.00  0.00     0.116 C 
BRANCH  24  25
ATOM     25  N   UNL     1       2.180   8.833  -2.043  1.00  0.00    -0.352 N 
ATOM     26  C   UNL     1       1.458   9.911  -1.540  1.00  0.00     0.251 C 
ATOM     27  H   UNL     1       2.992   9.067  -2.548  1.00  0.00     0.163 HD
ATOM     28  O   UNL     1       1.804  11.056  -1.738  1.00  0.00    -0.269 OA
BRANCH  26  29
ATOM     29  C   UNL     1       0.311   9.630  -0.637  1.00  0.00     0.039 A 
ATOM     30  C   UNL     1       0.322  10.236   0.625  1.00  0.00     0.014 A 
ATOM     31  C   UNL     1      -0.597   8.617  -0.927  1.00  0.00     0.014 A 
ATOM     32  C   UNL     1      -0.383   9.641   1.667  1.00  0.00     0.010 A 
ATOM     33  C   UNL     1      -1.217   7.967   0.119  1.00  0.00     0.010 A 
ATOM     34  C   UNL     1      -1.048   8.440   1.423  1.00  0.00    -0.014 A 
BRANCH  34  35
ATOM     35  C   UNL     1      -1.494   7.557   2.489  1.00  0.00     0.031 A 
ATOM     36  C   UNL     1      -2.906   7.546   2.898  1.00  0.00     0.074 A 
ATOM     37  C   UNL     1      -0.608   6.750   3.114  1.00  0.00     0.049 A 
ATOM     38  N   UNL     1      -3.297   7.292   4.099  1.00  0.00    -0.248 NA
ATOM     39  C   UNL     1      -3.997   7.868   1.985  1.00  0.00     0.031 C 
ATOM     40  C   UNL     1      -0.897   5.684   4.067  1.00  0.00     0.029 A 
ATOM     41  N   UNL     1       0.776   6.906   3.175  1.00  0.00    -0.354 N 
ATOM     42  C   UNL     1      -4.661   7.151   4.066  1.00  0.00     0.074 A 
ATOM     43  C   UNL     1      -5.060   7.592   2.748  1.00  0.00     0.031 C 
ATOM     44  C   UNL     1       0.204   5.448   4.798  1.00  0.00     0.029 A 
ATOM     45  C   UNL     1       1.194   6.448   4.438  1.00  0.00     0.049 A 
ATOM     46  H   UNL     1       1.354   7.269   2.465  1.00  0.00     0.167 HD
ATOM     47  C   UNL     1      -5.301   6.548   5.104  1.00  0.00     0.034 A 
ATOM     48  C   UNL     1       1.808   7.298   5.311  1.00  0.00     0.034 A 
ATOM     49  C   UNL     1      -4.374   6.118   6.146  1.00  0.00     0.049 A 
ATOM     50  C   UNL     1       1.031   7.552   6.592  1.00  0.00     0.074 A 
ATOM     51  C   UNL     1      -3.801   4.903   6.485  1.00  0.00     0.029 A 
ATOM     52  N   UNL     1      -3.675   7.078   6.856  1.00  0.00    -0.354 N 
ATOM     53  N   UNL     1      -0.146   7.059   6.866  1.00  0.00    -0.248 NA
ATOM     54  C   UNL     1       1.499   8.471   7.628  1.00  0.00     0.031 C 
ATOM     55  C   UNL     1      -2.752   5.150   7.416  1.00  0.00     0.029 A 
ATOM     56  C   UNL     1      -2.707   6.510   7.661  1.00  0.00     0.049 A 
ATOM     57  H   UNL     1      -3.846   8.046   6.795  1.00  0.00     0.167 HD
ATOM     58  C   UNL     1      -0.629   7.630   8.020  1.00  0.00     0.074 A 
ATOM     59  C   UNL     1       0.446   8.503   8.461  1.00  0.00     0.031 C 
ATOM     60  C   UNL     1      -1.892   7.384   8.490  1.00  0.00     0.034 A 
BRANCH  47  61
ATOM     61  C   UNL     1      -6.738   6.109   5.031  1.00  0.00     0.023 A 
ATOM     62  C   UNL     1      -7.122   4.912   5.662  1.00  0.00     0.031 A 
ATOM     63  C   UNL     1      -7.756   6.799   4.347  1.00  0.00     0.131 A 
ATOM     64  C   UNL     1      -8.418   4.393   5.516  1.00  0.00     0.055 A 
ATOM     65  C   UNL     1      -9.036   6.260   4.157  1.00  0.00     0.041 A 
ATOM     66  F   UNL     1      -7.557   8.034   3.859  1.00  0.00    -0.206 F 
ATOM     67  C   UNL     1      -9.369   5.041   4.732  1.00  0.00     0.022 A 
BRANCH  64  68
ATOM     68  S   UNL     1      -8.838   2.853   6.374  1.00  0.00     0.124 S 
ATOM     69  O   UNL     1      -7.860   1.918   5.825  1.00  0.00    -0.237 OA
ATOM     70  O   UNL     1      -8.662   3.221   7.774  1.00  0.00    -0.237 OA
ATOM     71  O   UNL     1     -10.221   2.606   5.969  1.00  0.00    -0.744 OA
ENDBRANCH  64  68
ENDBRANCH  47  61
BRANCH  48  72
ATOM     72  C   UNL     1       2.680   8.297   4.628  1.00  0.00     0.023 A 
ATOM     73  C   UNL     1       3.819   7.825   3.941  1.00  0.00     0.031 A 
ATOM     74  C   UNL     1       2.219   9.587   4.329  1.00  0.00     0.131 A 
ATOM     75  C   UNL     1       4.386   8.586   2.908  1.00  0.00     0.055 A 
ATOM     76  C   UNL     1       2.805  10.353   3.315  1.00  0.00     0.041 A 
ATOM     77  F   UNL     1       1.121  10.075   4.925  1.00  0.00    -0.206 F 
ATOM     78  C   UNL     1       3.865   9.838   2.571  1.00  0.00     0.022 A 
BRANCH  75  79
ATOM     79  S   UNL     1       5.672   7.856   1.853  1.00  0.00     0.124 S 
ATOM     80  O   UNL     1       6.892   8.398   2.439  1.00  0.00    -0.237 OA
ATOM     81  O   UNL     1       5.470   6.420   2.026  1.00  0.00    -0.237 OA
ATOM     82  O   UNL     1       5.331   8.361   0.525  1.00  0.00    -0.744 OA
ENDBRANCH  75  79
ENDBRANCH  48  72
BRANCH  60  83
ATOM     83  C   UNL     1      -2.495   7.991   9.745  1.00  0.00     0.023 A 
ATOM     84  C   UNL     1      -1.721   8.395  10.842  1.00  0.00     0.031 A 
ATOM     85  C   UNL     1      -3.898   8.132   9.909  1.00  0.00     0.131 A 
ATOM     86  C   UNL     1      -2.311   9.009  11.964  1.00  0.00     0.055 A 
ATOM     87  C   UNL     1      -4.487   8.678  11.052  1.00  0.00     0.041 A 
ATOM     88  F   UNL     1      -4.770   7.768   8.960  1.00  0.00    -0.206 F 
ATOM     89  C   UNL     1      -3.692   9.145  12.082  1.00  0.00     0.022 A 
BRANCH  86  90
ATOM     90  S   UNL     1      -1.228   9.684  13.248  1.00  0.00     0.124 S 
ATOM     91  O   UNL     1      -0.408   8.532  13.607  1.00  0.00    -0.237 OA
ATOM     92  O   UNL     1      -0.541  10.752  12.526  1.00  0.00    -0.237 OA
ATOM     93  O   UNL     1      -2.157  10.134  14.283  1.00  0.00    -0.744 OA
ENDBRANCH  86  90
ENDBRANCH  60  83
ENDBRANCH  34  35
ENDBRANCH  26  29
ENDBRANCH  24  25
ENDBRANCH  23  24
ENDBRANCH  22  23
ENDBRANCH   1  22
TORSDOF 20
