REMARK SMILES O=C1NC(=S)S/C1=C\c1ccc(OCc2cn(-c3ccc(C(=O)NCCCCCCNC(=O)c4ccc(-c5c6nc(c(-c7cc(S(=O)(=O)[O-])ccc7F)c7ccc([nH]7)c(-c7cc(S(=O)(=O)[O-])ccc7F)c7nc(c(-c8cc(S(=O)(=O)[O-])ccc8F)c8ccc5[nH]8)C=C7)C=C6)cc4)cc3)nn2)cc1
REMARK SMILES IDX 26 1 25 2 24 3 22 4 23 5 21 7 18 8 19 9 98 10 20 11 97 12
REMARK SMILES IDX 17 13 15 14 16 15 100 16 99 17 14 18 13 19 12 20 9 21 10 22
REMARK SMILES IDX 102 23 11 24 101 25 8 26 1 27 2 28 3 29 7 30 4 31 6 33 5 34
REMARK SMILES IDX 27 35 28 36 29 37 30 38 31 39 32 40 33 42 34 43 35 44 96 45
REMARK SMILES IDX 36 46 95 47 37 48 38 49 39 50 89 51 40 52 94 53 88 54 90 55
REMARK SMILES IDX 41 56 93 57 87 58 86 59 42 61 74 62 54 63 73 64 55 65 58 66
REMARK SMILES IDX 72 67 91 68 56 69 57 70 71 72 92 73 59 74 43 75 44 76 52 77
REMARK SMILES IDX 45 78 51 79 53 80 50 81 46 82 47 83 48 84 49 85 75 86 76 87
REMARK SMILES IDX 84 88 77 89 83 90 85 91 82 92 78 93 79 94 80 95 81 96 60 97
REMARK SMILES IDX 61 98 69 99 62 100 68 101 70 102 67 103 63 104 64 105 65 106
REMARK SMILES IDX 66 107
REMARK H PARENT 24 6 3 32 31 41 90 60 58 71
REMARK Flexibility Score: inf
ROOT
ATOM      1  C   UNL     1       6.840  10.460   2.073  1.00  0.00     0.021 C 
ENDROOT
BRANCH   1   2
ATOM      2  C   UNL     1       6.338  10.925   0.705  1.00  0.00     0.116 C 
BRANCH   2   3
ATOM      3  N   UNL     1       6.964  10.143  -0.341  1.00  0.00    -0.352 N 
ATOM      4  C   UNL     1       6.534   9.091  -1.105  1.00  0.00     0.251 C 
ATOM      5  O   UNL     1       7.335   8.617  -1.912  1.00  0.00    -0.269 OA
ATOM      6  H   UNL     1       7.886  10.424  -0.544  1.00  0.00     0.163 HD
BRANCH   4   7
ATOM      7  C   UNL     1       5.137   8.570  -1.073  1.00  0.00     0.039 A 
ATOM      8  C   UNL     1       2.457   7.771  -1.315  1.00  0.00     0.066 A 
ATOM      9  C   UNL     1       3.369   7.470  -2.333  1.00  0.00     0.029 A 
ATOM     10  C   UNL     1       2.897   8.386  -0.143  1.00  0.00     0.029 A 
ATOM     11  C   UNL     1       4.692   7.900  -2.223  1.00  0.00     0.016 A 
ATOM     12  C   UNL     1       4.248   8.715  -0.004  1.00  0.00     0.016 A 
BRANCH   8  13
ATOM     13  N   UNL     1       1.099   7.433  -1.477  1.00  0.00    -0.220 N 
ATOM     14  C   UNL     1      -1.077   7.298  -1.385  1.00  0.00     0.120 A 
ATOM     15  C   UNL     1      -0.008   8.029  -0.913  1.00  0.00     0.144 A 
ATOM     16  N   UNL     1      -0.603   6.347  -2.251  1.00  0.00    -0.131 NA
ATOM     17  N   UNL     1       0.711   6.461  -2.328  1.00  0.00    -0.062 NA
BRANCH  14  18
ATOM     18  C   UNL     1      -2.548   7.473  -1.193  1.00  0.00     0.289 C 
BRANCH  18  19
ATOM     19  O   UNL     1      -3.133   6.726  -0.113  1.00  0.00    -0.487 OA
BRANCH  19  20
ATOM     20  C   UNL     1      -3.150   5.360  -0.192  1.00  0.00     0.119 A 
ATOM     21  C   UNL     1      -2.923   2.566  -0.005  1.00  0.00    -0.024 A 
ATOM     22  C   UNL     1      -3.370   3.307   1.090  1.00  0.00     0.012 A 
ATOM     23  C   UNL     1      -2.692   3.218  -1.218  1.00  0.00     0.012 A 
ATOM     24  C   UNL     1      -3.476   4.700   0.996  1.00  0.00     0.047 A 
ATOM     25  C   UNL     1      -2.837   4.603  -1.317  1.00  0.00     0.047 A 
BRANCH  21  26
ATOM     26  C   UNL     1      -2.676   1.127   0.109  1.00  0.00     0.029 C 
ATOM     27  O   UNL     1      -2.183  -1.739   0.148  1.00  0.00    -0.268 OA
ATOM     28  C   UNL     1      -1.285  -0.921   0.135  1.00  0.00     0.263 C 
ATOM     29  N   UNL     1       0.050  -1.221   0.093  1.00  0.00    -0.307 N 
ATOM     30  C   UNL     1      -1.462   0.558   0.093  1.00  0.00     0.080 C 
ATOM     31  C   UNL     1       0.939  -0.194  -0.005  1.00  0.00     0.145 C 
ATOM     32  H   UNL     1       0.360  -2.155   0.134  1.00  0.00     0.171 HD
ATOM     33  S   UNL     1       0.081   1.329  -0.007  1.00  0.00    -0.055 SA
ATOM     34  S   UNL     1       2.573  -0.411  -0.148  1.00  0.00    -0.052 S 
ENDBRANCH  21  26
ENDBRANCH  19  20
ENDBRANCH  18  19
ENDBRANCH  14  18
ENDBRANCH   8  13
ENDBRANCH   4   7
ENDBRANCH   2   3
ENDBRANCH   1   2
BRANCH   1  35
ATOM     35  C   UNL     1       8.212  11.048   2.429  1.00  0.00     0.002 C 
BRANCH  35  36
ATOM     36  C   UNL     1       8.279  12.584   2.428  1.00  0.00     0.002 C 
BRANCH  36  37
ATOM     37  C   UNL     1       7.193  13.297   3.248  1.00  0.00     0.021 C 
BRANCH  37  38
ATOM     38  C   UNL     1       7.353  13.094   4.746  1.00  0.00     0.116 C 
BRANCH  38  39
ATOM     39  N   UNL     1       8.551  13.764   5.249  1.00  0.00    -0.352 N 
ATOM     40  C   UNL     1       9.053  13.780   6.535  1.00  0.00     0.251 C 
ATOM     41  H   UNL     1       9.069  14.270   4.582  1.00  0.00     0.163 HD
ATOM     42  O   UNL     1       9.809  14.672   6.892  1.00  0.00    -0.269 OA
BRANCH  40  43
ATOM     43  C   UNL     1       8.663  12.700   7.457  1.00  0.00     0.039 A 
ATOM     44  C   UNL     1       8.399  12.954   8.806  1.00  0.00     0.014 A 
ATOM     45  C   UNL     1       8.552  11.412   6.939  1.00  0.00     0.014 A 
ATOM     46  C   UNL     1       7.946  11.910   9.610  1.00  0.00     0.010 A 
ATOM     47  C   UNL     1       7.965  10.426   7.687  1.00  0.00     0.010 A 
ATOM     48  C   UNL     1       7.714  10.650   9.036  1.00  0.00    -0.014 A 
BRANCH  48  49
ATOM     49  C   UNL     1       7.057   9.580   9.781  1.00  0.00     0.031 A 
ATOM     50  C   UNL     1       5.728   9.958  10.329  1.00  0.00     0.074 A 
ATOM     51  C   UNL     1       7.495   8.301   9.745  1.00  0.00     0.049 A 
ATOM     52  N   UNL     1       5.408  10.083  11.572  1.00  0.00    -0.248 NA
ATOM     53  C   UNL     1       4.680  10.427   9.405  1.00  0.00     0.031 C 
ATOM     54  C   UNL     1       8.652   7.766   9.018  1.00  0.00     0.029 A 
ATOM     55  N   UNL     1       6.920   7.172  10.241  1.00  0.00    -0.354 N 
ATOM     56  C   UNL     1       4.048  10.373  11.591  1.00  0.00     0.074 A 
ATOM     57  C   UNL     1       3.725  10.806  10.259  1.00  0.00     0.031 C 
ATOM     58  C   UNL     1       8.538   6.424   8.907  1.00  0.00     0.029 A 
ATOM     59  C   UNL     1       7.384   5.984   9.672  1.00  0.00     0.049 A 
ATOM     60  H   UNL     1       6.231   7.191  10.944  1.00  0.00     0.167 HD
ATOM     61  C   UNL     1       3.265   9.967  12.629  1.00  0.00     0.034 A 
ATOM     62  C   UNL     1       6.842   4.738   9.788  1.00  0.00     0.034 A 
ATOM     63  C   UNL     1       4.082   9.549  13.751  1.00  0.00     0.049 A 
ATOM     64  C   UNL     1       6.031   4.756  11.035  1.00  0.00     0.074 A 
ATOM     65  C   UNL     1       5.071  10.160  14.500  1.00  0.00     0.029 A 
ATOM     66  N   UNL     1       4.233   8.196  13.973  1.00  0.00    -0.354 N 
ATOM     67  N   UNL     1       6.560   4.915  12.219  1.00  0.00    -0.248 NA
ATOM     68  C   UNL     1       4.629   5.140  10.934  1.00  0.00     0.031 C 
ATOM     69  C   UNL     1       6.061   9.150  14.682  1.00  0.00     0.029 A 
ATOM     70  C   UNL     1       5.575   7.955  14.146  1.00  0.00     0.049 A 
ATOM     71  H   UNL     1       3.512   7.526  14.002  1.00  0.00     0.167 HD
ATOM     72  C   UNL     1       5.737   5.832  12.857  1.00  0.00     0.074 A 
ATOM     73  C   UNL     1       4.510   5.854  12.059  1.00  0.00     0.031 C 
ATOM     74  C   UNL     1       6.233   6.713  13.780  1.00  0.00     0.034 A 
BRANCH  61  75
ATOM     75  C   UNL     1       1.808   9.567  12.523  1.00  0.00     0.023 A 
ATOM     76  C   UNL     1       1.177   9.159  13.714  1.00  0.00     0.031 A 
ATOM     77  C   UNL     1       1.111   9.275  11.330  1.00  0.00     0.131 A 
ATOM     78  C   UNL     1       0.003   8.389  13.684  1.00  0.00     0.055 A 
ATOM     79  C   UNL     1      -0.097   8.572  11.309  1.00  0.00     0.041 A 
ATOM     80  F   UNL     1       1.592   9.563  10.116  1.00  0.00    -0.206 F 
ATOM     81  C   UNL     1      -0.639   8.090  12.487  1.00  0.00     0.022 A 
BRANCH  78  82
ATOM     82  S   UNL     1      -0.550   7.619  15.226  1.00  0.00     0.124 S 
ATOM     83  O   UNL     1       0.648   6.896  15.635  1.00  0.00    -0.237 OA
ATOM     84  O   UNL     1      -0.908   8.784  16.030  1.00  0.00    -0.237 OA
ATOM     85  O   UNL     1      -1.672   6.785  14.803  1.00  0.00    -0.744 OA
ENDBRANCH  78  82
ENDBRANCH  61  75
BRANCH  62  86
ATOM     86  C   UNL     1       6.760   3.665   8.744  1.00  0.00     0.023 A 
ATOM     87  C   UNL     1       6.397   2.326   9.027  1.00  0.00     0.031 A 
ATOM     88  C   UNL     1       6.817   4.014   7.374  1.00  0.00     0.131 A 
ATOM     89  C   UNL     1       6.112   1.417   7.973  1.00  0.00     0.055 A 
ATOM     90  C   UNL     1       6.539   3.114   6.340  1.00  0.00     0.041 A 
ATOM     91  F   UNL     1       7.060   5.274   6.982  1.00  0.00    -0.206 F 
ATOM     92  C   UNL     1       6.174   1.813   6.636  1.00  0.00     0.022 A 
BRANCH  89  93
ATOM     93  S   UNL     1       5.550  -0.287   8.318  1.00  0.00     0.124 S 
ATOM     94  O   UNL     1       6.775  -0.933   8.771  1.00  0.00    -0.237 OA
ATOM     95  O   UNL     1       4.513  -0.082   9.322  1.00  0.00    -0.237 OA
ATOM     96  O   UNL     1       5.054  -0.753   7.021  1.00  0.00    -0.744 OA
ENDBRANCH  89  93
ENDBRANCH  62  86
BRANCH  74  97
ATOM     97  C   UNL     1       7.644   6.511  14.305  1.00  0.00     0.023 A 
ATOM     98  C   UNL     1       8.809   6.438  13.506  1.00  0.00     0.031 A 
ATOM     99  C   UNL     1       7.818   6.537  15.701  1.00  0.00     0.131 A 
ATOM    100  C   UNL     1      10.081   6.383  14.113  1.00  0.00     0.055 A 
ATOM    101  C   UNL     1       9.078   6.511  16.296  1.00  0.00     0.041 A 
ATOM    102  F   UNL     1       6.756   6.633  16.518  1.00  0.00    -0.206 F 
ATOM    103  C   UNL     1      10.216   6.428  15.504  1.00  0.00     0.022 A 
BRANCH 100 104
ATOM    104  S   UNL     1      11.592   6.231  13.103  1.00  0.00     0.124 S 
ATOM    105  O   UNL     1      11.274   5.154  12.172  1.00  0.00    -0.237 OA
ATOM    106  O   UNL     1      11.721   7.563  12.520  1.00  0.00    -0.237 OA
ATOM    107  O   UNL     1      12.625   5.898  14.086  1.00  0.00    -0.744 OA
ENDBRANCH 100 104
ENDBRANCH  74  97
ENDBRANCH  48  49
ENDBRANCH  40  43
ENDBRANCH  38  39
ENDBRANCH  37  38
ENDBRANCH  36  37
ENDBRANCH  35  36
ENDBRANCH   1  35
TORSDOF 21
