REMARK SMILES COc1ccc(Cl)c2c1N[C@@H](c1ccc(C(=O)NCCCCCCNC(=O)c3ccc(-c4c5nc(c(-c6cc(S(=O)(=O)[O-])ccc6F)c6ccc([nH]6)c(-c6cc(S(=O)(=O)[O-])ccc6F)c6nc(c(-c7cc(S(=O)(=O)[O-])ccc7F)c7ccc4[nH]7)C=C6)C=C5)cc3)cc1)[C@@H]1CC=C[C@H]21
REMARK SMILES IDX 22 1 21 2 20 3 19 4 18 5 16 6 17 7 15 9 12 10 13 11 92 12
REMARK SMILES IDX 14 13 91 14 11 15 3 16 4 17 9 18 5 19 8 20 10 21 6 22 97 23
REMARK SMILES IDX 7 25 93 26 96 27 94 28 95 29 2 30 1 31 23 32 24 33 25 34
REMARK SMILES IDX 26 35 27 37 28 38 29 39 90 40 30 41 89 42 31 43 32 44 33 45
REMARK SMILES IDX 83 46 34 47 88 48 82 49 84 50 35 51 87 52 81 53 80 54 36 56
REMARK SMILES IDX 68 57 48 58 67 59 49 60 52 61 66 62 85 63 50 64 51 65 65 67
REMARK SMILES IDX 86 68 53 69 37 70 38 71 46 72 39 73 45 74 47 75 44 76 40 77
REMARK SMILES IDX 41 78 42 79 43 80 69 81 70 82 78 83 71 84 77 85 79 86 76 87
REMARK SMILES IDX 72 88 73 89 74 90 75 91 54 92 55 93 63 94 56 95 62 96 64 97
REMARK SMILES IDX 61 98 57 99 58 100 59 101 60 102
REMARK H PARENT 18 8 10 24 25 36 84 55 52 66
REMARK Flexibility Score: inf
ROOT
ATOM      1  C   UNL     1      12.562   2.972   2.210  1.00  0.00     0.002 C 
ENDROOT
BRANCH   1   2
ATOM      2  C   UNL     1      11.113   3.174   2.669  1.00  0.00     0.002 C 
BRANCH   2   3
ATOM      3  C   UNL     1      10.053   2.830   1.614  1.00  0.00     0.021 C 
BRANCH   3   4
ATOM      4  C   UNL     1      10.073   1.359   1.195  1.00  0.00     0.116 C 
BRANCH   4   5
ATOM      5  N   UNL     1       9.420   0.554   2.209  1.00  0.00    -0.352 N 
ATOM      6  C   UNL     1       8.155   0.035   2.295  1.00  0.00     0.251 C 
ATOM      7  O   UNL     1       7.863  -0.591   3.315  1.00  0.00    -0.269 OA
ATOM      8  H   UNL     1       9.993   0.341   2.980  1.00  0.00     0.163 HD
BRANCH   6   9
ATOM      9  C   UNL     1       7.157   0.130   1.194  1.00  0.00     0.039 A 
ATOM     10  C   UNL     1       5.257   0.054  -0.913  1.00  0.00    -0.025 A 
ATOM     11  C   UNL     1       5.332  -0.984   0.027  1.00  0.00     0.006 A 
ATOM     12  C   UNL     1       6.115   1.153  -0.746  1.00  0.00     0.006 A 
ATOM     13  C   UNL     1       6.255  -0.935   1.076  1.00  0.00     0.014 A 
ATOM     14  C   UNL     1       7.047   1.195   0.299  1.00  0.00     0.014 A 
BRANCH  10  15
ATOM     15  C   UNL     1       4.273   0.038  -2.080  1.00  0.00     0.114 C 
ATOM     16  C   UNL     1       0.722  -1.088  -2.132  1.00  0.00     0.142 A 
ATOM     17  C   UNL     1      -0.313  -1.357  -3.024  1.00  0.00     0.050 A 
ATOM     18  C   UNL     1       2.035  -0.851  -2.586  1.00  0.00     0.083 A 
ATOM     19  C   UNL     1      -0.056  -1.360  -4.391  1.00  0.00     0.025 A 
ATOM     20  C   UNL     1       2.300  -0.851  -3.969  1.00  0.00     0.005 A 
ATOM     21  N   UNL     1       3.059  -0.649  -1.675  1.00  0.00    -0.375 N 
ATOM     22  C   UNL     1       1.238  -1.112  -4.861  1.00  0.00     0.047 A 
ATOM     23  C   UNL     1       3.717  -0.648  -4.457  1.00  0.00     0.051 C 
ATOM     24  H   UNL     1       2.964  -0.973  -0.750  1.00  0.00     0.161 HD
ATOM     25  Cl  UNL     1       1.470  -1.189  -6.574  1.00  0.00    -0.084 Cl
ATOM     26  C   UNL     1       4.817  -0.636  -3.360  1.00  0.00     0.031 C 
ATOM     27  C   UNL     1       3.972   0.672  -5.142  1.00  0.00    -0.023 C 
ATOM     28  C   UNL     1       5.960   0.151  -4.030  1.00  0.00     0.034 C 
ATOM     29  C   UNL     1       5.219   1.103  -4.913  1.00  0.00    -0.030 C 
BRANCH  16  30
ATOM     30  O   UNL     1       0.411  -1.138  -0.793  1.00  0.00    -0.495 OA
ATOM     31  C   UNL     1       0.444   0.159  -0.192  1.00  0.00     0.278 C 
ENDBRANCH  16  30
ENDBRANCH  10  15
ENDBRANCH   6   9
ENDBRANCH   4   5
ENDBRANCH   3   4
ENDBRANCH   2   3
ENDBRANCH   1   2
BRANCH   1  32
ATOM     32  C   UNL     1      12.919   3.674   0.897  1.00  0.00     0.021 C 
BRANCH  32  33
ATOM     33  C   UNL     1      12.749   5.189   0.946  1.00  0.00     0.116 C 
BRANCH  33  34
ATOM     34  N   UNL     1      13.697   5.788   1.873  1.00  0.00    -0.352 N 
ATOM     35  C   UNL     1      14.744   6.631   1.589  1.00  0.00     0.251 C 
ATOM     36  H   UNL     1      13.573   5.561   2.823  1.00  0.00     0.163 HD
ATOM     37  O   UNL     1      15.625   6.835   2.409  1.00  0.00    -0.269 OA
BRANCH  35  38
ATOM     38  C   UNL     1      14.775   7.291   0.269  1.00  0.00     0.039 A 
ATOM     39  C   UNL     1      15.934   7.223  -0.506  1.00  0.00     0.014 A 
ATOM     40  C   UNL     1      13.643   7.970  -0.192  1.00  0.00     0.014 A 
ATOM     41  C   UNL     1      15.946   7.815  -1.769  1.00  0.00     0.010 A 
ATOM     42  C   UNL     1      13.639   8.512  -1.471  1.00  0.00     0.010 A 
ATOM     43  C   UNL     1      14.796   8.455  -2.261  1.00  0.00    -0.014 A 
BRANCH  43  44
ATOM     44  C   UNL     1      14.797   9.121  -3.583  1.00  0.00     0.031 A 
ATOM     45  C   UNL     1      14.729  10.619  -3.654  1.00  0.00     0.074 A 
ATOM     46  C   UNL     1      14.802   8.382  -4.707  1.00  0.00     0.049 A 
ATOM     47  N   UNL     1      14.680  11.390  -4.707  1.00  0.00    -0.248 NA
ATOM     48  C   UNL     1      14.689  11.345  -2.373  1.00  0.00     0.031 C 
ATOM     49  C   UNL     1      14.823   6.920  -4.752  1.00  0.00     0.029 A 
ATOM     50  N   UNL     1      14.774   8.758  -6.027  1.00  0.00    -0.354 N 
ATOM     51  C   UNL     1      14.604  12.688  -4.219  1.00  0.00     0.074 A 
ATOM     52  C   UNL     1      14.553  12.599  -2.777  1.00  0.00     0.031 C 
ATOM     53  C   UNL     1      14.814   6.522  -6.034  1.00  0.00     0.029 A 
ATOM     54  C   UNL     1      14.759   7.698  -6.902  1.00  0.00     0.049 A 
ATOM     55  H   UNL     1      14.766   9.698  -6.319  1.00  0.00     0.167 HD
ATOM     56  C   UNL     1      14.609  13.849  -4.912  1.00  0.00     0.034 A 
ATOM     57  C   UNL     1      14.704   7.676  -8.250  1.00  0.00     0.034 A 
ATOM     58  C   UNL     1      14.679  13.923  -6.346  1.00  0.00     0.049 A 
ATOM     59  C   UNL     1      14.705   8.981  -9.003  1.00  0.00     0.074 A 
ATOM     60  C   UNL     1      14.745  15.054  -7.139  1.00  0.00     0.029 A 
ATOM     61  N   UNL     1      14.694  12.830  -7.200  1.00  0.00    -0.354 N 
ATOM     62  N   UNL     1      14.730  10.204  -8.527  1.00  0.00    -0.248 NA
ATOM     63  C   UNL     1      14.687   8.912 -10.471  1.00  0.00     0.031 C 
ATOM     64  C   UNL     1      14.750  14.648  -8.474  1.00  0.00     0.029 A 
ATOM     65  C   UNL     1      14.746  13.261  -8.514  1.00  0.00     0.049 A 
ATOM     66  H   UNL     1      14.670  11.889  -6.914  1.00  0.00     0.167 HD
ATOM     67  C   UNL     1      14.756  11.047  -9.634  1.00  0.00     0.074 A 
ATOM     68  C   UNL     1      14.760  10.195 -10.805  1.00  0.00     0.031 C 
ATOM     69  C   UNL     1      14.773  12.403  -9.674  1.00  0.00     0.034 A 
BRANCH  56  70
ATOM     70  C   UNL     1      14.571  15.142  -4.143  1.00  0.00     0.023 A 
ATOM     71  C   UNL     1      13.473  16.009  -4.274  1.00  0.00     0.031 A 
ATOM     72  C   UNL     1      15.673  15.566  -3.379  1.00  0.00     0.131 A 
ATOM     73  C   UNL     1      13.514  17.274  -3.676  1.00  0.00     0.055 A 
ATOM     74  C   UNL     1      15.693  16.812  -2.754  1.00  0.00     0.041 A 
ATOM     75  F   UNL     1      16.742  14.768  -3.223  1.00  0.00    -0.206 F 
ATOM     76  C   UNL     1      14.614  17.677  -2.911  1.00  0.00     0.022 A 
BRANCH  73  77
ATOM     77  S   UNL     1      12.159  18.457  -3.899  1.00  0.00     0.124 S 
ATOM     78  O   UNL     1      11.830  18.804  -2.518  1.00  0.00    -0.237 OA
ATOM     79  O   UNL     1      12.805  19.515  -4.671  1.00  0.00    -0.237 OA
ATOM     80  O   UNL     1      11.137  17.691  -4.603  1.00  0.00    -0.744 OA
ENDBRANCH  73  77
ENDBRANCH  56  70
BRANCH  57  81
ATOM     81  C   UNL     1      14.709   6.361  -8.951  1.00  0.00     0.023 A 
ATOM     82  C   UNL     1      13.640   5.459  -8.802  1.00  0.00     0.031 A 
ATOM     83  C   UNL     1      15.829   5.947  -9.690  1.00  0.00     0.131 A 
ATOM     84  C   UNL     1      13.741   4.167  -9.334  1.00  0.00     0.055 A 
ATOM     85  C   UNL     1      15.899   4.680 -10.272  1.00  0.00     0.041 A 
ATOM     86  F   UNL     1      16.877   6.770  -9.847  1.00  0.00    -0.206 F 
ATOM     87  C   UNL     1      14.856   3.777 -10.083  1.00  0.00     0.022 A 
BRANCH  84  88
ATOM     88  S   UNL     1      12.473   2.918  -8.986  1.00  0.00     0.124 S 
ATOM     89  O   UNL     1      12.112   2.463 -10.325  1.00  0.00    -0.237 OA
ATOM     90  O   UNL     1      13.218   1.960  -8.172  1.00  0.00    -0.237 OA
ATOM     91  O   UNL     1      11.439   3.664  -8.276  1.00  0.00    -0.744 OA
ENDBRANCH  84  88
ENDBRANCH  57  81
BRANCH  69  92
ATOM     92  C   UNL     1      14.810  13.090 -11.015  1.00  0.00     0.023 A 
ATOM     93  C   UNL     1      15.924  13.875 -11.368  1.00  0.00     0.031 A 
ATOM     94  C   UNL     1      13.683  13.114 -11.853  1.00  0.00     0.131 A 
ATOM     95  C   UNL     1      15.868  14.690 -12.505  1.00  0.00     0.055 A 
ATOM     96  C   UNL     1      13.649  13.894 -13.009  1.00  0.00     0.041 A 
ATOM     97  F   UNL     1      12.593  12.390 -11.550  1.00  0.00    -0.206 F 
ATOM     98  C   UNL     1      14.739  14.698 -13.331  1.00  0.00     0.022 A 
BRANCH  95  99
ATOM     99  S   UNL     1      17.224  15.826 -12.909  1.00  0.00     0.124 S 
ATOM    100  O   UNL     1      17.554  15.430 -14.276  1.00  0.00    -0.237 OA
ATOM    101  O   UNL     1      16.580  17.129 -12.775  1.00  0.00    -0.237 OA
ATOM    102  O   UNL     1      18.246  15.522 -11.912  1.00  0.00    -0.744 OA
ENDBRANCH  95  99
ENDBRANCH  69  92
ENDBRANCH  43  44
ENDBRANCH  35  38
ENDBRANCH  33  34
ENDBRANCH  32  33
ENDBRANCH   1  32
TORSDOF 18
