REMARK SMILES CC[C@H](C)N1C(=O)c2ccccc2[C@@H](C(=O)NCCCCCCNC(=O)c2ccc(-c3c4nc(c(-c5cc(S(=O)(=O)[O-])ccc5F)c5ccc([nH]5)c(-c5cc(S(=O)(=O)[O-])ccc5F)c5nc(c(-c6cc(S(=O)(=O)[O-])ccc6F)c6ccc3[nH]6)C=C5)C=C4)cc2)C12CCCCC2
REMARK SMILES IDX 21 1 20 2 19 3 18 4 17 5 15 6 16 7 14 9 5 10 6 11 90 12 7 13
REMARK SMILES IDX 8 14 91 15 95 16 9 17 13 18 92 19 94 20 10 21 12 22 93 23
REMARK SMILES IDX 11 24 3 25 4 26 2 27 1 28 22 29 23 30 24 31 25 32 26 34
REMARK SMILES IDX 27 35 28 36 89 37 29 38 88 39 30 40 31 41 32 42 82 43 33 44
REMARK SMILES IDX 87 45 81 46 83 47 34 48 86 49 80 50 79 51 35 53 67 54 47 55
REMARK SMILES IDX 66 56 48 57 51 58 65 59 84 60 49 61 50 62 64 64 85 65 52 66
REMARK SMILES IDX 36 67 37 68 45 69 38 70 44 71 46 72 43 73 39 74 40 75 41 76
REMARK SMILES IDX 42 77 68 78 69 79 77 80 70 81 76 82 78 83 75 84 71 85 72 86
REMARK SMILES IDX 73 87 74 88 53 89 54 90 62 91 55 92 61 93 63 94 60 95 56 96
REMARK SMILES IDX 57 97 58 98 59 99
REMARK H PARENT 17 8 24 33 83 52 51 63
REMARK Flexibility Score: inf
ROOT
ATOM      1  C   UNL     1      -3.633   6.289  -7.845  1.00  0.00     0.002 C 
ENDROOT
BRANCH   1   2
ATOM      2  C   UNL     1      -3.636   5.071  -6.927  1.00  0.00     0.002 C 
BRANCH   2   3
ATOM      3  C   UNL     1      -2.265   4.705  -6.359  1.00  0.00     0.021 C 
BRANCH   3   4
ATOM      4  C   UNL     1      -1.774   5.593  -5.215  1.00  0.00     0.116 C 
BRANCH   4   5
ATOM      5  N   UNL     1      -2.697   5.621  -4.087  1.00  0.00    -0.355 N 
ATOM      6  C   UNL     1      -2.593   5.234  -2.784  1.00  0.00     0.229 C 
ATOM      7  O   UNL     1      -3.579   5.466  -2.072  1.00  0.00    -0.274 OA
ATOM      8  H   UNL     1      -3.578   5.998  -4.313  1.00  0.00     0.163 HD
BRANCH   6   9
ATOM      9  C   UNL     1      -1.326   4.600  -2.166  1.00  0.00     0.135 C 
ATOM     10  N   UNL     1       0.364   2.682  -2.262  1.00  0.00    -0.329 N 
ATOM     11  C   UNL     1       1.288   3.489  -2.957  1.00  0.00     0.254 C 
ATOM     12  C   UNL     1      -1.131   3.025  -2.348  1.00  0.00     0.059 C 
ATOM     13  O   UNL     1       2.329   3.062  -3.451  1.00  0.00    -0.269 OA
ATOM     14  C   UNL     1       1.056   4.948  -2.955  1.00  0.00     0.044 A 
ATOM     15  C   UNL     1      -1.623   2.482  -3.716  1.00  0.00     0.030 C 
ATOM     16  C   UNL     1      -1.946   2.296  -1.237  1.00  0.00     0.030 C 
ATOM     17  C   UNL     1       2.092   5.802  -3.371  1.00  0.00     0.014 A 
ATOM     18  C   UNL     1      -0.126   5.483  -2.459  1.00  0.00    -0.020 A 
ATOM     19  C   UNL     1      -3.137   2.339  -3.917  1.00  0.00     0.002 C 
ATOM     20  C   UNL     1      -3.461   2.268  -1.421  1.00  0.00     0.002 C 
ATOM     21  C   UNL     1       1.967   7.186  -3.245  1.00  0.00     0.001 A 
ATOM     22  C   UNL     1      -0.215   6.880  -2.276  1.00  0.00     0.005 A 
ATOM     23  C   UNL     1      -3.843   1.656  -2.759  1.00  0.00     0.000 C 
ATOM     24  C   UNL     1       0.821   7.725  -2.674  1.00  0.00     0.000 A 
BRANCH  10  25
ATOM     25  C   UNL     1       0.941   1.387  -1.779  1.00  0.00     0.082 C 
ATOM     26  C   UNL     1       0.786   1.123  -0.279  1.00  0.00     0.031 C 
BRANCH  25  27
ATOM     27  C   UNL     1       0.775   0.163  -2.707  1.00  0.00     0.021 C 
ATOM     28  C   UNL     1      -0.405  -0.765  -2.460  1.00  0.00     0.006 C 
ENDBRANCH  25  27
ENDBRANCH  10  25
ENDBRANCH   6   9
ENDBRANCH   4   5
ENDBRANCH   3   4
ENDBRANCH   2   3
ENDBRANCH   1   2
BRANCH   1  29
ATOM     29  C   UNL     1      -2.632   6.217  -9.000  1.00  0.00     0.021 C 
BRANCH  29  30
ATOM     30  C   UNL     1      -2.652   4.911  -9.787  1.00  0.00     0.116 C 
BRANCH  30  31
ATOM     31  N   UNL     1      -3.886   4.735 -10.536  1.00  0.00    -0.352 N 
ATOM     32  C   UNL     1      -4.020   4.507 -11.886  1.00  0.00     0.251 C 
ATOM     33  H   UNL     1      -4.722   4.785 -10.018  1.00  0.00     0.163 HD
ATOM     34  O   UNL     1      -5.118   4.545 -12.429  1.00  0.00    -0.269 OA
BRANCH  32  35
ATOM     35  C   UNL     1      -2.793   4.247 -12.665  1.00  0.00     0.039 A 
ATOM     36  C   UNL     1      -1.923   3.232 -12.254  1.00  0.00     0.014 A 
ATOM     37  C   UNL     1      -2.456   5.095 -13.720  1.00  0.00     0.014 A 
ATOM     38  C   UNL     1      -0.649   3.165 -12.803  1.00  0.00     0.010 A 
ATOM     39  C   UNL     1      -1.204   4.969 -14.325  1.00  0.00     0.010 A 
ATOM     40  C   UNL     1      -0.273   4.035 -13.842  1.00  0.00    -0.014 A 
BRANCH  40  41
ATOM     41  C   UNL     1       1.090   3.929 -14.424  1.00  0.00     0.031 A 
ATOM     42  C   UNL     1       2.080   5.054 -14.302  1.00  0.00     0.074 A 
ATOM     43  C   UNL     1       1.442   2.785 -15.043  1.00  0.00     0.049 A 
ATOM     44  N   UNL     1       3.313   5.113 -14.736  1.00  0.00    -0.248 NA
ATOM     45  C   UNL     1       1.633   6.274 -13.611  1.00  0.00     0.031 C 
ATOM     46  C   UNL     1       0.559   1.632 -15.218  1.00  0.00     0.029 A 
ATOM     47  N   UNL     1       2.623   2.392 -15.618  1.00  0.00    -0.354 N 
ATOM     48  C   UNL     1       3.780   6.378 -14.399  1.00  0.00     0.074 A 
ATOM     49  C   UNL     1       2.689   7.066 -13.743  1.00  0.00     0.031 C 
ATOM     50  C   UNL     1       1.242   0.643 -15.807  1.00  0.00     0.029 A 
ATOM     51  C   UNL     1       2.588   1.114 -16.124  1.00  0.00     0.049 A 
ATOM     52  H   UNL     1       3.419   2.969 -15.664  1.00  0.00     0.167 HD
ATOM     53  C   UNL     1       5.009   6.908 -14.610  1.00  0.00     0.034 A 
ATOM     54  C   UNL     1       3.523   0.400 -16.783  1.00  0.00     0.034 A 
ATOM     55  C   UNL     1       6.093   6.194 -15.238  1.00  0.00     0.049 A 
ATOM     56  C   UNL     1       4.876   1.014 -17.015  1.00  0.00     0.074 A 
ATOM     57  C   UNL     1       7.393   6.624 -15.438  1.00  0.00     0.029 A 
ATOM     58  N   UNL     1       6.013   4.912 -15.765  1.00  0.00    -0.354 N 
ATOM     59  N   UNL     1       5.320   2.190 -16.635  1.00  0.00    -0.248 NA
ATOM     60  C   UNL     1       5.857   0.215 -17.760  1.00  0.00     0.031 C 
ATOM     61  C   UNL     1       8.077   5.636 -16.146  1.00  0.00     0.029 A 
ATOM     62  C   UNL     1       7.229   4.553 -16.323  1.00  0.00     0.049 A 
ATOM     63  H   UNL     1       5.210   4.343 -15.745  1.00  0.00     0.167 HD
ATOM     64  C   UNL     1       6.634   2.268 -17.086  1.00  0.00     0.074 A 
ATOM     65  C   UNL     1       6.922   1.008 -17.740  1.00  0.00     0.031 C 
ATOM     66  C   UNL     1       7.515   3.294 -16.972  1.00  0.00     0.034 A 
BRANCH  53  67
ATOM     67  C   UNL     1       5.279   8.325 -14.166  1.00  0.00     0.023 A 
ATOM     68  C   UNL     1       5.609   9.306 -15.121  1.00  0.00     0.031 A 
ATOM     69  C   UNL     1       5.346   8.674 -12.806  1.00  0.00     0.131 A 
ATOM     70  C   UNL     1       6.023  10.577 -14.702  1.00  0.00     0.055 A 
ATOM     71  C   UNL     1       5.722   9.954 -12.394  1.00  0.00     0.041 A 
ATOM     72  F   UNL     1       5.043   7.775 -11.855  1.00  0.00    -0.206 F 
ATOM     73  C   UNL     1       6.075  10.908 -13.344  1.00  0.00     0.022 A 
BRANCH  70  74
ATOM     74  S   UNL     1       6.575  11.827 -15.895  1.00  0.00     0.124 S 
ATOM     75  O   UNL     1       5.623  12.910 -15.654  1.00  0.00    -0.237 OA
ATOM     76  O   UNL     1       7.942  12.089 -15.453  1.00  0.00    -0.237 OA
ATOM     77  O   UNL     1       6.445  11.162 -17.187  1.00  0.00    -0.744 OA
ENDBRANCH  70  74
ENDBRANCH  53  67
BRANCH  54  78
ATOM     78  C   UNL     1       3.190  -0.989 -17.213  1.00  0.00     0.023 A 
ATOM     79  C   UNL     1       2.127  -1.231 -18.104  1.00  0.00     0.031 A 
ATOM     80  C   UNL     1       3.823  -2.095 -16.623  1.00  0.00     0.131 A 
ATOM     81  C   UNL     1       1.669  -2.539 -18.303  1.00  0.00     0.055 A 
ATOM     82  C   UNL     1       3.414  -3.403 -16.888  1.00  0.00     0.041 A 
ATOM     83  F   UNL     1       4.832  -1.914 -15.758  1.00  0.00    -0.206 F 
ATOM     84  C   UNL     1       2.316  -3.629 -17.714  1.00  0.00     0.022 A 
BRANCH  81  85
ATOM     85  S   UNL     1       0.122  -2.853 -19.200  1.00  0.00     0.124 S 
ATOM     86  O   UNL     1       0.568  -3.729 -20.278  1.00  0.00    -0.237 OA
ATOM     87  O   UNL     1      -0.695  -3.487 -18.167  1.00  0.00    -0.237 OA
ATOM     88  O   UNL     1      -0.317  -1.523 -19.607  1.00  0.00    -0.744 OA
ENDBRANCH  81  85
ENDBRANCH  54  78
BRANCH  66  89
ATOM     89  C   UNL     1       8.892   3.133 -17.570  1.00  0.00     0.023 A 
ATOM     90  C   UNL     1      10.029   3.171 -16.741  1.00  0.00     0.031 A 
ATOM     91  C   UNL     1       9.084   3.107 -18.962  1.00  0.00     0.131 A 
ATOM     92  C   UNL     1      11.306   3.232 -17.312  1.00  0.00     0.055 A 
ATOM     93  C   UNL     1      10.361   3.117 -19.525  1.00  0.00     0.041 A 
ATOM     94  F   UNL     1       8.031   3.079 -19.795  1.00  0.00    -0.206 F 
ATOM     95  C   UNL     1      11.479   3.197 -18.699  1.00  0.00     0.022 A 
BRANCH  92  96
ATOM     96  S   UNL     1      12.783   3.455 -16.281  1.00  0.00     0.124 S 
ATOM     97  O   UNL     1      13.547   2.246 -16.582  1.00  0.00    -0.237 OA
ATOM     98  O   UNL     1      13.344   4.695 -16.811  1.00  0.00    -0.237 OA
ATOM     99  O   UNL     1      12.257   3.535 -14.923  1.00  0.00    -0.744 OA
ENDBRANCH  92  96
ENDBRANCH  66  89
ENDBRANCH  40  41
ENDBRANCH  32  35
ENDBRANCH  30  31
ENDBRANCH  29  30
ENDBRANCH   1  29
TORSDOF 18
