REMARK SMILES CCc1cccc(-c2ccc([C@@H](C)C(=O)NCCCCCCNC(=O)c3ccc(-c4c5nc(c(-c6cc(S(=O)(=O)[O-])ccc6F)c6ccc([nH]6)c(-c6cc(S(=O)(=O)[O-])ccc6F)c6nc(c(-c7cc(S(=O)(=O)[O-])ccc7F)c7ccc4[nH]7)C=C6)C=C5)cc3)cc2)c1
REMARK SMILES IDX 19 1 18 2 17 3 16 4 14 5 15 6 12 8 13 9 11 10 8 11 9 12
REMARK SMILES IDX 90 13 10 14 89 15 7 16 3 17 4 18 91 19 5 20 6 21 2 22 1 23
REMARK SMILES IDX 20 24 21 25 22 26 23 27 24 28 25 30 26 31 27 32 88 33 28 34
REMARK SMILES IDX 87 35 29 36 30 37 31 38 81 39 32 40 86 41 80 42 82 43 33 44
REMARK SMILES IDX 85 45 79 46 78 47 34 49 66 50 46 51 65 52 47 53 50 54 64 55
REMARK SMILES IDX 83 56 48 57 49 58 63 60 84 61 51 62 35 63 36 64 44 65 37 66
REMARK SMILES IDX 43 67 45 68 42 69 38 70 39 71 40 72 41 73 67 74 68 75 76 76
REMARK SMILES IDX 69 77 75 78 77 79 74 80 70 81 71 82 72 83 73 84 52 85 53 86
REMARK SMILES IDX 61 87 54 88 60 89 62 90 59 91 55 92 56 93 57 94 58 95
REMARK H PARENT 16 7 23 29 82 48 50 59
REMARK Flexibility Score: inf
ROOT
ATOM      1  C   UNL     1       5.368   7.831   1.173  1.00  0.00     0.002 C 
ENDROOT
BRANCH   1   2
ATOM      2  C   UNL     1       4.060   7.632   1.945  1.00  0.00     0.021 C 
BRANCH   2   3
ATOM      3  C   UNL     1       3.245   8.915   2.124  1.00  0.00     0.116 C 
BRANCH   3   4
ATOM      4  N   UNL     1       2.332   9.131   1.021  1.00  0.00    -0.356 N 
ATOM      5  C   UNL     1       0.990   8.931   0.911  1.00  0.00     0.227 C 
ATOM      6  O   UNL     1       0.490   9.137  -0.202  1.00  0.00    -0.274 OA
ATOM      7  H   UNL     1       2.756   9.487   0.207  1.00  0.00     0.163 HD
BRANCH   5   8
ATOM      8  C   UNL     1       0.096   8.494   2.082  1.00  0.00     0.105 C 
ATOM      9  C   UNL     1       0.076   9.482   3.249  1.00  0.00     0.023 C 
BRANCH   8  10
ATOM     10  C   UNL     1       0.247   7.025   2.447  1.00  0.00    -0.036 A 
ATOM     11  C   UNL     1       0.576   4.223   2.949  1.00  0.00    -0.018 A 
ATOM     12  C   UNL     1       1.318   5.193   3.641  1.00  0.00     0.009 A 
ATOM     13  C   UNL     1      -0.368   4.698   2.025  1.00  0.00     0.009 A 
ATOM     14  C   UNL     1       1.135   6.564   3.420  1.00  0.00     0.005 A 
ATOM     15  C   UNL     1      -0.515   6.068   1.762  1.00  0.00     0.005 A 
BRANCH  11  16
ATOM     16  C   UNL     1       0.798   2.773   3.176  1.00  0.00    -0.018 A 
ATOM     17  C   UNL     1       0.864   0.454   2.334  1.00  0.00    -0.048 A 
ATOM     18  C   UNL     1       1.285   0.015   3.594  1.00  0.00     0.004 A 
ATOM     19  C   UNL     1       0.625   1.827   2.144  1.00  0.00     0.012 A 
ATOM     20  C   UNL     1       1.462   0.923   4.633  1.00  0.00     0.001 A 
ATOM     21  C   UNL     1       1.213   2.282   4.427  1.00  0.00     0.009 A 
BRANCH  17  22
ATOM     22  C   UNL     1       0.614  -0.555   1.238  1.00  0.00     0.032 C 
ATOM     23  C   UNL     1       1.210  -0.188  -0.115  1.00  0.00     0.009 C 
ENDBRANCH  17  22
ENDBRANCH  11  16
ENDBRANCH   8  10
ENDBRANCH   5   8
ENDBRANCH   3   4
ENDBRANCH   2   3
ENDBRANCH   1   2
BRANCH   1  24
ATOM     24  C   UNL     1       6.391   8.755   1.847  1.00  0.00     0.002 C 
BRANCH  24  25
ATOM     25  C   UNL     1       6.781   8.378   3.281  1.00  0.00     0.021 C 
BRANCH  25  26
ATOM     26  C   UNL     1       7.408   6.994   3.436  1.00  0.00     0.116 C 
BRANCH  26  27
ATOM     27  N   UNL     1       8.650   6.879   2.691  1.00  0.00    -0.352 N 
ATOM     28  C   UNL     1       9.915   6.576   3.127  1.00  0.00     0.251 C 
ATOM     29  H   UNL     1       8.572   7.044   1.723  1.00  0.00     0.163 HD
ATOM     30  O   UNL     1      10.870   6.774   2.380  1.00  0.00    -0.269 OA
BRANCH  28  31
ATOM     31  C   UNL     1      10.136   6.027   4.485  1.00  0.00     0.039 A 
ATOM     32  C   UNL     1      11.244   6.464   5.215  1.00  0.00     0.014 A 
ATOM     33  C   UNL     1       9.293   5.046   5.019  1.00  0.00     0.014 A 
ATOM     34  C   UNL     1      11.484   5.952   6.493  1.00  0.00     0.010 A 
ATOM     35  C   UNL     1       9.496   4.584   6.319  1.00  0.00     0.010 A 
ATOM     36  C   UNL     1      10.600   5.023   7.066  1.00  0.00    -0.014 A 
BRANCH  36  37
ATOM     37  C   UNL     1      10.836   4.490   8.434  1.00  0.00     0.031 A 
ATOM     38  C   UNL     1      11.152   3.032   8.636  1.00  0.00     0.074 A 
ATOM     39  C   UNL     1      10.737   5.314   9.496  1.00  0.00     0.049 A 
ATOM     40  N   UNL     1      11.353   2.373   9.749  1.00  0.00    -0.248 NA
ATOM     41  C   UNL     1      11.224   2.200   7.425  1.00  0.00     0.031 C 
ATOM     42  C   UNL     1      10.394   6.737   9.431  1.00  0.00     0.029 A 
ATOM     43  N   UNL     1      10.910   5.077  10.836  1.00  0.00    -0.354 N 
ATOM     44  C   UNL     1      11.577   1.052   9.374  1.00  0.00     0.074 A 
ATOM     45  C   UNL     1      11.414   0.993   7.936  1.00  0.00     0.031 C 
ATOM     46  C   UNL     1      10.402   7.249  10.672  1.00  0.00     0.029 A 
ATOM     47  C   UNL     1      10.716   6.188  11.625  1.00  0.00     0.049 A 
ATOM     48  H   UNL     1      11.150   4.195  11.200  1.00  0.00     0.167 HD
ATOM     49  C   UNL     1      11.916  -0.008  10.151  1.00  0.00     0.034 A 
ATOM     50  C   UNL     1      10.780   6.335  12.963  1.00  0.00     0.034 A 
ATOM     51  C   UNL     1      12.075   0.065  11.584  1.00  0.00     0.049 A 
ATOM     52  C   UNL     1      11.154   5.141  13.806  1.00  0.00     0.074 A 
ATOM     53  C   UNL     1      12.424  -0.941  12.469  1.00  0.00     0.029 A 
ATOM     54  N   UNL     1      11.898   1.214  12.345  1.00  0.00    -0.354 N 
ATOM     55  N   UNL     1      11.397   3.906  13.430  1.00  0.00    -0.248 NA
ATOM     56  C   UNL     1      11.287   5.369  15.250  1.00  0.00     0.031 C 
ATOM     57  C   UNL     1      12.407  -0.414  13.766  1.00  0.00     0.029 A 
ATOM     58  C   UNL     1      12.118   0.938  13.686  1.00  0.00     0.049 A 
ATOM     59  H   UNL     1      11.651   2.096  11.984  1.00  0.00     0.167 HD
ATOM     60  C   UNL     1      11.743   3.219  14.591  1.00  0.00     0.074 A 
ATOM     61  C   UNL     1      11.702   4.184  15.671  1.00  0.00     0.031 C 
ATOM     62  C   UNL     1      12.066   1.910  14.753  1.00  0.00     0.034 A 
BRANCH  49  63
ATOM     63  C   UNL     1      12.123  -1.335   9.457  1.00  0.00     0.023 A 
ATOM     64  C   UNL     1      13.145  -1.513   8.506  1.00  0.00     0.031 A 
ATOM     65  C   UNL     1      11.278  -2.426   9.723  1.00  0.00     0.131 A 
ATOM     66  C   UNL     1      13.247  -2.722   7.803  1.00  0.00     0.055 A 
ATOM     67  C   UNL     1      11.437  -3.655   9.079  1.00  0.00     0.041 A 
ATOM     68  F   UNL     1      10.272  -2.313  10.605  1.00  0.00    -0.206 F 
ATOM     69  C   UNL     1      12.416  -3.804   8.101  1.00  0.00     0.022 A 
BRANCH  66  70
ATOM     70  S   UNL     1      14.389  -2.812   6.397  1.00  0.00     0.124 S 
ATOM     71  O   UNL     1      13.853  -1.776   5.517  1.00  0.00    -0.237 OA
ATOM     72  O   UNL     1      15.677  -2.522   7.016  1.00  0.00    -0.237 OA
ATOM     73  O   UNL     1      14.225  -4.180   5.909  1.00  0.00    -0.744 OA
ENDBRANCH  66  70
ENDBRANCH  49  63
BRANCH  50  74
ATOM     74  C   UNL     1      10.483   7.651  13.598  1.00  0.00     0.023 A 
ATOM     75  C   UNL     1      11.467   8.351  14.313  1.00  0.00     0.031 A 
ATOM     76  C   UNL     1       9.189   8.201  13.548  1.00  0.00     0.131 A 
ATOM     77  C   UNL     1      11.130   9.526  15.002  1.00  0.00     0.055 A 
ATOM     78  C   UNL     1       8.873   9.402  14.186  1.00  0.00     0.041 A 
ATOM     79  F   UNL     1       8.212   7.579  12.871  1.00  0.00    -0.206 F 
ATOM     80  C   UNL     1       9.843  10.063  14.934  1.00  0.00     0.022 A 
BRANCH  77  81
ATOM     81  S   UNL     1      12.376  10.288  16.079  1.00  0.00     0.124 S 
ATOM     82  O   UNL     1      12.728   9.179  16.958  1.00  0.00    -0.237 OA
ATOM     83  O   UNL     1      13.396  10.695  15.118  1.00  0.00    -0.237 OA
ATOM     84  O   UNL     1      11.649  11.384  16.716  1.00  0.00    -0.744 OA
ENDBRANCH  77  81
ENDBRANCH  50  74
BRANCH  62  85
ATOM     85  C   UNL     1      12.444   1.471  16.147  1.00  0.00     0.023 A 
ATOM     86  C   UNL     1      11.518   1.488  17.205  1.00  0.00     0.031 A 
ATOM     87  C   UNL     1      13.762   1.072  16.429  1.00  0.00     0.131 A 
ATOM     88  C   UNL     1      11.940   1.188  18.509  1.00  0.00     0.055 A 
ATOM     89  C   UNL     1      14.161   0.710  17.717  1.00  0.00     0.041 A 
ATOM     90  F   UNL     1      14.689   1.036  15.458  1.00  0.00    -0.206 F 
ATOM     91  C   UNL     1      13.252   0.785  18.769  1.00  0.00     0.022 A 
BRANCH  88  92
ATOM     92  S   UNL     1      10.781   1.448  19.879  1.00  0.00     0.124 S 
ATOM     93  O   UNL     1      10.412   2.849  19.704  1.00  0.00    -0.237 OA
ATOM     94  O   UNL     1       9.734   0.474  19.590  1.00  0.00    -0.237 OA
ATOM     95  O   UNL     1      11.583   1.162  21.067  1.00  0.00    -0.744 OA
ENDBRANCH  88  92
ENDBRANCH  62  85
ENDBRANCH  36  37
ENDBRANCH  28  31
ENDBRANCH  26  27
ENDBRANCH  25  26
ENDBRANCH  24  25
ENDBRANCH   1  24
TORSDOF 19
