REMARK SMILES CC[C@](C)(NC(=O)N1CCS(=O)CC1)C(=O)NCCCCCCNC(=O)c1ccc(-c2c3nc(c(-c4cc(S(=O)(=O)[O-])ccc4F)c4ccc([nH]4)c(-c4cc(S(=O)(=O)[O-])ccc4F)c4nc(c(-c5cc(S(=O)(=O)[O-])ccc5F)c5ccc2[nH]5)C=C4)C=C3)cc1
REMARK SMILES IDX 21 1 20 2 19 3 18 4 17 5 15 6 16 7 3 9 4 10 2 11 1 12 5 13
REMARK SMILES IDX 6 14 7 16 8 17 9 18 14 19 10 20 13 21 11 22 12 23 22 24
REMARK SMILES IDX 23 25 24 26 25 27 26 29 27 30 28 31 89 32 29 33 88 34 30 35
REMARK SMILES IDX 31 36 32 37 82 38 33 39 87 40 81 41 83 42 34 43 86 44 80 45
REMARK SMILES IDX 79 46 35 48 67 49 47 50 66 51 48 52 51 53 65 54 84 55 49 56
REMARK SMILES IDX 50 57 64 59 85 60 52 61 36 62 37 63 45 64 38 65 44 66 46 67
REMARK SMILES IDX 43 68 39 69 40 70 41 71 42 72 68 73 69 74 77 75 70 76 76 77
REMARK SMILES IDX 78 78 75 79 71 80 72 81 73 82 74 83 53 84 54 85 62 86 55 87
REMARK SMILES IDX 61 88 63 89 60 90 56 91 57 92 58 93 59 94
REMARK H PARENT 17 8 5 15 24 28 83 47 51 58
REMARK Flexibility Score: inf
ROOT
ATOM      1  C   UNL     1       4.963  -5.967   3.564  1.00  0.00     0.002 C 
ENDROOT
BRANCH   1   2
ATOM      2  C   UNL     1       4.437  -5.873   2.138  1.00  0.00     0.002 C 
BRANCH   2   3
ATOM      3  C   UNL     1       2.917  -5.740   2.007  1.00  0.00     0.021 C 
BRANCH   3   4
ATOM      4  C   UNL     1       2.281  -4.549   2.730  1.00  0.00     0.116 C 
BRANCH   4   5
ATOM      5  N   UNL     1       2.835  -3.243   2.390  1.00  0.00    -0.354 N 
ATOM      6  C   UNL     1       2.486  -2.322   1.432  1.00  0.00     0.245 C 
ATOM      7  O   UNL     1       3.197  -1.316   1.335  1.00  0.00    -0.272 OA
ATOM      8  H   UNL     1       3.598  -2.972   2.949  1.00  0.00     0.163 HD
BRANCH   6   9
ATOM      9  C   UNL     1       1.206  -2.495   0.571  1.00  0.00     0.117 C 
ATOM     10  C   UNL     1       1.055  -1.398  -0.506  1.00  0.00     0.045 C 
BRANCH   9  11
ATOM     11  C   UNL     1       0.004  -2.308   1.571  1.00  0.00     0.035 C 
ATOM     12  C   UNL     1       0.089  -1.049   2.444  1.00  0.00     0.007 C 
ENDBRANCH   9  11
BRANCH   9  13
ATOM     13  N   UNL     1       1.119  -3.822  -0.113  1.00  0.00    -0.324 N 
ATOM     14  C   UNL     1       1.729  -4.348  -1.212  1.00  0.00     0.318 C 
ATOM     15  H   UNL     1       0.492  -4.444   0.321  1.00  0.00     0.166 HD
ATOM     16  O   UNL     1       1.017  -5.076  -1.911  1.00  0.00    -0.249 OA
ATOM     17  N   UNL     1       3.043  -4.109  -1.541  1.00  0.00    -0.323 N 
ATOM     18  C   UNL     1       3.566  -4.634  -2.810  1.00  0.00     0.135 C 
ATOM     19  C   UNL     1       4.117  -3.903  -0.592  1.00  0.00     0.135 C 
ATOM     20  C   UNL     1       4.631  -3.745  -3.458  1.00  0.00     0.126 C 
ATOM     21  C   UNL     1       5.038  -2.772  -0.976  1.00  0.00     0.126 C 
ATOM     22  S   UNL     1       6.041  -3.302  -2.391  1.00  0.00     0.025 S 
ATOM     23  O   UNL     1       6.763  -4.558  -2.000  1.00  0.00    -0.259 OA
ENDBRANCH   9  13
ENDBRANCH   6   9
ENDBRANCH   4   5
ENDBRANCH   3   4
ENDBRANCH   2   3
ENDBRANCH   1   2
BRANCH   1  24
ATOM     24  C   UNL     1       4.316  -7.063   4.401  1.00  0.00     0.021 C 
BRANCH  24  25
ATOM     25  C   UNL     1       4.411  -8.452   3.785  1.00  0.00     0.116 C 
BRANCH  25  26
ATOM     26  N   UNL     1       5.788  -8.904   3.678  1.00  0.00    -0.352 N 
ATOM     27  C   UNL     1       6.369 -10.009   4.256  1.00  0.00     0.251 C 
ATOM     28  H   UNL     1       6.380  -8.348   3.122  1.00  0.00     0.163 HD
ATOM     29  O   UNL     1       7.583 -10.131   4.281  1.00  0.00    -0.269 OA
BRANCH  27  30
ATOM     30  C   UNL     1       5.488 -11.030   4.863  1.00  0.00     0.039 A 
ATOM     31  C   UNL     1       5.773 -11.502   6.144  1.00  0.00     0.014 A 
ATOM     32  C   UNL     1       4.360 -11.483   4.172  1.00  0.00     0.014 A 
ATOM     33  C   UNL     1       4.894 -12.400   6.752  1.00  0.00     0.010 A 
ATOM     34  C   UNL     1       3.441 -12.303   4.815  1.00  0.00     0.010 A 
ATOM     35  C   UNL     1       3.708 -12.787   6.105  1.00  0.00    -0.014 A 
BRANCH  35  36
ATOM     36  C   UNL     1       2.763 -13.745   6.735  1.00  0.00     0.031 A 
ATOM     37  C   UNL     1       2.506 -15.073   6.072  1.00  0.00     0.074 A 
ATOM     38  C   UNL     1       2.116 -13.413   7.870  1.00  0.00     0.049 A 
ATOM     39  N   UNL     1       1.667 -16.018   6.408  1.00  0.00    -0.248 NA
ATOM     40  C   UNL     1       3.276 -15.363   4.850  1.00  0.00     0.031 C 
ATOM     41  C   UNL     1       2.260 -12.143   8.586  1.00  0.00     0.029 A 
ATOM     42  N   UNL     1       1.206 -14.113   8.622  1.00  0.00    -0.354 N 
ATOM     43  C   UNL     1       1.809 -17.011   5.444  1.00  0.00     0.074 A 
ATOM     44  C   UNL     1       2.751 -16.516   4.465  1.00  0.00     0.031 C 
ATOM     45  C   UNL     1       1.486 -12.166   9.684  1.00  0.00     0.029 A 
ATOM     46  C   UNL     1       0.753 -13.428   9.727  1.00  0.00     0.049 A 
ATOM     47  H   UNL     1       0.904 -15.022   8.393  1.00  0.00     0.167 HD
ATOM     48  C   UNL     1       1.238 -18.239   5.398  1.00  0.00     0.034 A 
ATOM     49  C   UNL     1      -0.158 -13.774  10.659  1.00  0.00     0.034 A 
ATOM     50  C   UNL     1       0.308 -18.724   6.386  1.00  0.00     0.049 A 
ATOM     51  C   UNL     1      -0.813 -15.133  10.562  1.00  0.00     0.074 A 
ATOM     52  C   UNL     1      -0.326 -19.952   6.443  1.00  0.00     0.029 A 
ATOM     53  N   UNL     1      -0.118 -18.005   7.496  1.00  0.00    -0.354 N 
ATOM     54  N   UNL     1      -0.645 -16.069   9.655  1.00  0.00    -0.248 NA
ATOM     55  C   UNL     1      -1.764 -15.490  11.622  1.00  0.00     0.031 C 
ATOM     56  C   UNL     1      -1.180 -19.954   7.550  1.00  0.00     0.029 A 
ATOM     57  C   UNL     1      -1.015 -18.760   8.234  1.00  0.00     0.049 A 
ATOM     58  H   UNL     1       0.174 -17.093   7.724  1.00  0.00     0.167 HD
ATOM     59  C   UNL     1      -1.432 -17.142  10.068  1.00  0.00     0.074 A 
ATOM     60  C   UNL     1      -2.059 -16.742  11.309  1.00  0.00     0.031 C 
ATOM     61  C   UNL     1      -1.619 -18.351   9.479  1.00  0.00     0.034 A 
BRANCH  48  62
ATOM     62  C   UNL     1       1.604 -19.134   4.240  1.00  0.00     0.023 A 
ATOM     63  C   UNL     1       2.922 -19.588   4.053  1.00  0.00     0.031 A 
ATOM     64  C   UNL     1       0.631 -19.538   3.309  1.00  0.00     0.131 A 
ATOM     65  C   UNL     1       3.244 -20.365   2.931  1.00  0.00     0.055 A 
ATOM     66  C   UNL     1       0.942 -20.379   2.238  1.00  0.00     0.041 A 
ATOM     67  F   UNL     1      -0.638 -19.116   3.420  1.00  0.00    -0.206 F 
ATOM     68  C   UNL     1       2.258 -20.788   2.038  1.00  0.00     0.022 A 
BRANCH  65  69
ATOM     69  S   UNL     1       4.991 -20.709   2.589  1.00  0.00     0.124 S 
ATOM     70  O   UNL     1       5.527 -19.361   2.413  1.00  0.00    -0.237 OA
ATOM     71  O   UNL     1       5.416 -21.414   3.793  1.00  0.00    -0.237 OA
ATOM     72  O   UNL     1       4.948 -21.519   1.373  1.00  0.00    -0.744 OA
ENDBRANCH  65  69
ENDBRANCH  48  62
BRANCH  49  73
ATOM     73  C   UNL     1      -0.532 -12.831  11.757  1.00  0.00     0.023 A 
ATOM     74  C   UNL     1      -0.351 -13.178  13.105  1.00  0.00     0.031 A 
ATOM     75  C   UNL     1      -1.161 -11.605  11.475  1.00  0.00     0.131 A 
ATOM     76  C   UNL     1      -0.869 -12.354  14.117  1.00  0.00     0.055 A 
ATOM     77  C   UNL     1      -1.607 -10.752  12.487  1.00  0.00     0.041 A 
ATOM     78  F   UNL     1      -1.360 -11.217  10.205  1.00  0.00    -0.206 F 
ATOM     79  C   UNL     1      -1.482 -11.136  13.818  1.00  0.00     0.022 A 
BRANCH  76  80
ATOM     80  S   UNL     1      -0.862 -12.970  15.824  1.00  0.00     0.124 S 
ATOM     81  O   UNL     1      -1.549 -14.248  15.679  1.00  0.00    -0.237 OA
ATOM     82  O   UNL     1       0.567 -13.038  16.114  1.00  0.00    -0.237 OA
ATOM     83  O   UNL     1      -1.598 -11.943  16.558  1.00  0.00    -0.744 OA
ENDBRANCH  76  80
ENDBRANCH  49  73
BRANCH  61  84
ATOM     84  C   UNL     1      -2.473 -19.355  10.216  1.00  0.00     0.023 A 
ATOM     85  C   UNL     1      -3.844 -19.144  10.446  1.00  0.00     0.031 A 
ATOM     86  C   UNL     1      -1.895 -20.540  10.707  1.00  0.00     0.131 A 
ATOM     87  C   UNL     1      -4.574 -20.070  11.205  1.00  0.00     0.055 A 
ATOM     88  C   UNL     1      -2.644 -21.492  11.399  1.00  0.00     0.041 A 
ATOM     89  F   UNL     1      -0.590 -20.793  10.519  1.00  0.00    -0.206 F 
ATOM     90  C   UNL     1      -3.988 -21.252  11.666  1.00  0.00     0.022 A 
BRANCH  87  91
ATOM     91  S   UNL     1      -6.276 -19.657  11.678  1.00  0.00     0.124 S 
ATOM     92  O   UNL     1      -6.097 -18.388  12.376  1.00  0.00    -0.237 OA
ATOM     93  O   UNL     1      -6.949 -19.584  10.386  1.00  0.00    -0.237 OA
ATOM     94  O   UNL     1      -6.679 -20.779  12.524  1.00  0.00    -0.744 OA
ENDBRANCH  87  91
ENDBRANCH  61  84
ENDBRANCH  35  36
ENDBRANCH  27  30
ENDBRANCH  25  26
ENDBRANCH  24  25
ENDBRANCH   1  24
TORSDOF 18
