REMARK SMILES Cn1cc([C@@H]2CC(NCCCCCCNC(=O)c3ccc(-c4c5nc(c(-c6cc(S(=O)(=O)[O-])ccc6F)c6ccc([nH]6)c(-c6cc(S(=O)(=O)[O-])ccc6F)c6nc(c(-c7cc(S(=O)(=O)[O-])ccc7F)c7ccc4[nH]7)C=C6)C=C5)cc3)=[NH+]c3c2sc(C(=O)[O-])c3-c2ccc(Cl)cc2)cn1
REMARK SMILES IDX 13 1 12 2 11 3 10 4 9 5 8 6 5 7 6 8 83 9 7 10 82 11 84 12
REMARK SMILES IDX 81 13 89 14 85 15 4 18 1 19 2 20 3 21 98 22 97 23 90 24
REMARK SMILES IDX 91 25 96 26 92 27 95 28 93 29 94 30 86 31 87 32 88 33 14 34
REMARK SMILES IDX 15 35 16 36 17 38 18 39 19 40 80 41 20 42 79 43 21 44 22 45
REMARK SMILES IDX 23 46 73 47 24 48 78 49 72 50 74 51 25 52 77 53 71 54 70 55
REMARK SMILES IDX 26 57 58 58 38 59 57 60 39 61 42 62 56 63 75 64 40 65 41 66
REMARK SMILES IDX 55 68 76 69 43 70 27 71 28 72 36 73 29 74 35 75 37 76 34 77
REMARK SMILES IDX 30 78 31 79 32 80 33 81 59 82 60 83 68 84 61 85 67 86 69 87
REMARK SMILES IDX 66 88 62 89 63 90 64 91 65 92 44 93 45 94 53 95 46 96 52 97
REMARK SMILES IDX 54 98 51 99 47 100 48 101 49 102 50 103
REMARK H PARENT 8 16 81 17 15 37 74 56 42 67
REMARK Flexibility Score: inf
ROOT
ATOM      1  C   UNL     1       4.758  -8.094  -4.289  1.00  0.00     0.021 C 
ENDROOT
BRANCH   1   2
ATOM      2  C   UNL     1       4.156  -6.709  -4.564  1.00  0.00     0.002 C 
BRANCH   2   3
ATOM      3  C   UNL     1       2.740  -6.451  -4.029  1.00  0.00     0.004 C 
BRANCH   3   4
ATOM      4  C   UNL     1       2.524  -6.715  -2.535  1.00  0.00     0.046 C 
BRANCH   4   5
ATOM      5  C   UNL     1       3.516  -6.020  -1.605  1.00  0.00     0.233 C 
BRANCH   5   6
ATOM      6  N   UNL     1       3.391  -4.578  -1.707  1.00  0.00    -0.278 N 
ATOM      7  C   UNL     1       2.652  -1.329   0.199  1.00  0.00     0.079 C 
ATOM      8  C   UNL     1       2.961  -2.273  -0.971  1.00  0.00     0.142 C 
ATOM      9  C   UNL     1       2.668  -2.065   1.494  1.00  0.00     0.061 A 
ATOM     10  C   UNL     1       3.149  -3.752  -0.631  1.00  0.00     0.248 C 
ATOM     11  C   UNL     1       2.869  -3.405   1.631  1.00  0.00     0.147 A 
ATOM     12  S   UNL     1       2.452  -1.321   3.007  1.00  0.00    -0.133 S 
ATOM     13  N   UNL     1       3.115  -4.263   0.564  1.00  0.00    -0.243 N 
ATOM     14  C   UNL     1       2.800  -3.877   2.978  1.00  0.00     0.049 A 
ATOM     15  C   UNL     1       2.569  -2.824   3.859  1.00  0.00     0.062 A 
ATOM     16  H   UNL     1       3.483  -4.166  -2.596  1.00  0.00     0.304 HD
ATOM     17  H   UNL     1       3.258  -5.226   0.710  1.00  0.00     0.312 HD
BRANCH   7  18
ATOM     18  C   UNL     1       1.362  -0.582  -0.003  1.00  0.00    -0.001 A 
ATOM     19  C   UNL     1      -2.195  -0.009  -0.143  1.00  0.00     0.173 C 
ATOM     20  N   UNL     1      -0.752   0.000  -0.158  1.00  0.00    -0.276 N 
ATOM     21  C   UNL     1       0.074  -1.079  -0.058  1.00  0.00     0.112 A 
ATOM     22  N   UNL     1      -0.092   1.172  -0.235  1.00  0.00    -0.182 NA
ATOM     23  C   UNL     1       1.189   0.817  -0.123  1.00  0.00     0.139 A 
ENDBRANCH   7  18
BRANCH  14  24
ATOM     24  C   UNL     1       2.996  -5.268   3.387  1.00  0.00    -0.012 A 
ATOM     25  C   UNL     1       1.973  -5.997   4.008  1.00  0.00     0.010 A 
ATOM     26  C   UNL     1       4.223  -5.895   3.124  1.00  0.00     0.010 A 
ATOM     27  C   UNL     1       2.200  -7.314   4.421  1.00  0.00     0.021 A 
ATOM     28  C   UNL     1       4.444  -7.214   3.524  1.00  0.00     0.021 A 
ATOM     29  C   UNL     1       3.437  -7.911   4.187  1.00  0.00     0.041 A 
ATOM     30  Cl  UNL     1       3.731  -9.519   4.727  1.00  0.00    -0.084 Cl
ENDBRANCH  14  24
BRANCH  15  31
ATOM     31  C   UNL     1       2.433  -2.745   5.303  1.00  0.00     0.082 C 
ATOM     32  O   UNL     1       2.115  -1.788   5.982  1.00  0.00    -0.544 OA
ATOM     33  O   UNL     1       2.731  -3.909   5.925  1.00  0.00    -0.544 OA
ENDBRANCH  15  31
ENDBRANCH   5   6
ENDBRANCH   4   5
ENDBRANCH   3   4
ENDBRANCH   2   3
ENDBRANCH   1   2
BRANCH   1  34
ATOM     34  C   UNL     1       3.993  -9.252  -4.912  1.00  0.00     0.116 C 
BRANCH  34  35
ATOM     35  N   UNL     1       4.029  -9.237  -6.375  1.00  0.00    -0.352 N 
ATOM     36  C   UNL     1       3.361 -10.073  -7.253  1.00  0.00     0.251 C 
ATOM     37  H   UNL     1       4.598  -8.546  -6.786  1.00  0.00     0.163 HD
ATOM     38  O   UNL     1       3.781 -10.239  -8.393  1.00  0.00    -0.269 OA
BRANCH  36  39
ATOM     39  C   UNL     1       2.135 -10.752  -6.790  1.00  0.00     0.039 A 
ATOM     40  C   UNL     1       1.830 -12.068  -7.146  1.00  0.00     0.014 A 
ATOM     41  C   UNL     1       1.297 -10.039  -5.940  1.00  0.00     0.014 A 
ATOM     42  C   UNL     1       0.718 -12.679  -6.563  1.00  0.00     0.010 A 
ATOM     43  C   UNL     1       0.327 -10.693  -5.230  1.00  0.00     0.010 A 
ATOM     44  C   UNL     1      -0.019 -11.990  -5.583  1.00  0.00    -0.014 A 
BRANCH  44  45
ATOM     45  C   UNL     1      -1.062 -12.648  -4.796  1.00  0.00     0.031 A 
ATOM     46  C   UNL     1      -0.580 -13.873  -4.112  1.00  0.00     0.074 A 
ATOM     47  C   UNL     1      -2.250 -12.071  -4.496  1.00  0.00     0.049 A 
ATOM     48  N   UNL     1      -0.776 -15.101  -4.464  1.00  0.00    -0.248 NA
ATOM     49  C   UNL     1       0.424 -13.725  -3.042  1.00  0.00     0.031 C 
ATOM     50  C   UNL     1      -2.684 -10.710  -4.843  1.00  0.00     0.029 A 
ATOM     51  N   UNL     1      -3.286 -12.519  -3.725  1.00  0.00    -0.354 N 
ATOM     52  C   UNL     1      -0.216 -15.861  -3.441  1.00  0.00     0.074 A 
ATOM     53  C   UNL     1       0.742 -15.001  -2.808  1.00  0.00     0.031 C 
ATOM     54  C   UNL     1      -3.756 -10.362  -4.098  1.00  0.00     0.029 A 
ATOM     55  C   UNL     1      -4.210 -11.533  -3.370  1.00  0.00     0.049 A 
ATOM     56  H   UNL     1      -3.374 -13.458  -3.444  1.00  0.00     0.167 HD
ATOM     57  C   UNL     1      -0.882 -16.953  -2.967  1.00  0.00     0.034 A 
ATOM     58  C   UNL     1      -5.296 -11.658  -2.561  1.00  0.00     0.034 A 
ATOM     59  C   UNL     1      -1.972 -17.285  -3.861  1.00  0.00     0.049 A 
ATOM     60  C   UNL     1      -5.680 -13.086  -2.588  1.00  0.00     0.074 A 
ATOM     61  C   UNL     1      -2.124 -17.849  -5.108  1.00  0.00     0.029 A 
ATOM     62  N   UNL     1      -3.139 -16.621  -3.571  1.00  0.00    -0.354 N 
ATOM     63  N   UNL     1      -6.072 -13.690  -3.677  1.00  0.00    -0.248 NA
ATOM     64  C   UNL     1      -5.256 -13.968  -1.507  1.00  0.00     0.031 C 
ATOM     65  C   UNL     1      -3.363 -17.355  -5.621  1.00  0.00     0.029 A 
ATOM     66  C   UNL     1      -3.971 -16.553  -4.657  1.00  0.00     0.049 A 
ATOM     67  H   UNL     1      -3.352 -16.240  -2.689  1.00  0.00     0.167 HD
ATOM     68  C   UNL     1      -5.530 -14.955  -3.581  1.00  0.00     0.074 A 
ATOM     69  C   UNL     1      -5.205 -15.127  -2.170  1.00  0.00     0.031 C 
ATOM     70  C   UNL     1      -5.076 -15.609  -4.689  1.00  0.00     0.034 A 
BRANCH  57  71
ATOM     71  C   UNL     1      -0.947 -17.395  -1.506  1.00  0.00     0.023 A 
ATOM     72  C   UNL     1      -1.822 -18.465  -1.210  1.00  0.00     0.031 A 
ATOM     73  C   UNL     1      -0.467 -16.684  -0.384  1.00  0.00     0.131 A 
ATOM     74  C   UNL     1      -2.267 -18.706   0.102  1.00  0.00     0.055 A 
ATOM     75  C   UNL     1      -0.883 -16.952   0.926  1.00  0.00     0.041 A 
ATOM     76  F   UNL     1       0.370 -15.647  -0.475  1.00  0.00    -0.206 F 
ATOM     77  C   UNL     1      -1.812 -17.946   1.173  1.00  0.00     0.022 A 
BRANCH  74  78
ATOM     78  S   UNL     1      -3.570 -19.937   0.365  1.00  0.00     0.124 S 
ATOM     79  O   UNL     1      -4.614 -19.461  -0.535  1.00  0.00    -0.237 OA
ATOM     80  O   UNL     1      -2.895 -21.172  -0.019  1.00  0.00    -0.237 OA
ATOM     81  O   UNL     1      -3.869 -19.811   1.790  1.00  0.00    -0.744 OA
ENDBRANCH  74  78
ENDBRANCH  57  71
BRANCH  58  82
ATOM     82  C   UNL     1      -5.837 -10.678  -1.575  1.00  0.00     0.023 A 
ATOM     83  C   UNL     1      -7.154 -10.737  -1.066  1.00  0.00     0.031 A 
ATOM     84  C   UNL     1      -4.940  -9.812  -0.911  1.00  0.00     0.131 A 
ATOM     85  C   UNL     1      -7.517  -9.970   0.070  1.00  0.00     0.055 A 
ATOM     86  C   UNL     1      -5.301  -9.066   0.214  1.00  0.00     0.041 A 
ATOM     87  F   UNL     1      -3.653  -9.730  -1.284  1.00  0.00    -0.206 F 
ATOM     88  C   UNL     1      -6.588  -9.153   0.719  1.00  0.00     0.022 A 
BRANCH  85  89
ATOM     89  S   UNL     1      -9.193 -10.088   0.783  1.00  0.00     0.124 S 
ATOM     90  O   UNL     1     -10.015  -9.472  -0.252  1.00  0.00    -0.237 OA
ATOM     91  O   UNL     1      -9.355 -11.525   0.972  1.00  0.00    -0.237 OA
ATOM     92  O   UNL     1      -9.091  -9.317   2.024  1.00  0.00    -0.744 OA
ENDBRANCH  85  89
ENDBRANCH  58  82
BRANCH  70  93
ATOM     93  C   UNL     1      -5.700 -15.264  -6.017  1.00  0.00     0.023 A 
ATOM     94  C   UNL     1      -5.637 -14.009  -6.662  1.00  0.00     0.031 A 
ATOM     95  C   UNL     1      -6.379 -16.305  -6.675  1.00  0.00     0.131 A 
ATOM     96  C   UNL     1      -6.247 -13.840  -7.923  1.00  0.00     0.055 A 
ATOM     97  C   UNL     1      -6.962 -16.140  -7.927  1.00  0.00     0.041 A 
ATOM     98  F   UNL     1      -6.469 -17.521  -6.110  1.00  0.00    -0.206 F 
ATOM     99  C   UNL     1      -6.903 -14.903  -8.555  1.00  0.00     0.022 A 
BRANCH  96 100
ATOM    100  S   UNL     1      -6.234 -12.220  -8.759  1.00  0.00     0.124 S 
ATOM    101  O   UNL     1      -6.639 -11.290  -7.713  1.00  0.00    -0.237 OA
ATOM    102  O   UNL     1      -4.849 -12.110  -9.210  1.00  0.00    -0.237 OA
ATOM    103  O   UNL     1      -7.210 -12.386  -9.838  1.00  0.00    -0.744 OA
ENDBRANCH  96 100
ENDBRANCH  70  93
ENDBRANCH  44  45
ENDBRANCH  36  39
ENDBRANCH  34  35
ENDBRANCH   1  34
TORSDOF 18
