REMARK SMILES O=C(CNC(=O)[C@@H](CC1=c2ccccc2=NC1)N1C(=O)N=C2C=CC=C[C@H]2C1=O)NCCCCCCNC(=O)c1ccc(-c2c3nc(c(-c4cc(S(=O)(=O)[O-])ccc4F)c4ccc([nH]4)c(-c4cc(S(=O)(=O)[O-])ccc4F)c4nc(c(-c5cc(S(=O)(=O)[O-])ccc5F)c5ccc2[nH]5)C=C4)C=C3)cc1
REMARK SMILES IDX 33 1 32 2 31 3 30 4 1 5 2 6 3 8 4 9 5 10 6 12 7 13 8 14 9 15
REMARK SMILES IDX 10 16 17 17 11 18 15 19 16 20 12 21 14 22 13 23 18 24 19 25
REMARK SMILES IDX 28 26 21 27 20 28 27 29 29 30 22 31 26 32 23 33 25 34 24 35
REMARK SMILES IDX 34 36 35 37 36 38 37 39 38 40 39 42 40 43 41 44 102 45 42 46
REMARK SMILES IDX 101 47 43 48 44 49 45 50 95 51 46 52 100 53 94 54 96 55
REMARK SMILES IDX 47 56 99 57 93 58 92 59 48 61 80 62 60 63 79 64 61 65 64 66
REMARK SMILES IDX 78 67 97 68 62 69 63 70 77 72 98 73 65 74 49 75 50 76 58 77
REMARK SMILES IDX 51 78 57 79 59 80 56 81 52 82 53 83 54 84 55 85 81 86 82 87
REMARK SMILES IDX 90 88 83 89 89 90 91 91 88 92 84 93 85 94 86 95 87 96 66 97
REMARK SMILES IDX 67 98 75 99 68 100 74 101 76 102 73 103 69 104 70 105 71 106
REMARK SMILES IDX 72 107
REMARK H PARENT 30 7 4 11 37 41 96 60 64 71
REMARK Flexibility Score: inf
ROOT
ATOM      1  C   UNL     1       3.927   1.671   3.065  1.00  0.00     0.002 C 
ENDROOT
BRANCH   1   2
ATOM      2  C   UNL     1       2.420   1.576   2.773  1.00  0.00     0.021 C 
BRANCH   2   3
ATOM      3  C   UNL     1       1.985   2.072   1.391  1.00  0.00     0.116 C 
BRANCH   3   4
ATOM      4  N   UNL     1       2.682   1.379   0.324  1.00  0.00    -0.355 N 
ATOM      5  O   UNL     1       0.891   0.236  -0.572  1.00  0.00    -0.273 OA
ATOM      6  C   UNL     1       2.091   0.494  -0.556  1.00  0.00     0.239 C 
ATOM      7  H   UNL     1       3.646   1.551   0.221  1.00  0.00     0.163 HD
BRANCH   6   8
ATOM      8  C   UNL     1       3.071  -0.187  -1.541  1.00  0.00     0.216 C 
BRANCH   8   9
ATOM      9  N   UNL     1       4.422   0.351  -1.422  1.00  0.00    -0.345 N 
ATOM     10  C   UNL     1       5.578  -0.256  -1.031  1.00  0.00     0.244 C 
ATOM     11  H   UNL     1       4.513   1.302  -1.662  1.00  0.00     0.164 HD
ATOM     12  O   UNL     1       6.348   0.420  -0.340  1.00  0.00    -0.273 OA
BRANCH  10  13
ATOM     13  C   UNL     1       5.900  -1.745  -1.346  1.00  0.00     0.188 C 
BRANCH  13  14
ATOM     14  C   UNL     1       5.785  -2.592  -0.037  1.00  0.00     0.069 C 
BRANCH  14  15
ATOM     15  C   UNL     1       4.454  -2.708   0.640  1.00  0.00    -0.037 C 
ATOM     16  C   UNL     1       3.556  -3.692   0.628  1.00  0.00     0.001 A 
ATOM     17  C   UNL     1       4.041  -1.659   1.630  1.00  0.00     0.174 C 
ATOM     18  C   UNL     1       3.460  -4.988   0.040  1.00  0.00     0.010 A 
ATOM     19  C   UNL     1       2.481  -3.165   1.490  1.00  0.00     0.065 A 
ATOM     20  N   UNL     1       2.684  -2.026   2.072  1.00  0.00    -0.280 NA
ATOM     21  C   UNL     1       2.336  -5.701   0.224  1.00  0.00     0.001 A 
ATOM     22  C   UNL     1       1.252  -3.976   1.594  1.00  0.00     0.028 A 
ATOM     23  C   UNL     1       1.211  -5.168   0.977  1.00  0.00     0.002 A 
ENDBRANCH  14  15
ENDBRANCH  13  14
BRANCH  13  24
ATOM     24  N   UNL     1       5.275  -2.236  -2.600  1.00  0.00    -0.249 N 
ATOM     25  C   UNL     1       5.482  -1.417  -3.715  1.00  0.00     0.351 C 
ATOM     26  C   UNL     1       5.223  -3.589  -2.867  1.00  0.00     0.244 C 
ATOM     27  N   UNL     1       4.951  -1.754  -4.928  1.00  0.00    -0.197 NA
ATOM     28  O   UNL     1       6.205  -0.424  -3.650  1.00  0.00    -0.246 OA
ATOM     29  C   UNL     1       4.362  -3.973  -4.057  1.00  0.00     0.151 C 
ATOM     30  O   UNL     1       5.818  -4.443  -2.210  1.00  0.00    -0.273 OA
ATOM     31  C   UNL     1       4.498  -2.941  -5.146  1.00  0.00     0.062 C 
ATOM     32  C   UNL     1       4.678  -5.343  -4.611  1.00  0.00    -0.007 C 
ATOM     33  C   UNL     1       4.109  -3.310  -6.530  1.00  0.00     0.025 C 
ATOM     34  C   UNL     1       4.596  -5.617  -5.922  1.00  0.00    -0.003 C 
ATOM     35  C   UNL     1       4.177  -4.606  -6.863  1.00  0.00     0.002 C 
ENDBRANCH  13  24
ENDBRANCH  10  13
ENDBRANCH   8   9
ENDBRANCH   6   8
ENDBRANCH   3   4
ENDBRANCH   2   3
ENDBRANCH   1   2
BRANCH   1  36
ATOM     36  C   UNL     1       4.519   3.081   3.086  1.00  0.00     0.002 C 
BRANCH  36  37
ATOM     37  C   UNL     1       3.914   4.027   4.119  1.00  0.00     0.021 C 
BRANCH  37  38
ATOM     38  C   UNL     1       3.959   3.530   5.561  1.00  0.00     0.116 C 
BRANCH  38  39
ATOM     39  N   UNL     1       5.313   3.430   6.088  1.00  0.00    -0.352 N 
ATOM     40  C   UNL     1       5.841   3.979   7.236  1.00  0.00     0.251 C 
ATOM     41  H   UNL     1       5.939   2.896   5.548  1.00  0.00     0.163 HD
ATOM     42  O   UNL     1       7.046   3.901   7.458  1.00  0.00    -0.269 OA
BRANCH  40  43
ATOM     43  C   UNL     1       4.953   4.697   8.178  1.00  0.00     0.039 A 
ATOM     44  C   UNL     1       3.732   4.142   8.566  1.00  0.00     0.014 A 
ATOM     45  C   UNL     1       5.331   5.957   8.650  1.00  0.00     0.014 A 
ATOM     46  C   UNL     1       2.819   4.915   9.275  1.00  0.00     0.010 A 
ATOM     47  C   UNL     1       4.442   6.702   9.434  1.00  0.00     0.010 A 
ATOM     48  C   UNL     1       3.158   6.209   9.708  1.00  0.00    -0.014 A 
BRANCH  48  49
ATOM     49  C   UNL     1       2.148   7.011  10.450  1.00  0.00     0.031 A 
ATOM     50  C   UNL     1       1.552   8.257   9.852  1.00  0.00     0.074 A 
ATOM     51  C   UNL     1       1.713   6.563  11.644  1.00  0.00     0.049 A 
ATOM     52  N   UNL     1       0.587   9.008  10.317  1.00  0.00    -0.248 NA
ATOM     53  C   UNL     1       2.109   8.723   8.573  1.00  0.00     0.031 C 
ATOM     54  C   UNL     1       2.224   5.372  12.321  1.00  0.00     0.029 A 
ATOM     55  N   UNL     1       0.726   7.024  12.478  1.00  0.00    -0.354 N 
ATOM     56  C   UNL     1       0.425  10.038   9.397  1.00  0.00     0.074 A 
ATOM     57  C   UNL     1       1.417   9.836   8.363  1.00  0.00     0.031 C 
ATOM     58  C   UNL     1       1.501   5.154  13.428  1.00  0.00     0.029 A 
ATOM     59  C   UNL     1       0.513   6.220  13.573  1.00  0.00     0.049 A 
ATOM     60  H   UNL     1       0.219   7.851  12.308  1.00  0.00     0.167 HD
ATOM     61  C   UNL     1      -0.478  11.048   9.405  1.00  0.00     0.034 A 
ATOM     62  C   UNL     1      -0.380   6.320  14.579  1.00  0.00     0.034 A 
ATOM     63  C   UNL     1      -1.476  11.230  10.429  1.00  0.00     0.049 A 
ATOM     64  C   UNL     1      -1.363   7.460  14.572  1.00  0.00     0.074 A 
ATOM     65  C   UNL     1      -2.457  12.204  10.502  1.00  0.00     0.029 A 
ATOM     66  N   UNL     1      -1.627  10.427  11.549  1.00  0.00    -0.354 N 
ATOM     67  N   UNL     1      -1.535   8.393  13.665  1.00  0.00    -0.248 NA
ATOM     68  C   UNL     1      -2.269   7.568  15.723  1.00  0.00     0.031 C 
ATOM     69  C   UNL     1      -3.172  12.016  11.688  1.00  0.00     0.029 A 
ATOM     70  C   UNL     1      -2.668  10.897  12.332  1.00  0.00     0.049 A 
ATOM     71  H   UNL     1      -1.075   9.639  11.758  1.00  0.00     0.167 HD
ATOM     72  C   UNL     1      -2.570   9.196  14.134  1.00  0.00     0.074 A 
ATOM     73  C   UNL     1      -3.009   8.617  15.387  1.00  0.00     0.031 C 
ATOM     74  C   UNL     1      -3.098  10.316  13.581  1.00  0.00     0.034 A 
BRANCH  61  75
ATOM     75  C   UNL     1      -0.457  12.038   8.268  1.00  0.00     0.023 A 
ATOM     76  C   UNL     1      -0.112  13.382   8.505  1.00  0.00     0.031 A 
ATOM     77  C   UNL     1      -0.889  11.677   6.980  1.00  0.00     0.131 A 
ATOM     78  C   UNL     1      -0.226  14.320   7.471  1.00  0.00     0.055 A 
ATOM     79  C   UNL     1      -0.974  12.610   5.947  1.00  0.00     0.041 A 
ATOM     80  F   UNL     1      -1.227  10.406   6.707  1.00  0.00    -0.206 F 
ATOM     81  C   UNL     1      -0.650  13.941   6.193  1.00  0.00     0.022 A 
BRANCH  78  82
ATOM     82  S   UNL     1       0.129  16.077   7.752  1.00  0.00     0.124 S 
ATOM     83  O   UNL     1       1.203  16.322   6.792  1.00  0.00    -0.237 OA
ATOM     84  O   UNL     1      -1.150  16.703   7.429  1.00  0.00    -0.237 OA
ATOM     85  O   UNL     1       0.524  16.136   9.155  1.00  0.00    -0.744 OA
ENDBRANCH  78  82
ENDBRANCH  61  75
BRANCH  62  86
ATOM     86  C   UNL     1      -0.407   5.263  15.630  1.00  0.00     0.023 A 
ATOM     87  C   UNL     1       0.707   5.034  16.458  1.00  0.00     0.031 A 
ATOM     88  C   UNL     1      -1.502   4.390  15.738  1.00  0.00     0.131 A 
ATOM     89  C   UNL     1       0.731   3.917  17.301  1.00  0.00     0.055 A 
ATOM     90  C   UNL     1      -1.502   3.316  16.630  1.00  0.00     0.041 A 
ATOM     91  F   UNL     1      -2.583   4.562  14.962  1.00  0.00    -0.206 F 
ATOM     92  C   UNL     1      -0.372   3.064  17.402  1.00  0.00     0.022 A 
BRANCH  89  93
ATOM     93  S   UNL     1       2.249   3.450  18.180  1.00  0.00     0.124 S 
ATOM     94  O   UNL     1       1.851   3.606  19.575  1.00  0.00    -0.237 OA
ATOM     95  O   UNL     1       2.447   2.074  17.729  1.00  0.00    -0.237 OA
ATOM     96  O   UNL     1       3.236   4.408  17.692  1.00  0.00    -0.744 OA
ENDBRANCH  89  93
ENDBRANCH  62  86
BRANCH  74  97
ATOM     97  C   UNL     1      -4.199  11.027  14.327  1.00  0.00     0.023 A 
ATOM     98  C   UNL     1      -5.495  11.100  13.784  1.00  0.00     0.031 A 
ATOM     99  C   UNL     1      -3.928  11.740  15.508  1.00  0.00     0.131 A 
ATOM    100  C   UNL     1      -6.466  11.894  14.409  1.00  0.00     0.055 A 
ATOM    101  C   UNL     1      -4.909  12.501  16.146  1.00  0.00     0.041 A 
ATOM    102  F   UNL     1      -2.704  11.705  16.058  1.00  0.00    -0.206 F 
ATOM    103  C   UNL     1      -6.181  12.590  15.589  1.00  0.00     0.022 A 
BRANCH 100 104
ATOM    104  S   UNL     1      -8.111  12.115  13.675  1.00  0.00     0.124 S 
ATOM    105  O   UNL     1      -8.976  11.517  14.689  1.00  0.00    -0.237 OA
ATOM    106  O   UNL     1      -8.203  13.568  13.554  1.00  0.00    -0.237 OA
ATOM    107  O   UNL     1      -8.035  11.386  12.413  1.00  0.00    -0.744 OA
ENDBRANCH 100 104
ENDBRANCH  74  97
ENDBRANCH  48  49
ENDBRANCH  40  43
ENDBRANCH  38  39
ENDBRANCH  37  38
ENDBRANCH  36  37
ENDBRANCH   1  36
TORSDOF 21
