REMARK SMILES O=C(NCCCCCCNC(=O)[C@H]1C[C@H](O)CN1S(=O)(=O)c1ccc2c(c1)OCCO2)c1ccc(-c2c3nc(c(-c4cc(S(=O)(=O)[O-])ccc4F)c4ccc([nH]4)c(-c4cc(S(=O)(=O)[O-])ccc4F)c4nc(c(-c5cc(S(=O)(=O)[O-])ccc5F)c5ccc2[nH]5)C=C4)C=C3)cc1
REMARK SMILES IDX 6 1 5 2 4 3 3 4 1 5 2 6 32 8 33 9 94 10 34 11 93 12 35 13
REMARK SMILES IDX 36 14 37 15 87 16 38 17 92 18 86 19 88 20 39 21 91 22 85 23
REMARK SMILES IDX 84 24 40 26 72 27 52 28 71 29 53 30 56 31 70 32 89 33 54 34
REMARK SMILES IDX 55 35 69 37 90 38 57 39 41 40 42 41 50 42 43 43 49 44 51 45
REMARK SMILES IDX 48 46 44 47 45 48 46 49 47 50 73 51 74 52 82 53 75 54 81 55
REMARK SMILES IDX 83 56 80 57 76 58 77 59 78 60 79 61 58 62 59 63 67 64 60 65
REMARK SMILES IDX 66 66 68 67 65 68 61 69 62 70 63 71 64 72 7 73 8 74 9 75
REMARK SMILES IDX 10 76 11 77 12 79 13 80 14 81 18 82 15 83 17 84 19 85 20 86
REMARK SMILES IDX 21 87 22 88 23 89 27 90 24 91 26 92 25 93 28 94 31 95 29 96
REMARK SMILES IDX 30 97 16 98
REMARK H PARENT 3 7 88 25 56 36 10 78 16 99
REMARK Flexibility Score: inf
ROOT
ATOM      1  C   UNL     1       4.205  -2.516  -3.007  1.00  0.00     0.002 C 
ENDROOT
BRANCH   1   2
ATOM      2  C   UNL     1       4.637  -2.201  -1.575  1.00  0.00     0.021 C 
BRANCH   2   3
ATOM      3  C   UNL     1       4.433  -0.757  -1.137  1.00  0.00     0.116 C 
BRANCH   3   4
ATOM      4  N   UNL     1       3.030  -0.379  -1.074  1.00  0.00    -0.352 N 
ATOM      5  O   UNL     1       1.118   0.327  -0.105  1.00  0.00    -0.269 OA
ATOM      6  C   UNL     1       2.338   0.204  -0.039  1.00  0.00     0.251 C 
ATOM      7  H   UNL     1       2.503  -0.567  -1.884  1.00  0.00     0.163 HD
BRANCH   6   8
ATOM      8  C   UNL     1       3.067   0.660   1.167  1.00  0.00     0.039 A 
ATOM      9  C   UNL     1       4.257   1.382   1.049  1.00  0.00     0.014 A 
ATOM     10  C   UNL     1       2.557   0.353   2.431  1.00  0.00     0.014 A 
ATOM     11  C   UNL     1       5.008   1.665   2.184  1.00  0.00     0.010 A 
ATOM     12  C   UNL     1       3.272   0.717   3.577  1.00  0.00     0.010 A 
ATOM     13  C   UNL     1       4.522   1.346   3.463  1.00  0.00    -0.014 A 
BRANCH  13  14
ATOM     14  C   UNL     1       5.323   1.720   4.658  1.00  0.00     0.031 A 
ATOM     15  C   UNL     1       5.902   0.671   5.569  1.00  0.00     0.074 A 
ATOM     16  C   UNL     1       5.560   3.026   4.894  1.00  0.00     0.049 A 
ATOM     17  N   UNL     1       6.656   0.823   6.629  1.00  0.00    -0.248 NA
ATOM     18  C   UNL     1       5.583  -0.729   5.256  1.00  0.00     0.031 C 
ATOM     19  C   UNL     1       5.045   4.132   4.082  1.00  0.00     0.029 A 
ATOM     20  N   UNL     1       6.310   3.646   5.860  1.00  0.00    -0.354 N 
ATOM     21  C   UNL     1       6.888  -0.457   7.122  1.00  0.00     0.074 A 
ATOM     22  C   UNL     1       6.163  -1.370   6.261  1.00  0.00     0.031 C 
ATOM     23  C   UNL     1       5.541   5.287   4.547  1.00  0.00     0.029 A 
ATOM     24  C   UNL     1       6.351   5.014   5.728  1.00  0.00     0.049 A 
ATOM     25  H   UNL     1       6.774   3.159   6.578  1.00  0.00     0.167 HD
ATOM     26  C   UNL     1       7.642  -0.834   8.187  1.00  0.00     0.034 A 
ATOM     27  C   UNL     1       6.963   5.950   6.480  1.00  0.00     0.034 A 
ATOM     28  C   UNL     1       8.362   0.092   9.031  1.00  0.00     0.049 A 
ATOM     29  C   UNL     1       7.762   5.508   7.674  1.00  0.00     0.074 A 
ATOM     30  C   UNL     1       9.185  -0.183  10.111  1.00  0.00     0.029 A 
ATOM     31  N   UNL     1       8.337   1.476   8.901  1.00  0.00    -0.354 N 
ATOM     32  N   UNL     1       7.990   4.291   8.112  1.00  0.00    -0.248 NA
ATOM     33  C   UNL     1       8.388   6.567   8.474  1.00  0.00     0.031 C 
ATOM     34  C   UNL     1       9.601   1.031  10.671  1.00  0.00     0.029 A 
ATOM     35  C   UNL     1       9.101   2.066   9.898  1.00  0.00     0.049 A 
ATOM     36  H   UNL     1       7.847   1.967   8.202  1.00  0.00     0.167 HD
ATOM     37  C   UNL     1       8.805   4.440   9.230  1.00  0.00     0.074 A 
ATOM     38  C   UNL     1       9.044   5.861   9.383  1.00  0.00     0.031 C 
ATOM     39  C   UNL     1       9.312   3.487  10.054  1.00  0.00     0.034 A 
BRANCH  26  40
ATOM     40  C   UNL     1       7.683  -2.307   8.523  1.00  0.00     0.023 A 
ATOM     41  C   UNL     1       8.230  -3.257   7.642  1.00  0.00     0.031 A 
ATOM     42  C   UNL     1       7.137  -2.774   9.733  1.00  0.00     0.131 A 
ATOM     43  C   UNL     1       8.153  -4.625   7.947  1.00  0.00     0.055 A 
ATOM     44  C   UNL     1       7.134  -4.131  10.067  1.00  0.00     0.041 A 
ATOM     45  F   UNL     1       6.583  -1.920  10.608  1.00  0.00    -0.206 F 
ATOM     46  C   UNL     1       7.629  -5.067   9.164  1.00  0.00     0.022 A 
BRANCH  43  47
ATOM     47  S   UNL     1       8.609  -5.826   6.666  1.00  0.00     0.124 S 
ATOM     48  O   UNL     1       7.730  -5.436   5.566  1.00  0.00    -0.237 OA
ATOM     49  O   UNL     1      10.029  -5.557   6.472  1.00  0.00    -0.237 OA
ATOM     50  O   UNL     1       8.294  -7.116   7.276  1.00  0.00    -0.744 OA
ENDBRANCH  43  47
ENDBRANCH  26  40
BRANCH  27  51
ATOM     51  C   UNL     1       6.828   7.393   6.136  1.00  0.00     0.023 A 
ATOM     52  C   UNL     1       7.943   8.149   5.744  1.00  0.00     0.031 A 
ATOM     53  C   UNL     1       5.582   8.041   6.215  1.00  0.00     0.131 A 
ATOM     54  C   UNL     1       7.798   9.519   5.479  1.00  0.00     0.055 A 
ATOM     55  C   UNL     1       5.434   9.392   5.900  1.00  0.00     0.041 A 
ATOM     56  F   UNL     1       4.484   7.361   6.580  1.00  0.00    -0.206 F 
ATOM     57  C   UNL     1       6.549  10.142   5.540  1.00  0.00     0.022 A 
BRANCH  54  58
ATOM     58  S   UNL     1       9.283  10.494   5.117  1.00  0.00     0.124 S 
ATOM     59  O   UNL     1      10.082  10.276   6.316  1.00  0.00    -0.237 OA
ATOM     60  O   UNL     1       9.771   9.861   3.896  1.00  0.00    -0.237 OA
ATOM     61  O   UNL     1       8.766  11.851   4.948  1.00  0.00    -0.744 OA
ENDBRANCH  54  58
ENDBRANCH  27  51
BRANCH  39  62
ATOM     62  C   UNL     1      10.205   3.968  11.171  1.00  0.00     0.023 A 
ATOM     63  C   UNL     1       9.707   4.747  12.231  1.00  0.00     0.031 A 
ATOM     64  C   UNL     1      11.580   3.678  11.151  1.00  0.00     0.131 A 
ATOM     65  C   UNL     1      10.589   5.265  13.191  1.00  0.00     0.055 A 
ATOM     66  C   UNL     1      12.443   4.146  12.143  1.00  0.00     0.041 A 
ATOM     67  F   UNL     1      12.110   2.942  10.161  1.00  0.00    -0.206 F 
ATOM     68  C   UNL     1      11.952   4.957  13.162  1.00  0.00     0.022 A 
BRANCH  65  69
ATOM     69  S   UNL     1       9.949   6.437  14.419  1.00  0.00     0.124 S 
ATOM     70  O   UNL     1       9.399   7.492  13.573  1.00  0.00    -0.237 OA
ATOM     71  O   UNL     1       8.975   5.628  15.144  1.00  0.00    -0.237 OA
ATOM     72  O   UNL     1      11.136   6.813  15.185  1.00  0.00    -0.744 OA
ENDBRANCH  65  69
ENDBRANCH  39  62
ENDBRANCH  13  14
ENDBRANCH   6   8
ENDBRANCH   3   4
ENDBRANCH   2   3
ENDBRANCH   1   2
BRANCH   1  73
ATOM     73  C   UNL     1       4.836  -1.649  -4.101  1.00  0.00     0.002 C 
BRANCH  73  74
ATOM     74  C   UNL     1       6.366  -1.562  -4.091  1.00  0.00     0.021 C 
BRANCH  74  75
ATOM     75  C   UNL     1       7.096  -2.902  -4.079  1.00  0.00     0.116 C 
BRANCH  75  76
ATOM     76  N   UNL     1       6.746  -3.735  -5.215  1.00  0.00    -0.355 N 
ATOM     77  C   UNL     1       7.517  -4.241  -6.218  1.00  0.00     0.238 C 
ATOM     78  H   UNL     1       5.793  -3.974  -5.270  1.00  0.00     0.163 HD
ATOM     79  O   UNL     1       6.971  -4.958  -7.059  1.00  0.00    -0.273 OA
BRANCH  77  80
ATOM     80  C   UNL     1       9.011  -3.941  -6.266  1.00  0.00     0.165 C 
ATOM     81  C   UNL     1       9.800  -5.237  -6.544  1.00  0.00     0.063 C 
ATOM     82  N   UNL     1       9.528  -2.904  -7.248  1.00  0.00    -0.183 NA
ATOM     83  C   UNL     1      10.514  -4.991  -7.856  1.00  0.00     0.131 C 
ATOM     84  C   UNL     1      10.777  -3.494  -7.798  1.00  0.00     0.135 C 
BRANCH  82  85
ATOM     85  S   UNL     1       8.390  -2.325  -8.393  1.00  0.00     0.244 S 
ATOM     86  O   UNL     1       8.170  -3.358  -9.379  1.00  0.00    -0.207 OA
ATOM     87  O   UNL     1       7.296  -1.718  -7.664  1.00  0.00    -0.207 OA
BRANCH  85  88
ATOM     88  C   UNL     1       9.247  -1.000  -9.226  1.00  0.00     0.086 A 
ATOM     89  C   UNL     1       9.002   0.333  -8.877  1.00  0.00     0.026 A 
ATOM     90  C   UNL     1      10.104  -1.306 -10.288  1.00  0.00     0.072 A 
ATOM     91  C   UNL     1       9.656   1.359  -9.567  1.00  0.00     0.052 A 
ATOM     92  C   UNL     1      10.809  -0.285 -10.916  1.00  0.00     0.162 A 
ATOM     93  C   UNL     1      10.565   1.050 -10.579  1.00  0.00     0.161 A 
ATOM     94  O   UNL     1      11.741  -0.668 -11.846  1.00  0.00    -0.486 OA
ATOM     95  O   UNL     1      11.195   2.103 -11.195  1.00  0.00    -0.486 OA
ATOM     96  C   UNL     1      12.676   0.391 -12.082  1.00  0.00     0.271 C 
ATOM     97  C   UNL     1      11.927   1.684 -12.354  1.00  0.00     0.271 C 
ENDBRANCH  85  88
ENDBRANCH  82  85
BRANCH  83  98
ATOM     98  O   UNL     1      11.709  -5.749  -7.964  1.00  0.00    -0.392 OA
ATOM     99  H   UNL     1      12.291  -5.543  -7.216  1.00  0.00     0.211 HD
ENDBRANCH  83  98
ENDBRANCH  77  80
ENDBRANCH  75  76
ENDBRANCH  74  75
ENDBRANCH  73  74
ENDBRANCH   1  73
TORSDOF 19
