REMARK SMILES CCC[C@]1(C(=O)NCCCCCCNC(=O)c2ccc(-c3c4nc(c(-c5cc(S(=O)(=O)[O-])ccc5F)c5ccc([nH]5)c(-c5cc(S(=O)(=O)[O-])ccc5F)c5nc(c(-c6cc(S(=O)(=O)[O-])ccc6F)c6ccc3[nH]6)C=C5)C=C4)cc2)CCN(c2cncc(C(=O)OC)n2)C1
REMARK SMILES IDX 10 1 9 2 8 3 7 4 5 5 6 6 4 8 80 9 93 10 81 11 82 12 3 13
REMARK SMILES IDX 2 14 1 15 83 16 84 17 92 18 85 19 87 20 86 21 88 22 89 23
REMARK SMILES IDX 90 24 91 25 11 26 12 27 13 28 14 29 15 30 16 32 17 33 18 34
REMARK SMILES IDX 79 35 19 36 78 37 20 38 21 39 22 40 72 41 23 42 77 43 71 44
REMARK SMILES IDX 73 45 24 46 76 47 70 48 69 49 25 51 57 52 37 53 56 54 38 55
REMARK SMILES IDX 41 56 55 57 74 58 39 59 40 60 54 62 75 63 42 64 26 65 27 66
REMARK SMILES IDX 35 67 28 68 34 69 36 70 33 71 29 72 30 73 31 74 32 75 58 76
REMARK SMILES IDX 59 77 67 78 60 79 66 80 68 81 65 82 61 83 62 84 63 85 64 86
REMARK SMILES IDX 43 87 44 88 52 89 45 90 51 91 53 92 50 93 46 94 47 95 48 96
REMARK SMILES IDX 49 97
REMARK H PARENT 7 7 14 31 73 50 41 61
REMARK Flexibility Score: inf
ROOT
ATOM      1  C   UNL     1       0.254  -4.278   2.039  1.00  0.00     0.002 C 
ENDROOT
BRANCH   1   2
ATOM      2  C   UNL     1       0.236  -4.613   0.539  1.00  0.00     0.021 C 
BRANCH   2   3
ATOM      3  C   UNL     1      -0.829  -3.871  -0.280  1.00  0.00     0.116 C 
BRANCH   3   4
ATOM      4  N   UNL     1      -0.641  -2.436  -0.214  1.00  0.00    -0.356 N 
ATOM      5  C   UNL     1       0.521  -1.896  -0.673  1.00  0.00     0.228 C 
ATOM      6  O   UNL     1       1.380  -1.600   0.162  1.00  0.00    -0.274 OA
ATOM      7  H   UNL     1      -1.346  -1.859   0.159  1.00  0.00     0.163 HD
BRANCH   5   8
ATOM      8  C   UNL     1       0.773  -1.719  -2.170  1.00  0.00     0.068 C 
ATOM      9  C   UNL     1       1.821  -2.789  -2.582  1.00  0.00     0.040 C 
ATOM     10  C   UNL     1      -0.424  -1.966  -3.132  1.00  0.00     0.135 C 
ATOM     11  C   UNL     1       1.264  -3.522  -3.793  1.00  0.00     0.119 C 
ATOM     12  N   UNL     1      -0.162  -3.285  -3.715  1.00  0.00    -0.354 N 
BRANCH   8  13
ATOM     13  C   UNL     1       1.360  -0.281  -2.337  1.00  0.00     0.018 C 
BRANCH  13  14
ATOM     14  C   UNL     1       0.558   0.879  -1.700  1.00  0.00    -0.002 C 
ATOM     15  C   UNL     1       0.900   1.185  -0.238  1.00  0.00     0.004 C 
ENDBRANCH  13  14
ENDBRANCH   8  13
BRANCH  12  16
ATOM     16  C   UNL     1      -0.905  -3.782  -4.777  1.00  0.00     0.148 A 
ATOM     17  C   UNL     1      -1.851  -4.785  -4.523  1.00  0.00     0.157 A 
ATOM     18  N   UNL     1      -0.614  -3.434  -6.057  1.00  0.00    -0.221 NA
ATOM     19  N   UNL     1      -2.519  -5.471  -5.483  1.00  0.00    -0.258 NA
ATOM     20  C   UNL     1      -1.280  -4.127  -7.035  1.00  0.00     0.169 A 
ATOM     21  C   UNL     1      -2.200  -5.126  -6.749  1.00  0.00     0.147 A 
BRANCH  20  22
ATOM     22  C   UNL     1      -1.028  -3.844  -8.476  1.00  0.00     0.358 C 
ATOM     23  O   UNL     1      -1.647  -4.390  -9.376  1.00  0.00    -0.244 OA
BRANCH  22  24
ATOM     24  O   UNL     1      -0.038  -2.930  -8.659  1.00  0.00    -0.464 OA
ATOM     25  C   UNL     1       0.239  -2.675 -10.039  1.00  0.00     0.282 C 
ENDBRANCH  22  24
ENDBRANCH  20  22
ENDBRANCH  12  16
ENDBRANCH   5   8
ENDBRANCH   3   4
ENDBRANCH   2   3
ENDBRANCH   1   2
BRANCH   1  26
ATOM     26  C   UNL     1      -1.058  -4.538   2.780  1.00  0.00     0.002 C 
BRANCH  26  27
ATOM     27  C   UNL     1      -1.680  -5.905   2.504  1.00  0.00     0.021 C 
BRANCH  27  28
ATOM     28  C   UNL     1      -0.761  -7.078   2.816  1.00  0.00     0.116 C 
BRANCH  28  29
ATOM     29  N   UNL     1      -0.577  -7.247   4.247  1.00  0.00    -0.352 N 
ATOM     30  C   UNL     1      -0.888  -8.347   5.010  1.00  0.00     0.251 C 
ATOM     31  H   UNL     1      -0.184  -6.483   4.727  1.00  0.00     0.163 HD
ATOM     32  O   UNL     1      -0.917  -8.271   6.233  1.00  0.00    -0.269 OA
BRANCH  30  33
ATOM     33  C   UNL     1      -1.206  -9.615   4.320  1.00  0.00     0.039 A 
ATOM     34  C   UNL     1      -2.369 -10.311   4.657  1.00  0.00     0.014 A 
ATOM     35  C   UNL     1      -0.371 -10.078   3.299  1.00  0.00     0.014 A 
ATOM     36  C   UNL     1      -2.725 -11.447   3.926  1.00  0.00     0.010 A 
ATOM     37  C   UNL     1      -0.769 -11.160   2.524  1.00  0.00     0.010 A 
ATOM     38  C   UNL     1      -1.946 -11.861   2.834  1.00  0.00    -0.014 A 
BRANCH  38  39
ATOM     39  C   UNL     1      -2.299 -13.049   2.013  1.00  0.00     0.031 A 
ATOM     40  C   UNL     1      -1.350 -14.215   1.970  1.00  0.00     0.074 A 
ATOM     41  C   UNL     1      -3.405 -13.043   1.244  1.00  0.00     0.049 A 
ATOM     42  N   UNL     1      -1.356 -15.263   1.188  1.00  0.00    -0.248 NA
ATOM     43  C   UNL     1      -0.221 -14.172   2.912  1.00  0.00     0.031 C 
ATOM     44  C   UNL     1      -4.398 -11.968   1.196  1.00  0.00     0.029 A 
ATOM     45  N   UNL     1      -3.870 -13.964   0.338  1.00  0.00    -0.354 N 
ATOM     46  C   UNL     1      -0.221 -15.992   1.527  1.00  0.00     0.074 A 
ATOM     47  C   UNL     1       0.480 -15.230   2.538  1.00  0.00     0.031 C 
ATOM     48  C   UNL     1      -5.359 -12.297   0.317  1.00  0.00     0.029 A 
ATOM     49  C   UNL     1      -5.022 -13.574  -0.307  1.00  0.00     0.049 A 
ATOM     50  H   UNL     1      -3.422 -14.823   0.166  1.00  0.00     0.167 HD
ATOM     51  C   UNL     1       0.188 -17.194   1.051  1.00  0.00     0.034 A 
ATOM     52  C   UNL     1      -5.710 -14.163  -1.306  1.00  0.00     0.034 A 
ATOM     53  C   UNL     1      -0.532 -17.940   0.049  1.00  0.00     0.049 A 
ATOM     54  C   UNL     1      -5.206 -15.473  -1.864  1.00  0.00     0.074 A 
ATOM     55  C   UNL     1      -0.232 -19.182  -0.482  1.00  0.00     0.029 A 
ATOM     56  N   UNL     1      -1.694 -17.510  -0.580  1.00  0.00    -0.354 N 
ATOM     57  N   UNL     1      -4.139 -16.160  -1.525  1.00  0.00    -0.248 NA
ATOM     58  C   UNL     1      -6.000 -16.090  -2.935  1.00  0.00     0.031 C 
ATOM     59  C   UNL     1      -1.165 -19.468  -1.483  1.00  0.00     0.029 A 
ATOM     60  C   UNL     1      -2.105 -18.450  -1.513  1.00  0.00     0.049 A 
ATOM     61  H   UNL     1      -2.158 -16.663  -0.391  1.00  0.00     0.167 HD
ATOM     62  C   UNL     1      -4.164 -17.312  -2.308  1.00  0.00     0.074 A 
ATOM     63  C   UNL     1      -5.346 -17.225  -3.138  1.00  0.00     0.031 C 
ATOM     64  C   UNL     1      -3.294 -18.354  -2.327  1.00  0.00     0.034 A 
BRANCH  51  65
ATOM     65  C   UNL     1       1.485 -17.750   1.589  1.00  0.00     0.023 A 
ATOM     66  C   UNL     1       1.654 -18.042   2.954  1.00  0.00     0.031 A 
ATOM     67  C   UNL     1       2.582 -17.957   0.734  1.00  0.00     0.131 A 
ATOM     68  C   UNL     1       2.910 -18.438   3.436  1.00  0.00     0.055 A 
ATOM     69  C   UNL     1       3.803 -18.442   1.206  1.00  0.00     0.041 A 
ATOM     70  F   UNL     1       2.491 -17.675  -0.575  1.00  0.00    -0.206 F 
ATOM     71  C   UNL     1       3.978 -18.668   2.568  1.00  0.00     0.022 A 
BRANCH  68  72
ATOM     72  S   UNL     1       3.170 -18.482   5.231  1.00  0.00     0.124 S 
ATOM     73  O   UNL     1       2.853 -17.107   5.608  1.00  0.00    -0.237 OA
ATOM     74  O   UNL     1       2.218 -19.499   5.662  1.00  0.00    -0.237 OA
ATOM     75  O   UNL     1       4.579 -18.848   5.364  1.00  0.00    -0.744 OA
ENDBRANCH  68  72
ENDBRANCH  51  65
BRANCH  52  76
ATOM     76  C   UNL     1      -6.937 -13.521  -1.862  1.00  0.00     0.023 A 
ATOM     77  C   UNL     1      -8.188 -14.149  -1.759  1.00  0.00     0.031 A 
ATOM     78  C   UNL     1      -6.872 -12.294  -2.545  1.00  0.00     0.131 A 
ATOM     79  C   UNL     1      -9.313 -13.575  -2.372  1.00  0.00     0.055 A 
ATOM     80  C   UNL     1      -8.005 -11.697  -3.101  1.00  0.00     0.041 A 
ATOM     81  F   UNL     1      -5.702 -11.648  -2.673  1.00  0.00    -0.206 F 
ATOM     82  C   UNL     1      -9.233 -12.346  -3.029  1.00  0.00     0.022 A 
BRANCH  79  83
ATOM     83  S   UNL     1     -10.867 -14.511  -2.381  1.00  0.00     0.124 S 
ATOM     84  O   UNL     1     -10.466 -15.742  -3.053  1.00  0.00    -0.237 OA
ATOM     85  O   UNL     1     -11.161 -14.624  -0.956  1.00  0.00    -0.237 OA
ATOM     86  O   UNL     1     -11.776 -13.653  -3.138  1.00  0.00    -0.744 OA
ENDBRANCH  79  83
ENDBRANCH  52  76
BRANCH  64  87
ATOM     87  C   UNL     1      -3.630 -19.528  -3.214  1.00  0.00     0.023 A 
ATOM     88  C   UNL     1      -3.606 -19.444  -4.616  1.00  0.00     0.031 A 
ATOM     89  C   UNL     1      -3.948 -20.769  -2.630  1.00  0.00     0.131 A 
ATOM     90  C   UNL     1      -3.928 -20.571  -5.388  1.00  0.00     0.055 A 
ATOM     91  C   UNL     1      -4.209 -21.901  -3.402  1.00  0.00     0.041 A 
ATOM     92  F   UNL     1      -3.990 -20.905  -1.295  1.00  0.00    -0.206 F 
ATOM     93  C   UNL     1      -4.208 -21.803  -4.790  1.00  0.00     0.022 A 
BRANCH  90  94
ATOM     94  S   UNL     1      -4.040 -20.395  -7.190  1.00  0.00     0.124 S 
ATOM     95  O   UNL     1      -5.088 -19.390  -7.332  1.00  0.00    -0.237 OA
ATOM     96  O   UNL     1      -2.692 -19.966  -7.547  1.00  0.00    -0.237 OA
ATOM     97  O   UNL     1      -4.402 -21.737  -7.644  1.00  0.00    -0.744 OA
ENDBRANCH  90  94
ENDBRANCH  64  87
ENDBRANCH  38  39
ENDBRANCH  30  33
ENDBRANCH  28  29
ENDBRANCH  27  28
ENDBRANCH  26  27
ENDBRANCH   1  26
TORSDOF 21
