REMARK SMILES Cc1cc(C(=O)N[C@@H](C)C(=O)NCCCCCCNC(=O)c2ccc(-c3c4nc(c(-c5cc(S(=O)(=O)[O-])ccc5F)c5ccc([nH]5)c(-c5cc(S(=O)(=O)[O-])ccc5F)c5nc(c(-c6cc(S(=O)(=O)[O-])ccc6F)c6ccc3[nH]6)C=C5)C=C4)cc2)cc(C)c1OC(F)F
REMARK SMILES IDX 15 1 14 2 13 3 12 4 10 5 11 6 8 8 9 9 7 10 5 11 6 12 4 14
REMARK SMILES IDX 1 15 2 16 3 17 88 18 86 19 85 20 87 21 89 22 90 23 91 24
REMARK SMILES IDX 92 25 16 26 17 27 18 28 19 29 20 30 21 32 22 33 23 34 84 35
REMARK SMILES IDX 24 36 83 37 25 38 26 39 27 40 77 41 28 42 82 43 76 44 78 45
REMARK SMILES IDX 29 46 81 47 75 48 74 49 30 51 62 52 42 53 61 54 43 55 46 56
REMARK SMILES IDX 60 57 79 58 44 59 45 60 59 62 80 63 47 64 31 65 32 66 40 67
REMARK SMILES IDX 33 68 39 69 41 70 38 71 34 72 35 73 36 74 37 75 63 76 64 77
REMARK SMILES IDX 72 78 65 79 71 80 73 81 70 82 66 83 67 84 68 85 69 86 48 87
REMARK SMILES IDX 49 88 57 89 50 90 56 91 58 92 55 93 51 94 52 95 53 96 54 97
REMARK H PARENT 12 7 7 13 19 31 78 50 46 61
REMARK Flexibility Score: inf
ROOT
ATOM      1  C   UNL     1      -8.122  -0.040  -2.538  1.00  0.00     0.002 C 
ENDROOT
BRANCH   1   2
ATOM      2  C   UNL     1      -7.175   0.539  -1.484  1.00  0.00     0.021 C 
BRANCH   2   3
ATOM      3  C   UNL     1      -6.630  -0.467  -0.475  1.00  0.00     0.116 C 
BRANCH   3   4
ATOM      4  N   UNL     1      -5.735  -1.438  -1.073  1.00  0.00    -0.354 N 
ATOM      5  C   UNL     1      -4.525  -1.905  -0.647  1.00  0.00     0.242 C 
ATOM      6  O   UNL     1      -4.012  -2.835  -1.278  1.00  0.00    -0.273 OA
ATOM      7  H   UNL     1      -6.051  -1.823  -1.923  1.00  0.00     0.163 HD
BRANCH   5   8
ATOM      8  C   UNL     1      -3.810  -1.304   0.582  1.00  0.00     0.168 C 
ATOM      9  C   UNL     1      -4.571  -1.530   1.883  1.00  0.00     0.041 C 
BRANCH   8  10
ATOM     10  N   UNL     1      -3.498   0.101   0.312  1.00  0.00    -0.341 N 
ATOM     11  C   UNL     1      -2.380   0.729  -0.180  1.00  0.00     0.251 C 
ATOM     12  O   UNL     1      -2.482   1.923  -0.462  1.00  0.00    -0.269 OA
ATOM     13  H   UNL     1      -4.235   0.718   0.526  1.00  0.00     0.164 HD
BRANCH  11  14
ATOM     14  C   UNL     1      -1.044   0.080  -0.274  1.00  0.00     0.040 A 
ATOM     15  C   UNL     1       2.444   1.417   0.276  1.00  0.00     0.048 C 
ATOM     16  C   UNL     1       1.395   0.369   0.028  1.00  0.00    -0.008 A 
ATOM     17  C   UNL     1       0.078   0.887  -0.054  1.00  0.00     0.021 A 
ATOM     18  C   UNL     1       1.560  -1.025  -0.032  1.00  0.00     0.131 A 
ATOM     19  C   UNL     1       0.439  -1.834  -0.347  1.00  0.00    -0.008 A 
ATOM     20  C   UNL     1      -0.832  -1.263  -0.533  1.00  0.00     0.021 A 
ATOM     21  C   UNL     1       0.512  -3.341  -0.396  1.00  0.00     0.048 C 
BRANCH  18  22
ATOM     22  O   UNL     1       2.661  -1.767   0.277  1.00  0.00    -0.434 OA
BRANCH  22  23
ATOM     23  C   UNL     1       3.981  -1.321   0.051  1.00  0.00     0.542 C 
ATOM     24  F   UNL     1       4.076  -0.644  -1.115  1.00  0.00    -0.167 F 
ATOM     25  F   UNL     1       4.374  -0.526   1.073  1.00  0.00    -0.167 F 
ENDBRANCH  22  23
ENDBRANCH  18  22
ENDBRANCH  11  14
ENDBRANCH   8  10
ENDBRANCH   5   8
ENDBRANCH   3   4
ENDBRANCH   2   3
ENDBRANCH   1   2
BRANCH   1  26
ATOM     26  C   UNL     1      -9.307  -0.846  -1.997  1.00  0.00     0.002 C 
BRANCH  26  27
ATOM     27  C   UNL     1     -10.165  -0.147  -0.937  1.00  0.00     0.021 C 
BRANCH  27  28
ATOM     28  C   UNL     1     -10.739   1.209  -1.340  1.00  0.00     0.116 C 
BRANCH  28  29
ATOM     29  N   UNL     1     -11.587   1.125  -2.513  1.00  0.00    -0.352 N 
ATOM     30  C   UNL     1     -12.841   1.637  -2.734  1.00  0.00     0.251 C 
ATOM     31  H   UNL     1     -11.204   0.622  -3.268  1.00  0.00     0.163 HD
ATOM     32  O   UNL     1     -13.451   1.299  -3.744  1.00  0.00    -0.269 OA
BRANCH  30  33
ATOM     33  C   UNL     1     -13.470   2.563  -1.762  1.00  0.00     0.039 A 
ATOM     34  C   UNL     1     -14.838   2.424  -1.507  1.00  0.00     0.014 A 
ATOM     35  C   UNL     1     -12.751   3.586  -1.136  1.00  0.00     0.014 A 
ATOM     36  C   UNL     1     -15.469   3.276  -0.598  1.00  0.00     0.010 A 
ATOM     37  C   UNL     1     -13.368   4.394  -0.178  1.00  0.00     0.010 A 
ATOM     38  C   UNL     1     -14.736   4.253   0.097  1.00  0.00    -0.014 A 
BRANCH  38  39
ATOM     39  C   UNL     1     -15.406   5.112   1.111  1.00  0.00     0.031 A 
ATOM     40  C   UNL     1     -15.544   6.596   0.891  1.00  0.00     0.074 A 
ATOM     41  C   UNL     1     -15.877   4.548   2.242  1.00  0.00     0.049 A 
ATOM     42  N   UNL     1     -16.138   7.489   1.642  1.00  0.00    -0.248 NA
ATOM     43  C   UNL     1     -14.914   7.154  -0.314  1.00  0.00     0.031 C 
ATOM     44  C   UNL     1     -15.750   3.131   2.593  1.00  0.00     0.029 A 
ATOM     45  N   UNL     1     -16.562   5.089   3.301  1.00  0.00    -0.354 N 
ATOM     46  C   UNL     1     -15.944   8.713   1.009  1.00  0.00     0.074 A 
ATOM     47  C   UNL     1     -15.135   8.453  -0.162  1.00  0.00     0.031 C 
ATOM     48  C   UNL     1     -16.371   2.909   3.763  1.00  0.00     0.029 A 
ATOM     49  C   UNL     1     -16.911   4.169   4.264  1.00  0.00     0.049 A 
ATOM     50  H   UNL     1     -16.784   6.046   3.366  1.00  0.00     0.167 HD
ATOM     51  C   UNL     1     -16.413   9.935   1.363  1.00  0.00     0.034 A 
ATOM     52  C   UNL     1     -17.593   4.321   5.416  1.00  0.00     0.034 A 
ATOM     53  C   UNL     1     -17.242  10.174   2.520  1.00  0.00     0.049 A 
ATOM     54  C   UNL     1     -18.119   5.690   5.772  1.00  0.00     0.074 A 
ATOM     55  C   UNL     1     -17.845  11.356   2.918  1.00  0.00     0.029 A 
ATOM     56  N   UNL     1     -17.578   9.220   3.472  1.00  0.00    -0.354 N 
ATOM     57  N   UNL     1     -18.007   6.818   5.107  1.00  0.00    -0.248 NA
ATOM     58  C   UNL     1     -18.880   5.800   7.022  1.00  0.00     0.031 C 
ATOM     59  C   UNL     1     -18.484  11.133   4.143  1.00  0.00     0.029 A 
ATOM     60  C   UNL     1     -18.346   9.795   4.474  1.00  0.00     0.049 A 
ATOM     61  H   UNL     1     -17.310   8.273   3.440  1.00  0.00     0.167 HD
ATOM     62  C   UNL     1     -18.712   7.763   5.848  1.00  0.00     0.074 A 
ATOM     63  C   UNL     1     -19.270   7.064   6.987  1.00  0.00     0.031 C 
ATOM     64  C   UNL     1     -18.883   9.089   5.613  1.00  0.00     0.034 A 
BRANCH  51  65
ATOM     65  C   UNL     1     -16.022  11.116   0.506  1.00  0.00     0.023 A 
ATOM     66  C   UNL     1     -16.446  11.242  -0.828  1.00  0.00     0.031 A 
ATOM     67  C   UNL     1     -15.223  12.143   1.042  1.00  0.00     0.131 A 
ATOM     68  C   UNL     1     -16.027  12.339  -1.596  1.00  0.00     0.055 A 
ATOM     69  C   UNL     1     -14.868  13.267   0.294  1.00  0.00     0.041 A 
ATOM     70  F   UNL     1     -14.773  12.069   2.304  1.00  0.00    -0.206 F 
ATOM     71  C   UNL     1     -15.262  13.365  -1.037  1.00  0.00     0.022 A 
BRANCH  68  72
ATOM     72  S   UNL     1     -16.409  12.358  -3.369  1.00  0.00     0.124 S 
ATOM     73  O   UNL     1     -15.722  11.155  -3.832  1.00  0.00    -0.237 OA
ATOM     74  O   UNL     1     -17.867  12.305  -3.379  1.00  0.00    -0.237 OA
ATOM     75  O   UNL     1     -15.828  13.617  -3.833  1.00  0.00    -0.744 OA
ENDBRANCH  68  72
ENDBRANCH  51  65
BRANCH  52  76
ATOM     76  C   UNL     1     -17.831   3.162   6.326  1.00  0.00     0.023 A 
ATOM     77  C   UNL     1     -19.134   2.727   6.618  1.00  0.00     0.031 A 
ATOM     78  C   UNL     1     -16.763   2.521   6.979  1.00  0.00     0.131 A 
ATOM     79  C   UNL     1     -19.341   1.734   7.588  1.00  0.00     0.055 A 
ATOM     80  C   UNL     1     -16.971   1.490   7.896  1.00  0.00     0.041 A 
ATOM     81  F   UNL     1     -15.496   2.891   6.734  1.00  0.00    -0.206 F 
ATOM     82  C   UNL     1     -18.268   1.103   8.220  1.00  0.00     0.022 A 
BRANCH  79  83
ATOM     83  S   UNL     1     -21.042   1.362   8.099  1.00  0.00     0.124 S 
ATOM     84  O   UNL     1     -21.533   2.681   8.481  1.00  0.00    -0.237 OA
ATOM     85  O   UNL     1     -21.606   0.796   6.878  1.00  0.00    -0.237 OA
ATOM     86  O   UNL     1     -20.866   0.417   9.200  1.00  0.00    -0.744 OA
ENDBRANCH  79  83
ENDBRANCH  52  76
BRANCH  64  87
ATOM     87  C   UNL     1     -19.737   9.848   6.600  1.00  0.00     0.023 A 
ATOM     88  C   UNL     1     -19.349  10.001   7.944  1.00  0.00     0.031 A 
ATOM     89  C   UNL     1     -20.978  10.379   6.207  1.00  0.00     0.131 A 
ATOM     90  C   UNL     1     -20.229  10.593   8.863  1.00  0.00     0.055 A 
ATOM     91  C   UNL     1     -21.817  11.032   7.111  1.00  0.00     0.041 A 
ATOM     92  F   UNL     1     -21.401  10.263   4.938  1.00  0.00    -0.206 F 
ATOM     93  C   UNL     1     -21.453  11.124   8.452  1.00  0.00     0.022 A 
BRANCH  90  94
ATOM     94  S   UNL     1     -19.805  10.540  10.626  1.00  0.00     0.124 S 
ATOM     95  O   UNL     1     -19.619   9.110  10.851  1.00  0.00    -0.237 OA
ATOM     96  O   UNL     1     -18.596  11.355  10.680  1.00  0.00    -0.237 OA
ATOM     97  O   UNL     1     -20.976  11.124  11.277  1.00  0.00    -0.744 OA
ENDBRANCH  90  94
ENDBRANCH  64  87
ENDBRANCH  38  39
ENDBRANCH  30  33
ENDBRANCH  28  29
ENDBRANCH  27  28
ENDBRANCH  26  27
ENDBRANCH   1  26
TORSDOF 20
