REMARK SMILES O=C(NCCCCCCNC(=O)c1cccc(S(=O)(=O)Nc2cccc(I)c2)c1)c1ccc(-c2c3nc(c(-c4cc(S(=O)(=O)[O-])ccc4F)c4ccc([nH]4)c(-c4cc(S(=O)(=O)[O-])ccc4F)c4nc(c(-c5cc(S(=O)(=O)[O-])ccc5F)c5ccc2[nH]5)C=C4)C=C3)cc1
REMARK SMILES IDX 6 1 5 2 4 3 3 4 1 5 2 6 30 8 31 9 92 10 32 11 91 12 33 13
REMARK SMILES IDX 34 14 35 15 85 16 36 17 90 18 84 19 86 20 37 21 89 22 83 23
REMARK SMILES IDX 82 24 38 26 70 27 50 28 69 29 51 30 54 31 68 32 87 33 52 34
REMARK SMILES IDX 53 35 67 37 88 38 55 39 39 40 40 41 48 42 41 43 47 44 49 45
REMARK SMILES IDX 46 46 42 47 43 48 44 49 45 50 71 51 72 52 80 53 73 54 79 55
REMARK SMILES IDX 81 56 78 57 74 58 75 59 76 60 77 61 56 62 57 63 65 64 58 65
REMARK SMILES IDX 64 66 66 67 63 68 59 69 60 70 61 71 62 72 7 73 8 74 9 75
REMARK SMILES IDX 10 76 11 77 12 79 13 80 14 81 29 82 15 83 17 84 16 85 18 86
REMARK SMILES IDX 19 87 20 88 21 89 22 91 23 92 28 93 24 94 26 95 25 96 27 97
REMARK H PARENT 3 7 86 25 54 36 10 78 21 90
REMARK Flexibility Score: inf
ROOT
ATOM      1  C   UNL     1       4.255   1.390   3.777  1.00  0.00     0.002 C 
ENDROOT
BRANCH   1   2
ATOM      2  C   UNL     1       4.734   1.627   2.344  1.00  0.00     0.021 C 
BRANCH   2   3
ATOM      3  C   UNL     1       4.436   0.513   1.347  1.00  0.00     0.116 C 
BRANCH   3   4
ATOM      4  N   UNL     1       3.018   0.262   1.168  1.00  0.00    -0.352 N 
ATOM      5  O   UNL     1       1.104  -0.081   0.030  1.00  0.00    -0.269 OA
ATOM      6  C   UNL     1       2.327   0.018   0.004  1.00  0.00     0.251 C 
ATOM      7  H   UNL     1       2.477   0.267   1.991  1.00  0.00     0.163 HD
BRANCH   6   8
ATOM      8  C   UNL     1       3.055  -0.094  -1.282  1.00  0.00     0.039 A 
ATOM      9  C   UNL     1       4.220  -0.857  -1.392  1.00  0.00     0.014 A 
ATOM     10  C   UNL     1       2.549   0.572  -2.403  1.00  0.00     0.014 A 
ATOM     11  C   UNL     1       4.941  -0.857  -2.583  1.00  0.00     0.010 A 
ATOM     12  C   UNL     1       3.237   0.513  -3.619  1.00  0.00     0.010 A 
ATOM     13  C   UNL     1       4.452  -0.182  -3.713  1.00  0.00    -0.014 A 
BRANCH  13  14
ATOM     14  C   UNL     1       5.196  -0.265  -4.997  1.00  0.00     0.031 A 
ATOM     15  C   UNL     1       5.848   0.950  -5.597  1.00  0.00     0.074 A 
ATOM     16  C   UNL     1       5.297  -1.460  -5.611  1.00  0.00     0.049 A 
ATOM     17  N   UNL     1       6.533   1.056  -6.707  1.00  0.00    -0.248 NA
ATOM     18  C   UNL     1       5.704   2.211  -4.856  1.00  0.00     0.031 C 
ATOM     19  C   UNL     1       4.702  -2.708  -5.123  1.00  0.00     0.029 A 
ATOM     20  N   UNL     1       5.942  -1.829  -6.763  1.00  0.00    -0.354 N 
ATOM     21  C   UNL     1       6.898   2.394  -6.806  1.00  0.00     0.074 A 
ATOM     22  C   UNL     1       6.324   3.067  -5.658  1.00  0.00     0.031 C 
ATOM     23  C   UNL     1       5.044  -3.709  -5.946  1.00  0.00     0.029 A 
ATOM     24  C   UNL     1       5.827  -3.169  -7.052  1.00  0.00     0.049 A 
ATOM     25  H   UNL     1       6.439  -1.196  -7.329  1.00  0.00     0.167 HD
ATOM     26  C   UNL     1       7.647   3.001  -7.762  1.00  0.00     0.034 A 
ATOM     27  C   UNL     1       6.283  -3.882  -8.099  1.00  0.00     0.034 A 
ATOM     28  C   UNL     1       8.205   2.316  -8.905  1.00  0.00     0.049 A 
ATOM     29  C   UNL     1       7.071  -3.177  -9.168  1.00  0.00     0.074 A 
ATOM     30  C   UNL     1       8.991   2.831  -9.923  1.00  0.00     0.029 A 
ATOM     31  N   UNL     1       8.028   0.968  -9.190  1.00  0.00    -0.354 N 
ATOM     32  N   UNL     1       7.408  -1.911  -9.244  1.00  0.00    -0.248 NA
ATOM     33  C   UNL     1       7.537  -3.997 -10.292  1.00  0.00     0.031 C 
ATOM     34  C   UNL     1       9.239   1.810 -10.849  1.00  0.00     0.029 A 
ATOM     35  C   UNL     1       8.666   0.641 -10.377  1.00  0.00     0.049 A 
ATOM     36  H   UNL     1       7.524   0.335  -8.629  1.00  0.00     0.167 HD
ATOM     37  C   UNL     1       8.141  -1.786 -10.419  1.00  0.00     0.074 A 
ATOM     38  C   UNL     1       8.213  -3.109 -11.007  1.00  0.00     0.031 C 
ATOM     39  C   UNL     1       8.707  -0.678 -10.963  1.00  0.00     0.034 A 
BRANCH  26  40
ATOM     40  C   UNL     1       7.869   4.489  -7.627  1.00  0.00     0.023 A 
ATOM     41  C   UNL     1       8.604   5.032  -6.559  1.00  0.00     0.031 A 
ATOM     42  C   UNL     1       7.320   5.379  -8.567  1.00  0.00     0.131 A 
ATOM     43  C   UNL     1       8.714   6.424  -6.418  1.00  0.00     0.055 A 
ATOM     44  C   UNL     1       7.495   6.761  -8.463  1.00  0.00     0.041 A 
ATOM     45  F   UNL     1       6.592   4.921  -9.598  1.00  0.00    -0.206 F 
ATOM     46  C   UNL     1       8.184   7.292  -7.376  1.00  0.00     0.022 A 
BRANCH  43  47
ATOM     47  S   UNL     1       9.443   7.086  -4.895  1.00  0.00     0.124 S 
ATOM     48  O   UNL     1       8.578   6.502  -3.872  1.00  0.00    -0.237 OA
ATOM     49  O   UNL     1      10.805   6.569  -4.947  1.00  0.00    -0.237 OA
ATOM     50  O   UNL     1       9.316   8.533  -5.054  1.00  0.00    -0.744 OA
ENDBRANCH  43  47
ENDBRANCH  26  40
BRANCH  27  51
ATOM     51  C   UNL     1       5.981  -5.336  -8.199  1.00  0.00     0.023 A 
ATOM     52  C   UNL     1       7.003  -6.295  -8.118  1.00  0.00     0.031 A 
ATOM     53  C   UNL     1       4.663  -5.787  -8.392  1.00  0.00     0.131 A 
ATOM     54  C   UNL     1       6.693  -7.656  -8.260  1.00  0.00     0.055 A 
ATOM     55  C   UNL     1       4.354  -7.144  -8.486  1.00  0.00     0.041 A 
ATOM     56  F   UNL     1       3.650  -4.908  -8.469  1.00  0.00    -0.206 F 
ATOM     57  C   UNL     1       5.375  -8.087  -8.430  1.00  0.00     0.022 A 
BRANCH  54  58
ATOM     58  S   UNL     1       8.052  -8.857  -8.279  1.00  0.00     0.124 S 
ATOM     59  O   UNL     1       8.852  -8.384  -9.403  1.00  0.00    -0.237 OA
ATOM     60  O   UNL     1       8.635  -8.674  -6.954  1.00  0.00    -0.237 OA
ATOM     61  O   UNL     1       7.373 -10.134  -8.487  1.00  0.00    -0.744 OA
ENDBRANCH  54  58
ENDBRANCH  27  51
BRANCH  39  62
ATOM     62  C   UNL     1       9.473  -0.874 -12.246  1.00  0.00     0.023 A 
ATOM     63  C   UNL     1       8.822  -1.201 -13.449  1.00  0.00     0.031 A 
ATOM     64  C   UNL     1      10.874  -0.765 -12.257  1.00  0.00     0.131 A 
ATOM     65  C   UNL     1       9.578  -1.464 -14.601  1.00  0.00     0.055 A 
ATOM     66  C   UNL     1      11.617  -0.975 -13.419  1.00  0.00     0.041 A 
ATOM     67  F   UNL     1      11.544  -0.458 -11.134  1.00  0.00    -0.206 F 
ATOM     68  C   UNL     1      10.970  -1.340 -14.597  1.00  0.00     0.022 A 
BRANCH  65  69
ATOM     69  S   UNL     1       8.722  -2.057 -16.087  1.00  0.00     0.124 S 
ATOM     70  O   UNL     1       8.096  -3.284 -15.606  1.00  0.00    -0.237 OA
ATOM     71  O   UNL     1       7.816  -0.953 -16.387  1.00  0.00    -0.237 OA
ATOM     72  O   UNL     1       9.804  -2.249 -17.051  1.00  0.00    -0.744 OA
ENDBRANCH  65  69
ENDBRANCH  39  62
ENDBRANCH  13  14
ENDBRANCH   6   8
ENDBRANCH   3   4
ENDBRANCH   2   3
ENDBRANCH   1   2
BRANCH   1  73
ATOM     73  C   UNL     1       4.672   0.064   4.420  1.00  0.00     0.002 C 
BRANCH  73  74
ATOM     74  C   UNL     1       6.166  -0.278   4.370  1.00  0.00     0.021 C 
BRANCH  74  75
ATOM     75  C   UNL     1       7.104   0.764   4.976  1.00  0.00     0.116 C 
BRANCH  75  76
ATOM     76  N   UNL     1       6.907   0.909   6.405  1.00  0.00    -0.352 N 
ATOM     77  C   UNL     1       7.830   1.064   7.407  1.00  0.00     0.251 C 
ATOM     78  H   UNL     1       5.969   0.896   6.701  1.00  0.00     0.163 HD
ATOM     79  O   UNL     1       7.465   0.981   8.578  1.00  0.00    -0.269 OA
BRANCH  77  80
ATOM     80  C   UNL     1       9.256   1.357   7.115  1.00  0.00     0.041 A 
ATOM     81  C   UNL     1      10.239   0.817   7.951  1.00  0.00     0.014 A 
ATOM     82  C   UNL     1       9.617   2.286   6.135  1.00  0.00     0.036 A 
ATOM     83  C   UNL     1      11.576   1.184   7.792  1.00  0.00     0.002 A 
ATOM     84  C   UNL     1      10.943   2.704   6.016  1.00  0.00     0.088 A 
ATOM     85  C   UNL     1      11.929   2.133   6.830  1.00  0.00     0.022 A 
BRANCH  84  86
ATOM     86  S   UNL     1      11.442   4.040   4.942  1.00  0.00     0.261 S 
ATOM     87  O   UNL     1      11.641   5.197   5.787  1.00  0.00    -0.201 OA
ATOM     88  O   UNL     1      12.521   3.511   4.133  1.00  0.00    -0.201 OA
BRANCH  86  89
ATOM     89  N   UNL     1      10.190   4.331   3.877  1.00  0.00    -0.280 N 
ATOM     90  H   UNL     1      10.369   4.147   2.926  1.00  0.00     0.180 HD
BRANCH  89  91
ATOM     91  C   UNL     1       8.890   4.816   4.196  1.00  0.00     0.050 A 
ATOM     92  C   UNL     1       7.907   4.665   3.211  1.00  0.00     0.027 A 
ATOM     93  C   UNL     1       8.523   5.294   5.457  1.00  0.00     0.041 A 
ATOM     94  C   UNL     1       6.564   4.911   3.504  1.00  0.00     0.003 A 
ATOM     95  C   UNL     1       7.174   5.506   5.755  1.00  0.00     0.015 A 
ATOM     96  C   UNL     1       6.192   5.307   4.786  1.00  0.00     0.015 A 
ATOM     97  I   UNL     1       6.621   6.038   7.688  1.00  0.00    -0.044 I 
ENDBRANCH  89  91
ENDBRANCH  86  89
ENDBRANCH  84  86
ENDBRANCH  77  80
ENDBRANCH  75  76
ENDBRANCH  74  75
ENDBRANCH  73  74
ENDBRANCH   1  73
TORSDOF 19
