REMARK SMILES COc1cc(C)cc2c1[C@@H](C)[C@@H](CC(=O)N[C@@H](Cc1c[nH]c3ccccc13)C(=O)NCCCCCCNC(=O)c1ccc(-c3c4nc(c(-c5cc(S(=O)(=O)[O-])ccc5F)c5ccc([nH]5)c(-c5cc(S(=O)(=O)[O-])ccc5F)c5nc(c(-c6cc(S(=O)(=O)[O-])ccc6F)c6ccc3[nH]6)C=C5)C=C4)cc1)C(=O)O2
REMARK SMILES IDX 33 1 32 2 31 3 30 4 28 5 29 6 17 8 16 9 14 10 15 11 13 13
REMARK SMILES IDX 12 14 3 15 4 16 9 17 5 18 8 19 10 20 6 21 7 22 105 23 11 24
REMARK SMILES IDX 103 25 104 26 2 27 1 28 18 29 19 30 20 31 27 32 21 33 22 34
REMARK SMILES IDX 26 35 23 37 25 38 24 39 34 40 35 41 36 42 37 43 38 44 39 46
REMARK SMILES IDX 40 47 41 48 102 49 42 50 101 51 43 52 44 53 45 54 95 55
REMARK SMILES IDX 46 56 100 57 94 58 96 59 47 60 99 61 93 62 92 63 48 65 80 66
REMARK SMILES IDX 60 67 79 68 61 69 64 70 78 71 97 72 62 73 63 74 77 76 98 77
REMARK SMILES IDX 65 78 49 79 50 80 58 81 51 82 57 83 59 84 56 85 52 86 53 87
REMARK SMILES IDX 54 88 55 89 81 90 82 91 90 92 83 93 89 94 91 95 88 96 84 97
REMARK SMILES IDX 85 98 86 99 87 100 66 101 67 102 75 103 68 104 74 105 76 106
REMARK SMILES IDX 73 107 69 108 70 109 71 110 72 111
REMARK H PARENT 30 7 16 12 21 36 37 45 96 64 64 75
REMARK Flexibility Score: inf
ROOT
ATOM      1  C   UNL     1      -3.150  -2.696  11.704  1.00  0.00     0.002 C 
ENDROOT
BRANCH   1   2
ATOM      2  C   UNL     1      -3.625  -1.935  10.466  1.00  0.00     0.021 C 
BRANCH   2   3
ATOM      3  C   UNL     1      -2.805  -0.671  10.258  1.00  0.00     0.116 C 
BRANCH   3   4
ATOM      4  N   UNL     1      -1.590  -0.983   9.565  1.00  0.00    -0.354 N 
ATOM      5  C   UNL     1      -1.418  -1.135   8.233  1.00  0.00     0.242 C 
ATOM      6  O   UNL     1      -0.359  -1.658   7.864  1.00  0.00    -0.273 OA
ATOM      7  H   UNL     1      -0.788  -1.099  10.123  1.00  0.00     0.163 HD
BRANCH   5   8
ATOM      8  C   UNL     1      -2.475  -0.695   7.193  1.00  0.00     0.175 C 
BRANCH   8   9
ATOM      9  N   UNL     1      -3.083  -1.711   6.366  1.00  0.00    -0.344 N 
ATOM     10  C   UNL     1      -3.311  -1.537   5.024  1.00  0.00     0.221 C 
ATOM     11  O   UNL     1      -4.323  -2.012   4.514  1.00  0.00    -0.275 OA
ATOM     12  H   UNL     1      -3.345  -2.563   6.782  1.00  0.00     0.164 HD
BRANCH  10  13
ATOM     13  C   UNL     1      -2.212  -0.893   4.179  1.00  0.00     0.116 C 
BRANCH  13  14
ATOM     14  C   UNL     1      -2.245   0.627   3.853  1.00  0.00     0.116 C 
ATOM     15  C   UNL     1       1.151   0.516   2.137  1.00  0.00     0.126 A 
ATOM     16  C   UNL     1       2.422   0.134   2.600  1.00  0.00     0.050 A 
ATOM     17  C   UNL     1       0.110   0.751   3.035  1.00  0.00     0.041 A 
ATOM     18  C   UNL     1       2.684  -0.006   3.972  1.00  0.00    -0.044 A 
ATOM     19  C   UNL     1       0.446   0.755   4.398  1.00  0.00     0.138 A 
ATOM     20  C   UNL     1      -1.344   1.010   2.645  1.00  0.00     0.038 C 
ATOM     21  C   UNL     1       4.034  -0.444   4.455  1.00  0.00     0.044 C 
ATOM     22  C   UNL     1       1.690   0.347   4.877  1.00  0.00     0.051 A 
ATOM     23  O   UNL     1      -0.439   1.250   5.364  1.00  0.00    -0.426 OA
ATOM     24  C   UNL     1      -1.852   0.305   1.383  1.00  0.00     0.014 C 
ATOM     25  C   UNL     1      -1.702   1.563   4.912  1.00  0.00     0.315 C 
ATOM     26  O   UNL     1      -2.315   2.533   5.345  1.00  0.00    -0.251 OA
BRANCH  15  27
ATOM     27  O   UNL     1       0.930   0.822   0.822  1.00  0.00    -0.496 OA
ATOM     28  C   UNL     1       1.319  -0.203  -0.082  1.00  0.00     0.278 C 
ENDBRANCH  15  27
ENDBRANCH  13  14
ENDBRANCH  10  13
ENDBRANCH   8   9
BRANCH   8  29
ATOM     29  C   UNL     1      -3.392   0.510   7.387  1.00  0.00     0.072 C 
BRANCH  29  30
ATOM     30  C   UNL     1      -4.814   0.527   7.877  1.00  0.00    -0.020 A 
ATOM     31  C   UNL     1      -5.255   1.590   8.656  1.00  0.00     0.087 A 
ATOM     32  C   UNL     1      -5.996  -0.307   7.812  1.00  0.00     0.003 A 
ATOM     33  N   UNL     1      -6.539   1.791   8.230  1.00  0.00    -0.361 N 
ATOM     34  C   UNL     1      -7.064   0.523   8.192  1.00  0.00     0.046 A 
ATOM     35  C   UNL     1      -6.341  -1.640   7.516  1.00  0.00     0.010 A 
ATOM     36  H   UNL     1      -6.981   2.641   8.005  1.00  0.00     0.166 HD
ATOM     37  C   UNL     1      -8.380   0.123   8.399  1.00  0.00     0.026 A 
ATOM     38  C   UNL     1      -7.654  -2.089   7.780  1.00  0.00     0.001 A 
ATOM     39  C   UNL     1      -8.646  -1.227   8.242  1.00  0.00     0.002 A 
ENDBRANCH  29  30
ENDBRANCH   8  29
ENDBRANCH   5   8
ENDBRANCH   3   4
ENDBRANCH   2   3
ENDBRANCH   1   2
BRANCH   1  40
ATOM     40  C   UNL     1      -3.175  -1.849  12.983  1.00  0.00     0.002 C 
BRANCH  40  41
ATOM     41  C   UNL     1      -4.523  -1.175  13.244  1.00  0.00     0.021 C 
BRANCH  41  42
ATOM     42  C   UNL     1      -5.658  -2.177  13.386  1.00  0.00     0.116 C 
BRANCH  42  43
ATOM     43  N   UNL     1      -5.394  -3.112  14.472  1.00  0.00    -0.352 N 
ATOM     44  C   UNL     1      -6.108  -3.318  15.632  1.00  0.00     0.251 C 
ATOM     45  H   UNL     1      -4.595  -3.676  14.361  1.00  0.00     0.163 HD
ATOM     46  O   UNL     1      -5.615  -3.914  16.566  1.00  0.00    -0.269 OA
BRANCH  44  47
ATOM     47  C   UNL     1      -7.477  -2.767  15.700  1.00  0.00     0.039 A 
ATOM     48  C   UNL     1      -8.318  -2.883  14.593  1.00  0.00     0.014 A 
ATOM     49  C   UNL     1      -7.882  -2.068  16.836  1.00  0.00     0.014 A 
ATOM     50  C   UNL     1      -9.475  -2.125  14.538  1.00  0.00     0.010 A 
ATOM     51  C   UNL     1      -9.111  -1.408  16.824  1.00  0.00     0.010 A 
ATOM     52  C   UNL     1      -9.889  -1.382  15.655  1.00  0.00    -0.014 A 
BRANCH  52  53
ATOM     53  C   UNL     1     -11.143  -0.591  15.573  1.00  0.00     0.031 A 
ATOM     54  C   UNL     1     -11.126   0.902  15.750  1.00  0.00     0.074 A 
ATOM     55  C   UNL     1     -12.297  -1.230  15.296  1.00  0.00     0.049 A 
ATOM     56  N   UNL     1     -12.128   1.741  15.714  1.00  0.00    -0.248 NA
ATOM     57  C   UNL     1      -9.824   1.539  16.007  1.00  0.00     0.031 C 
ATOM     58  C   UNL     1     -12.423  -2.675  15.095  1.00  0.00     0.029 A 
ATOM     59  N   UNL     1     -13.572  -0.758  15.120  1.00  0.00    -0.354 N 
ATOM     60  C   UNL     1     -11.586   2.995  15.969  1.00  0.00     0.074 A 
ATOM     61  C   UNL     1     -10.171   2.805  16.195  1.00  0.00     0.031 C 
ATOM     62  C   UNL     1     -13.689  -2.965  14.775  1.00  0.00     0.029 A 
ATOM     63  C   UNL     1     -14.489  -1.745  14.843  1.00  0.00     0.049 A 
ATOM     64  H   UNL     1     -13.809   0.196  15.187  1.00  0.00     0.167 HD
ATOM     65  C   UNL     1     -12.215   4.194  15.995  1.00  0.00     0.034 A 
ATOM     66  C   UNL     1     -15.827  -1.691  14.690  1.00  0.00     0.034 A 
ATOM     67  C   UNL     1     -13.625   4.361  15.739  1.00  0.00     0.049 A 
ATOM     68  C   UNL     1     -16.507  -0.351  14.761  1.00  0.00     0.074 A 
ATOM     69  C   UNL     1     -14.346   5.540  15.697  1.00  0.00     0.029 A 
ATOM     70  N   UNL     1     -14.525   3.335  15.487  1.00  0.00    -0.354 N 
ATOM     71  N   UNL     1     -15.972   0.834  14.943  1.00  0.00    -0.248 NA
ATOM     72  C   UNL     1     -17.966  -0.330  14.600  1.00  0.00     0.031 C 
ATOM     73  C   UNL     1     -15.691   5.223  15.518  1.00  0.00     0.029 A 
ATOM     74  C   UNL     1     -15.801   3.854  15.332  1.00  0.00     0.049 A 
ATOM     75  H   UNL     1     -14.293   2.380  15.427  1.00  0.00     0.167 HD
ATOM     76  C   UNL     1     -17.024   1.742  14.891  1.00  0.00     0.074 A 
ATOM     77  C   UNL     1     -18.222   0.972  14.632  1.00  0.00     0.031 C 
ATOM     78  C   UNL     1     -16.995   3.089  15.050  1.00  0.00     0.034 A 
BRANCH  65  79
ATOM     79  C   UNL     1     -11.416   5.439  16.302  1.00  0.00     0.023 A 
ATOM     80  C   UNL     1     -11.771   6.238  17.407  1.00  0.00     0.031 A 
ATOM     81  C   UNL     1     -10.430   5.924  15.424  1.00  0.00     0.131 A 
ATOM     82  C   UNL     1     -11.192   7.501  17.570  1.00  0.00     0.055 A 
ATOM     83  C   UNL     1      -9.812   7.160  15.627  1.00  0.00     0.041 A 
ATOM     84  F   UNL     1     -10.057   5.207  14.352  1.00  0.00    -0.206 F 
ATOM     85  C   UNL     1     -10.206   7.963  16.692  1.00  0.00     0.022 A 
BRANCH  82  86
ATOM     86  S   UNL     1     -11.769   8.635  18.863  1.00  0.00     0.124 S 
ATOM     87  O   UNL     1     -10.541   8.880  19.617  1.00  0.00    -0.237 OA
ATOM     88  O   UNL     1     -12.256   9.767  18.079  1.00  0.00    -0.237 OA
ATOM     89  O   UNL     1     -12.789   7.870  19.571  1.00  0.00    -0.744 OA
ENDBRANCH  82  86
ENDBRANCH  65  79
BRANCH  66  90
ATOM     90  C   UNL     1     -16.573  -2.955  14.425  1.00  0.00     0.023 A 
ATOM     91  C   UNL     1     -16.519  -4.024  15.339  1.00  0.00     0.031 A 
ATOM     92  C   UNL     1     -17.236  -3.164  13.205  1.00  0.00     0.131 A 
ATOM     93  C   UNL     1     -17.030  -5.277  14.980  1.00  0.00     0.055 A 
ATOM     94  C   UNL     1     -17.825  -4.390  12.888  1.00  0.00     0.041 A 
ATOM     95  F   UNL     1     -17.302  -2.181  12.293  1.00  0.00    -0.206 F 
ATOM     96  C   UNL     1     -17.703  -5.461  13.769  1.00  0.00     0.022 A 
BRANCH  93  97
ATOM     97  S   UNL     1     -16.696  -6.740  15.999  1.00  0.00     0.124 S 
ATOM     98  O   UNL     1     -18.042  -7.211  16.308  1.00  0.00    -0.237 OA
ATOM     99  O   UNL     1     -15.931  -7.575  15.074  1.00  0.00    -0.237 OA
ATOM    100  O   UNL     1     -15.938  -6.210  17.127  1.00  0.00    -0.744 OA
ENDBRANCH  93  97
ENDBRANCH  66  90
BRANCH  78 101
ATOM    101  C   UNL     1     -18.287   3.866  14.936  1.00  0.00     0.023 A 
ATOM    102  C   UNL     1     -18.404   4.883  13.967  1.00  0.00     0.031 A 
ATOM    103  C   UNL     1     -19.317   3.731  15.882  1.00  0.00     0.131 A 
ATOM    104  C   UNL     1     -19.490   5.765  14.007  1.00  0.00     0.055 A 
ATOM    105  C   UNL     1     -20.432   4.570  15.875  1.00  0.00     0.041 A 
ATOM    106  F   UNL     1     -19.249   2.788  16.835  1.00  0.00    -0.206 F 
ATOM    107  C   UNL     1     -20.512   5.605  14.948  1.00  0.00     0.022 A 
BRANCH 104 108
ATOM    108  S   UNL     1     -19.555   7.218  12.923  1.00  0.00     0.124 S 
ATOM    109  O   UNL     1     -20.801   6.996  12.194  1.00  0.00    -0.237 OA
ATOM    110  O   UNL     1     -19.582   8.316  13.885  1.00  0.00    -0.237 OA
ATOM    111  O   UNL     1     -18.340   7.114  12.121  1.00  0.00    -0.744 OA
ENDBRANCH 104 108
ENDBRANCH  78 101
ENDBRANCH  52  53
ENDBRANCH  44  47
ENDBRANCH  42  43
ENDBRANCH  41  42
ENDBRANCH  40  41
ENDBRANCH   1  40
TORSDOF 22
