REMARK SMILES [NH3+][C@@H](Cc1cn(-c2nc(Cl)nc(N3CCOCC3)n2)c2ccccc12)C(=O)NCCCCCCNC(=O)c1ccc(-c2c3nc(c(-c4cc(S(=O)(=O)[O-])ccc4F)c4ccc([nH]4)c(-c4cc(S(=O)(=O)[O-])ccc4F)c4nc(c(-c5cc(S(=O)(=O)[O-])ccc5F)c5ccc2[nH]5)C=C4)C=C3)cc1
REMARK SMILES IDX 31 1 30 2 29 3 28 4 26 5 27 6 2 8 1 9 3 13 4 14 5 15 25 16
REMARK SMILES IDX 6 17 20 18 24 19 21 20 23 21 22 22 7 23 8 24 19 25 9 26
REMARK SMILES IDX 12 27 10 28 11 29 13 30 14 31 18 32 15 33 17 34 16 35 32 36
REMARK SMILES IDX 33 37 34 38 35 39 36 40 37 42 38 43 39 44 100 45 40 46 99 47
REMARK SMILES IDX 41 48 42 49 43 50 93 51 44 52 98 53 92 54 94 55 45 56 97 57
REMARK SMILES IDX 91 58 90 59 46 61 78 62 58 63 77 64 59 65 62 66 76 67 95 68
REMARK SMILES IDX 60 69 61 70 75 72 96 73 63 74 47 75 48 76 56 77 49 78 55 79
REMARK SMILES IDX 57 80 54 81 50 82 51 83 52 84 53 85 79 86 80 87 88 88 81 89
REMARK SMILES IDX 87 90 89 91 86 92 82 93 83 94 84 95 85 96 64 97 65 98 73 99
REMARK SMILES IDX 66 100 72 101 74 102 71 103 67 104 68 105 69 106 70 107
REMARK H PARENT 28 7 1 10 1 11 1 12 35 41 94 60 62 71
REMARK Flexibility Score: inf
ROOT
ATOM      1  C   UNL     1      -2.769  -3.117   1.898  1.00  0.00     0.002 C 
ENDROOT
BRANCH   1   2
ATOM      2  C   UNL     1      -1.413  -3.054   0.741  1.00  0.00     0.021 C 
BRANCH   2   3
ATOM      3  C   UNL     1      -1.239  -2.262  -1.314  1.00  0.00     0.116 C 
BRANCH   3   4
ATOM      4  N   UNL     1      -1.347  -0.765  -1.878  1.00  0.00    -0.351 N 
ATOM      5  C   UNL     1      -0.513   0.300  -2.008  1.00  0.00     0.278 C 
ATOM      6  O   UNL     1      -1.071   1.372  -2.292  1.00  0.00    -0.268 OA
ATOM      7  H   UNL     1      -2.250  -0.567  -2.218  1.00  0.00     0.163 HD
BRANCH   5   8
ATOM      8  C   UNL     1       1.031   0.267  -1.790  1.00  0.00     0.275 C 
BRANCH   8   9
ATOM      9  N   UNL     1       1.462   0.977  -0.558  1.00  0.00    -0.347 N 
ATOM     10  H   UNL     1       2.476   0.921  -0.470  1.00  0.00     0.345 HD
ATOM     11  H   UNL     1       1.026   0.542   0.256  1.00  0.00     0.345 HD
ATOM     12  H   UNL     1       1.179   1.956  -0.613  1.00  0.00     0.345 HD
ENDBRANCH   8   9
BRANCH   8  13
ATOM     13  C   UNL     1       1.785  -1.048  -1.979  1.00  0.00     0.113 C 
BRANCH  13  14
ATOM     14  C   UNL     1       1.625  -2.146  -0.929  1.00  0.00    -0.015 A 
ATOM     15  C   UNL     1       2.174  -3.427  -1.127  1.00  0.00     0.099 A 
ATOM     16  C   UNL     1       0.466  -2.283  -0.059  1.00  0.00     0.004 A 
ATOM     17  N   UNL     1       1.228  -4.454  -0.930  1.00  0.00    -0.285 N 
ATOM     18  C   UNL     1       0.006  -3.869  -0.643  1.00  0.00     0.056 A 
ATOM     19  C   UNL     1      -0.845  -1.101   0.392  1.00  0.00     0.010 A 
ATOM     20  C   UNL     1      -1.722  -4.284  -0.935  1.00  0.00     0.027 A 
ATOM     21  C   UNL     1      -2.580  -1.479   0.066  1.00  0.00     0.001 A 
ATOM     22  C   UNL     1      -3.010  -3.071  -0.612  1.00  0.00     0.002 A 
BRANCH  17  23
ATOM     23  C   UNL     1       1.383  -5.838  -1.253  1.00  0.00     0.240 A 
ATOM     24  N   UNL     1       0.264  -6.494  -1.530  1.00  0.00    -0.181 NA
ATOM     25  N   UNL     1       2.598  -6.394  -1.215  1.00  0.00    -0.176 NA
ATOM     26  C   UNL     1       0.449  -7.756  -1.871  1.00  0.00     0.228 A 
ATOM     27  C   UNL     1       2.633  -7.706  -1.484  1.00  0.00     0.231 A 
ATOM     28  Cl  UNL     1      -0.972  -8.638  -2.199  1.00  0.00    -0.041 Cl
ATOM     29  N   UNL     1       1.590  -8.411  -1.890  1.00  0.00    -0.182 NA
BRANCH  27  30
ATOM     30  N   UNL     1       3.760  -8.423  -1.198  1.00  0.00    -0.336 N 
ATOM     31  C   UNL     1       4.531  -8.131  -0.003  1.00  0.00     0.148 C 
ATOM     32  C   UNL     1       4.475  -9.089  -2.280  1.00  0.00     0.148 C 
ATOM     33  C   UNL     1       5.802  -7.372  -0.388  1.00  0.00     0.181 C 
ATOM     34  C   UNL     1       5.765  -8.297  -2.574  1.00  0.00     0.181 C 
ATOM     35  O   UNL     1       6.557  -8.084  -1.386  1.00  0.00    -0.378 OA
ENDBRANCH  27  30
ENDBRANCH  17  23
ENDBRANCH  13  14
ENDBRANCH   8  13
ENDBRANCH   5   8
ENDBRANCH   3   4
ENDBRANCH   2   3
ENDBRANCH   1   2
BRANCH   1  36
ATOM     36  C   UNL     1      -3.932  -4.133   1.728  1.00  0.00     0.002 C 
BRANCH  36  37
ATOM     37  C   UNL     1      -3.478  -5.588   1.702  1.00  0.00     0.021 C 
BRANCH  37  38
ATOM     38  C   UNL     1      -3.044  -5.989   3.099  1.00  0.00     0.116 C 
BRANCH  38  39
ATOM     39  N   UNL     1      -4.201  -6.131   3.954  1.00  0.00    -0.352 N 
ATOM     40  C   UNL     1      -5.178  -7.083   3.992  1.00  0.00     0.251 C 
ATOM     41  H   UNL     1      -4.301  -5.419   4.626  1.00  0.00     0.163 HD
ATOM     42  O   UNL     1      -6.228  -6.775   4.560  1.00  0.00    -0.269 OA
BRANCH  40  43
ATOM     43  C   UNL     1      -5.051  -8.408   3.342  1.00  0.00     0.039 A 
ATOM     44  C   UNL     1      -3.877  -8.954   2.816  1.00  0.00     0.014 A 
ATOM     45  C   UNL     1      -6.218  -9.178   3.320  1.00  0.00     0.014 A 
ATOM     46  C   UNL     1      -3.924 -10.098   2.042  1.00  0.00     0.010 A 
ATOM     47  C   UNL     1      -6.210 -10.428   2.746  1.00  0.00     0.010 A 
ATOM     48  C   UNL     1      -5.119 -10.809   1.980  1.00  0.00    -0.014 A 
BRANCH  48  49
ATOM     49  C   UNL     1      -5.171 -12.070   1.262  1.00  0.00     0.031 A 
ATOM     50  C   UNL     1      -4.117 -13.019   1.714  1.00  0.00     0.074 A 
ATOM     51  C   UNL     1      -6.165 -12.347   0.388  1.00  0.00     0.049 A 
ATOM     52  N   UNL     1      -3.097 -13.433   1.038  1.00  0.00    -0.248 NA
ATOM     53  C   UNL     1      -4.043 -13.351   3.150  1.00  0.00     0.031 C 
ATOM     54  C   UNL     1      -7.342 -11.539   0.041  1.00  0.00     0.029 A 
ATOM     55  N   UNL     1      -6.369 -13.480  -0.338  1.00  0.00    -0.354 N 
ATOM     56  C   UNL     1      -2.398 -14.287   1.887  1.00  0.00     0.074 A 
ATOM     57  C   UNL     1      -2.907 -14.046   3.211  1.00  0.00     0.031 C 
ATOM     58  C   UNL     1      -8.248 -12.302  -0.614  1.00  0.00     0.029 A 
ATOM     59  C   UNL     1      -7.650 -13.593  -0.888  1.00  0.00     0.049 A 
ATOM     60  H   UNL     1      -5.673 -14.164  -0.466  1.00  0.00     0.167 HD
ATOM     61  C   UNL     1      -1.623 -15.289   1.387  1.00  0.00     0.034 A 
ATOM     62  C   UNL     1      -8.170 -14.692  -1.504  1.00  0.00     0.034 A 
ATOM     63  C   UNL     1      -1.370 -15.081  -0.015  1.00  0.00     0.049 A 
ATOM     64  C   UNL     1      -7.012 -15.527  -1.920  1.00  0.00     0.074 A 
ATOM     65  C   UNL     1      -0.649 -14.156  -0.739  1.00  0.00     0.029 A 
ATOM     66  N   UNL     1      -2.263 -15.650  -0.891  1.00  0.00    -0.354 N 
ATOM     67  N   UNL     1      -6.159 -15.141  -2.832  1.00  0.00    -0.248 NA
ATOM     68  C   UNL     1      -6.511 -16.488  -0.946  1.00  0.00     0.031 C 
ATOM     69  C   UNL     1      -1.447 -13.886  -1.887  1.00  0.00     0.029 A 
ATOM     70  C   UNL     1      -2.558 -14.734  -1.869  1.00  0.00     0.049 A 
ATOM     71  H   UNL     1      -2.629 -16.561  -0.827  1.00  0.00     0.167 HD
ATOM     72  C   UNL     1      -4.918 -15.435  -2.286  1.00  0.00     0.074 A 
ATOM     73  C   UNL     1      -5.202 -16.295  -1.133  1.00  0.00     0.031 C 
ATOM     74  C   UNL     1      -3.806 -14.710  -2.608  1.00  0.00     0.034 A 
BRANCH  61  75
ATOM     75  C   UNL     1      -1.430 -16.624   2.061  1.00  0.00     0.023 A 
ATOM     76  C   UNL     1      -2.217 -17.063   3.144  1.00  0.00     0.031 A 
ATOM     77  C   UNL     1      -0.596 -17.595   1.470  1.00  0.00     0.131 A 
ATOM     78  C   UNL     1      -2.160 -18.387   3.601  1.00  0.00     0.055 A 
ATOM     79  C   UNL     1      -0.589 -18.932   1.884  1.00  0.00     0.041 A 
ATOM     80  F   UNL     1       0.199 -17.284   0.434  1.00  0.00    -0.206 F 
ATOM     81  C   UNL     1      -1.376 -19.335   2.954  1.00  0.00     0.022 A 
BRANCH  78  82
ATOM     82  S   UNL     1      -3.118 -18.911   5.051  1.00  0.00     0.124 S 
ATOM     83  O   UNL     1      -3.929 -19.994   4.504  1.00  0.00    -0.237 OA
ATOM     84  O   UNL     1      -2.057 -19.318   5.969  1.00  0.00    -0.237 OA
ATOM     85  O   UNL     1      -3.841 -17.704   5.438  1.00  0.00    -0.744 OA
ENDBRANCH  78  82
ENDBRANCH  61  75
BRANCH  62  86
ATOM     86  C   UNL     1      -9.476 -15.321  -1.154  1.00  0.00     0.023 A 
ATOM     87  C   UNL     1      -9.985 -15.155   0.147  1.00  0.00     0.031 A 
ATOM     88  C   UNL     1     -10.056 -16.335  -1.940  1.00  0.00     0.131 A 
ATOM     89  C   UNL     1     -10.982 -16.005   0.644  1.00  0.00     0.055 A 
ATOM     90  C   UNL     1     -11.081 -17.164  -1.454  1.00  0.00     0.041 A 
ATOM     91  F   UNL     1      -9.589 -16.591  -3.173  1.00  0.00    -0.206 F 
ATOM     92  C   UNL     1     -11.537 -17.011  -0.147  1.00  0.00     0.022 A 
BRANCH  89  93
ATOM     93  S   UNL     1     -11.480 -15.898   2.386  1.00  0.00     0.124 S 
ATOM     94  O   UNL     1     -12.933 -15.786   2.281  1.00  0.00    -0.237 OA
ATOM     95  O   UNL     1     -10.982 -17.163   2.914  1.00  0.00    -0.237 OA
ATOM     96  O   UNL     1     -10.801 -14.697   2.862  1.00  0.00    -0.744 OA
ENDBRANCH  89  93
ENDBRANCH  62  86
BRANCH  74  97
ATOM     97  C   UNL     1      -3.904 -13.664  -3.701  1.00  0.00     0.023 A 
ATOM     98  C   UNL     1      -2.954 -13.744  -4.729  1.00  0.00     0.031 A 
ATOM     99  C   UNL     1      -4.682 -12.490  -3.632  1.00  0.00     0.131 A 
ATOM    100  C   UNL     1      -2.748 -12.664  -5.594  1.00  0.00     0.055 A 
ATOM    101  C   UNL     1      -4.525 -11.438  -4.546  1.00  0.00     0.041 A 
ATOM    102  F   UNL     1      -5.547 -12.283  -2.633  1.00  0.00    -0.206 F 
ATOM    103  C   UNL     1      -3.538 -11.515  -5.522  1.00  0.00     0.022 A 
BRANCH 100 104
ATOM    104  S   UNL     1      -1.327 -12.669  -6.713  1.00  0.00     0.124 S 
ATOM    105  O   UNL     1      -1.966 -12.595  -8.024  1.00  0.00    -0.237 OA
ATOM    106  O   UNL     1      -0.603 -11.467  -6.301  1.00  0.00    -0.237 OA
ATOM    107  O   UNL     1      -0.648 -13.928  -6.420  1.00  0.00    -0.744 OA
ENDBRANCH 100 104
ENDBRANCH  74  97
ENDBRANCH  48  49
ENDBRANCH  40  43
ENDBRANCH  38  39
ENDBRANCH  37  38
ENDBRANCH  36  37
ENDBRANCH   1  36
TORSDOF 21
