REMARK SMILES Cc1ccc(-c2cc([C@@H](C)C(=O)NCCCCCCNC(=O)c3ccc(-c4c5nc(c(-c6cc(S(=O)(=O)[O-])ccc6F)c6ccc([nH]6)c(-c6cc(S(=O)(=O)[O-])ccc6F)c6nc(c(-c7cc(S(=O)(=O)[O-])ccc7F)c7ccc4[nH]7)C=C6)C=C5)cc3)ccc2C[C@H]2CCCC2=O)cc1
REMARK SMILES IDX 16 1 15 2 14 3 13 4 11 5 12 6 9 8 10 9 8 10 6 11 7 12 88 13
REMARK SMILES IDX 87 14 86 15 5 16 1 17 2 18 3 19 97 20 4 21 96 22 89 23 90 24
REMARK SMILES IDX 91 25 94 26 92 27 93 28 95 29 17 30 18 31 19 32 20 33 21 34
REMARK SMILES IDX 22 36 23 37 24 38 85 39 25 40 84 41 26 42 27 43 28 44 78 45
REMARK SMILES IDX 29 46 83 47 77 48 79 49 30 50 82 51 76 52 75 53 31 55 63 56
REMARK SMILES IDX 43 57 62 58 44 59 47 60 61 61 80 62 45 63 46 64 60 66 81 67
REMARK SMILES IDX 48 68 32 69 33 70 41 71 34 72 40 73 42 74 39 75 35 76 36 77
REMARK SMILES IDX 37 78 38 79 64 80 65 81 73 82 66 83 72 84 74 85 71 86 67 87
REMARK SMILES IDX 68 88 69 89 70 90 49 91 50 92 58 93 51 94 57 95 59 96 56 97
REMARK SMILES IDX 52 98 53 99 54 100 55 101
REMARK H PARENT 13 7 20 35 79 54 47 65
REMARK Flexibility Score: inf
ROOT
ATOM      1  C   UNL     1      -9.480   2.073   1.651  1.00  0.00     0.002 C 
ENDROOT
BRANCH   1   2
ATOM      2  C   UNL     1      -8.539   1.173   0.838  1.00  0.00     0.021 C 
BRANCH   2   3
ATOM      3  C   UNL     1      -8.670   1.298  -0.681  1.00  0.00     0.116 C 
BRANCH   3   4
ATOM      4  N   UNL     1      -7.831   2.346  -1.228  1.00  0.00    -0.356 N 
ATOM      5  C   UNL     1      -6.669   2.308  -1.935  1.00  0.00     0.227 C 
ATOM      6  O   UNL     1      -6.178   3.400  -2.252  1.00  0.00    -0.274 OA
ATOM      7  H   UNL     1      -8.164   3.256  -1.054  1.00  0.00     0.163 HD
BRANCH   5   8
ATOM      8  C   UNL     1      -5.971   1.012  -2.379  1.00  0.00     0.105 C 
ATOM      9  C   UNL     1      -6.810   0.132  -3.306  1.00  0.00     0.023 C 
BRANCH   8  10
ATOM     10  C   UNL     1      -5.245   0.285  -1.258  1.00  0.00    -0.035 A 
ATOM     11  C   UNL     1      -3.160  -0.072   0.021  1.00  0.00    -0.015 A 
ATOM     12  C   UNL     1      -3.879   0.537  -1.032  1.00  0.00     0.013 A 
ATOM     13  C   UNL     1      -3.875  -0.859   0.951  1.00  0.00    -0.039 A 
ATOM     14  C   UNL     1      -5.212  -1.181   0.671  1.00  0.00     0.004 A 
ATOM     15  C   UNL     1      -5.873  -0.644  -0.431  1.00  0.00     0.005 A 
BRANCH  11  16
ATOM     16  C   UNL     1      -1.688   0.032   0.031  1.00  0.00    -0.018 A 
ATOM     17  C   UNL     1       2.642   0.172  -0.020  1.00  0.00     0.044 C 
ATOM     18  C   UNL     1       1.143   0.140  -0.025  1.00  0.00    -0.051 A 
ATOM     19  C   UNL     1       0.481  -1.085  -0.136  1.00  0.00     0.004 A 
ATOM     20  C   UNL     1       0.384   1.310   0.104  1.00  0.00     0.004 A 
ATOM     21  C   UNL     1      -0.913  -1.133  -0.119  1.00  0.00     0.009 A 
ATOM     22  C   UNL     1      -1.016   1.256   0.129  1.00  0.00     0.009 A 
ENDBRANCH  11  16
BRANCH  13  23
ATOM     23  C   UNL     1      -3.285  -1.361   2.257  1.00  0.00     0.047 C 
BRANCH  23  24
ATOM     24  C   UNL     1      -3.706  -0.605   3.529  1.00  0.00     0.060 C 
ATOM     25  C   UNL     1      -3.407   0.900   3.551  1.00  0.00     0.012 C 
ATOM     26  C   UNL     1      -5.197  -0.642   3.802  1.00  0.00     0.136 C 
ATOM     27  C   UNL     1      -4.735   1.599   3.282  1.00  0.00     0.009 C 
ATOM     28  C   UNL     1      -5.778   0.736   3.976  1.00  0.00     0.076 C 
ATOM     29  O   UNL     1      -5.855  -1.675   3.885  1.00  0.00    -0.299 OA
ENDBRANCH  23  24
ENDBRANCH  13  23
ENDBRANCH   8  10
ENDBRANCH   5   8
ENDBRANCH   3   4
ENDBRANCH   2   3
ENDBRANCH   1   2
BRANCH   1  30
ATOM     30  C   UNL     1     -10.982   1.961   1.339  1.00  0.00     0.002 C 
BRANCH  30  31
ATOM     31  C   UNL     1     -11.554   0.544   1.275  1.00  0.00     0.021 C 
BRANCH  31  32
ATOM     32  C   UNL     1     -11.643  -0.149   2.631  1.00  0.00     0.116 C 
BRANCH  32  33
ATOM     33  N   UNL     1     -13.003  -0.229   3.155  1.00  0.00    -0.352 N 
ATOM     34  C   UNL     1     -13.466  -0.848   4.305  1.00  0.00     0.251 C 
ATOM     35  H   UNL     1     -13.690   0.223   2.613  1.00  0.00     0.163 HD
ATOM     36  O   UNL     1     -14.652  -0.898   4.570  1.00  0.00    -0.269 OA
BRANCH  34  37
ATOM     37  C   UNL     1     -12.468  -1.330   5.292  1.00  0.00     0.039 A 
ATOM     38  C   UNL     1     -12.564  -0.818   6.591  1.00  0.00     0.014 A 
ATOM     39  C   UNL     1     -11.348  -2.054   4.896  1.00  0.00     0.014 A 
ATOM     40  C   UNL     1     -11.439  -0.826   7.411  1.00  0.00     0.010 A 
ATOM     41  C   UNL     1     -10.206  -1.985   5.671  1.00  0.00     0.010 A 
ATOM     42  C   UNL     1     -10.235  -1.309   6.895  1.00  0.00    -0.014 A 
BRANCH  42  43
ATOM     43  C   UNL     1      -8.946  -1.014   7.509  1.00  0.00     0.031 A 
ATOM     44  C   UNL     1      -8.223  -2.051   8.280  1.00  0.00     0.074 A 
ATOM     45  C   UNL     1      -8.402   0.218   7.375  1.00  0.00     0.049 A 
ATOM     46  N   UNL     1      -7.414  -1.803   9.255  1.00  0.00    -0.248 NA
ATOM     47  C   UNL     1      -8.393  -3.478   8.026  1.00  0.00     0.031 C 
ATOM     48  C   UNL     1      -7.053   0.626   7.765  1.00  0.00     0.029 A 
ATOM     49  N   UNL     1      -8.978   1.422   6.994  1.00  0.00    -0.354 N 
ATOM     50  C   UNL     1      -6.750  -2.970   9.557  1.00  0.00     0.074 A 
ATOM     51  C   UNL     1      -7.447  -3.997   8.816  1.00  0.00     0.031 C 
ATOM     52  C   UNL     1      -7.035   1.961   7.917  1.00  0.00     0.029 A 
ATOM     53  C   UNL     1      -8.405   2.421   7.782  1.00  0.00     0.049 A 
ATOM     54  H   UNL     1      -9.662   1.548   6.297  1.00  0.00     0.167 HD
ATOM     55  C   UNL     1      -5.596  -2.927  10.284  1.00  0.00     0.034 A 
ATOM     56  C   UNL     1      -9.075   3.163   8.715  1.00  0.00     0.034 A 
ATOM     57  C   UNL     1      -5.256  -1.560  10.678  1.00  0.00     0.049 A 
ATOM     58  C   UNL     1      -8.469   3.063  10.107  1.00  0.00     0.074 A 
ATOM     59  C   UNL     1      -4.381  -0.626  10.148  1.00  0.00     0.029 A 
ATOM     60  N   UNL     1      -6.058  -0.878  11.586  1.00  0.00    -0.354 N 
ATOM     61  N   UNL     1      -7.629   2.130  10.469  1.00  0.00    -0.248 NA
ATOM     62  C   UNL     1      -8.779   3.977  11.205  1.00  0.00     0.031 C 
ATOM     63  C   UNL     1      -4.713   0.642  10.688  1.00  0.00     0.029 A 
ATOM     64  C   UNL     1      -5.763   0.472  11.575  1.00  0.00     0.049 A 
ATOM     65  H   UNL     1      -6.741  -1.298  12.157  1.00  0.00     0.167 HD
ATOM     66  C   UNL     1      -7.306   2.279  11.793  1.00  0.00     0.074 A 
ATOM     67  C   UNL     1      -8.031   3.470  12.202  1.00  0.00     0.031 C 
ATOM     68  C   UNL     1      -6.483   1.399  12.439  1.00  0.00     0.034 A 
BRANCH  55  69
ATOM     69  C   UNL     1      -4.610  -4.074  10.355  1.00  0.00     0.023 A 
ATOM     70  C   UNL     1      -3.230  -3.798  10.456  1.00  0.00     0.031 A 
ATOM     71  C   UNL     1      -4.948  -5.438  10.282  1.00  0.00     0.131 A 
ATOM     72  C   UNL     1      -2.266  -4.818  10.358  1.00  0.00     0.055 A 
ATOM     73  C   UNL     1      -3.990  -6.450  10.120  1.00  0.00     0.041 A 
ATOM     74  F   UNL     1      -6.215  -5.854  10.416  1.00  0.00    -0.206 F 
ATOM     75  C   UNL     1      -2.639  -6.140  10.140  1.00  0.00     0.022 A 
BRANCH  72  76
ATOM     76  S   UNL     1      -0.510  -4.392  10.527  1.00  0.00     0.124 S 
ATOM     77  O   UNL     1      -0.324  -3.407   9.466  1.00  0.00    -0.237 OA
ATOM     78  O   UNL     1      -0.446  -3.888  11.895  1.00  0.00    -0.237 OA
ATOM     79  O   UNL     1       0.172  -5.667  10.309  1.00  0.00    -0.744 OA
ENDBRANCH  72  76
ENDBRANCH  55  69
BRANCH  56  80
ATOM     80  C   UNL     1     -10.523   3.356   8.430  1.00  0.00     0.023 A 
ATOM     81  C   UNL     1     -10.867   4.003   7.225  1.00  0.00     0.031 A 
ATOM     82  C   UNL     1     -11.518   2.621   9.088  1.00  0.00     0.131 A 
ATOM     83  C   UNL     1     -12.113   3.770   6.628  1.00  0.00     0.055 A 
ATOM     84  C   UNL     1     -12.784   2.438   8.516  1.00  0.00     0.041 A 
ATOM     85  F   UNL     1     -11.246   1.965  10.225  1.00  0.00    -0.206 F 
ATOM     86  C   UNL     1     -13.070   2.975   7.260  1.00  0.00     0.022 A 
BRANCH  83  87
ATOM     87  S   UNL     1     -12.373   4.286   4.902  1.00  0.00     0.124 S 
ATOM     88  O   UNL     1     -13.033   5.575   5.066  1.00  0.00    -0.237 OA
ATOM     89  O   UNL     1     -11.016   4.330   4.363  1.00  0.00    -0.237 OA
ATOM     90  O   UNL     1     -13.201   3.213   4.356  1.00  0.00    -0.744 OA
ENDBRANCH  83  87
ENDBRANCH  56  80
BRANCH  68  91
ATOM     91  C   UNL     1      -6.213   1.369  13.929  1.00  0.00     0.023 A 
ATOM     92  C   UNL     1      -7.070   1.942  14.880  1.00  0.00     0.031 A 
ATOM     93  C   UNL     1      -5.097   0.669  14.451  1.00  0.00     0.131 A 
ATOM     94  C   UNL     1      -6.772   1.887  16.254  1.00  0.00     0.055 A 
ATOM     95  C   UNL     1      -4.848   0.544  15.821  1.00  0.00     0.041 A 
ATOM     96  F   UNL     1      -4.202   0.071  13.651  1.00  0.00    -0.206 F 
ATOM     97  C   UNL     1      -5.679   1.170  16.735  1.00  0.00     0.022 A 
BRANCH  94  98
ATOM     98  S   UNL     1      -7.811   2.834  17.397  1.00  0.00     0.124 S 
ATOM     99  O   UNL     1      -7.604   4.201  16.926  1.00  0.00    -0.237 OA
ATOM    100  O   UNL     1      -9.136   2.274  17.155  1.00  0.00    -0.237 OA
ATOM    101  O   UNL     1      -7.241   2.539  18.710  1.00  0.00    -0.744 OA
ENDBRANCH  94  98
ENDBRANCH  68  91
ENDBRANCH  42  43
ENDBRANCH  34  37
ENDBRANCH  32  33
ENDBRANCH  31  32
ENDBRANCH  30  31
ENDBRANCH   1  30
TORSDOF 20
