REMARK SMILES O=C(NCCCCCCNC(=O)[C@H]1CCCN(C(=O)CCOc2ccc(F)cc2)C1)c1ccc(-c2c3nc(c(-c4cc(S(=O)(=O)[O-])ccc4F)c4ccc([nH]4)c(-c4cc(S(=O)(=O)[O-])ccc4F)c4nc(c(-c5cc(S(=O)(=O)[O-])ccc5F)c5ccc2[nH]5)C=C4)C=C3)cc1
REMARK SMILES IDX 7 1 6 2 5 3 4 4 3 5 1 6 2 7 31 9 32 10 93 11 33 12 92 13
REMARK SMILES IDX 34 14 35 15 36 16 86 17 37 18 91 19 85 20 87 21 38 22 90 23
REMARK SMILES IDX 84 24 83 25 39 27 71 28 51 29 70 30 52 31 55 32 69 33 88 34
REMARK SMILES IDX 53 35 54 36 68 38 89 39 56 40 40 41 41 42 49 43 42 44 48 45
REMARK SMILES IDX 50 46 47 47 43 48 44 49 45 50 46 51 72 52 73 53 81 54 74 55
REMARK SMILES IDX 80 56 82 57 79 58 75 59 76 60 77 61 78 62 57 63 58 64 66 65
REMARK SMILES IDX 59 66 65 67 67 68 64 69 60 70 61 71 62 72 63 73 8 74 9 75
REMARK SMILES IDX 10 76 11 77 12 79 13 80 14 81 30 82 15 83 17 84 16 85 18 86
REMARK SMILES IDX 19 87 20 88 21 89 22 90 23 91 24 92 29 93 25 94 28 95 26 96
REMARK SMILES IDX 27 97
REMARK H PARENT 3 8 87 26 55 37 10 78
REMARK Flexibility Score: inf
ROOT
ATOM      1  C   UNL     1       9.230  -8.161  -3.501  1.00  0.00     0.002 C 
ENDROOT
BRANCH   1   2
ATOM      2  C   UNL     1      10.636  -8.704  -3.779  1.00  0.00     0.002 C 
BRANCH   2   3
ATOM      3  C   UNL     1      10.881 -10.169  -3.410  1.00  0.00     0.021 C 
BRANCH   3   4
ATOM      4  C   UNL     1       9.928 -11.181  -4.040  1.00  0.00     0.116 C 
BRANCH   4   5
ATOM      5  N   UNL     1       9.944 -11.142  -5.492  1.00  0.00    -0.352 N 
ATOM      6  O   UNL     1      10.202 -11.884  -7.595  1.00  0.00    -0.269 OA
ATOM      7  C   UNL     1      10.080 -12.160  -6.403  1.00  0.00     0.251 C 
ATOM      8  H   UNL     1       9.842 -10.245  -5.884  1.00  0.00     0.163 HD
BRANCH   7   9
ATOM      9  C   UNL     1      10.099 -13.578  -5.971  1.00  0.00     0.039 A 
ATOM     10  C   UNL     1       9.198 -14.067  -5.021  1.00  0.00     0.014 A 
ATOM     11  C   UNL     1      11.003 -14.452  -6.586  1.00  0.00     0.014 A 
ATOM     12  C   UNL     1       9.261 -15.403  -4.624  1.00  0.00     0.010 A 
ATOM     13  C   UNL     1      11.032 -15.802  -6.224  1.00  0.00     0.010 A 
ATOM     14  C   UNL     1      10.171 -16.284  -5.228  1.00  0.00    -0.014 A 
BRANCH  14  15
ATOM     15  C   UNL     1      10.163 -17.720  -4.854  1.00  0.00     0.031 A 
ATOM     16  C   UNL     1      11.286 -18.317  -4.056  1.00  0.00     0.074 A 
ATOM     17  C   UNL     1       9.114 -18.481  -5.222  1.00  0.00     0.049 A 
ATOM     18  N   UNL     1      11.438 -19.550  -3.643  1.00  0.00    -0.248 NA
ATOM     19  C   UNL     1      12.383 -17.415  -3.676  1.00  0.00     0.031 C 
ATOM     20  C   UNL     1       7.964 -18.010  -5.998  1.00  0.00     0.029 A 
ATOM     21  N   UNL     1       8.833 -19.799  -4.976  1.00  0.00    -0.354 N 
ATOM     22  C   UNL     1      12.650 -19.578  -2.964  1.00  0.00     0.074 A 
ATOM     23  C   UNL     1      13.201 -18.240  -3.036  1.00  0.00     0.031 C 
ATOM     24  C   UNL     1       7.082 -19.013  -6.125  1.00  0.00     0.029 A 
ATOM     25  C   UNL     1       7.621 -20.205  -5.480  1.00  0.00     0.049 A 
ATOM     26  H   UNL     1       9.441 -20.398  -4.485  1.00  0.00     0.167 HD
ATOM     27  C   UNL     1      13.246 -20.624  -2.340  1.00  0.00     0.034 A 
ATOM     28  C   UNL     1       7.013 -21.405  -5.435  1.00  0.00     0.034 A 
ATOM     29  C   UNL     1      12.692 -21.953  -2.272  1.00  0.00     0.049 A 
ATOM     30  C   UNL     1       7.703 -22.552  -4.756  1.00  0.00     0.074 A 
ATOM     31  C   UNL     1      13.216 -23.078  -1.658  1.00  0.00     0.029 A 
ATOM     32  N   UNL     1      11.487 -22.339  -2.842  1.00  0.00    -0.354 N 
ATOM     33  N   UNL     1       8.867 -22.568  -4.152  1.00  0.00    -0.248 NA
ATOM     34  C   UNL     1       7.005 -23.843  -4.767  1.00  0.00     0.031 C 
ATOM     35  C   UNL     1      12.347 -24.152  -1.889  1.00  0.00     0.029 A 
ATOM     36  C   UNL     1      11.259 -23.686  -2.609  1.00  0.00     0.049 A 
ATOM     37  H   UNL     1      10.881 -21.742  -3.338  1.00  0.00     0.167 HD
ATOM     38  C   UNL     1       9.045 -23.875  -3.715  1.00  0.00     0.074 A 
ATOM     39  C   UNL     1       7.862 -24.614  -4.111  1.00  0.00     0.031 C 
ATOM     40  C   UNL     1      10.093 -24.414  -3.045  1.00  0.00     0.034 A 
BRANCH  27  41
ATOM     41  C   UNL     1      14.594 -20.374  -1.718  1.00  0.00     0.023 A 
ATOM     42  C   UNL     1      14.734 -19.613  -0.546  1.00  0.00     0.031 A 
ATOM     43  C   UNL     1      15.754 -20.899  -2.313  1.00  0.00     0.131 A 
ATOM     44  C   UNL     1      16.013 -19.358  -0.030  1.00  0.00     0.055 A 
ATOM     45  C   UNL     1      17.020 -20.688  -1.765  1.00  0.00     0.041 A 
ATOM     46  F   UNL     1      15.674 -21.618  -3.444  1.00  0.00    -0.206 F 
ATOM     47  C   UNL     1      17.155 -19.907  -0.620  1.00  0.00     0.022 A 
BRANCH  44  48
ATOM     48  S   UNL     1      16.178 -18.237   1.387  1.00  0.00     0.124 S 
ATOM     49  O   UNL     1      15.782 -16.960   0.798  1.00  0.00    -0.237 OA
ATOM     50  O   UNL     1      15.249 -18.807   2.356  1.00  0.00    -0.237 OA
ATOM     51  O   UNL     1      17.591 -18.341   1.744  1.00  0.00    -0.744 OA
ENDBRANCH  44  48
ENDBRANCH  27  41
BRANCH  28  52
ATOM     52  C   UNL     1       5.689 -21.581  -6.082  1.00  0.00     0.023 A 
ATOM     53  C   UNL     1       4.518 -21.662  -5.314  1.00  0.00     0.031 A 
ATOM     54  C   UNL     1       5.579 -21.638  -7.481  1.00  0.00     0.131 A 
ATOM     55  C   UNL     1       3.279 -21.807  -5.955  1.00  0.00     0.055 A 
ATOM     56  C   UNL     1       4.342 -21.758  -8.114  1.00  0.00     0.041 A 
ATOM     57  F   UNL     1       6.675 -21.548  -8.251  1.00  0.00    -0.206 F 
ATOM     58  C   UNL     1       3.182 -21.845  -7.349  1.00  0.00     0.022 A 
BRANCH  55  59
ATOM     59  S   UNL     1       1.781 -21.933  -4.939  1.00  0.00     0.124 S 
ATOM     60  O   UNL     1       1.960 -23.235  -4.307  1.00  0.00    -0.237 OA
ATOM     61  O   UNL     1       1.904 -20.771  -4.064  1.00  0.00    -0.237 OA
ATOM     62  O   UNL     1       0.700 -21.855  -5.919  1.00  0.00    -0.744 OA
ENDBRANCH  55  59
ENDBRANCH  28  52
BRANCH  40  63
ATOM     63  C   UNL     1       9.997 -25.874  -2.706  1.00  0.00     0.023 A 
ATOM     64  C   UNL     1      10.218 -26.861  -3.681  1.00  0.00     0.031 A 
ATOM     65  C   UNL     1       9.675 -26.278  -1.400  1.00  0.00     0.131 A 
ATOM     66  C   UNL     1      10.082 -28.214  -3.340  1.00  0.00     0.055 A 
ATOM     67  C   UNL     1       9.574 -27.627  -1.059  1.00  0.00     0.041 A 
ATOM     68  F   UNL     1       9.454 -25.367  -0.439  1.00  0.00    -0.206 F 
ATOM     69  C   UNL     1       9.773 -28.603  -2.033  1.00  0.00     0.022 A 
BRANCH  66  70
ATOM     70  S   UNL     1      10.292 -29.469  -4.633  1.00  0.00     0.124 S 
ATOM     71  O   UNL     1       9.108 -29.251  -5.458  1.00  0.00    -0.237 OA
ATOM     72  O   UNL     1      11.567 -29.096  -5.236  1.00  0.00    -0.237 OA
ATOM     73  O   UNL     1      10.307 -30.727  -3.888  1.00  0.00    -0.744 OA
ENDBRANCH  66  70
ENDBRANCH  40  63
ENDBRANCH  14  15
ENDBRANCH   7   9
ENDBRANCH   4   5
ENDBRANCH   3   4
ENDBRANCH   2   3
ENDBRANCH   1   2
BRANCH   1  74
ATOM     74  C   UNL     1       8.701  -8.326  -2.071  1.00  0.00     0.021 C 
BRANCH  74  75
ATOM     75  C   UNL     1       9.637  -7.776  -0.991  1.00  0.00     0.116 C 
BRANCH  75  76
ATOM     76  N   UNL     1       8.943  -6.845  -0.103  1.00  0.00    -0.356 N 
ATOM     77  C   UNL     1       8.710  -6.534   1.178  1.00  0.00     0.224 C 
ATOM     78  H   UNL     1       8.460  -6.195  -0.664  1.00  0.00     0.163 HD
ATOM     79  O   UNL     1       8.201  -5.386   1.202  1.00  0.00    -0.275 OA
BRANCH  77  80
ATOM     80  C   UNL     1       8.772  -7.310   2.692  1.00  0.00     0.098 C 
ATOM     81  C   UNL     1       9.678  -9.076   3.688  1.00  0.00     0.017 C 
ATOM     82  C   UNL     1       9.191  -5.620   3.597  1.00  0.00     0.132 C 
ATOM     83  C   UNL     1      10.785  -8.605   5.251  1.00  0.00     0.022 C 
ATOM     84  N   UNL     1       9.674  -5.641   5.198  1.00  0.00    -0.342 N 
ATOM     85  C   UNL     1      10.841  -6.793   5.798  1.00  0.00     0.119 C 
BRANCH  84  86
ATOM     86  C   UNL     1       8.606  -5.169   6.012  1.00  0.00     0.226 C 
ATOM     87  O   UNL     1       8.455  -3.957   6.189  1.00  0.00    -0.275 OA
BRANCH  86  88
ATOM     88  C   UNL     1       7.493  -6.176   6.522  1.00  0.00     0.141 C 
BRANCH  88  89
ATOM     89  C   UNL     1       6.494  -6.784   5.461  1.00  0.00     0.239 C 
BRANCH  89  90
ATOM     90  O   UNL     1       6.580  -8.212   5.067  1.00  0.00    -0.493 OA
BRANCH  90  91
ATOM     91  C   UNL     1       7.614  -8.441   4.206  1.00  0.00     0.119 A 
ATOM     92  C   UNL     1       8.997  -7.594   4.586  1.00  0.00     0.049 A 
ATOM     93  C   UNL     1       7.626  -9.280   2.730  1.00  0.00     0.049 A 
ATOM     94  C   UNL     1      10.542  -7.401   3.423  1.00  0.00     0.043 A 
ATOM     95  C   UNL     1       8.997  -9.243   1.639  1.00  0.00     0.043 A 
ATOM     96  C   UNL     1      10.465  -8.296   1.927  1.00  0.00     0.123 A 
ATOM     97  F   UNL     1      11.544  -8.393   1.145  1.00  0.00    -0.207 F 
ENDBRANCH  90  91
ENDBRANCH  89  90
ENDBRANCH  88  89
ENDBRANCH  86  88
ENDBRANCH  84  86
ENDBRANCH  77  80
ENDBRANCH  75  76
ENDBRANCH  74  75
ENDBRANCH   1  74
TORSDOF 21
