REMARK SMILES Cc1cc([C@@H]([NH3+])C[C@H](C)CC(=O)NCCCCCCNC(=O)c2ccc(-c3c4nc(c(-c5cc(S(=O)(=O)[O-])ccc5F)c5ccc([nH]5)c(-c5cc(S(=O)(=O)[O-])ccc5F)c5nc(c(-c6cc(S(=O)(=O)[O-])ccc6F)c6ccc3[nH]6)C=C5)C=C4)cc2)ccc1F
REMARK SMILES IDX 16 1 15 2 14 3 13 4 11 5 12 6 10 8 8 9 9 10 7 11 5 12 4 13
REMARK SMILES IDX 1 14 2 15 3 16 88 17 87 18 89 19 86 20 6 21 17 25 18 26
REMARK SMILES IDX 19 27 20 28 21 29 22 31 23 32 24 33 85 34 25 35 84 36 26 37
REMARK SMILES IDX 27 38 28 39 78 40 29 41 83 42 77 43 79 44 30 45 82 46 76 47
REMARK SMILES IDX 75 48 31 50 63 51 43 52 62 53 44 54 47 55 61 56 80 57 45 58
REMARK SMILES IDX 46 59 60 61 81 62 48 63 32 64 33 65 41 66 34 67 40 68 42 69
REMARK SMILES IDX 39 70 35 71 36 72 37 73 38 74 64 75 65 76 73 77 66 78 72 79
REMARK SMILES IDX 74 80 71 81 67 82 68 83 69 84 70 85 49 86 50 87 58 88 51 89
REMARK SMILES IDX 57 90 59 91 56 92 52 93 53 94 54 95 55 96
REMARK H PARENT 13 7 6 22 6 23 6 24 20 30 79 49 47 60
REMARK Flexibility Score: inf
ROOT
ATOM      1  C   UNL     1      -5.433  -3.338   0.611  1.00  0.00     0.002 C 
ENDROOT
BRANCH   1   2
ATOM      2  C   UNL     1      -5.149  -1.868   0.914  1.00  0.00     0.021 C 
BRANCH   2   3
ATOM      3  C   UNL     1      -5.840  -1.397   2.195  1.00  0.00     0.116 C 
BRANCH   3   4
ATOM      4  N   UNL     1      -4.976  -1.577   3.338  1.00  0.00    -0.356 N 
ATOM      5  C   UNL     1      -4.267  -0.644   4.030  1.00  0.00     0.220 C 
ATOM      6  O   UNL     1      -3.552  -1.025   4.959  1.00  0.00    -0.275 OA
ATOM      7  H   UNL     1      -4.887  -2.502   3.661  1.00  0.00     0.163 HD
BRANCH   5   8
ATOM      8  C   UNL     1      -4.393   0.837   3.686  1.00  0.00     0.103 C 
BRANCH   8   9
ATOM      9  C   UNL     1      -3.790   1.214   2.313  1.00  0.00     0.001 C 
ATOM     10  C   UNL     1      -4.896   1.625   1.317  1.00  0.00     0.008 C 
BRANCH   9  11
ATOM     11  C   UNL     1      -2.740   2.354   2.414  1.00  0.00     0.074 C 
BRANCH  11  12
ATOM     12  C   UNL     1      -1.624   2.289   1.333  1.00  0.00     0.212 C 
BRANCH  12  13
ATOM     13  C   UNL     1      -2.138   2.112  -0.086  1.00  0.00     0.010 A 
ATOM     14  C   UNL     1      -2.890  -0.802  -2.448  1.00  0.00     0.047 C 
ATOM     15  C   UNL     1      -2.803   0.579  -1.875  1.00  0.00    -0.015 A 
ATOM     16  C   UNL     1      -2.157   0.823  -0.656  1.00  0.00     0.016 A 
ATOM     17  C   UNL     1      -3.382   1.654  -2.550  1.00  0.00     0.126 A 
ATOM     18  C   UNL     1      -3.331   2.944  -2.034  1.00  0.00     0.040 A 
ATOM     19  F   UNL     1      -4.027   1.440  -3.705  1.00  0.00    -0.207 F 
ATOM     20  C   UNL     1      -2.709   3.175  -0.805  1.00  0.00     0.013 A 
ENDBRANCH  12  13
BRANCH  12  21
ATOM     21  N   UNL     1      -0.777   3.480   1.452  1.00  0.00    -0.351 N 
ATOM     22  H   UNL     1      -1.335   4.314   1.268  1.00  0.00     0.345 HD
ATOM     23  H   UNL     1      -0.016   3.425   0.774  1.00  0.00     0.345 HD
ATOM     24  H   UNL     1      -0.390   3.530   2.394  1.00  0.00     0.345 HD
ENDBRANCH  12  21
ENDBRANCH  11  12
ENDBRANCH   9  11
ENDBRANCH   8   9
ENDBRANCH   5   8
ENDBRANCH   3   4
ENDBRANCH   2   3
ENDBRANCH   1   2
BRANCH   1  25
ATOM     25  C   UNL     1      -6.928  -3.653   0.467  1.00  0.00     0.002 C 
BRANCH  25  26
ATOM     26  C   UNL     1      -7.669  -2.758  -0.538  1.00  0.00     0.021 C 
BRANCH  26  27
ATOM     27  C   UNL     1      -7.115  -2.909  -1.939  1.00  0.00     0.116 C 
BRANCH  27  28
ATOM     28  N   UNL     1      -7.295  -4.289  -2.362  1.00  0.00    -0.352 N 
ATOM     29  C   UNL     1      -7.659  -4.739  -3.601  1.00  0.00     0.251 C 
ATOM     30  H   UNL     1      -7.138  -4.979  -1.678  1.00  0.00     0.163 HD
ATOM     31  O   UNL     1      -8.119  -5.858  -3.739  1.00  0.00    -0.269 OA
BRANCH  29  32
ATOM     32  C   UNL     1      -7.322  -3.865  -4.725  1.00  0.00     0.039 A 
ATOM     33  C   UNL     1      -8.181  -3.683  -5.807  1.00  0.00     0.014 A 
ATOM     34  C   UNL     1      -6.055  -3.278  -4.673  1.00  0.00     0.014 A 
ATOM     35  C   UNL     1      -7.726  -2.955  -6.897  1.00  0.00     0.010 A 
ATOM     36  C   UNL     1      -5.663  -2.456  -5.679  1.00  0.00     0.010 A 
ATOM     37  C   UNL     1      -6.454  -2.386  -6.826  1.00  0.00    -0.014 A 
BRANCH  37  38
ATOM     38  C   UNL     1      -5.772  -1.744  -7.924  1.00  0.00     0.031 A 
ATOM     39  C   UNL     1      -6.263  -0.454  -8.420  1.00  0.00     0.074 A 
ATOM     40  C   UNL     1      -4.597  -2.318  -8.283  1.00  0.00     0.049 A 
ATOM     41  N   UNL     1      -5.923   0.032  -9.556  1.00  0.00    -0.248 NA
ATOM     42  C   UNL     1      -7.196   0.401  -7.683  1.00  0.00     0.031 C 
ATOM     43  C   UNL     1      -3.505  -1.775  -9.071  1.00  0.00     0.029 A 
ATOM     44  N   UNL     1      -4.150  -3.620  -8.021  1.00  0.00    -0.354 N 
ATOM     45  C   UNL     1      -6.309   1.353  -9.567  1.00  0.00     0.074 A 
ATOM     46  C   UNL     1      -7.212   1.500  -8.450  1.00  0.00     0.031 C 
ATOM     47  C   UNL     1      -2.733  -2.799  -9.489  1.00  0.00     0.029 A 
ATOM     48  C   UNL     1      -3.438  -4.026  -9.150  1.00  0.00     0.049 A 
ATOM     49  H   UNL     1      -4.307  -4.144  -7.203  1.00  0.00     0.167 HD
ATOM     50  C   UNL     1      -5.670   2.197 -10.424  1.00  0.00     0.034 A 
ATOM     51  C   UNL     1      -3.960  -4.923 -10.051  1.00  0.00     0.034 A 
ATOM     52  C   UNL     1      -4.696   1.445 -11.228  1.00  0.00     0.049 A 
ATOM     53  C   UNL     1      -4.200  -4.295 -11.424  1.00  0.00     0.074 A 
ATOM     54  C   UNL     1      -3.336   1.212 -11.101  1.00  0.00     0.029 A 
ATOM     55  N   UNL     1      -5.165   0.469 -12.092  1.00  0.00    -0.354 N 
ATOM     56  N   UNL     1      -4.043  -3.024 -11.680  1.00  0.00    -0.248 NA
ATOM     57  C   UNL     1      -4.711  -5.021 -12.585  1.00  0.00     0.031 C 
ATOM     58  C   UNL     1      -3.001   0.074 -11.897  1.00  0.00     0.029 A 
ATOM     59  C   UNL     1      -4.151  -0.374 -12.520  1.00  0.00     0.049 A 
ATOM     60  H   UNL     1      -6.106   0.384 -12.369  1.00  0.00     0.167 HD
ATOM     61  C   UNL     1      -4.470  -2.733 -12.944  1.00  0.00     0.074 A 
ATOM     62  C   UNL     1      -4.879  -4.024 -13.474  1.00  0.00     0.031 C 
ATOM     63  C   UNL     1      -4.491  -1.458 -13.439  1.00  0.00     0.034 A 
BRANCH  50  64
ATOM     64  C   UNL     1      -5.737   3.709 -10.366  1.00  0.00     0.023 A 
ATOM     65  C   UNL     1      -6.786   4.449  -9.772  1.00  0.00     0.031 A 
ATOM     66  C   UNL     1      -4.685   4.479 -10.908  1.00  0.00     0.131 A 
ATOM     67  C   UNL     1      -6.728   5.856  -9.674  1.00  0.00     0.055 A 
ATOM     68  C   UNL     1      -4.649   5.877 -10.846  1.00  0.00     0.041 A 
ATOM     69  F   UNL     1      -3.621   3.909 -11.492  1.00  0.00    -0.206 F 
ATOM     70  C   UNL     1      -5.664   6.573 -10.215  1.00  0.00     0.022 A 
BRANCH  67  71
ATOM     71  S   UNL     1      -7.994   6.808  -8.779  1.00  0.00     0.124 S 
ATOM     72  O   UNL     1      -7.195   7.544  -7.800  1.00  0.00    -0.237 OA
ATOM     73  O   UNL     1      -8.583   7.624  -9.836  1.00  0.00    -0.237 OA
ATOM     74  O   UNL     1      -8.867   5.785  -8.211  1.00  0.00    -0.744 OA
ENDBRANCH  67  71
ENDBRANCH  50  64
BRANCH  51  75
ATOM     75  C   UNL     1      -4.856  -5.945  -9.412  1.00  0.00     0.023 A 
ATOM     76  C   UNL     1      -6.252  -5.869  -9.525  1.00  0.00     0.031 A 
ATOM     77  C   UNL     1      -4.323  -6.717  -8.354  1.00  0.00     0.131 A 
ATOM     78  C   UNL     1      -7.061  -6.410  -8.507  1.00  0.00     0.055 A 
ATOM     79  C   UNL     1      -5.125  -7.188  -7.313  1.00  0.00     0.041 A 
ATOM     80  F   UNL     1      -2.993  -6.878  -8.236  1.00  0.00    -0.206 F 
ATOM     81  C   UNL     1      -6.500  -6.992  -7.365  1.00  0.00     0.022 A 
BRANCH  78  82
ATOM     82  S   UNL     1      -8.869  -6.261  -8.621  1.00  0.00     0.124 S 
ATOM     83  O   UNL     1      -9.207  -7.461  -9.378  1.00  0.00    -0.237 OA
ATOM     84  O   UNL     1      -9.303  -6.264  -7.228  1.00  0.00    -0.237 OA
ATOM     85  O   UNL     1      -9.049  -4.992  -9.318  1.00  0.00    -0.744 OA
ENDBRANCH  78  82
ENDBRANCH  51  75
BRANCH  63  86
ATOM     86  C   UNL     1      -4.905  -1.099 -14.845  1.00  0.00     0.023 A 
ATOM     87  C   UNL     1      -5.453   0.177 -15.111  1.00  0.00     0.031 A 
ATOM     88  C   UNL     1      -4.675  -1.911 -15.963  1.00  0.00     0.131 A 
ATOM     89  C   UNL     1      -5.835   0.563 -16.397  1.00  0.00     0.055 A 
ATOM     90  C   UNL     1      -5.103  -1.549 -17.246  1.00  0.00     0.041 A 
ATOM     91  F   UNL     1      -3.974  -3.050 -15.865  1.00  0.00    -0.206 F 
ATOM     92  C   UNL     1      -5.699  -0.312 -17.466  1.00  0.00     0.022 A 
BRANCH  89  93
ATOM     93  S   UNL     1      -6.443   2.242 -16.714  1.00  0.00     0.124 S 
ATOM     94  O   UNL     1      -5.487   2.721 -17.710  1.00  0.00    -0.237 OA
ATOM     95  O   UNL     1      -7.790   1.981 -17.213  1.00  0.00    -0.237 OA
ATOM     96  O   UNL     1      -6.369   2.895 -15.413  1.00  0.00    -0.744 OA
ENDBRANCH  89  93
ENDBRANCH  63  86
ENDBRANCH  37  38
ENDBRANCH  29  32
ENDBRANCH  27  28
ENDBRANCH  26  27
ENDBRANCH  25  26
ENDBRANCH   1  25
TORSDOF 21
