REMARK SMILES COc1cc2ccccc2cc1C(=O)Nc1cc(C(=O)NCCCCCCNC(=O)c2ccc(-c3c4nc(c(-c5cc(S(=O)(=O)[O-])ccc5F)c5ccc([nH]5)c(-c5cc(S(=O)(=O)[O-])ccc5F)c5nc(c(-c6cc(S(=O)(=O)[O-])ccc6F)c6ccc3[nH]6)C=C5)C=C4)cc2)ccc1C
REMARK SMILES IDX 24 1 23 2 22 3 21 4 19 5 20 6 18 8 16 9 17 10 96 11 95 12
REMARK SMILES IDX 97 13 94 14 15 15 13 16 14 17 12 19 3 20 4 21 5 22 11 23
REMARK SMILES IDX 6 24 10 25 7 26 9 27 8 28 2 29 1 30 25 31 26 32 27 33 28 34
REMARK SMILES IDX 29 35 30 37 31 38 32 39 93 40 33 41 92 42 34 43 35 44 36 45
REMARK SMILES IDX 86 46 37 47 91 48 85 49 87 50 38 51 90 52 84 53 83 54 39 56
REMARK SMILES IDX 71 57 51 58 70 59 52 60 55 61 69 62 88 63 53 64 54 65 68 67
REMARK SMILES IDX 89 68 56 69 40 70 41 71 49 72 42 73 48 74 50 75 47 76 43 77
REMARK SMILES IDX 44 78 45 79 46 80 72 81 73 82 81 83 74 84 80 85 82 86 79 87
REMARK SMILES IDX 75 88 76 89 77 90 78 91 57 92 58 93 66 94 59 95 65 96 67 97
REMARK SMILES IDX 64 98 60 99 61 100 62 101 63 102
REMARK H PARENT 21 7 15 18 28 36 87 55 55 66
REMARK Flexibility Score: inf
ROOT
ATOM      1  C   UNL     1       0.715   3.295  -6.204  1.00  0.00     0.002 C 
ENDROOT
BRANCH   1   2
ATOM      2  C   UNL     1       1.123   2.432  -5.001  1.00  0.00     0.021 C 
BRANCH   2   3
ATOM      3  C   UNL     1       0.108   2.460  -3.859  1.00  0.00     0.116 C 
BRANCH   3   4
ATOM      4  N   UNL     1      -0.897   1.428  -4.019  1.00  0.00    -0.352 N 
ATOM      5  C   UNL     1      -1.096   0.189  -3.470  1.00  0.00     0.251 C 
ATOM      6  O   UNL     1      -2.116  -0.411  -3.822  1.00  0.00    -0.269 OA
ATOM      7  H   UNL     1      -1.595   1.673  -4.668  1.00  0.00     0.163 HD
BRANCH   5   8
ATOM      8  C   UNL     1      -0.216  -0.455  -2.445  1.00  0.00     0.041 A 
ATOM      9  C   UNL     1       1.700  -0.568  -0.948  1.00  0.00     0.045 A 
ATOM     10  C   UNL     1       1.052  -0.018  -2.065  1.00  0.00     0.040 A 
ATOM     11  C   UNL     1       1.209  -1.738  -0.345  1.00  0.00    -0.027 A 
ATOM     12  C   UNL     1      -0.032  -2.227  -0.772  1.00  0.00     0.006 A 
ATOM     13  C   UNL     1       1.848  -2.395   0.847  1.00  0.00     0.046 C 
ATOM     14  C   UNL     1      -0.745  -1.574  -1.781  1.00  0.00     0.014 A 
BRANCH   9  15
ATOM     15  N   UNL     1       2.797   0.092  -0.371  1.00  0.00    -0.322 N 
ATOM     16  C   UNL     1       3.010   1.434  -0.124  1.00  0.00     0.259 C 
ATOM     17  O   UNL     1       4.117   1.765   0.312  1.00  0.00    -0.269 OA
ATOM     18  H   UNL     1       3.535  -0.499  -0.097  1.00  0.00     0.170 HD
BRANCH  16  19
ATOM     19  C   UNL     1       1.974   2.504  -0.262  1.00  0.00     0.082 A 
ATOM     20  C   UNL     1       0.602   2.371  -0.008  1.00  0.00     0.132 A 
ATOM     21  C   UNL     1      -0.279   3.429  -0.270  1.00  0.00     0.056 A 
ATOM     22  C   UNL     1       0.199   4.689  -0.647  1.00  0.00    -0.015 A 
ATOM     23  C   UNL     1       2.455   3.785  -0.599  1.00  0.00     0.026 A 
ATOM     24  C   UNL     1      -0.676   5.760  -0.886  1.00  0.00     0.009 A 
ATOM     25  C   UNL     1       1.591   4.884  -0.767  1.00  0.00    -0.017 A 
ATOM     26  C   UNL     1      -0.179   7.028  -1.188  1.00  0.00     0.001 A 
ATOM     27  C   UNL     1       2.074   6.171  -1.055  1.00  0.00     0.009 A 
ATOM     28  C   UNL     1       1.195   7.237  -1.254  1.00  0.00     0.001 A 
BRANCH  20  29
ATOM     29  O   UNL     1       0.001   1.232   0.452  1.00  0.00    -0.496 OA
ATOM     30  C   UNL     1       0.225   1.051   1.846  1.00  0.00     0.278 C 
ENDBRANCH  20  29
ENDBRANCH  16  19
ENDBRANCH   9  15
ENDBRANCH   5   8
ENDBRANCH   3   4
ENDBRANCH   2   3
ENDBRANCH   1   2
BRANCH   1  31
ATOM     31  C   UNL     1       0.458   4.784  -5.906  1.00  0.00     0.002 C 
BRANCH  31  32
ATOM     32  C   UNL     1       1.560   5.502  -5.129  1.00  0.00     0.021 C 
BRANCH  32  33
ATOM     33  C   UNL     1       2.837   5.707  -5.938  1.00  0.00     0.116 C 
BRANCH  33  34
ATOM     34  N   UNL     1       2.992   7.067  -6.440  1.00  0.00    -0.352 N 
ATOM     35  C   UNL     1       4.059   7.628  -7.124  1.00  0.00     0.251 C 
ATOM     36  H   UNL     1       2.233   7.671  -6.269  1.00  0.00     0.163 HD
ATOM     37  O   UNL     1       4.099   8.811  -7.401  1.00  0.00    -0.269 OA
BRANCH  35  38
ATOM     38  C   UNL     1       5.102   6.712  -7.646  1.00  0.00     0.039 A 
ATOM     39  C   UNL     1       5.277   6.685  -9.034  1.00  0.00     0.014 A 
ATOM     40  C   UNL     1       5.679   5.740  -6.835  1.00  0.00     0.014 A 
ATOM     41  C   UNL     1       5.834   5.558  -9.628  1.00  0.00     0.010 A 
ATOM     42  C   UNL     1       6.155   4.585  -7.427  1.00  0.00     0.010 A 
ATOM     43  C   UNL     1       6.168   4.468  -8.822  1.00  0.00    -0.014 A 
BRANCH  43  44
ATOM     44  C   UNL     1       6.363   3.127  -9.361  1.00  0.00     0.031 A 
ATOM     45  C   UNL     1       7.702   2.516  -9.439  1.00  0.00     0.074 A 
ATOM     46  C   UNL     1       5.295   2.413  -9.783  1.00  0.00     0.049 A 
ATOM     47  N   UNL     1       8.039   1.636 -10.321  1.00  0.00    -0.248 NA
ATOM     48  C   UNL     1       8.790   2.879  -8.539  1.00  0.00     0.031 C 
ATOM     49  C   UNL     1       5.255   0.993 -10.119  1.00  0.00     0.029 A 
ATOM     50  N   UNL     1       4.075   2.910 -10.230  1.00  0.00    -0.354 N 
ATOM     51  C   UNL     1       9.244   1.105  -9.933  1.00  0.00     0.074 A 
ATOM     52  C   UNL     1       9.708   1.964  -8.866  1.00  0.00     0.031 C 
ATOM     53  C   UNL     1       4.209   0.769 -10.928  1.00  0.00     0.029 A 
ATOM     54  C   UNL     1       3.623   2.057 -11.249  1.00  0.00     0.049 A 
ATOM     55  H   UNL     1       3.614   3.712  -9.893  1.00  0.00     0.167 HD
ATOM     56  C   UNL     1       9.657  -0.090 -10.442  1.00  0.00     0.034 A 
ATOM     57  C   UNL     1       3.381   2.522 -12.508  1.00  0.00     0.034 A 
ATOM     58  C   UNL     1       8.700  -0.648 -11.395  1.00  0.00     0.049 A 
ATOM     59  C   UNL     1       4.204   1.843 -13.577  1.00  0.00     0.074 A 
ATOM     60  C   UNL     1       7.739  -1.640 -11.292  1.00  0.00     0.029 A 
ATOM     61  N   UNL     1       8.461   0.004 -12.598  1.00  0.00    -0.354 N 
ATOM     62  N   UNL     1       5.269   1.125 -13.344  1.00  0.00    -0.248 NA
ATOM     63  C   UNL     1       3.904   1.940 -15.000  1.00  0.00     0.031 C 
ATOM     64  C   UNL     1       6.909  -1.573 -12.440  1.00  0.00     0.029 A 
ATOM     65  C   UNL     1       7.376  -0.553 -13.250  1.00  0.00     0.049 A 
ATOM     66  H   UNL     1       8.992   0.759 -12.941  1.00  0.00     0.167 HD
ATOM     67  C   UNL     1       5.806   0.685 -14.531  1.00  0.00     0.074 A 
ATOM     68  C   UNL     1       4.898   1.210 -15.536  1.00  0.00     0.031 C 
ATOM     69  C   UNL     1       6.957  -0.060 -14.558  1.00  0.00     0.034 A 
BRANCH  56  70
ATOM     70  C   UNL     1      10.776  -0.890  -9.821  1.00  0.00     0.023 A 
ATOM     71  C   UNL     1      10.683  -2.296  -9.767  1.00  0.00     0.031 A 
ATOM     72  C   UNL     1      11.929  -0.333  -9.239  1.00  0.00     0.131 A 
ATOM     73  C   UNL     1      11.627  -3.067  -9.066  1.00  0.00     0.055 A 
ATOM     74  C   UNL     1      12.841  -1.091  -8.492  1.00  0.00     0.041 A 
ATOM     75  F   UNL     1      12.232   0.965  -9.398  1.00  0.00    -0.206 F 
ATOM     76  C   UNL     1      12.683  -2.466  -8.388  1.00  0.00     0.022 A 
BRANCH  73  77
ATOM     77  S   UNL     1      11.454  -4.873  -9.058  1.00  0.00     0.124 S 
ATOM     78  O   UNL     1      10.123  -5.056  -8.488  1.00  0.00    -0.237 OA
ATOM     79  O   UNL     1      11.601  -5.203 -10.471  1.00  0.00    -0.237 OA
ATOM     80  O   UNL     1      12.555  -5.315  -8.204  1.00  0.00    -0.744 OA
ENDBRANCH  73  77
ENDBRANCH  56  70
BRANCH  57  81
ATOM     81  C   UNL     1       2.919   3.940 -12.535  1.00  0.00     0.023 A 
ATOM     82  C   UNL     1       1.752   4.248 -11.803  1.00  0.00     0.031 A 
ATOM     83  C   UNL     1       3.769   4.995 -12.890  1.00  0.00     0.131 A 
ATOM     84  C   UNL     1       1.555   5.539 -11.296  1.00  0.00     0.055 A 
ATOM     85  C   UNL     1       3.529   6.301 -12.443  1.00  0.00     0.041 A 
ATOM     86  F   UNL     1       4.905   4.762 -13.563  1.00  0.00    -0.206 F 
ATOM     87  C   UNL     1       2.446   6.569 -11.603  1.00  0.00     0.022 A 
BRANCH  84  88
ATOM     88  S   UNL     1       0.301   5.790 -10.004  1.00  0.00     0.124 S 
ATOM     89  O   UNL     1      -0.845   6.259 -10.774  1.00  0.00    -0.237 OA
ATOM     90  O   UNL     1       0.168   4.460  -9.414  1.00  0.00    -0.237 OA
ATOM     91  O   UNL     1       0.918   6.779  -9.122  1.00  0.00    -0.744 OA
ENDBRANCH  84  88
ENDBRANCH  57  81
BRANCH  69  92
ATOM     92  C   UNL     1       7.767  -0.478 -15.781  1.00  0.00     0.023 A 
ATOM     93  C   UNL     1       7.472  -0.093 -17.095  1.00  0.00     0.031 A 
ATOM     94  C   UNL     1       8.933  -1.280 -15.645  1.00  0.00     0.131 A 
ATOM     95  C   UNL     1       8.256  -0.519 -18.187  1.00  0.00     0.055 A 
ATOM     96  C   UNL     1       9.741  -1.662 -16.722  1.00  0.00     0.041 A 
ATOM     97  F   UNL     1       9.359  -1.724 -14.453  1.00  0.00    -0.206 F 
ATOM     98  C   UNL     1       9.399  -1.289 -18.009  1.00  0.00     0.022 A 
BRANCH  95  99
ATOM     99  S   UNL     1       7.717  -0.068 -19.858  1.00  0.00     0.124 S 
ATOM    100  O   UNL     1       6.421  -0.733 -19.949  1.00  0.00    -0.237 OA
ATOM    101  O   UNL     1       7.676   1.390 -19.789  1.00  0.00    -0.237 OA
ATOM    102  O   UNL     1       8.760  -0.619 -20.720  1.00  0.00    -0.744 OA
ENDBRANCH  95  99
ENDBRANCH  69  92
ENDBRANCH  43  44
ENDBRANCH  35  38
ENDBRANCH  33  34
ENDBRANCH  32  33
ENDBRANCH  31  32
ENDBRANCH   1  31
TORSDOF 19
