REMARK SMILES O=C(NCCCCCCNC(=O)[C@@H]1C=C[C@H](NC(=O)c2ccc(CO)cc2)C1)c1ccc(-c2c3nc(c(-c4cc(S(=O)(=O)[O-])ccc4F)c4ccc([nH]4)c(-c4cc(S(=O)(=O)[O-])ccc4F)c4nc(c(-c5cc(S(=O)(=O)[O-])ccc5F)c5ccc2[nH]5)C=C4)C=C3)cc1
REMARK SMILES IDX 7 1 6 2 5 3 4 4 3 5 1 6 2 7 29 9 30 10 91 11 31 12 90 13
REMARK SMILES IDX 32 14 33 15 34 16 84 17 35 18 89 19 83 20 85 21 36 22 88 23
REMARK SMILES IDX 82 24 81 25 37 27 69 28 49 29 68 30 50 31 53 32 67 33 86 34
REMARK SMILES IDX 51 35 52 36 66 38 87 39 54 40 38 41 39 42 47 43 40 44 46 45
REMARK SMILES IDX 48 46 45 47 41 48 42 49 43 50 44 51 70 52 71 53 79 54 72 55
REMARK SMILES IDX 78 56 80 57 77 58 73 59 74 60 75 61 76 62 55 63 56 64 64 65
REMARK SMILES IDX 57 66 63 67 65 68 62 69 58 70 59 71 60 72 61 73 8 74 9 75
REMARK SMILES IDX 10 76 11 77 12 79 13 80 14 81 28 82 15 83 16 84 17 85 18 86
REMARK SMILES IDX 19 88 20 89 21 90 27 91 22 92 26 93 23 94 24 95 25 96
REMARK H PARENT 3 8 85 26 53 37 10 78 17 87 25 97
REMARK Flexibility Score: inf
ROOT
ATOM      1  C   UNL     1      10.213  11.257  -3.736  1.00  0.00     0.002 C 
ENDROOT
BRANCH   1   2
ATOM      2  C   UNL     1       9.408  12.046  -4.763  1.00  0.00     0.002 C 
BRANCH   2   3
ATOM      3  C   UNL     1       9.264  13.531  -4.466  1.00  0.00     0.021 C 
BRANCH   3   4
ATOM      4  C   UNL     1      10.577  14.288  -4.328  1.00  0.00     0.116 C 
BRANCH   4   5
ATOM      5  N   UNL     1      11.336  14.397  -5.571  1.00  0.00    -0.352 N 
ATOM      6  O   UNL     1      12.547  15.541  -7.129  1.00  0.00    -0.269 OA
ATOM      7  C   UNL     1      11.983  15.522  -6.042  1.00  0.00     0.251 C 
ATOM      8  H   UNL     1      11.392  13.588  -6.129  1.00  0.00     0.163 HD
BRANCH   7   9
ATOM      9  C   UNL     1      11.940  16.720  -5.182  1.00  0.00     0.039 A 
ATOM     10  C   UNL     1      12.432  16.617  -3.879  1.00  0.00     0.014 A 
ATOM     11  C   UNL     1      11.220  17.840  -5.600  1.00  0.00     0.014 A 
ATOM     12  C   UNL     1      12.057  17.570  -2.945  1.00  0.00     0.010 A 
ATOM     13  C   UNL     1      10.932  18.847  -4.676  1.00  0.00     0.010 A 
ATOM     14  C   UNL     1      11.317  18.702  -3.333  1.00  0.00    -0.014 A 
BRANCH  14  15
ATOM     15  C   UNL     1      11.025  19.750  -2.322  1.00  0.00     0.031 A 
ATOM     16  C   UNL     1       9.618  20.093  -1.918  1.00  0.00     0.074 A 
ATOM     17  C   UNL     1      12.074  20.367  -1.743  1.00  0.00     0.049 A 
ATOM     18  N   UNL     1       9.203  21.002  -1.073  1.00  0.00    -0.248 NA
ATOM     19  C   UNL     1       8.534  19.325  -2.549  1.00  0.00     0.031 C 
ATOM     20  C   UNL     1      13.480  20.102  -2.063  1.00  0.00     0.029 A 
ATOM     21  N   UNL     1      12.133  21.315  -0.757  1.00  0.00    -0.354 N 
ATOM     22  C   UNL     1       7.813  20.941  -1.089  1.00  0.00     0.074 A 
ATOM     23  C   UNL     1       7.456  19.910  -2.043  1.00  0.00     0.031 C 
ATOM     24  C   UNL     1      14.261  20.819  -1.246  1.00  0.00     0.029 A 
ATOM     25  C   UNL     1      13.417  21.668  -0.417  1.00  0.00     0.049 A 
ATOM     26  H   UNL     1      11.335  21.705  -0.334  1.00  0.00     0.167 HD
ATOM     27  C   UNL     1       6.927  21.683  -0.376  1.00  0.00     0.034 A 
ATOM     28  C   UNL     1      13.873  22.600   0.439  1.00  0.00     0.034 A 
ATOM     29  C   UNL     1       7.317  22.701   0.574  1.00  0.00     0.049 A 
ATOM     30  C   UNL     1      12.871  23.424   1.193  1.00  0.00     0.074 A 
ATOM     31  C   UNL     1       6.508  23.501   1.365  1.00  0.00     0.029 A 
ATOM     32  N   UNL     1       8.628  23.066   0.860  1.00  0.00    -0.354 N 
ATOM     33  N   UNL     1      11.559  23.366   1.151  1.00  0.00    -0.248 NA
ATOM     34  C   UNL     1      13.407  24.440   2.103  1.00  0.00     0.031 C 
ATOM     35  C   UNL     1       7.325  24.386   2.079  1.00  0.00     0.029 A 
ATOM     36  C   UNL     1       8.649  24.094   1.792  1.00  0.00     0.049 A 
ATOM     37  H   UNL     1       9.427  22.653   0.460  1.00  0.00     0.167 HD
ATOM     38  C   UNL     1      11.112  24.339   2.035  1.00  0.00     0.074 A 
ATOM     39  C   UNL     1      12.295  24.945   2.616  1.00  0.00     0.031 C 
ATOM     40  C   UNL     1       9.840  24.703   2.337  1.00  0.00     0.034 A 
BRANCH  27  41
ATOM     41  C   UNL     1       5.454  21.461  -0.638  1.00  0.00     0.023 A 
ATOM     42  C   UNL     1       4.816  20.245  -0.339  1.00  0.00     0.031 A 
ATOM     43  C   UNL     1       4.676  22.487  -1.207  1.00  0.00     0.131 A 
ATOM     44  C   UNL     1       3.461  20.064  -0.664  1.00  0.00     0.055 A 
ATOM     45  C   UNL     1       3.312  22.325  -1.462  1.00  0.00     0.041 A 
ATOM     46  F   UNL     1       5.231  23.664  -1.534  1.00  0.00    -0.206 F 
ATOM     47  C   UNL     1       2.699  21.103  -1.202  1.00  0.00     0.022 A 
BRANCH  44  48
ATOM     48  S   UNL     1       2.741  18.407  -0.495  1.00  0.00     0.124 S 
ATOM     49  O   UNL     1       3.621  17.611  -1.348  1.00  0.00    -0.237 OA
ATOM     50  O   UNL     1       2.849  18.160   0.938  1.00  0.00    -0.237 OA
ATOM     51  O   UNL     1       1.379  18.570  -1.000  1.00  0.00    -0.744 OA
ENDBRANCH  44  48
ENDBRANCH  27  41
BRANCH  28  52
ATOM     52  C   UNL     1      15.337  22.826   0.578  1.00  0.00     0.023 A 
ATOM     53  C   UNL     1      16.000  22.565   1.785  1.00  0.00     0.031 A 
ATOM     54  C   UNL     1      16.099  23.297  -0.509  1.00  0.00     0.131 A 
ATOM     55  C   UNL     1      17.380  22.799   1.885  1.00  0.00     0.055 A 
ATOM     56  C   UNL     1      17.479  23.475  -0.420  1.00  0.00     0.041 A 
ATOM     57  F   UNL     1      15.512  23.555  -1.689  1.00  0.00    -0.206 F 
ATOM     58  C   UNL     1      18.126  23.235   0.787  1.00  0.00     0.022 A 
BRANCH  55  59
ATOM     59  S   UNL     1      18.180  22.583   3.498  1.00  0.00     0.124 S 
ATOM     60  O   UNL     1      17.409  23.494   4.337  1.00  0.00    -0.237 OA
ATOM     61  O   UNL     1      17.981  21.159   3.745  1.00  0.00    -0.237 OA
ATOM     62  O   UNL     1      19.562  22.984   3.247  1.00  0.00    -0.744 OA
ENDBRANCH  55  59
ENDBRANCH  28  52
BRANCH  40  63
ATOM     63  C   UNL     1       9.686  25.795   3.364  1.00  0.00     0.023 A 
ATOM     64  C   UNL     1      10.081  27.117   3.094  1.00  0.00     0.031 A 
ATOM     65  C   UNL     1       9.182  25.499   4.642  1.00  0.00     0.131 A 
ATOM     66  C   UNL     1      10.027  28.081   4.110  1.00  0.00     0.055 A 
ATOM     67  C   UNL     1       9.075  26.477   5.631  1.00  0.00     0.041 A 
ATOM     68  F   UNL     1       8.795  24.251   4.951  1.00  0.00    -0.206 F 
ATOM     69  C   UNL     1       9.513  27.773   5.372  1.00  0.00     0.022 A 
BRANCH  66  70
ATOM     70  S   UNL     1      10.733  29.721   3.790  1.00  0.00     0.124 S 
ATOM     71  O   UNL     1      12.120  29.397   3.473  1.00  0.00    -0.237 OA
ATOM     72  O   UNL     1       9.919  30.200   2.677  1.00  0.00    -0.237 OA
ATOM     73  O   UNL     1      10.535  30.431   5.052  1.00  0.00    -0.744 OA
ENDBRANCH  66  70
ENDBRANCH  40  63
ENDBRANCH  14  15
ENDBRANCH   7   9
ENDBRANCH   4   5
ENDBRANCH   3   4
ENDBRANCH   2   3
ENDBRANCH   1   2
BRANCH   1  74
ATOM     74  C   UNL     1       9.596  11.033  -2.351  1.00  0.00     0.021 C 
BRANCH  74  75
ATOM     75  C   UNL     1       8.326  10.172  -2.311  1.00  0.00     0.116 C 
BRANCH  75  76
ATOM     76  N   UNL     1       8.440   8.933  -3.060  1.00  0.00    -0.356 N 
ATOM     77  C   UNL     1       8.653   7.637  -2.708  1.00  0.00     0.227 C 
ATOM     78  H   UNL     1       8.342   9.058  -4.032  1.00  0.00     0.163 HD
ATOM     79  O   UNL     1       8.535   6.816  -3.627  1.00  0.00    -0.274 OA
BRANCH  77  80
ATOM     80  C   UNL     1       8.882   7.173  -1.255  1.00  0.00     0.103 C 
ATOM     81  C   UNL     1       9.850   7.938  -0.401  1.00  0.00    -0.016 C 
ATOM     82  C   UNL     1       9.478   5.733  -1.226  1.00  0.00     0.047 C 
ATOM     83  C   UNL     1      10.765   7.157   0.185  1.00  0.00    -0.006 C 
ATOM     84  C   UNL     1      10.582   5.726  -0.162  1.00  0.00     0.106 C 
BRANCH  84  85
ATOM     85  N   UNL     1      11.852   5.082  -0.467  1.00  0.00    -0.346 N 
ATOM     86  C   UNL     1      12.704   5.083  -1.543  1.00  0.00     0.251 C 
ATOM     87  H   UNL     1      12.174   4.514   0.269  1.00  0.00     0.164 HD
ATOM     88  O   UNL     1      13.692   4.353  -1.538  1.00  0.00    -0.269 OA
BRANCH  86  89
ATOM     89  C   UNL     1      12.425   5.900  -2.731  1.00  0.00     0.039 A 
ATOM     90  C   UNL     1      12.213   5.259  -3.954  1.00  0.00     0.014 A 
ATOM     91  C   UNL     1      12.373   7.285  -2.647  1.00  0.00     0.014 A 
ATOM     92  C   UNL     1      11.762   5.996  -5.048  1.00  0.00     0.007 A 
ATOM     93  C   UNL     1      11.940   8.018  -3.750  1.00  0.00     0.007 A 
ATOM     94  C   UNL     1      11.541   7.373  -4.930  1.00  0.00    -0.023 A 
BRANCH  94  95
ATOM     95  C   UNL     1      10.823   8.108  -6.028  1.00  0.00     0.191 C 
BRANCH  95  96
ATOM     96  O   UNL     1      11.741   8.808  -6.845  1.00  0.00    -0.392 OA
ATOM     97  H   UNL     1      12.223   9.456  -6.308  1.00  0.00     0.211 HD
ENDBRANCH  95  96
ENDBRANCH  94  95
ENDBRANCH  86  89
ENDBRANCH  84  85
ENDBRANCH  77  80
ENDBRANCH  75  76
ENDBRANCH  74  75
ENDBRANCH   1  74
TORSDOF 20
