REMARK SMILES O=C(NCCCCCCNC(=O)[C@@H]1CCCCC[C@@H]1NS(=O)(=O)c1cccc(F)c1)c1ccc(-c2c3nc(c(-c4cc(S(=O)(=O)[O-])ccc4F)c4ccc([nH]4)c(-c4cc(S(=O)(=O)[O-])ccc4F)c4nc(c(-c5cc(S(=O)(=O)[O-])ccc5F)c5ccc2[nH]5)C=C4)C=C3)cc1
REMARK SMILES IDX 7 1 6 2 5 3 4 4 3 5 1 6 2 7 31 9 32 10 93 11 33 12 92 13
REMARK SMILES IDX 34 14 35 15 36 16 86 17 37 18 91 19 85 20 87 21 38 22 90 23
REMARK SMILES IDX 84 24 83 25 39 27 71 28 51 29 70 30 52 31 55 32 69 33 88 34
REMARK SMILES IDX 53 35 54 36 68 38 89 39 56 40 40 41 41 42 49 43 42 44 48 45
REMARK SMILES IDX 50 46 47 47 43 48 44 49 45 50 46 51 72 52 73 53 81 54 74 55
REMARK SMILES IDX 80 56 82 57 79 58 75 59 76 60 77 61 78 62 57 63 58 64 66 65
REMARK SMILES IDX 59 66 65 67 67 68 64 69 60 70 61 71 62 72 63 73 8 74 9 75
REMARK SMILES IDX 10 76 11 77 12 79 13 80 14 81 15 82 19 84 18 85 17 86 16 87
REMARK SMILES IDX 20 89 21 91 22 92 23 93 24 94 25 95 30 96 26 97 28 98 27 99
REMARK SMILES IDX 29 100
REMARK H PARENT 3 8 87 26 55 37 10 78 20 90
REMARK Flexibility Score: 100.00
ROOT
ATOM      1  C   UNL     1       4.559  -2.907  -3.238  1.00  0.00     0.002 C 
ENDROOT
BRANCH   1   2
ATOM      2  C   UNL     1       3.792  -3.277  -1.963  1.00  0.00     0.002 C 
BRANCH   2   3
ATOM      3  C   UNL     1       4.274  -2.595  -0.681  1.00  0.00     0.021 C 
BRANCH   3   4
ATOM      4  C   UNL     1       4.249  -1.070  -0.720  1.00  0.00     0.116 C 
BRANCH   4   5
ATOM      5  N   UNL     1       2.893  -0.546  -0.784  1.00  0.00    -0.352 N 
ATOM      6  O   UNL     1       1.041   0.490  -0.023  1.00  0.00    -0.269 OA
ATOM      7  C   UNL     1       2.250   0.304   0.083  1.00  0.00     0.251 C 
ATOM      8  H   UNL     1       2.362  -0.842  -1.559  1.00  0.00     0.163 HD
BRANCH   7   9
ATOM      9  C   UNL     1       3.016   0.980   1.153  1.00  0.00     0.039 A 
ATOM     10  C   UNL     1       4.246   1.580   0.875  1.00  0.00     0.014 A 
ATOM     11  C   UNL     1       2.495   1.018   2.450  1.00  0.00     0.014 A 
ATOM     12  C   UNL     1       5.015   2.093   1.914  1.00  0.00     0.010 A 
ATOM     13  C   UNL     1       3.236   1.607   3.481  1.00  0.00     0.010 A 
ATOM     14  C   UNL     1       4.517   2.121   3.227  1.00  0.00    -0.014 A 
BRANCH  14  15
ATOM     15  C   UNL     1       5.346   2.725   4.303  1.00  0.00     0.031 A 
ATOM     16  C   UNL     1       5.891   1.885   5.426  1.00  0.00     0.074 A 
ATOM     17  C   UNL     1       5.658   4.034   4.222  1.00  0.00     0.049 A 
ATOM     18  N   UNL     1       6.657   2.245   6.424  1.00  0.00    -0.248 NA
ATOM     19  C   UNL     1       5.529   0.459   5.435  1.00  0.00     0.031 C 
ATOM     20  C   UNL     1       5.191   4.945   3.173  1.00  0.00     0.029 A 
ATOM     21  N   UNL     1       6.463   4.819   5.007  1.00  0.00    -0.354 N 
ATOM     22  C   UNL     1       6.858   1.100   7.186  1.00  0.00     0.074 A 
ATOM     23  C   UNL     1       6.113   0.036   6.549  1.00  0.00     0.031 C 
ATOM     24  C   UNL     1       5.768   6.144   3.342  1.00  0.00     0.029 A 
ATOM     25  C   UNL     1       6.592   6.109   4.546  1.00  0.00     0.049 A 
ATOM     26  H   UNL     1       6.907   4.491   5.822  1.00  0.00     0.167 HD
ATOM     27  C   UNL     1       7.603   0.952   8.308  1.00  0.00     0.034 A 
ATOM     28  C   UNL     1       7.284   7.154   5.040  1.00  0.00     0.034 A 
ATOM     29  C   UNL     1       8.359   2.015   8.922  1.00  0.00     0.049 A 
ATOM     30  C   UNL     1       8.070   6.970   6.307  1.00  0.00     0.074 A 
ATOM     31  C   UNL     1       9.168   1.957  10.044  1.00  0.00     0.029 A 
ATOM     32  N   UNL     1       8.401   3.325   8.469  1.00  0.00    -0.354 N 
ATOM     33  N   UNL     1       8.227   5.883   7.025  1.00  0.00    -0.248 NA
ATOM     34  C   UNL     1       8.759   8.153   6.839  1.00  0.00     0.031 C 
ATOM     35  C   UNL     1       9.658   3.243  10.298  1.00  0.00     0.029 A 
ATOM     36  C   UNL     1       9.199   4.090   9.303  1.00  0.00     0.049 A 
ATOM     37  H   UNL     1       7.932   3.662   7.671  1.00  0.00     0.167 HD
ATOM     38  C   UNL     1       9.032   6.252   8.096  1.00  0.00     0.074 A 
ATOM     39  C   UNL     1       9.342   7.657   7.923  1.00  0.00     0.031 C 
ATOM     40  C   UNL     1       9.475   5.495   9.129  1.00  0.00     0.034 A 
BRANCH  27  41
ATOM     41  C   UNL     1       7.619  -0.401   8.969  1.00  0.00     0.023 A 
ATOM     42  C   UNL     1       8.293  -1.492   8.396  1.00  0.00     0.031 A 
ATOM     43  C   UNL     1       6.984  -0.588  10.209  1.00  0.00     0.131 A 
ATOM     44  C   UNL     1       8.288  -2.735   9.049  1.00  0.00     0.055 A 
ATOM     45  C   UNL     1       7.029  -1.811  10.880  1.00  0.00     0.041 A 
ATOM     46  F   UNL     1       6.314   0.420  10.790  1.00  0.00    -0.206 F 
ATOM     47  C   UNL     1       7.680  -2.894  10.298  1.00  0.00     0.022 A 
BRANCH  44  48
ATOM     48  S   UNL     1       9.041  -4.160   8.220  1.00  0.00     0.124 S 
ATOM     49  O   UNL     1       8.143  -4.348   7.083  1.00  0.00    -0.237 OA
ATOM     50  O   UNL     1      10.379  -3.675   7.900  1.00  0.00    -0.237 OA
ATOM     51  O   UNL     1       8.988  -5.214   9.230  1.00  0.00    -0.744 OA
ENDBRANCH  44  48
ENDBRANCH  27  41
BRANCH  28  52
ATOM     52  C   UNL     1       7.226   8.472   4.352  1.00  0.00     0.023 A 
ATOM     53  C   UNL     1       8.349   8.998   3.697  1.00  0.00     0.031 A 
ATOM     54  C   UNL     1       6.032   9.216   4.330  1.00  0.00     0.131 A 
ATOM     55  C   UNL     1       8.259  10.244   3.057  1.00  0.00     0.055 A 
ATOM     56  C   UNL     1       5.938  10.435   3.659  1.00  0.00     0.041 A 
ATOM     57  F   UNL     1       4.930   8.748   4.937  1.00  0.00    -0.206 F 
ATOM     58  C   UNL     1       7.058  10.959   3.022  1.00  0.00     0.022 A 
BRANCH  55  59
ATOM     59  S   UNL     1       9.747  10.937   2.285  1.00  0.00     0.124 S 
ATOM     60  O   UNL     1      10.616  11.132   3.440  1.00  0.00    -0.237 OA
ATOM     61  O   UNL     1      10.134   9.876   1.361  1.00  0.00    -0.237 OA
ATOM     62  O   UNL     1       9.263  12.162   1.653  1.00  0.00    -0.744 OA
ENDBRANCH  55  59
ENDBRANCH  28  52
BRANCH  40  63
ATOM     63  C   UNL     1      10.346   6.170  10.150  1.00  0.00     0.023 A 
ATOM     64  C   UNL     1       9.802   7.045  11.105  1.00  0.00     0.031 A 
ATOM     65  C   UNL     1      11.724   5.901  10.194  1.00  0.00     0.131 A 
ATOM     66  C   UNL     1      10.642   7.643  12.055  1.00  0.00     0.055 A 
ATOM     67  C   UNL     1      12.548   6.468  11.166  1.00  0.00     0.041 A 
ATOM     68  F   UNL     1      12.285   5.067   9.303  1.00  0.00    -0.206 F 
ATOM     69  C   UNL     1      12.008   7.347  12.102  1.00  0.00     0.022 A 
BRANCH  66  70
ATOM     70  S   UNL     1       9.930   8.824  13.232  1.00  0.00     0.124 S 
ATOM     71  O   UNL     1       9.596   9.949  12.364  1.00  0.00    -0.237 OA
ATOM     72  O   UNL     1       8.798   8.085  13.781  1.00  0.00    -0.237 OA
ATOM     73  O   UNL     1      11.021   9.069  14.174  1.00  0.00    -0.744 OA
ENDBRANCH  66  70
ENDBRANCH  40  63
ENDBRANCH  14  15
ENDBRANCH   7   9
ENDBRANCH   4   5
ENDBRANCH   3   4
ENDBRANCH   2   3
ENDBRANCH   1   2
BRANCH   1  74
ATOM     74  C   UNL     1       6.087  -2.980  -3.132  1.00  0.00     0.021 C 
BRANCH  74  75
ATOM     75  C   UNL     1       6.625  -4.367  -2.779  1.00  0.00     0.116 C 
BRANCH  75  76
ATOM     76  N   UNL     1       6.690  -5.218  -3.948  1.00  0.00    -0.356 N 
ATOM     77  C   UNL     1       7.726  -5.584  -4.739  1.00  0.00     0.224 C 
ATOM     78  H   UNL     1       5.823  -5.601  -4.216  1.00  0.00     0.163 HD
ATOM     79  O   UNL     1       7.441  -6.221  -5.761  1.00  0.00    -0.275 OA
BRANCH  77  80
ATOM     80  C   UNL     1       9.192  -5.222  -4.472  1.00  0.00     0.096 C 
BRANCH  80  81
ATOM     81  C   UNL     1       9.686  -5.880  -3.178  1.00  0.00     0.015 C 
BRANCH  81  82
ATOM     82  C   UNL     1      11.076  -5.463  -2.721  1.00  0.00     0.001 CG0
ATOM     83  G   UNL     1      11.070  -4.153  -1.941  1.00  0.00     0.000 G0
ENDBRANCH  81  82
ENDBRANCH  80  81
BRANCH  80  84
ATOM     84  C   UNL     1       9.613  -3.760  -4.800  1.00  0.00     0.082 C 
BRANCH  84  85
ATOM     85  C   UNL     1       9.680  -2.777  -3.628  1.00  0.00     0.021 C 
BRANCH  85  86
ATOM     86  C   UNL     1      10.963  -2.902  -2.802  1.00  0.00     0.002 C 
BRANCH  86  87
ATOM     87  C   UNL     1      11.070  -4.153  -1.941  1.00  0.00     0.000 CG0
ATOM     88  G   UNL     1      11.076  -5.463  -2.721  1.00  0.00     0.000 G0
ENDBRANCH  86  87
ENDBRANCH  85  86
ENDBRANCH  84  85
BRANCH  84  89
ATOM     89  N   UNL     1       8.805  -3.257  -5.932  1.00  0.00    -0.207 NA
ATOM     90  H   UNL     1       7.899  -3.023  -5.526  1.00  0.00     0.141 HD
BRANCH  89  91
ATOM     91  S   UNL     1       9.170  -1.974  -6.936  1.00  0.00     0.240 S 
ATOM     92  O   UNL     1       8.145  -1.980  -7.954  1.00  0.00    -0.207 OA
ATOM     93  O   UNL     1       9.415  -0.804  -6.121  1.00  0.00    -0.207 OA
BRANCH  91  94
ATOM     94  C   UNL     1      10.690  -2.357  -7.762  1.00  0.00     0.085 A 
ATOM     95  C   UNL     1      11.233  -3.645  -7.783  1.00  0.00     0.022 A 
ATOM     96  C   UNL     1      11.357  -1.297  -8.386  1.00  0.00     0.061 A 
ATOM     97  C   UNL     1      12.479  -3.860  -8.379  1.00  0.00     0.004 A 
ATOM     98  C   UNL     1      12.577  -1.535  -9.002  1.00  0.00     0.124 A 
ATOM     99  C   UNL     1      13.152  -2.801  -8.989  1.00  0.00     0.039 A 
ATOM    100  F   UNL     1      13.214  -0.529  -9.616  1.00  0.00    -0.207 F 
ENDBRANCH  91  94
ENDBRANCH  89  91
ENDBRANCH  84  89
ENDBRANCH  80  84
ENDBRANCH  77  80
ENDBRANCH  75  76
ENDBRANCH  74  75
ENDBRANCH   1  74
TORSDOF 19
