REMARK SMILES O=C(COc1ccc(/C=N/NC(=O)c2cc3cc([N+](=O)[O-])ccc3o2)cc1)NCCCCCCNC(=O)c1ccc(-c2c3nc(c(-c4cc(S(=O)(=O)[O-])ccc4F)c4ccc([nH]4)c(-c4cc(S(=O)(=O)[O-])ccc4F)c4nc(c(-c5cc(S(=O)(=O)[O-])ccc5F)c5ccc2[nH]5)C=C4)C=C3)cc1
REMARK SMILES IDX 30 1 29 2 28 3 1 4 2 5 3 7 4 8 5 9 6 10 27 11 7 12 26 13
REMARK SMILES IDX 8 14 9 15 10 16 11 17 12 18 13 20 14 21 15 22 25 23 16 24
REMARK SMILES IDX 24 25 17 26 23 27 18 28 22 29 19 30 20 31 21 32 31 33 32 34
REMARK SMILES IDX 33 35 34 36 35 37 36 38 37 40 38 41 39 42 100 43 40 44 99 45
REMARK SMILES IDX 41 46 42 47 43 48 93 49 44 50 98 51 92 52 94 53 45 54 97 55
REMARK SMILES IDX 91 56 90 57 46 59 78 60 58 61 77 62 59 63 62 64 76 65 95 66
REMARK SMILES IDX 60 67 61 68 75 70 96 71 63 72 47 73 48 74 56 75 49 76 55 77
REMARK SMILES IDX 57 78 54 79 50 80 51 81 52 82 53 83 79 84 80 85 88 86 81 87
REMARK SMILES IDX 87 88 89 89 86 90 82 91 83 92 84 93 85 94 64 95 65 96 73 97
REMARK SMILES IDX 66 98 72 99 74 100 71 101 67 102 68 103 69 104 70 105
REMARK H PARENT 28 6 11 19 35 39 94 58 62 69
REMARK Flexibility Score: inf
ROOT
ATOM      1  C   UNL     1       2.678  -2.159  -2.752  1.00  0.00     0.021 C 
ENDROOT
BRANCH   1   2
ATOM      2  C   UNL     1       2.093  -1.976  -1.358  1.00  0.00     0.116 C 
BRANCH   2   3
ATOM      3  N   UNL     1       2.720  -0.894  -0.630  1.00  0.00    -0.353 N 
ATOM      4  O   UNL     1       0.996   0.613  -0.851  1.00  0.00    -0.271 OA
ATOM      5  C   UNL     1       2.072   0.292  -0.357  1.00  0.00     0.257 C 
ATOM      6  H   UNL     1       3.647  -1.009  -0.318  1.00  0.00     0.163 HD
BRANCH   5   7
ATOM      7  C   UNL     1       2.797   1.178   0.660  1.00  0.00     0.329 C 
BRANCH   7   8
ATOM      8  O   UNL     1       3.661   0.517   1.580  1.00  0.00    -0.484 OA
BRANCH   8   9
ATOM      9  C   UNL     1       3.046  -0.093   2.641  1.00  0.00     0.120 A 
ATOM     10  C   UNL     1       3.646   0.093   3.886  1.00  0.00     0.047 A 
ATOM     11  C   UNL     1       1.966  -0.972   2.524  1.00  0.00     0.047 A 
ATOM     12  C   UNL     1       3.171  -0.598   5.005  1.00  0.00     0.013 A 
ATOM     13  C   UNL     1       1.507  -1.690   3.630  1.00  0.00     0.013 A 
ATOM     14  C   UNL     1       2.113  -1.506   4.868  1.00  0.00    -0.005 A 
BRANCH  14  15
ATOM     15  C   UNL     1       1.708  -2.376   5.993  1.00  0.00     0.141 C 
ATOM     16  N   UNL     1       2.120  -2.111   7.183  1.00  0.00    -0.180 NA
BRANCH  16  17
ATOM     17  N   UNL     1       1.957  -2.977   8.210  1.00  0.00    -0.240 N 
ATOM     18  C   UNL     1       1.252  -4.140   8.412  1.00  0.00     0.307 C 
ATOM     19  H   UNL     1       2.467  -2.708   9.008  1.00  0.00     0.194 HD
ATOM     20  O   UNL     1       1.696  -4.896   9.283  1.00  0.00    -0.264 OA
BRANCH  18  21
ATOM     21  C   UNL     1      -0.009  -4.446   7.770  1.00  0.00     0.194 A 
ATOM     22  C   UNL     1      -0.289  -5.415   6.813  1.00  0.00     0.065 A 
ATOM     23  O   UNL     1      -1.120  -4.274   8.562  1.00  0.00    -0.451 OA
ATOM     24  C   UNL     1      -1.429  -6.118   7.308  1.00  0.00     0.028 A 
ATOM     25  C   UNL     1      -1.901  -5.371   8.379  1.00  0.00     0.135 A 
ATOM     26  C   UNL     1      -2.003  -7.379   7.057  1.00  0.00     0.097 A 
ATOM     27  C   UNL     1      -2.928  -5.768   9.232  1.00  0.00     0.055 A 
ATOM     28  C   UNL     1      -2.947  -7.861   7.987  1.00  0.00     0.270 A 
ATOM     29  C   UNL     1      -3.417  -7.065   9.046  1.00  0.00     0.089 A 
BRANCH  28  30
ATOM     30  N   UNL     1      -3.360  -9.271   7.915  1.00  0.00     0.062 N 
ATOM     31  O   UNL     1      -3.051  -9.910   6.901  1.00  0.00    -0.258 OA
ATOM     32  O   UNL     1      -3.967  -9.741   8.889  1.00  0.00    -0.258 OA
ENDBRANCH  28  30
ENDBRANCH  18  21
ENDBRANCH  16  17
ENDBRANCH  14  15
ENDBRANCH   8   9
ENDBRANCH   7   8
ENDBRANCH   5   7
ENDBRANCH   2   3
ENDBRANCH   1   2
BRANCH   1  33
ATOM     33  C   UNL     1       4.175  -2.490  -2.772  1.00  0.00     0.002 C 
BRANCH  33  34
ATOM     34  C   UNL     1       4.584  -3.754  -2.008  1.00  0.00     0.002 C 
BRANCH  34  35
ATOM     35  C   UNL     1       3.877  -5.042  -2.438  1.00  0.00     0.021 C 
BRANCH  35  36
ATOM     36  C   UNL     1       4.011  -5.393  -3.916  1.00  0.00     0.116 C 
BRANCH  36  37
ATOM     37  N   UNL     1       5.388  -5.650  -4.306  1.00  0.00    -0.352 N 
ATOM     38  C   UNL     1       5.904  -6.706  -5.020  1.00  0.00     0.251 C 
ATOM     39  H   UNL     1       6.043  -4.974  -4.018  1.00  0.00     0.163 HD
ATOM     40  O   UNL     1       7.121  -6.842  -5.113  1.00  0.00    -0.269 OA
BRANCH  38  41
ATOM     41  C   UNL     1       4.991  -7.689  -5.646  1.00  0.00     0.039 A 
ATOM     42  C   UNL     1       5.260  -9.053  -5.503  1.00  0.00     0.014 A 
ATOM     43  C   UNL     1       3.870  -7.269  -6.366  1.00  0.00     0.014 A 
ATOM     44  C   UNL     1       4.369  -9.995  -6.025  1.00  0.00     0.010 A 
ATOM     45  C   UNL     1       2.949  -8.207  -6.826  1.00  0.00     0.010 A 
ATOM     46  C   UNL     1       3.187  -9.581  -6.661  1.00  0.00    -0.014 A 
BRANCH  46  47
ATOM     47  C   UNL     1       2.191 -10.562  -7.173  1.00  0.00     0.031 A 
ATOM     48  C   UNL     1       1.897 -10.625  -8.649  1.00  0.00     0.074 A 
ATOM     49  C   UNL     1       1.501 -11.336  -6.311  1.00  0.00     0.049 A 
ATOM     50  N   UNL     1       0.981 -11.311  -9.282  1.00  0.00    -0.248 NA
ATOM     51  C   UNL     1       2.727  -9.781  -9.524  1.00  0.00     0.031 C 
ATOM     52  C   UNL     1       1.678 -11.349  -4.857  1.00  0.00     0.029 A 
ATOM     53  N   UNL     1       0.499 -12.250  -6.528  1.00  0.00    -0.354 N 
ATOM     54  C   UNL     1       1.107 -10.966 -10.624  1.00  0.00     0.074 A 
ATOM     55  C   UNL     1       2.158  -9.974 -10.705  1.00  0.00     0.031 C 
ATOM     56  C   UNL     1       0.826 -12.235  -4.317  1.00  0.00     0.029 A 
ATOM     57  C   UNL     1       0.004 -12.816  -5.374  1.00  0.00     0.049 A 
ATOM     58  H   UNL     1       0.166 -12.480  -7.425  1.00  0.00     0.167 HD
ATOM     59  C   UNL     1       0.421 -11.445 -11.691  1.00  0.00     0.034 A 
ATOM     60  C   UNL     1      -1.011 -13.686  -5.188  1.00  0.00     0.034 A 
ATOM     61  C   UNL     1      -0.605 -12.455 -11.598  1.00  0.00     0.049 A 
ATOM     62  C   UNL     1      -1.773 -14.186  -6.392  1.00  0.00     0.074 A 
ATOM     63  C   UNL     1      -1.319 -13.052 -12.623  1.00  0.00     0.029 A 
ATOM     64  N   UNL     1      -1.067 -13.014 -10.414  1.00  0.00    -0.354 N 
ATOM     65  N   UNL     1      -1.610 -13.881  -7.659  1.00  0.00    -0.248 NA
ATOM     66  C   UNL     1      -2.850 -15.155  -6.144  1.00  0.00     0.031 C 
ATOM     67  C   UNL     1      -2.257 -13.919 -12.056  1.00  0.00     0.029 A 
ATOM     68  C   UNL     1      -2.075 -13.927 -10.683  1.00  0.00     0.049 A 
ATOM     69  H   UNL     1      -0.729 -12.795  -9.516  1.00  0.00     0.167 HD
ATOM     70  C   UNL     1      -2.531 -14.658  -8.358  1.00  0.00     0.074 A 
ATOM     71  C   UNL     1      -3.241 -15.447  -7.375  1.00  0.00     0.031 C 
ATOM     72  C   UNL     1      -2.765 -14.718  -9.693  1.00  0.00     0.034 A 
BRANCH  59  73
ATOM     73  C   UNL     1       0.738 -10.867 -13.048  1.00  0.00     0.023 A 
ATOM     74  C   UNL     1       1.996 -11.036 -13.651  1.00  0.00     0.031 A 
ATOM     75  C   UNL     1      -0.238 -10.141 -13.754  1.00  0.00     0.131 A 
ATOM     76  C   UNL     1       2.264 -10.439 -14.892  1.00  0.00     0.055 A 
ATOM     77  C   UNL     1       0.009  -9.615 -15.023  1.00  0.00     0.041 A 
ATOM     78  F   UNL     1      -1.451  -9.929 -13.220  1.00  0.00    -0.206 F 
ATOM     79  C   UNL     1       1.271  -9.753 -15.595  1.00  0.00     0.022 A 
BRANCH  76  80
ATOM     80  S   UNL     1       3.964 -10.473 -15.523  1.00  0.00     0.124 S 
ATOM     81  O   UNL     1       4.681  -9.754 -14.472  1.00  0.00    -0.237 OA
ATOM     82  O   UNL     1       4.237 -11.902 -15.620  1.00  0.00    -0.237 OA
ATOM     83  O   UNL     1       3.870  -9.766 -16.799  1.00  0.00    -0.744 OA
ENDBRANCH  76  80
ENDBRANCH  59  73
BRANCH  60  84
ATOM     84  C   UNL     1      -1.392 -14.134  -3.815  1.00  0.00     0.023 A 
ATOM     85  C   UNL     1      -1.318 -15.488  -3.452  1.00  0.00     0.031 A 
ATOM     86  C   UNL     1      -1.912 -13.230  -2.872  1.00  0.00     0.131 A 
ATOM     87  C   UNL     1      -1.819 -15.911  -2.211  1.00  0.00     0.055 A 
ATOM     88  C   UNL     1      -2.349 -13.646  -1.612  1.00  0.00     0.041 A 
ATOM     89  F   UNL     1      -2.005 -11.922  -3.163  1.00  0.00    -0.206 F 
ATOM     90  C   UNL     1      -2.321 -14.997  -1.283  1.00  0.00     0.022 A 
BRANCH  87  91
ATOM     91  S   UNL     1      -1.921 -17.692  -1.880  1.00  0.00     0.124 S 
ATOM     92  O   UNL     1      -2.706 -18.159  -3.016  1.00  0.00    -0.237 OA
ATOM     93  O   UNL     1      -0.514 -18.077  -1.870  1.00  0.00    -0.237 OA
ATOM     94  O   UNL     1      -2.594 -17.758  -0.585  1.00  0.00    -0.744 OA
ENDBRANCH  87  91
ENDBRANCH  60  84
BRANCH  72  95
ATOM     95  C   UNL     1      -3.780 -15.726 -10.174  1.00  0.00     0.023 A 
ATOM     96  C   UNL     1      -5.150 -15.603  -9.886  1.00  0.00     0.031 A 
ATOM     97  C   UNL     1      -3.361 -16.827 -10.944  1.00  0.00     0.131 A 
ATOM     98  C   UNL     1      -6.046 -16.590 -10.323  1.00  0.00     0.055 A 
ATOM     99  C   UNL     1      -4.265 -17.773 -11.426  1.00  0.00     0.041 A 
ATOM    100  F   UNL     1      -2.064 -16.994 -11.247  1.00  0.00    -0.206 F 
ATOM    101  C   UNL     1      -5.615 -17.664 -11.107  1.00  0.00     0.022 A 
BRANCH  98 102
ATOM    102  S   UNL     1      -7.778 -16.494  -9.791  1.00  0.00     0.124 S 
ATOM    103  O   UNL     1      -7.652 -16.539  -8.338  1.00  0.00    -0.237 OA
ATOM    104  O   UNL     1      -8.208 -15.219 -10.354  1.00  0.00    -0.237 OA
ATOM    105  O   UNL     1      -8.389 -17.676 -10.398  1.00  0.00    -0.744 OA
ENDBRANCH  98 102
ENDBRANCH  72  95
ENDBRANCH  46  47
ENDBRANCH  38  41
ENDBRANCH  36  37
ENDBRANCH  35  36
ENDBRANCH  34  35
ENDBRANCH  33  34
ENDBRANCH   1  33
TORSDOF 22
