REMARK SMILES CC[C@@H](C(=O)NCCCCCCNC(=O)c1ccc(-c2c3nc(c(-c4cc(S(=O)(=O)[O-])ccc4F)c4ccc([nH]4)c(-c4cc(S(=O)(=O)[O-])ccc4F)c4nc(c(-c5cc(S(=O)(=O)[O-])ccc5F)c5ccc2[nH]5)C=C4)C=C3)cc1)N1CCN(Cc2cccc(C)c2)C(=O)C1=O
REMARK SMILES IDX 9 1 8 2 7 3 6 4 4 5 5 6 3 8 2 9 1 10 79 11 80 12 93 13 81 14
REMARK SMILES IDX 91 15 94 16 82 17 92 18 83 19 84 20 85 21 90 22 86 23 88 24
REMARK SMILES IDX 87 25 89 26 10 27 11 28 12 29 13 30 14 31 15 33 16 34 17 35
REMARK SMILES IDX 78 36 18 37 77 38 19 39 20 40 21 41 71 42 22 43 76 44 70 45
REMARK SMILES IDX 72 46 23 47 75 48 69 49 68 50 24 52 56 53 36 54 55 55 37 56
REMARK SMILES IDX 40 57 54 58 73 59 38 60 39 61 53 63 74 64 41 65 25 66 26 67
REMARK SMILES IDX 34 68 27 69 33 70 35 71 32 72 28 73 29 74 30 75 31 76 57 77
REMARK SMILES IDX 58 78 66 79 59 80 65 81 67 82 64 83 60 84 61 85 62 86 63 87
REMARK SMILES IDX 42 88 43 89 51 90 44 91 50 92 52 93 49 94 45 95 46 96 47 97
REMARK SMILES IDX 48 98
REMARK H PARENT 6 7 13 32 72 51 40 62
REMARK Flexibility Score: inf
ROOT
ATOM      1  C   UNL     1       0.808  -4.263   0.008  1.00  0.00     0.002 C 
ENDROOT
BRANCH   1   2
ATOM      2  C   UNL     1       1.066  -2.756   0.049  1.00  0.00     0.021 C 
BRANCH   2   3
ATOM      3  C   UNL     1       1.524  -2.167  -1.290  1.00  0.00     0.116 C 
BRANCH   3   4
ATOM      4  N   UNL     1       0.367  -1.778  -2.081  1.00  0.00    -0.354 N 
ATOM      5  C   UNL     1      -0.082  -0.537  -2.442  1.00  0.00     0.242 C 
ATOM      6  O   UNL     1      -1.217  -0.450  -2.922  1.00  0.00    -0.273 OA
ATOM      7  H   UNL     1      -0.180  -2.528  -2.409  1.00  0.00     0.163 HD
BRANCH   5   8
ATOM      8  C   UNL     1       0.814   0.711  -2.232  1.00  0.00     0.174 C 
BRANCH   8   9
ATOM      9  C   UNL     1       0.495   1.407  -0.889  1.00  0.00     0.032 C 
ATOM     10  C   UNL     1       0.687   0.616   0.388  1.00  0.00     0.006 C 
ENDBRANCH   8   9
BRANCH   8  11
ATOM     11  N   UNL     1       0.629   1.623  -3.402  1.00  0.00    -0.321 N 
ATOM     12  C   UNL     1       0.191   3.005  -3.256  1.00  0.00     0.142 C 
ATOM     13  C   UNL     1       0.991   1.200  -4.697  1.00  0.00     0.312 C 
ATOM     14  C   UNL     1       1.117   3.880  -4.088  1.00  0.00     0.142 C 
ATOM     15  C   UNL     1       0.775   2.252  -5.865  1.00  0.00     0.312 C 
ATOM     16  O   UNL     1       1.498   0.111  -4.935  1.00  0.00    -0.263 OA
ATOM     17  N   UNL     1       0.869   3.600  -5.488  1.00  0.00    -0.328 N 
ATOM     18  O   UNL     1       0.560   1.879  -7.010  1.00  0.00    -0.263 OA
BRANCH  17  19
ATOM     19  C   UNL     1       0.821   4.685  -6.468  1.00  0.00     0.155 C 
BRANCH  19  20
ATOM     20  C   UNL     1      -0.271   5.704  -6.196  1.00  0.00    -0.028 A 
ATOM     21  C   UNL     1      -1.484   5.655  -6.893  1.00  0.00     0.005 A 
ATOM     22  C   UNL     1      -0.107   6.698  -5.215  1.00  0.00     0.009 A 
ATOM     23  C   UNL     1      -2.507   6.561  -6.598  1.00  0.00     0.001 A 
ATOM     24  C   UNL     1      -1.161   7.540  -4.841  1.00  0.00    -0.051 A 
ATOM     25  C   UNL     1      -2.354   7.488  -5.565  1.00  0.00     0.003 A 
ATOM     26  C   UNL     1      -1.009   8.483  -3.684  1.00  0.00     0.044 C 
ENDBRANCH  19  20
ENDBRANCH  17  19
ENDBRANCH   8  11
ENDBRANCH   5   8
ENDBRANCH   3   4
ENDBRANCH   2   3
ENDBRANCH   1   2
BRANCH   1  27
ATOM     27  C   UNL     1       2.072  -5.127   0.017  1.00  0.00     0.002 C 
BRANCH  27  28
ATOM     28  C   UNL     1       3.027  -4.897   1.194  1.00  0.00     0.021 C 
BRANCH  28  29
ATOM     29  C   UNL     1       2.392  -4.954   2.583  1.00  0.00     0.116 C 
BRANCH  29  30
ATOM     30  N   UNL     1       1.796  -6.248   2.862  1.00  0.00    -0.352 N 
ATOM     31  C   UNL     1       2.017  -7.106   3.911  1.00  0.00     0.251 C 
ATOM     32  H   UNL     1       1.133  -6.555   2.202  1.00  0.00     0.163 HD
ATOM     33  O   UNL     1       1.555  -8.243   3.867  1.00  0.00    -0.269 OA
BRANCH  31  34
ATOM     34  C   UNL     1       2.823  -6.676   5.076  1.00  0.00     0.039 A 
ATOM     35  C   UNL     1       3.771  -7.559   5.600  1.00  0.00     0.014 A 
ATOM     36  C   UNL     1       2.622  -5.429   5.678  1.00  0.00     0.014 A 
ATOM     37  C   UNL     1       4.547  -7.177   6.697  1.00  0.00     0.010 A 
ATOM     38  C   UNL     1       3.436  -5.027   6.736  1.00  0.00     0.010 A 
ATOM     39  C   UNL     1       4.401  -5.901   7.263  1.00  0.00    -0.014 A 
BRANCH  39  40
ATOM     40  C   UNL     1       5.227  -5.480   8.425  1.00  0.00     0.031 A 
ATOM     41  C   UNL     1       4.580  -5.243   9.763  1.00  0.00     0.074 A 
ATOM     42  C   UNL     1       6.548  -5.265   8.264  1.00  0.00     0.049 A 
ATOM     43  N   UNL     1       5.115  -4.820  10.880  1.00  0.00    -0.248 NA
ATOM     44  C   UNL     1       3.133  -5.487   9.843  1.00  0.00     0.031 C 
ATOM     45  C   UNL     1       7.282  -5.420   7.007  1.00  0.00     0.029 A 
ATOM     46  N   UNL     1       7.505  -4.863   9.161  1.00  0.00    -0.354 N 
ATOM     47  C   UNL     1       4.068  -4.732  11.792  1.00  0.00     0.074 A 
ATOM     48  C   UNL     1       2.861  -5.092  11.078  1.00  0.00     0.031 C 
ATOM     49  C   UNL     1       8.577  -5.133   7.217  1.00  0.00     0.029 A 
ATOM     50  C   UNL     1       8.761  -4.743   8.612  1.00  0.00     0.049 A 
ATOM     51  H   UNL     1       7.312  -4.677  10.108  1.00  0.00     0.167 HD
ATOM     52  C   UNL     1       4.112  -4.403  13.108  1.00  0.00     0.034 A 
ATOM     53  C   UNL     1       9.927  -4.360   9.169  1.00  0.00     0.034 A 
ATOM     54  C   UNL     1       5.326  -4.064  13.811  1.00  0.00     0.049 A 
ATOM     55  C   UNL     1       9.955  -4.011  10.634  1.00  0.00     0.074 A 
ATOM     56  C   UNL     1       5.494  -3.762  15.152  1.00  0.00     0.029 A 
ATOM     57  N   UNL     1       6.585  -3.980  13.228  1.00  0.00    -0.354 N 
ATOM     58  N   UNL     1       8.964  -3.975  11.495  1.00  0.00    -0.248 NA
ATOM     59  C   UNL     1      11.263  -3.667  11.207  1.00  0.00     0.031 C 
ATOM     60  C   UNL     1       6.841  -3.445  15.368  1.00  0.00     0.029 A 
ATOM     61  C   UNL     1       7.527  -3.611  14.176  1.00  0.00     0.049 A 
ATOM     62  H   UNL     1       6.779  -4.156  12.279  1.00  0.00     0.167 HD
ATOM     63  C   UNL     1       9.536  -3.632  12.717  1.00  0.00     0.074 A 
ATOM     64  C   UNL     1      10.958  -3.486  12.483  1.00  0.00     0.031 C 
ATOM     65  C   UNL     1       8.941  -3.459  13.924  1.00  0.00     0.034 A 
BRANCH  52  66
ATOM     66  C   UNL     1       2.800  -4.371  13.856  1.00  0.00     0.023 A 
ATOM     67  C   UNL     1       2.021  -5.529  14.027  1.00  0.00     0.031 A 
ATOM     68  C   UNL     1       2.301  -3.161  14.369  1.00  0.00     0.131 A 
ATOM     69  C   UNL     1       0.751  -5.438  14.616  1.00  0.00     0.055 A 
ATOM     70  C   UNL     1       1.072  -3.092  15.029  1.00  0.00     0.041 A 
ATOM     71  F   UNL     1       2.991  -2.019  14.221  1.00  0.00    -0.206 F 
ATOM     72  C   UNL     1       0.281  -4.232  15.141  1.00  0.00     0.022 A 
BRANCH  69  73
ATOM     73  S   UNL     1      -0.339  -6.886  14.551  1.00  0.00     0.124 S 
ATOM     74  O   UNL     1      -0.458  -7.099  13.111  1.00  0.00    -0.237 OA
ATOM     75  O   UNL     1       0.424  -7.889  15.285  1.00  0.00    -0.237 OA
ATOM     76  O   UNL     1      -1.560  -6.426  15.209  1.00  0.00    -0.744 OA
ENDBRANCH  69  73
ENDBRANCH  52  66
BRANCH  53  77
ATOM     77  C   UNL     1      11.166  -4.286   8.346  1.00  0.00     0.023 A 
ATOM     78  C   UNL     1      12.237  -5.164   8.572  1.00  0.00     0.031 A 
ATOM     79  C   UNL     1      11.309  -3.310   7.344  1.00  0.00     0.131 A 
ATOM     80  C   UNL     1      13.423  -5.023   7.835  1.00  0.00     0.055 A 
ATOM     81  C   UNL     1      12.475  -3.203   6.583  1.00  0.00     0.041 A 
ATOM     82  F   UNL     1      10.310  -2.453   7.083  1.00  0.00    -0.206 F 
ATOM     83  C   UNL     1      13.546  -4.055   6.836  1.00  0.00     0.022 A 
BRANCH  80  84
ATOM     84  S   UNL     1      14.835  -6.082   8.254  1.00  0.00     0.124 S 
ATOM     85  O   UNL     1      15.046  -5.755   9.659  1.00  0.00    -0.237 OA
ATOM     86  O   UNL     1      14.307  -7.413   7.976  1.00  0.00    -0.237 OA
ATOM     87  O   UNL     1      15.883  -5.627   7.342  1.00  0.00    -0.744 OA
ENDBRANCH  80  84
ENDBRANCH  53  77
BRANCH  65  88
ATOM     88  C   UNL     1       9.844  -3.136  15.088  1.00  0.00     0.023 A 
ATOM     89  C   UNL     1      10.518  -1.906  15.180  1.00  0.00     0.031 A 
ATOM     90  C   UNL     1      10.050  -4.085  16.105  1.00  0.00     0.131 A 
ATOM     91  C   UNL     1      11.411  -1.678  16.238  1.00  0.00     0.055 A 
ATOM     92  C   UNL     1      10.899  -3.831  17.183  1.00  0.00     0.041 A 
ATOM     93  F   UNL     1       9.431  -5.276  16.064  1.00  0.00    -0.206 F 
ATOM     94  C   UNL     1      11.595  -2.628  17.247  1.00  0.00     0.022 A 
BRANCH  91  95
ATOM     95  S   UNL     1      12.400  -0.157  16.231  1.00  0.00     0.124 S 
ATOM     96  O   UNL     1      13.102  -0.256  14.955  1.00  0.00    -0.237 OA
ATOM     97  O   UNL     1      11.376   0.880  16.316  1.00  0.00    -0.237 OA
ATOM     98  O   UNL     1      13.245  -0.291  17.416  1.00  0.00    -0.744 OA
ENDBRANCH  91  95
ENDBRANCH  65  88
ENDBRANCH  39  40
ENDBRANCH  31  34
ENDBRANCH  29  30
ENDBRANCH  28  29
ENDBRANCH  27  28
ENDBRANCH   1  27
TORSDOF 20
