REMARK SMILES O=C(NCCCCCCNC(=O)[C@H]1CC2=c3ccccc3=N[C@H]2[C@@H](c2ccccc2)[NH2+]1)c1ccc(-c2c3nc(c(-c4cc(S(=O)(=O)[O-])ccc4F)c4ccc([nH]4)c(-c4cc(S(=O)(=O)[O-])ccc4F)c4nc(c(-c5cc(S(=O)(=O)[O-])ccc5F)c5ccc2[nH]5)C=C4)C=C3)cc1
REMARK SMILES IDX 5 1 4 2 3 3 1 4 2 5 32 7 33 8 94 9 34 10 93 11 35 12 36 13
REMARK SMILES IDX 37 14 87 15 38 16 92 17 86 18 88 19 39 20 91 21 85 22 84 23
REMARK SMILES IDX 40 25 72 26 52 27 71 28 53 29 56 30 70 31 89 32 54 33 55 34
REMARK SMILES IDX 69 36 90 37 57 38 41 39 42 40 50 41 43 42 49 43 51 44 48 45
REMARK SMILES IDX 44 46 45 47 46 48 47 49 73 50 74 51 82 52 75 53 81 54 83 55
REMARK SMILES IDX 80 56 76 57 77 58 78 59 79 60 58 61 59 62 67 63 60 64 66 65
REMARK SMILES IDX 68 66 65 67 61 68 62 69 63 70 64 71 6 72 7 73 8 74 9 75
REMARK SMILES IDX 10 76 11 77 12 79 13 80 14 81 31 82 15 83 24 84 16 87 23 88
REMARK SMILES IDX 17 89 21 90 22 91 18 92 20 93 19 94 25 95 26 96 30 97 27 98
REMARK SMILES IDX 29 99 28 100
REMARK H PARENT 3 6 88 24 56 35 10 78 31 85 31 86
REMARK Flexibility Score: inf
ROOT
ATOM      1  C   UNL     1       4.258  -2.513   0.867  1.00  0.00     0.021 C 
ENDROOT
BRANCH   1   2
ATOM      2  C   UNL     1       4.234  -1.292  -0.048  1.00  0.00     0.116 C 
BRANCH   2   3
ATOM      3  N   UNL     1       2.881  -0.973  -0.464  1.00  0.00    -0.352 N 
ATOM      4  O   UNL     1       0.942   0.158  -0.424  1.00  0.00    -0.269 OA
ATOM      5  C   UNL     1       2.155   0.169  -0.244  1.00  0.00     0.251 C 
ATOM      6  H   UNL     1       2.419  -1.676  -0.976  1.00  0.00     0.163 HD
BRANCH   5   7
ATOM      7  C   UNL     1       2.830   1.412   0.191  1.00  0.00     0.039 A 
ATOM      8  C   UNL     1       2.194   2.229   1.129  1.00  0.00     0.014 A 
ATOM      9  C   UNL     1       4.036   1.820  -0.390  1.00  0.00     0.014 A 
ATOM     10  C   UNL     1       2.760   3.457   1.478  1.00  0.00     0.010 A 
ATOM     11  C   UNL     1       4.632   3.015   0.006  1.00  0.00     0.010 A 
ATOM     12  C   UNL     1       3.978   3.864   0.911  1.00  0.00    -0.014 A 
BRANCH  12  13
ATOM     13  C   UNL     1       4.526   5.219   1.171  1.00  0.00     0.031 A 
ATOM     14  C   UNL     1       4.560   6.227   0.053  1.00  0.00     0.074 A 
ATOM     15  C   UNL     1       5.002   5.536   2.389  1.00  0.00     0.049 A 
ATOM     16  N   UNL     1       5.034   7.445   0.054  1.00  0.00    -0.248 NA
ATOM     17  C   UNL     1       4.008   5.802  -1.245  1.00  0.00     0.031 C 
ATOM     18  C   UNL     1       5.034   4.633   3.539  1.00  0.00     0.029 A 
ATOM     19  N   UNL     1       5.548   6.703   2.865  1.00  0.00    -0.354 N 
ATOM     20  C   UNL     1       4.849   7.925  -1.238  1.00  0.00     0.074 A 
ATOM     21  C   UNL     1       4.276   6.848  -2.012  1.00  0.00     0.031 C 
ATOM     22  C   UNL     1       5.547   5.286   4.594  1.00  0.00     0.029 A 
ATOM     23  C   UNL     1       5.915   6.643   4.189  1.00  0.00     0.049 A 
ATOM     24  H   UNL     1       5.667   7.507   2.309  1.00  0.00     0.167 HD
ATOM     25  C   UNL     1       5.105   9.161  -1.726  1.00  0.00     0.034 A 
ATOM     26  C   UNL     1       6.479   7.574   4.986  1.00  0.00     0.034 A 
ATOM     27  C   UNL     1       5.638  10.236  -0.932  1.00  0.00     0.049 A 
ATOM     28  C   UNL     1       6.753   8.947   4.419  1.00  0.00     0.074 A 
ATOM     29  C   UNL     1       5.896  11.537  -1.321  1.00  0.00     0.029 A 
ATOM     30  N   UNL     1       5.976  10.143   0.410  1.00  0.00    -0.354 N 
ATOM     31  N   UNL     1       6.516   9.403   3.211  1.00  0.00    -0.248 NA
ATOM     32  C   UNL     1       7.359   9.938   5.321  1.00  0.00     0.031 C 
ATOM     33  C   UNL     1       6.433  12.219  -0.229  1.00  0.00     0.029 A 
ATOM     34  C   UNL     1       6.453  11.361   0.860  1.00  0.00     0.049 A 
ATOM     35  H   UNL     1       5.889   9.331   0.961  1.00  0.00     0.167 HD
ATOM     36  C   UNL     1       6.912  10.738   3.218  1.00  0.00     0.074 A 
ATOM     37  C   UNL     1       7.387  11.022   4.556  1.00  0.00     0.031 C 
ATOM     38  C   UNL     1       6.891  11.642   2.207  1.00  0.00     0.034 A 
BRANCH  25  39
ATOM     39  C   UNL     1       4.786   9.448  -3.171  1.00  0.00     0.023 A 
ATOM     40  C   UNL     1       5.815   9.792  -4.067  1.00  0.00     0.031 A 
ATOM     41  C   UNL     1       3.458   9.501  -3.630  1.00  0.00     0.131 A 
ATOM     42  C   UNL     1       5.496  10.207  -5.366  1.00  0.00     0.055 A 
ATOM     43  C   UNL     1       3.148   9.874  -4.938  1.00  0.00     0.041 A 
ATOM     44  F   UNL     1       2.441   9.180  -2.813  1.00  0.00    -0.206 F 
ATOM     45  C   UNL     1       4.169  10.242  -5.809  1.00  0.00     0.022 A 
BRANCH  42  46
ATOM     46  S   UNL     1       6.782  10.767  -6.514  1.00  0.00     0.124 S 
ATOM     47  O   UNL     1       6.577   9.876  -7.654  1.00  0.00    -0.237 OA
ATOM     48  O   UNL     1       6.407  12.160  -6.736  1.00  0.00    -0.237 OA
ATOM     49  O   UNL     1       8.025  10.555  -5.780  1.00  0.00    -0.744 OA
ENDBRANCH  42  46
ENDBRANCH  25  39
BRANCH  26  50
ATOM     50  C   UNL     1       6.747   7.249   6.418  1.00  0.00     0.023 A 
ATOM     51  C   UNL     1       7.643   6.227   6.778  1.00  0.00     0.031 A 
ATOM     52  C   UNL     1       6.038   7.897   7.444  1.00  0.00     0.131 A 
ATOM     53  C   UNL     1       7.764   5.846   8.122  1.00  0.00     0.055 A 
ATOM     54  C   UNL     1       6.211   7.559   8.787  1.00  0.00     0.041 A 
ATOM     55  F   UNL     1       5.161   8.869   7.149  1.00  0.00    -0.206 F 
ATOM     56  C   UNL     1       7.066   6.517   9.130  1.00  0.00     0.022 A 
BRANCH  53  57
ATOM     57  S   UNL     1       8.730   4.382   8.590  1.00  0.00     0.124 S 
ATOM     58  O   UNL     1       9.783   4.964   9.415  1.00  0.00    -0.237 OA
ATOM     59  O   UNL     1       7.737   3.582   9.304  1.00  0.00    -0.237 OA
ATOM     60  O   UNL     1       9.161   3.830   7.309  1.00  0.00    -0.744 OA
ENDBRANCH  53  57
ENDBRANCH  26  50
BRANCH  38  61
ATOM     61  C   UNL     1       7.372  13.046   2.476  1.00  0.00     0.023 A 
ATOM     62  C   UNL     1       6.480  14.129   2.348  1.00  0.00     0.031 A 
ATOM     63  C   UNL     1       8.734  13.325   2.679  1.00  0.00     0.131 A 
ATOM     64  C   UNL     1       6.968  15.441   2.377  1.00  0.00     0.055 A 
ATOM     65  C   UNL     1       9.209  14.635   2.754  1.00  0.00     0.041 A 
ATOM     66  F   UNL     1       9.624  12.326   2.792  1.00  0.00    -0.206 F 
ATOM     67  C   UNL     1       8.326  15.700   2.586  1.00  0.00     0.022 A 
BRANCH  64  68
ATOM     68  S   UNL     1       5.878  16.853   2.046  1.00  0.00     0.124 S 
ATOM     69  O   UNL     1       5.974  17.606   3.295  1.00  0.00    -0.237 OA
ATOM     70  O   UNL     1       6.522  17.474   0.892  1.00  0.00    -0.237 OA
ATOM     71  O   UNL     1       4.578  16.243   1.787  1.00  0.00    -0.744 OA
ENDBRANCH  64  68
ENDBRANCH  38  61
ENDBRANCH  12  13
ENDBRANCH   5   7
ENDBRANCH   2   3
ENDBRANCH   1   2
BRANCH   1  72
ATOM     72  C   UNL     1       3.803  -3.816   0.203  1.00  0.00     0.002 C 
BRANCH  72  73
ATOM     73  C   UNL     1       4.579  -4.210  -1.059  1.00  0.00     0.002 C 
BRANCH  73  74
ATOM     74  C   UNL     1       6.104  -4.194  -0.906  1.00  0.00     0.021 C 
BRANCH  74  75
ATOM     75  C   UNL     1       6.631  -5.243   0.077  1.00  0.00     0.116 C 
BRANCH  75  76
ATOM     76  N   UNL     1       6.754  -6.518  -0.596  1.00  0.00    -0.351 N 
ATOM     77  C   UNL     1       7.827  -7.092  -1.208  1.00  0.00     0.278 C 
ATOM     78  H   UNL     1       5.930  -7.057  -0.614  1.00  0.00     0.163 HD
ATOM     79  O   UNL     1       7.603  -8.070  -1.930  1.00  0.00    -0.268 OA
BRANCH  77  80
ATOM     80  C   UNL     1       9.274  -6.600  -0.975  1.00  0.00     0.277 C 
ATOM     81  C   UNL     1       9.567  -5.147  -1.429  1.00  0.00     0.109 C 
ATOM     82  N   UNL     1       9.666  -6.907   0.424  1.00  0.00    -0.327 N 
ATOM     83  C   UNL     1      10.854  -4.660  -0.840  1.00  0.00    -0.024 C 
ATOM     84  C   UNL     1      11.111  -6.647   0.684  1.00  0.00     0.243 C 
ATOM     85  H   UNL     1       9.472  -7.891   0.610  1.00  0.00     0.347 HD
ATOM     86  H   UNL     1       9.127  -6.295   1.038  1.00  0.00     0.347 HD
ATOM     87  C   UNL     1      11.271  -3.451  -0.476  1.00  0.00     0.002 A 
ATOM     88  C   UNL     1      11.819  -5.712  -0.374  1.00  0.00     0.196 C 
ATOM     89  C   UNL     1      10.719  -2.137  -0.481  1.00  0.00     0.010 A 
ATOM     90  C   UNL     1      12.592  -3.737   0.124  1.00  0.00     0.066 A 
ATOM     91  N   UNL     1      12.987  -4.974   0.170  1.00  0.00    -0.270 NA
ATOM     92  C   UNL     1      11.435  -1.139   0.066  1.00  0.00     0.001 A 
ATOM     93  C   UNL     1      13.343  -2.577   0.646  1.00  0.00     0.028 A 
ATOM     94  C   UNL     1      12.763  -1.365   0.616  1.00  0.00     0.002 A 
BRANCH  84  95
ATOM     95  C   UNL     1      11.288  -6.231   2.147  1.00  0.00     0.012 A 
ATOM     96  C   UNL     1      10.790  -5.013   2.645  1.00  0.00     0.010 A 
ATOM     97  C   UNL     1      11.970  -7.078   3.035  1.00  0.00     0.010 A 
ATOM     98  C   UNL     1      11.012  -4.632   3.969  1.00  0.00     0.001 A 
ATOM     99  C   UNL     1      12.180  -6.703   4.364  1.00  0.00     0.001 A 
ATOM    100  C   UNL     1      11.710  -5.476   4.828  1.00  0.00     0.000 A 
ENDBRANCH  84  95
ENDBRANCH  77  80
ENDBRANCH  75  76
ENDBRANCH  74  75
ENDBRANCH  73  74
ENDBRANCH  72  73
ENDBRANCH   1  72
TORSDOF 17
