REMARK SMILES C[NH2+][C@@]1(C(=O)NCCCCCCNC(=O)c2ccc(-c3c4nc(c(-c5cc(S(=O)(=O)[O-])ccc5F)c5ccc([nH]5)c(-c5cc(S(=O)(=O)[O-])ccc5F)c5nc(c(-c6cc(S(=O)(=O)[O-])ccc6F)c6ccc3[nH]6)C=C5)C=C4)cc2)CCC[C@H]([N@H+](C)C2CC[NH+](C)CC2)C1
REMARK SMILES IDX 10 1 9 2 8 3 7 4 6 5 4 6 5 7 3 9 79 10 92 11 80 12 82 13
REMARK SMILES IDX 81 14 2 15 1 16 83 19 84 20 85 22 86 23 91 24 87 25 90 26
REMARK SMILES IDX 88 27 89 28 11 30 12 31 13 32 14 33 15 35 16 36 17 37 78 38
REMARK SMILES IDX 18 39 77 40 19 41 20 42 21 43 71 44 22 45 76 46 70 47 72 48
REMARK SMILES IDX 23 49 75 50 69 51 68 52 24 54 56 55 36 56 55 57 37 58 40 59
REMARK SMILES IDX 54 60 73 61 38 62 39 63 53 65 74 66 41 67 25 68 26 69 34 70
REMARK SMILES IDX 27 71 33 72 35 73 32 74 28 75 29 76 30 77 31 78 57 79 58 80
REMARK SMILES IDX 66 81 59 82 65 83 67 84 64 85 60 86 61 87 62 88 63 89 42 90
REMARK SMILES IDX 43 91 51 92 44 93 50 94 52 95 49 96 45 97 46 98 47 99 48 100
REMARK H PARENT 6 8 2 17 2 18 83 21 88 29 13 34 72 53 40 64
REMARK Flexibility Score: inf
ROOT
ATOM      1  C   UNL     1      -6.688   0.341  -3.856  1.00  0.00     0.002 C 
ENDROOT
BRANCH   1   2
ATOM      2  C   UNL     1      -5.496   1.298  -4.127  1.00  0.00     0.002 C 
BRANCH   2   3
ATOM      3  C   UNL     1      -4.320   1.694  -3.184  1.00  0.00     0.021 C 
BRANCH   3   4
ATOM      4  C   UNL     1      -3.434   0.714  -2.381  1.00  0.00     0.116 C 
BRANCH   4   5
ATOM      5  N   UNL     1      -2.211   0.129  -2.897  1.00  0.00    -0.351 N 
ATOM      6  C   UNL     1      -1.335  -0.749  -2.288  1.00  0.00     0.281 C 
ATOM      7  O   UNL     1      -0.696  -1.443  -3.106  1.00  0.00    -0.268 OA
ATOM      8  H   UNL     1      -1.970   0.397  -3.813  1.00  0.00     0.163 HD
BRANCH   6   9
ATOM      9  C   UNL     1      -0.867  -0.837  -0.715  1.00  0.00     0.181 C 
ATOM     10  C   UNL     1      -0.643  -2.334  -0.264  1.00  0.00     0.079 C 
ATOM     11  C   UNL     1      -1.649  -0.066   0.357  1.00  0.00     0.144 C 
ATOM     12  C   UNL     1      -1.410  -2.933   0.925  1.00  0.00     0.013 C 
ATOM     13  C   UNL     1      -2.853  -0.822   1.001  1.00  0.00     0.190 C 
ATOM     14  C   UNL     1      -2.291  -2.018   1.742  1.00  0.00     0.065 C 
BRANCH   9  15
ATOM     15  N   UNL     1       0.589  -0.418  -0.780  1.00  0.00    -0.336 N 
ATOM     16  C   UNL     1       0.986   0.927  -0.459  1.00  0.00     0.331 C 
ATOM     17  H   UNL     1       1.097  -1.031  -0.142  1.00  0.00     0.346 HD
ATOM     18  H   UNL     1       0.798  -0.483  -1.777  1.00  0.00     0.346 HD
ENDBRANCH   9  15
BRANCH  13  19
ATOM     19  N   UNL     1      -3.990  -0.912   0.065  1.00  0.00    -0.332 N 
ATOM     20  C   UNL     1      -4.816   0.307   0.364  1.00  0.00     0.333 C 
ATOM     21  H   UNL     1      -3.501  -1.028  -0.822  1.00  0.00     0.348 HD
BRANCH  19  22
ATOM     22  C   UNL     1      -4.921  -2.081  -0.101  1.00  0.00     0.195 C 
ATOM     23  C   UNL     1      -4.552  -3.564   0.057  1.00  0.00     0.126 C 
ATOM     24  C   UNL     1      -5.580  -2.047  -1.510  1.00  0.00     0.126 C 
ATOM     25  C   UNL     1      -3.772  -4.170  -1.116  1.00  0.00     0.268 C 
ATOM     26  C   UNL     1      -4.798  -2.694  -2.657  1.00  0.00     0.268 C 
ATOM     27  N   UNL     1      -4.515  -4.095  -2.376  1.00  0.00    -0.337 N 
ATOM     28  C   UNL     1      -3.720  -4.664  -3.470  1.00  0.00     0.332 C 
ATOM     29  H   UNL     1      -5.382  -4.627  -2.296  1.00  0.00     0.347 HD
ENDBRANCH  19  22
ENDBRANCH  13  19
ENDBRANCH   6   9
ENDBRANCH   4   5
ENDBRANCH   3   4
ENDBRANCH   2   3
ENDBRANCH   1   2
BRANCH   1  30
ATOM     30  C   UNL     1      -7.565   0.354  -2.591  1.00  0.00     0.021 C 
BRANCH  30  31
ATOM     31  C   UNL     1      -8.584   1.452  -2.334  1.00  0.00     0.116 C 
BRANCH  31  32
ATOM     32  N   UNL     1      -9.759   1.358  -3.175  1.00  0.00    -0.352 N 
ATOM     33  C   UNL     1     -11.055   0.962  -2.934  1.00  0.00     0.251 C 
ATOM     34  H   UNL     1      -9.598   1.632  -4.107  1.00  0.00     0.163 HD
ATOM     35  O   UNL     1     -11.787   0.819  -3.916  1.00  0.00    -0.269 OA
BRANCH  33  36
ATOM     36  C   UNL     1     -11.620   0.696  -1.575  1.00  0.00     0.039 A 
ATOM     37  C   UNL     1     -12.700  -0.199  -1.475  1.00  0.00     0.014 A 
ATOM     38  C   UNL     1     -11.223   1.378  -0.424  1.00  0.00     0.014 A 
ATOM     39  C   UNL     1     -13.360  -0.408  -0.253  1.00  0.00     0.010 A 
ATOM     40  C   UNL     1     -11.825   1.106   0.814  1.00  0.00     0.010 A 
ATOM     41  C   UNL     1     -12.925   0.240   0.910  1.00  0.00    -0.014 A 
BRANCH  41  42
ATOM     42  C   UNL     1     -13.662   0.114   2.204  1.00  0.00     0.031 A 
ATOM     43  C   UNL     1     -14.305   1.336   2.819  1.00  0.00     0.074 A 
ATOM     44  C   UNL     1     -13.717  -1.066   2.855  1.00  0.00     0.049 A 
ATOM     45  N   UNL     1     -14.882   1.481   3.986  1.00  0.00    -0.248 NA
ATOM     46  C   UNL     1     -14.254   2.571   2.023  1.00  0.00     0.031 C 
ATOM     47  C   UNL     1     -13.118  -2.317   2.388  1.00  0.00     0.029 A 
ATOM     48  N   UNL     1     -14.292  -1.405   4.057  1.00  0.00    -0.354 N 
ATOM     49  C   UNL     1     -15.224   2.829   4.078  1.00  0.00     0.074 A 
ATOM     50  C   UNL     1     -14.739   3.464   2.872  1.00  0.00     0.031 C 
ATOM     51  C   UNL     1     -13.369  -3.287   3.283  1.00  0.00     0.029 A 
ATOM     52  C   UNL     1     -14.110  -2.724   4.408  1.00  0.00     0.049 A 
ATOM     53  H   UNL     1     -14.789  -0.763   4.615  1.00  0.00     0.167 HD
ATOM     54  C   UNL     1     -15.899   3.474   5.064  1.00  0.00     0.034 A 
ATOM     55  C   UNL     1     -14.487  -3.399   5.513  1.00  0.00     0.034 A 
ATOM     56  C   UNL     1     -16.417   2.817   6.240  1.00  0.00     0.049 A 
ATOM     57  C   UNL     1     -15.255  -2.670   6.588  1.00  0.00     0.074 A 
ATOM     58  C   UNL     1     -17.170   3.354   7.270  1.00  0.00     0.029 A 
ATOM     59  N   UNL     1     -16.240   1.472   6.540  1.00  0.00    -0.354 N 
ATOM     60  N   UNL     1     -15.597  -1.403   6.644  1.00  0.00    -0.248 NA
ATOM     61  C   UNL     1     -15.700  -3.465   7.741  1.00  0.00     0.031 C 
ATOM     62  C   UNL     1     -17.399   2.350   8.218  1.00  0.00     0.029 A 
ATOM     63  C   UNL     1     -16.850   1.168   7.748  1.00  0.00     0.049 A 
ATOM     64  H   UNL     1     -15.752   0.828   5.978  1.00  0.00     0.167 HD
ATOM     65  C   UNL     1     -16.321  -1.257   7.825  1.00  0.00     0.074 A 
ATOM     66  C   UNL     1     -16.379  -2.567   8.441  1.00  0.00     0.031 C 
ATOM     67  C   UNL     1     -16.890  -0.143   8.352  1.00  0.00     0.034 A 
BRANCH  54  68
ATOM     68  C   UNL     1     -16.087   4.969   4.920  1.00  0.00     0.023 A 
ATOM     69  C   UNL     1     -16.811   5.527   3.851  1.00  0.00     0.031 A 
ATOM     70  C   UNL     1     -15.501   5.853   5.845  1.00  0.00     0.131 A 
ATOM     71  C   UNL     1     -16.852   6.920   3.682  1.00  0.00     0.055 A 
ATOM     72  C   UNL     1     -15.622   7.239   5.720  1.00  0.00     0.041 A 
ATOM     73  F   UNL     1     -14.784   5.385   6.879  1.00  0.00    -0.206 F 
ATOM     74  C   UNL     1     -16.285   7.781   4.623  1.00  0.00     0.022 A 
BRANCH  71  75
ATOM     75  S   UNL     1     -17.521   7.582   2.131  1.00  0.00     0.124 S 
ATOM     76  O   UNL     1     -16.630   6.976   1.145  1.00  0.00    -0.237 OA
ATOM     77  O   UNL     1     -18.892   7.092   2.143  1.00  0.00    -0.237 OA
ATOM     78  O   UNL     1     -17.373   9.030   2.285  1.00  0.00    -0.744 OA
ENDBRANCH  71  75
ENDBRANCH  54  68
BRANCH  55  79
ATOM     79  C   UNL     1     -14.143  -4.843   5.670  1.00  0.00     0.023 A 
ATOM     80  C   UNL     1     -15.144  -5.828   5.687  1.00  0.00     0.031 A 
ATOM     81  C   UNL     1     -12.809  -5.256   5.832  1.00  0.00     0.131 A 
ATOM     82  C   UNL     1     -14.800  -7.173   5.899  1.00  0.00     0.055 A 
ATOM     83  C   UNL     1     -12.467  -6.600   5.995  1.00  0.00     0.041 A 
ATOM     84  F   UNL     1     -11.813  -4.356   5.819  1.00  0.00    -0.206 F 
ATOM     85  C   UNL     1     -13.467  -7.567   6.041  1.00  0.00     0.022 A 
BRANCH  82  86
ATOM     86  S   UNL     1     -16.130  -8.396   6.058  1.00  0.00     0.124 S 
ATOM     87  O   UNL     1     -16.891  -7.866   7.183  1.00  0.00    -0.237 OA
ATOM     88  O   UNL     1     -16.774  -8.313   4.751  1.00  0.00    -0.237 OA
ATOM     89  O   UNL     1     -15.415  -9.644   6.320  1.00  0.00    -0.744 OA
ENDBRANCH  82  86
ENDBRANCH  55  79
BRANCH  67  90
ATOM     90  C   UNL     1     -17.659  -0.310   9.638  1.00  0.00     0.023 A 
ATOM     91  C   UNL     1     -17.016  -0.623  10.848  1.00  0.00     0.031 A 
ATOM     92  C   UNL     1     -19.057  -0.162   9.649  1.00  0.00     0.131 A 
ATOM     93  C   UNL     1     -17.776  -0.831  12.009  1.00  0.00     0.055 A 
ATOM     94  C   UNL     1     -19.803  -0.315  10.819  1.00  0.00     0.041 A 
ATOM     95  F   UNL     1     -19.721   0.137   8.521  1.00  0.00    -0.206 F 
ATOM     96  C   UNL     1     -19.164  -0.663  12.005  1.00  0.00     0.022 A 
BRANCH  93  97
ATOM     97  S   UNL     1     -16.935  -1.408  13.508  1.00  0.00     0.124 S 
ATOM     98  O   UNL     1     -16.337  -2.661  13.058  1.00  0.00    -0.237 OA
ATOM     99  O   UNL     1     -16.003  -0.319  13.783  1.00  0.00    -0.237 OA
ATOM    100  O   UNL     1     -18.020  -1.552  14.477  1.00  0.00    -0.744 OA
ENDBRANCH  93  97
ENDBRANCH  67  90
ENDBRANCH  41  42
ENDBRANCH  33  36
ENDBRANCH  31  32
ENDBRANCH  30  31
ENDBRANCH   1  30
TORSDOF 19
