REMARK SMILES CCc1ccc(C[N@H+]2CC[C@@H](C(=O)NCCCCCCNC(=O)c3ccc(-c4c5nc(c(-c6cc(S(=O)(=O)[O-])ccc6F)c6ccc([nH]6)c(-c6cc(S(=O)(=O)[O-])ccc6F)c6nc(c(-c7cc(S(=O)(=O)[O-])ccc7F)c7ccc4[nH]7)C=C6)C=C5)cc3)[C@@H]2C)s1
REMARK SMILES IDX 17 1 16 2 15 3 14 4 12 5 13 6 11 8 8 9 9 10 87 11 10 13
REMARK SMILES IDX 88 14 7 15 6 16 3 17 4 18 89 19 5 20 2 21 1 22 18 23 19 24
REMARK SMILES IDX 20 25 21 26 22 27 23 29 24 30 25 31 86 32 26 33 85 34 27 35
REMARK SMILES IDX 28 36 29 37 79 38 30 39 84 40 78 41 80 42 31 43 83 44 77 45
REMARK SMILES IDX 76 46 32 48 64 49 44 50 63 51 45 52 48 53 62 54 81 55 46 56
REMARK SMILES IDX 47 57 61 59 82 60 49 61 33 62 34 63 42 64 35 65 41 66 43 67
REMARK SMILES IDX 40 68 36 69 37 70 38 71 39 72 65 73 66 74 74 75 67 76 73 77
REMARK SMILES IDX 75 78 72 79 68 80 69 81 70 82 71 83 50 84 51 85 59 86 52 87
REMARK SMILES IDX 58 88 60 89 57 90 53 91 54 92 55 93 56 94
REMARK H PARENT 14 7 8 12 21 28 80 47 48 58
REMARK Flexibility Score: inf
ROOT
ATOM      1  C   UNL     1       3.066   0.564   1.349  1.00  0.00     0.002 C 
ENDROOT
BRANCH   1   2
ATOM      2  C   UNL     1       2.333   1.362   2.711  1.00  0.00     0.021 C 
BRANCH   2   3
ATOM      3  C   UNL     1       0.526   0.899   3.945  1.00  0.00     0.116 C 
BRANCH   3   4
ATOM      4  N   UNL     1      -0.006  -0.439   4.650  1.00  0.00    -0.356 N 
ATOM      5  C   UNL     1      -0.169  -0.809   5.947  1.00  0.00     0.229 C 
ATOM      6  O   UNL     1      -0.568  -1.963   6.148  1.00  0.00    -0.275 OA
ATOM      7  H   UNL     1      -0.270  -1.138   4.009  1.00  0.00     0.163 HD
BRANCH   5   8
ATOM      8  C   UNL     1       0.141   0.097   7.133  1.00  0.00     0.142 C 
ATOM      9  N   UNL     1       1.808   1.842   7.142  1.00  0.00    -0.328 N 
ATOM     10  C   UNL     1       0.504   2.503   7.185  1.00  0.00     0.263 C 
ATOM     11  C   UNL     1       1.627   0.399   7.323  1.00  0.00     0.194 C 
ATOM     12  H   UNL     1       2.345   2.210   7.928  1.00  0.00     0.348 HD
ATOM     13  C   UNL     1      -0.581   1.433   7.122  1.00  0.00     0.081 C 
ATOM     14  C   UNL     1       2.108   0.049   8.734  1.00  0.00     0.076 C 
BRANCH   9  15
ATOM     15  C   UNL     1       2.689   2.205   6.024  1.00  0.00     0.310 C 
BRANCH  15  16
ATOM     16  C   UNL     1       2.138   1.865   4.666  1.00  0.00     0.059 A 
ATOM     17  C   UNL     1       0.900   0.051   2.210  1.00  0.00     0.005 A 
ATOM     18  C   UNL     1       0.477   1.755   2.086  1.00  0.00     0.016 A 
ATOM     19  S   UNL     1       2.351  -0.343   3.991  1.00  0.00    -0.139 S 
ATOM     20  C   UNL     1       1.148   2.794   3.555  1.00  0.00     0.021 A 
BRANCH  17  21
ATOM     21  C   UNL     1       0.394  -1.196   1.526  1.00  0.00     0.043 C 
ATOM     22  C   UNL     1       0.373  -1.116   0.011  1.00  0.00     0.010 C 
ENDBRANCH  17  21
ENDBRANCH  15  16
ENDBRANCH   9  15
ENDBRANCH   5   8
ENDBRANCH   3   4
ENDBRANCH   2   3
ENDBRANCH   1   2
BRANCH   1  23
ATOM     23  C   UNL     1       2.723   1.200  -0.011  1.00  0.00     0.002 C 
BRANCH  23  24
ATOM     24  C   UNL     1       3.251   2.616  -0.192  1.00  0.00     0.021 C 
BRANCH  24  25
ATOM     25  C   UNL     1       4.757   2.670  -0.022  1.00  0.00     0.116 C 
BRANCH  25  26
ATOM     26  N   UNL     1       5.391   1.892  -1.084  1.00  0.00    -0.352 N 
ATOM     27  C   UNL     1       5.713   2.367  -2.336  1.00  0.00     0.251 C 
ATOM     28  H   UNL     1       5.606   0.951  -0.888  1.00  0.00     0.163 HD
ATOM     29  O   UNL     1       5.744   1.632  -3.314  1.00  0.00    -0.269 OA
BRANCH  27  30
ATOM     30  C   UNL     1       6.006   3.808  -2.429  1.00  0.00     0.039 A 
ATOM     31  C   UNL     1       5.437   4.597  -3.426  1.00  0.00     0.014 A 
ATOM     32  C   UNL     1       6.770   4.375  -1.406  1.00  0.00     0.014 A 
ATOM     33  C   UNL     1       5.613   5.980  -3.365  1.00  0.00     0.010 A 
ATOM     34  C   UNL     1       6.793   5.745  -1.258  1.00  0.00     0.010 A 
ATOM     35  C   UNL     1       6.269   6.563  -2.267  1.00  0.00    -0.014 A 
BRANCH  35  36
ATOM     36  C   UNL     1       6.524   8.019  -2.173  1.00  0.00     0.031 A 
ATOM     37  C   UNL     1       7.952   8.493  -2.054  1.00  0.00     0.074 A 
ATOM     38  C   UNL     1       5.496   8.886  -2.115  1.00  0.00     0.049 A 
ATOM     39  N   UNL     1       8.410   9.697  -1.838  1.00  0.00    -0.248 NA
ATOM     40  C   UNL     1       9.003   7.462  -2.128  1.00  0.00     0.031 C 
ATOM     41  C   UNL     1       4.077   8.525  -2.160  1.00  0.00     0.029 A 
ATOM     42  N   UNL     1       5.486  10.251  -2.003  1.00  0.00    -0.354 N 
ATOM     43  C   UNL     1       9.790   9.556  -1.721  1.00  0.00     0.074 A 
ATOM     44  C   UNL     1      10.081   8.144  -1.783  1.00  0.00     0.031 C 
ATOM     45  C   UNL     1       3.337   9.646  -2.126  1.00  0.00     0.029 A 
ATOM     46  C   UNL     1       4.224  10.797  -2.001  1.00  0.00     0.049 A 
ATOM     47  H   UNL     1       6.306  10.791  -1.931  1.00  0.00     0.167 HD
ATOM     48  C   UNL     1      10.734  10.521  -1.620  1.00  0.00     0.034 A 
ATOM     49  C   UNL     1       3.834  12.084  -1.903  1.00  0.00     0.034 A 
ATOM     50  C   UNL     1      10.417  11.924  -1.605  1.00  0.00     0.049 A 
ATOM     51  C   UNL     1       4.902  13.144  -1.785  1.00  0.00     0.074 A 
ATOM     52  C   UNL     1      11.280  13.003  -1.574  1.00  0.00     0.029 A 
ATOM     53  N   UNL     1       9.127  12.442  -1.619  1.00  0.00    -0.354 N 
ATOM     54  N   UNL     1       6.208  13.002  -1.739  1.00  0.00    -0.248 NA
ATOM     55  C   UNL     1       4.445  14.537  -1.718  1.00  0.00     0.031 C 
ATOM     56  C   UNL     1      10.513  14.168  -1.492  1.00  0.00     0.029 A 
ATOM     57  C   UNL     1       9.172  13.824  -1.562  1.00  0.00     0.049 A 
ATOM     58  H   UNL     1       8.304  11.905  -1.664  1.00  0.00     0.167 HD
ATOM     59  C   UNL     1       6.728  14.291  -1.669  1.00  0.00     0.074 A 
ATOM     60  C   UNL     1       5.595  15.194  -1.700  1.00  0.00     0.031 C 
ATOM     61  C   UNL     1       8.022  14.698  -1.587  1.00  0.00     0.034 A 
BRANCH  48  62
ATOM     62  C   UNL     1      12.175  10.080  -1.510  1.00  0.00     0.023 A 
ATOM     63  C   UNL     1      12.798   9.321  -2.518  1.00  0.00     0.031 A 
ATOM     64  C   UNL     1      12.926  10.384  -0.362  1.00  0.00     0.131 A 
ATOM     65  C   UNL     1      14.093   8.819  -2.321  1.00  0.00     0.055 A 
ATOM     66  C   UNL     1      14.249   9.961  -0.213  1.00  0.00     0.041 A 
ATOM     67  F   UNL     1      12.380  11.081   0.648  1.00  0.00    -0.206 F 
ATOM     68  C   UNL     1      14.835   9.159  -1.188  1.00  0.00     0.022 A 
BRANCH  65  69
ATOM     69  S   UNL     1      14.730   7.585  -3.488  1.00  0.00     0.124 S 
ATOM     70  O   UNL     1      13.736   6.522  -3.364  1.00  0.00    -0.237 OA
ATOM     71  O   UNL     1      14.731   8.316  -4.750  1.00  0.00    -0.237 OA
ATOM     72  O   UNL     1      16.051   7.259  -2.955  1.00  0.00    -0.744 OA
ENDBRANCH  65  69
ENDBRANCH  48  62
BRANCH  49  73
ATOM     73  C   UNL     1       2.387  12.444  -1.917  1.00  0.00     0.023 A 
ATOM     74  C   UNL     1       1.850  13.241  -2.940  1.00  0.00     0.031 A 
ATOM     75  C   UNL     1       1.524  12.030  -0.886  1.00  0.00     0.131 A 
ATOM     76  C   UNL     1       0.506  13.644  -2.884  1.00  0.00     0.055 A 
ATOM     77  C   UNL     1       0.172  12.382  -0.867  1.00  0.00     0.041 A 
ATOM     78  F   UNL     1       1.980  11.262   0.116  1.00  0.00    -0.206 F 
ATOM     79  C   UNL     1      -0.340  13.207  -1.863  1.00  0.00     0.022 A 
BRANCH  76  80
ATOM     80  S   UNL     1      -0.096  14.832  -4.116  1.00  0.00     0.124 S 
ATOM     81  O   UNL     1       0.822  15.948  -3.924  1.00  0.00    -0.237 OA
ATOM     82  O   UNL     1       0.055  14.082  -5.358  1.00  0.00    -0.237 OA
ATOM     83  O   UNL     1      -1.476  15.079  -3.703  1.00  0.00    -0.744 OA
ENDBRANCH  76  80
ENDBRANCH  49  73
BRANCH  61  84
ATOM     84  C   UNL     1       8.272  16.185  -1.568  1.00  0.00     0.023 A 
ATOM     85  C   UNL     1       7.849  16.990  -0.497  1.00  0.00     0.031 A 
ATOM     86  C   UNL     1       8.946  16.801  -2.637  1.00  0.00     0.131 A 
ATOM     87  C   UNL     1       8.050  18.376  -0.548  1.00  0.00     0.055 A 
ATOM     88  C   UNL     1       9.208  18.171  -2.647  1.00  0.00     0.041 A 
ATOM     89  F   UNL     1       9.370  16.079  -3.687  1.00  0.00    -0.206 F 
ATOM     90  C   UNL     1       8.746  18.969  -1.604  1.00  0.00     0.022 A 
BRANCH  87  91
ATOM     91  S   UNL     1       7.294  19.408   0.737  1.00  0.00     0.124 S 
ATOM     92  O   UNL     1       5.880  19.073   0.600  1.00  0.00    -0.237 OA
ATOM     93  O   UNL     1       7.949  18.926   1.949  1.00  0.00    -0.237 OA
ATOM     94  O   UNL     1       7.652  20.768   0.338  1.00  0.00    -0.744 OA
ENDBRANCH  87  91
ENDBRANCH  61  84
ENDBRANCH  35  36
ENDBRANCH  27  30
ENDBRANCH  25  26
ENDBRANCH  24  25
ENDBRANCH  23  24
ENDBRANCH   1  23
TORSDOF 19
