REMARK SMILES O=C(NCCCCCCNC(=O)[C@H](F)Sc1cc2ccccc2[nH]1)c1ccc(-c2c3nc(c(-c4cc(S(=O)(=O)[O-])ccc4F)c4ccc([nH]4)c(-c4cc(S(=O)(=O)[O-])ccc4F)c4nc(c(-c5cc(S(=O)(=O)[O-])ccc5F)c5ccc2[nH]5)C=C4)C=C3)cc1
REMARK SMILES IDX 6 1 5 2 4 3 3 4 1 5 2 6 25 8 26 9 87 10 27 11 86 12 28 13
REMARK SMILES IDX 29 14 30 15 80 16 31 17 85 18 79 19 81 20 32 21 84 22 78 23
REMARK SMILES IDX 77 24 33 26 65 27 45 28 64 29 46 30 49 31 63 32 82 33 47 34
REMARK SMILES IDX 48 35 62 37 83 38 50 39 34 40 35 41 43 42 36 43 42 44 44 45
REMARK SMILES IDX 41 46 37 47 38 48 39 49 40 50 66 51 67 52 75 53 68 54 74 55
REMARK SMILES IDX 76 56 73 57 69 58 70 59 71 60 72 61 51 62 52 63 60 64 53 65
REMARK SMILES IDX 59 66 61 67 58 68 54 69 55 70 56 71 57 72 7 73 8 74 9 75
REMARK SMILES IDX 10 76 11 77 12 79 13 80 14 81 15 82 16 83 17 84 24 85 18 86
REMARK SMILES IDX 23 87 19 89 22 90 20 91 21 92
REMARK H PARENT 3 7 81 25 49 36 10 78 24 88
REMARK Flexibility Score: inf
ROOT
ATOM      1  C   UNL     1       6.282   6.677  -3.723  1.00  0.00     0.002 C 
ENDROOT
BRANCH   1   2
ATOM      2  C   UNL     1       5.266   7.387  -4.618  1.00  0.00     0.021 C 
BRANCH   2   3
ATOM      3  C   UNL     1       3.807   7.114  -4.279  1.00  0.00     0.116 C 
BRANCH   3   4
ATOM      4  N   UNL     1       3.397   7.728  -3.025  1.00  0.00    -0.352 N 
ATOM      5  O   UNL     1       2.170   9.072  -1.688  1.00  0.00    -0.269 OA
ATOM      6  C   UNL     1       2.291   8.506  -2.771  1.00  0.00     0.251 C 
ATOM      7  H   UNL     1       3.990   7.565  -2.256  1.00  0.00     0.163 HD
BRANCH   6   8
ATOM      8  C   UNL     1       1.257   8.674  -3.819  1.00  0.00     0.039 A 
ATOM      9  C   UNL     1       0.804   7.573  -4.548  1.00  0.00     0.014 A 
ATOM     10  C   UNL     1       0.742   9.947  -4.082  1.00  0.00     0.014 A 
ATOM     11  C   UNL     1      -0.050   7.764  -5.628  1.00  0.00     0.010 A 
ATOM     12  C   UNL     1      -0.188  10.124  -5.114  1.00  0.00     0.010 A 
ATOM     13  C   UNL     1      -0.570   9.038  -5.915  1.00  0.00    -0.014 A 
BRANCH  13  14
ATOM     14  C   UNL     1      -1.555   9.173  -7.021  1.00  0.00     0.031 A 
ATOM     15  C   UNL     1      -1.241   9.964  -8.261  1.00  0.00     0.074 A 
ATOM     16  C   UNL     1      -2.725   8.510  -6.918  1.00  0.00     0.049 A 
ATOM     17  N   UNL     1      -1.962  10.119  -9.343  1.00  0.00    -0.248 NA
ATOM     18  C   UNL     1       0.043  10.679  -8.290  1.00  0.00     0.031 C 
ATOM     19  C   UNL     1      -3.144   7.729  -5.750  1.00  0.00     0.029 A 
ATOM     20  N   UNL     1      -3.758   8.357  -7.805  1.00  0.00    -0.354 N 
ATOM     21  C   UNL     1      -1.226  10.951 -10.181  1.00  0.00     0.074 A 
ATOM     22  C   UNL     1      -0.018  11.299  -9.461  1.00  0.00     0.031 C 
ATOM     23  C   UNL     1      -4.315   7.134  -6.015  1.00  0.00     0.029 A 
ATOM     24  C   UNL     1      -4.763   7.539  -7.341  1.00  0.00     0.049 A 
ATOM     25  H   UNL     1      -3.779   8.790  -8.688  1.00  0.00     0.167 HD
ATOM     26  C   UNL     1      -1.527  11.374 -11.435  1.00  0.00     0.034 A 
ATOM     27  C   UNL     1      -5.923   7.164  -7.912  1.00  0.00     0.034 A 
ATOM     28  C   UNL     1      -2.742  11.024 -12.135  1.00  0.00     0.049 A 
ATOM     29  C   UNL     1      -6.234   7.653  -9.300  1.00  0.00     0.074 A 
ATOM     30  C   UNL     1      -3.149  11.401 -13.404  1.00  0.00     0.029 A 
ATOM     31  N   UNL     1      -3.750  10.214 -11.624  1.00  0.00    -0.354 N 
ATOM     32  N   UNL     1      -5.520   8.435 -10.077  1.00  0.00    -0.248 NA
ATOM     33  C   UNL     1      -7.498   7.202  -9.891  1.00  0.00     0.031 C 
ATOM     34  C   UNL     1      -4.422  10.866 -13.638  1.00  0.00     0.029 A 
ATOM     35  C   UNL     1      -4.783  10.097 -12.544  1.00  0.00     0.049 A 
ATOM     36  H   UNL     1      -3.734   9.786 -10.738  1.00  0.00     0.167 HD
ATOM     37  C   UNL     1      -6.251   8.566 -11.252  1.00  0.00     0.074 A 
ATOM     38  C   UNL     1      -7.438   7.750 -11.095  1.00  0.00     0.031 C 
ATOM     39  C   UNL     1      -5.974   9.302 -12.359  1.00  0.00     0.034 A 
BRANCH  26  40
ATOM     40  C   UNL     1      -0.538  12.292 -12.115  1.00  0.00     0.023 A 
ATOM     41  C   UNL     1       0.752  11.856 -12.467  1.00  0.00     0.031 A 
ATOM     42  C   UNL     1      -0.884  13.623 -12.409  1.00  0.00     0.131 A 
ATOM     43  C   UNL     1       1.666  12.756 -13.037  1.00  0.00     0.055 A 
ATOM     44  C   UNL     1       0.006  14.494 -13.041  1.00  0.00     0.041 A 
ATOM     45  F   UNL     1      -2.094  14.102 -12.079  1.00  0.00    -0.206 F 
ATOM     46  C   UNL     1       1.294  14.066 -13.348  1.00  0.00     0.022 A 
BRANCH  43  47
ATOM     47  S   UNL     1       3.386  12.225 -13.259  1.00  0.00     0.124 S 
ATOM     48  O   UNL     1       3.779  11.910 -11.887  1.00  0.00    -0.237 OA
ATOM     49  O   UNL     1       3.252  11.086 -14.161  1.00  0.00    -0.237 OA
ATOM     50  O   UNL     1       4.039  13.400 -13.831  1.00  0.00    -0.744 OA
ENDBRANCH  43  47
ENDBRANCH  26  40
BRANCH  27  51
ATOM     51  C   UNL     1      -6.886   6.310  -7.161  1.00  0.00     0.023 A 
ATOM     52  C   UNL     1      -7.222   5.022  -7.605  1.00  0.00     0.031 A 
ATOM     53  C   UNL     1      -7.508   6.789  -5.993  1.00  0.00     0.131 A 
ATOM     54  C   UNL     1      -8.183   4.272  -6.909  1.00  0.00     0.055 A 
ATOM     55  C   UNL     1      -8.420   6.018  -5.273  1.00  0.00     0.041 A 
ATOM     56  F   UNL     1      -7.218   8.013  -5.523  1.00  0.00    -0.206 F 
ATOM     57  C   UNL     1      -8.774   4.756  -5.739  1.00  0.00     0.022 A 
BRANCH  54  58
ATOM     58  S   UNL     1      -8.719   2.686  -7.605  1.00  0.00     0.124 S 
ATOM     59  O   UNL     1      -9.141   3.074  -8.946  1.00  0.00    -0.237 OA
ATOM     60  O   UNL     1      -7.497   1.892  -7.522  1.00  0.00    -0.237 OA
ATOM     61  O   UNL     1      -9.794   2.267  -6.708  1.00  0.00    -0.744 OA
ENDBRANCH  54  58
ENDBRANCH  27  51
BRANCH  39  62
ATOM     62  C   UNL     1      -6.980   9.230 -13.481  1.00  0.00     0.023 A 
ATOM     63  C   UNL     1      -8.278   9.752 -13.334  1.00  0.00     0.031 A 
ATOM     64  C   UNL     1      -6.655   8.588 -14.688  1.00  0.00     0.131 A 
ATOM     65  C   UNL     1      -9.226   9.559 -14.349  1.00  0.00     0.055 A 
ATOM     66  C   UNL     1      -7.586   8.453 -15.719  1.00  0.00     0.041 A 
ATOM     67  F   UNL     1      -5.431   8.071 -14.879  1.00  0.00    -0.206 F 
ATOM     68  C   UNL     1      -8.885   8.924 -15.546  1.00  0.00     0.022 A 
BRANCH  65  69
ATOM     69  S   UNL     1     -10.945  10.049 -14.037  1.00  0.00     0.124 S 
ATOM     70  O   UNL     1     -11.266   9.284 -12.836  1.00  0.00    -0.237 OA
ATOM     71  O   UNL     1     -10.829  11.493 -13.861  1.00  0.00    -0.237 OA
ATOM     72  O   UNL     1     -11.647   9.627 -15.247  1.00  0.00    -0.744 OA
ENDBRANCH  65  69
ENDBRANCH  39  62
ENDBRANCH  13  14
ENDBRANCH   6   8
ENDBRANCH   3   4
ENDBRANCH   2   3
ENDBRANCH   1   2
BRANCH   1  73
ATOM     73  C   UNL     1       6.188   5.147  -3.696  1.00  0.00     0.002 C 
BRANCH  73  74
ATOM     74  C   UNL     1       6.182   4.453  -5.066  1.00  0.00     0.021 C 
BRANCH  74  75
ATOM     75  C   UNL     1       7.380   4.783  -5.956  1.00  0.00     0.116 C 
BRANCH  75  76
ATOM     76  N   UNL     1       8.636   4.361  -5.363  1.00  0.00    -0.353 N 
ATOM     77  C   UNL     1       9.410   3.268  -5.655  1.00  0.00     0.265 C 
ATOM     78  H   UNL     1       8.982   4.944  -4.649  1.00  0.00     0.163 HD
ATOM     79  O   UNL     1      10.491   3.183  -5.063  1.00  0.00    -0.271 OA
BRANCH  77  80
ATOM     80  C   UNL     1       8.957   2.271  -6.738  1.00  0.00     0.319 C 
ATOM     81  F   UNL     1       7.601   2.183  -6.873  1.00  0.00    -0.224 F 
BRANCH  80  82
ATOM     82  S   UNL     1       9.619   0.599  -6.444  1.00  0.00    -0.061 SA
BRANCH  82  83
ATOM     83  C   UNL     1       8.640   0.014  -5.141  1.00  0.00     0.076 A 
ATOM     84  C   UNL     1       7.780   0.609  -4.251  1.00  0.00     0.043 A 
ATOM     85  N   UNL     1       8.672  -1.325  -4.867  1.00  0.00    -0.350 N 
ATOM     86  C   UNL     1       7.256  -0.412  -3.411  1.00  0.00     0.001 A 
ATOM     87  C   UNL     1       7.834  -1.616  -3.814  1.00  0.00     0.046 A 
ATOM     88  H   UNL     1       9.216  -1.986  -5.353  1.00  0.00     0.167 HD
ATOM     89  C   UNL     1       6.340  -0.420  -2.343  1.00  0.00     0.010 A 
ATOM     90  C   UNL     1       7.543  -2.836  -3.195  1.00  0.00     0.027 A 
ATOM     91  C   UNL     1       6.036  -1.631  -1.713  1.00  0.00     0.001 A 
ATOM     92  C   UNL     1       6.631  -2.820  -2.134  1.00  0.00     0.002 A 
ENDBRANCH  82  83
ENDBRANCH  80  82
ENDBRANCH  77  80
ENDBRANCH  75  76
ENDBRANCH  74  75
ENDBRANCH  73  74
ENDBRANCH   1  73
TORSDOF 18
