REMARK SMILES C[C@H]1CC[C@@](NC(=O)N[C@H]2CCOC2)(C(=O)NCCCCCCNC(=O)c2ccc(-c3c4nc(c(-c5cc(S(=O)(=O)[O-])ccc5F)c5ccc([nH]5)c(-c5cc(S(=O)(=O)[O-])ccc5F)c5nc(c(-c6cc(S(=O)(=O)[O-])ccc6F)c6ccc3[nH]6)C=C5)C=C4)cc2)CC1
REMARK SMILES IDX 21 1 20 2 19 3 18 4 17 5 15 6 16 7 5 9 1 10 2 11 91 12 3 13
REMARK SMILES IDX 90 14 4 15 6 16 7 17 8 19 9 20 10 22 11 23 14 24 12 25 13 26
REMARK SMILES IDX 22 27 23 28 24 29 25 30 26 32 27 33 28 34 89 35 29 36 88 37
REMARK SMILES IDX 30 38 31 39 32 40 82 41 33 42 87 43 81 44 83 45 34 46 86 47
REMARK SMILES IDX 80 48 79 49 35 51 67 52 47 53 66 54 48 55 51 56 65 57 84 58
REMARK SMILES IDX 49 59 50 60 64 62 85 63 52 64 36 65 37 66 45 67 38 68 44 69
REMARK SMILES IDX 46 70 43 71 39 72 40 73 41 74 42 75 68 76 69 77 77 78 70 79
REMARK SMILES IDX 76 80 78 81 75 82 71 83 72 84 73 85 74 86 53 87 54 88 62 89
REMARK SMILES IDX 55 90 61 91 63 92 60 93 56 94 57 95 58 96 59 97
REMARK H PARENT 17 8 6 18 9 21 24 31 83 50 51 61
REMARK Flexibility Score: inf
ROOT
ATOM      1  C   UNL     1      -3.666   4.287  -3.016  1.00  0.00     0.002 C 
ENDROOT
BRANCH   1   2
ATOM      2  C   UNL     1      -4.475   3.810  -1.806  1.00  0.00     0.002 C 
BRANCH   2   3
ATOM      3  C   UNL     1      -5.679   2.929  -2.161  1.00  0.00     0.021 C 
BRANCH   3   4
ATOM      4  C   UNL     1      -5.263   1.564  -2.685  1.00  0.00     0.116 C 
BRANCH   4   5
ATOM      5  N   UNL     1      -4.735   0.769  -1.595  1.00  0.00    -0.354 N 
ATOM      6  C   UNL     1      -4.484  -0.564  -1.513  1.00  0.00     0.245 C 
ATOM      7  O   UNL     1      -3.942  -0.944  -0.470  1.00  0.00    -0.272 OA
ATOM      8  H   UNL     1      -4.523   1.278  -0.779  1.00  0.00     0.163 HD
BRANCH   6   9
ATOM      9  C   UNL     1      -4.963  -1.544  -2.617  1.00  0.00     0.120 C 
ATOM     10  C   UNL     1      -6.179  -3.316   1.004  1.00  0.00     0.007 C 
ATOM     11  C   UNL     1      -6.221  -3.314  -0.530  1.00  0.00    -0.014 C 
ATOM     12  C   UNL     1      -4.810  -3.608  -1.081  1.00  0.00     0.006 C 
ATOM     13  C   UNL     1      -6.889  -2.020  -1.020  1.00  0.00     0.006 C 
ATOM     14  C   UNL     1      -4.483  -2.996  -2.445  1.00  0.00     0.039 C 
ATOM     15  C   UNL     1      -6.509  -1.633  -2.450  1.00  0.00     0.039 C 
BRANCH   9  16
ATOM     16  N   UNL     1      -4.629  -1.062  -3.982  1.00  0.00    -0.324 N 
ATOM     17  C   UNL     1      -3.527  -0.776  -4.685  1.00  0.00     0.315 C 
ATOM     18  H   UNL     1      -5.442  -0.913  -4.517  1.00  0.00     0.166 HD
ATOM     19  O   UNL     1      -3.659  -0.709  -5.911  1.00  0.00    -0.249 OA
ATOM     20  N   UNL     1      -2.309  -0.512  -4.201  1.00  0.00    -0.333 N 
ATOM     21  H   UNL     1      -1.646  -0.387  -4.917  1.00  0.00     0.165 HD
BRANCH  20  22
ATOM     22  C   UNL     1      -1.723  -0.364  -2.887  1.00  0.00     0.112 C 
ATOM     23  C   UNL     1      -0.931  -1.555  -2.408  1.00  0.00     0.056 C 
ATOM     24  C   UNL     1      -0.698   0.756  -2.710  1.00  0.00     0.185 C 
ATOM     25  C   UNL     1      -0.253  -0.957  -1.196  1.00  0.00     0.162 C 
ATOM     26  O   UNL     1       0.118   0.378  -1.580  1.00  0.00    -0.379 OA
ENDBRANCH  20  22
ENDBRANCH   9  16
ENDBRANCH   6   9
ENDBRANCH   4   5
ENDBRANCH   3   4
ENDBRANCH   2   3
ENDBRANCH   1   2
BRANCH   1  27
ATOM     27  C   UNL     1      -4.474   5.049  -4.068  1.00  0.00     0.021 C 
BRANCH  27  28
ATOM     28  C   UNL     1      -5.367   6.151  -3.506  1.00  0.00     0.116 C 
BRANCH  28  29
ATOM     29  N   UNL     1      -4.619   7.131  -2.740  1.00  0.00    -0.352 N 
ATOM     30  C   UNL     1      -4.825   8.482  -2.653  1.00  0.00     0.251 C 
ATOM     31  H   UNL     1      -3.865   6.779  -2.213  1.00  0.00     0.163 HD
ATOM     32  O   UNL     1      -4.003   9.192  -2.075  1.00  0.00    -0.269 OA
BRANCH  30  33
ATOM     33  C   UNL     1      -6.015   9.078  -3.292  1.00  0.00     0.039 A 
ATOM     34  C   UNL     1      -5.847  10.217  -4.078  1.00  0.00     0.014 A 
ATOM     35  C   UNL     1      -7.283   8.507  -3.135  1.00  0.00     0.014 A 
ATOM     36  C   UNL     1      -6.946  10.759  -4.743  1.00  0.00     0.010 A 
ATOM     37  C   UNL     1      -8.363   9.004  -3.861  1.00  0.00     0.010 A 
ATOM     38  C   UNL     1      -8.207  10.141  -4.665  1.00  0.00    -0.014 A 
BRANCH  38  39
ATOM     39  C   UNL     1      -9.350  10.691  -5.436  1.00  0.00     0.031 A 
ATOM     40  C   UNL     1     -10.545  11.266  -4.728  1.00  0.00     0.074 A 
ATOM     41  C   UNL     1      -9.302  10.670  -6.783  1.00  0.00     0.049 A 
ATOM     42  N   UNL     1     -11.597  11.859  -5.232  1.00  0.00    -0.248 NA
ATOM     43  C   UNL     1     -10.576  11.136  -3.263  1.00  0.00     0.031 C 
ATOM     44  C   UNL     1      -8.220  10.079  -7.577  1.00  0.00     0.029 A 
ATOM     45  N   UNL     1     -10.165  11.171  -7.723  1.00  0.00    -0.354 N 
ATOM     46  C   UNL     1     -12.411  12.177  -4.150  1.00  0.00     0.074 A 
ATOM     47  C   UNL     1     -11.765  11.641  -2.971  1.00  0.00     0.031 C 
ATOM     48  C   UNL     1      -8.459  10.301  -8.879  1.00  0.00     0.029 A 
ATOM     49  C   UNL     1      -9.725  11.013  -9.017  1.00  0.00     0.049 A 
ATOM     50  H   UNL     1     -11.019  11.604  -7.493  1.00  0.00     0.167 HD
ATOM     51  C   UNL     1     -13.573  12.876  -4.139  1.00  0.00     0.034 A 
ATOM     52  C   UNL     1     -10.275  11.405 -10.182  1.00  0.00     0.034 A 
ATOM     53  C   UNL     1     -14.201  13.401  -5.328  1.00  0.00     0.049 A 
ATOM     54  C   UNL     1     -11.570  12.175 -10.144  1.00  0.00     0.074 A 
ATOM     55  C   UNL     1     -15.349  14.167  -5.432  1.00  0.00     0.029 A 
ATOM     56  N   UNL     1     -13.740  13.205  -6.625  1.00  0.00    -0.354 N 
ATOM     57  N   UNL     1     -12.289  12.535  -9.104  1.00  0.00    -0.248 NA
ATOM     58  C   UNL     1     -12.116  12.607 -11.435  1.00  0.00     0.031 C 
ATOM     59  C   UNL     1     -15.623  14.368  -6.790  1.00  0.00     0.029 A 
ATOM     60  C   UNL     1     -14.600  13.803  -7.535  1.00  0.00     0.049 A 
ATOM     61  H   UNL     1     -12.921  12.713  -6.864  1.00  0.00     0.167 HD
ATOM     62  C   UNL     1     -13.363  13.256  -9.619  1.00  0.00     0.074 A 
ATOM     63  C   UNL     1     -13.173  13.309 -11.055  1.00  0.00     0.031 C 
ATOM     64  C   UNL     1     -14.414  13.820  -8.968  1.00  0.00     0.034 A 
BRANCH  51  65
ATOM     65  C   UNL     1     -14.245  13.088  -2.801  1.00  0.00     0.023 A 
ATOM     66  C   UNL     1     -13.620  13.804  -1.764  1.00  0.00     0.031 A 
ATOM     67  C   UNL     1     -15.519  12.549  -2.548  1.00  0.00     0.131 A 
ATOM     68  C   UNL     1     -14.231  13.895  -0.504  1.00  0.00     0.055 A 
ATOM     69  C   UNL     1     -16.160  12.716  -1.318  1.00  0.00     0.041 A 
ATOM     70  F   UNL     1     -16.159  11.836  -3.488  1.00  0.00    -0.206 F 
ATOM     71  C   UNL     1     -15.510  13.380  -0.282  1.00  0.00     0.022 A 
BRANCH  68  72
ATOM     72  S   UNL     1     -13.271  14.567   0.881  1.00  0.00     0.124 S 
ATOM     73  O   UNL     1     -12.124  13.662   0.910  1.00  0.00    -0.237 OA
ATOM     74  O   UNL     1     -12.998  15.931   0.443  1.00  0.00    -0.237 OA
ATOM     75  O   UNL     1     -14.179  14.446   2.019  1.00  0.00    -0.744 OA
ENDBRANCH  68  72
ENDBRANCH  51  65
BRANCH  52  76
ATOM     76  C   UNL     1      -9.610  11.089 -11.479  1.00  0.00     0.023 A 
ATOM     77  C   UNL     1      -9.144  12.108 -12.326  1.00  0.00     0.031 A 
ATOM     78  C   UNL     1      -9.468   9.759 -11.912  1.00  0.00     0.131 A 
ATOM     79  C   UNL     1      -8.608  11.785 -13.582  1.00  0.00     0.055 A 
ATOM     80  C   UNL     1      -8.880   9.439 -13.137  1.00  0.00     0.041 A 
ATOM     81  F   UNL     1      -9.891   8.744 -11.140  1.00  0.00    -0.206 F 
ATOM     82  C   UNL     1      -8.460  10.457 -13.987  1.00  0.00     0.022 A 
BRANCH  79  83
ATOM     83  S   UNL     1      -8.191  13.133 -14.722  1.00  0.00     0.124 S 
ATOM     84  O   UNL     1      -9.467  13.828 -14.841  1.00  0.00    -0.237 OA
ATOM     85  O   UNL     1      -7.143  13.836 -13.989  1.00  0.00    -0.237 OA
ATOM     86  O   UNL     1      -7.745  12.434 -15.926  1.00  0.00    -0.744 OA
ENDBRANCH  79  83
ENDBRANCH  52  76
BRANCH  64  87
ATOM     87  C   UNL     1     -15.421  14.557  -9.821  1.00  0.00     0.023 A 
ATOM     88  C   UNL     1     -16.185  13.892 -10.797  1.00  0.00     0.031 A 
ATOM     89  C   UNL     1     -15.581  15.948  -9.694  1.00  0.00     0.131 A 
ATOM     90  C   UNL     1     -17.005  14.627 -11.665  1.00  0.00     0.055 A 
ATOM     91  C   UNL     1     -16.460  16.664 -10.510  1.00  0.00     0.041 A 
ATOM     92  F   UNL     1     -14.878  16.639  -8.783  1.00  0.00    -0.206 F 
ATOM     93  C   UNL     1     -17.161  16.006 -11.516  1.00  0.00     0.022 A 
BRANCH  90  94
ATOM     94  S   UNL     1     -17.751  13.773 -13.081  1.00  0.00     0.124 S 
ATOM     95  O   UNL     1     -16.581  13.205 -13.743  1.00  0.00    -0.237 OA
ATOM     96  O   UNL     1     -18.644  12.818 -12.434  1.00  0.00    -0.237 OA
ATOM     97  O   UNL     1     -18.419  14.847 -13.815  1.00  0.00    -0.744 OA
ENDBRANCH  90  94
ENDBRANCH  64  87
ENDBRANCH  38  39
ENDBRANCH  30  33
ENDBRANCH  28  29
ENDBRANCH  27  28
ENDBRANCH   1  27
TORSDOF 18
