REMARK SMILES O=C(Cc1ccc(=O)n(C(F)F)c1)NCCCCCCNC(=O)c1ccc(-c2c3nc(c(-c4cc(S(=O)(=O)[O-])ccc4F)c4ccc([nH]4)c(-c4cc(S(=O)(=O)[O-])ccc4F)c4nc(c(-c5cc(S(=O)(=O)[O-])ccc5F)c5ccc2[nH]5)C=C4)C=C3)cc1
REMARK SMILES IDX 18 1 17 2 16 3 15 4 14 5 1 6 2 7 3 9 4 10 5 11 13 12 6 13
REMARK SMILES IDX 9 14 7 15 8 16 10 17 11 18 12 19 19 20 20 21 21 22 22 23
REMARK SMILES IDX 23 25 24 26 25 27 86 28 26 29 85 30 27 31 28 32 29 33 79 34
REMARK SMILES IDX 30 35 84 36 78 37 80 38 31 39 83 40 77 41 76 42 32 44 64 45
REMARK SMILES IDX 44 46 63 47 45 48 48 49 62 50 81 51 46 52 47 53 61 55 82 56
REMARK SMILES IDX 49 57 33 58 34 59 42 60 35 61 41 62 43 63 40 64 36 65 37 66
REMARK SMILES IDX 38 67 39 68 65 69 66 70 74 71 67 72 73 73 75 74 72 75 68 76
REMARK SMILES IDX 69 77 70 78 71 79 50 80 51 81 59 82 52 83 58 84 60 85 57 86
REMARK SMILES IDX 53 87 54 88 55 89 56 90
REMARK H PARENT 14 8 21 24 80 43 48 54
REMARK Flexibility Score: inf
ROOT
ATOM      1  C   UNL     1       4.720   2.991   2.941  1.00  0.00     0.002 C 
ENDROOT
BRANCH   1   2
ATOM      2  C   UNL     1       4.244   1.589   3.329  1.00  0.00     0.002 C 
BRANCH   2   3
ATOM      3  C   UNL     1       2.738   1.333   3.182  1.00  0.00     0.021 C 
BRANCH   3   4
ATOM      4  C   UNL     1       2.179   1.550   1.777  1.00  0.00     0.116 C 
BRANCH   4   5
ATOM      5  N   UNL     1       2.851   0.714   0.804  1.00  0.00    -0.356 N 
ATOM      6  O   UNL     1       0.963  -0.020  -0.291  1.00  0.00    -0.275 OA
ATOM      7  C   UNL     1       2.182  -0.002  -0.164  1.00  0.00     0.224 C 
ATOM      8  H   UNL     1       3.834   0.654   0.837  1.00  0.00     0.163 HD
BRANCH   7   9
ATOM      9  C   UNL     1       3.112  -0.778  -1.090  1.00  0.00     0.137 C 
BRANCH   9  10
ATOM     10  C   UNL     1       3.818   0.027  -2.158  1.00  0.00    -0.022 A 
ATOM     11  C   UNL     1       3.720   1.472  -2.230  1.00  0.00     0.011 A 
ATOM     12  C   UNL     1       4.575  -0.602  -3.075  1.00  0.00     0.099 A 
ATOM     13  C   UNL     1       4.387   2.167  -3.161  1.00  0.00     0.072 A 
ATOM     14  N   UNL     1       5.266   0.089  -4.056  1.00  0.00    -0.258 N 
ATOM     15  C   UNL     1       5.230   1.470  -4.166  1.00  0.00     0.254 A 
ATOM     16  O   UNL     1       5.821   2.138  -5.007  1.00  0.00    -0.269 OA
BRANCH  14  17
ATOM     17  C   UNL     1       6.043  -0.619  -5.039  1.00  0.00     0.451 C 
ATOM     18  F   UNL     1       5.539  -0.434  -6.283  1.00  0.00    -0.185 F 
ATOM     19  F   UNL     1       7.334  -0.206  -5.042  1.00  0.00    -0.185 F 
ENDBRANCH  14  17
ENDBRANCH   9  10
ENDBRANCH   7   9
ENDBRANCH   4   5
ENDBRANCH   3   4
ENDBRANCH   2   3
ENDBRANCH   1   2
BRANCH   1  20
ATOM     20  C   UNL     1       4.050   4.141   3.693  1.00  0.00     0.021 C 
BRANCH  20  21
ATOM     21  C   UNL     1       4.134   4.059   5.213  1.00  0.00     0.116 C 
BRANCH  21  22
ATOM     22  N   UNL     1       5.498   4.133   5.715  1.00  0.00    -0.352 N 
ATOM     23  C   UNL     1       6.006   4.905   6.736  1.00  0.00     0.251 C 
ATOM     24  H   UNL     1       6.149   3.549   5.262  1.00  0.00     0.163 HD
ATOM     25  O   UNL     1       7.217   4.930   6.938  1.00  0.00    -0.269 OA
BRANCH  23  26
ATOM     26  C   UNL     1       5.091   5.733   7.554  1.00  0.00     0.039 A 
ATOM     27  C   UNL     1       3.882   5.212   8.019  1.00  0.00     0.014 A 
ATOM     28  C   UNL     1       5.431   7.061   7.831  1.00  0.00     0.014 A 
ATOM     29  C   UNL     1       2.942   6.060   8.595  1.00  0.00     0.010 A 
ATOM     30  C   UNL     1       4.520   7.888   8.496  1.00  0.00     0.010 A 
ATOM     31  C   UNL     1       3.246   7.410   8.838  1.00  0.00    -0.014 A 
BRANCH  31  32
ATOM     32  C   UNL     1       2.220   8.285   9.468  1.00  0.00     0.031 A 
ATOM     33  C   UNL     1       1.638   9.461   8.730  1.00  0.00     0.074 A 
ATOM     34  C   UNL     1       1.770   7.976  10.701  1.00  0.00     0.049 A 
ATOM     35  N   UNL     1       0.689  10.280   9.109  1.00  0.00    -0.248 NA
ATOM     36  C   UNL     1       2.190   9.764   7.400  1.00  0.00     0.031 C 
ATOM     37  C   UNL     1       2.266   6.864  11.513  1.00  0.00     0.029 A 
ATOM     38  N   UNL     1       0.785   8.539  11.474  1.00  0.00    -0.354 N 
ATOM     39  C   UNL     1       0.540  11.200   8.077  1.00  0.00     0.074 A 
ATOM     40  C   UNL     1       1.521  10.862   7.070  1.00  0.00     0.031 C 
ATOM     41  C   UNL     1       1.543   6.786  12.638  1.00  0.00     0.029 A 
ATOM     42  C   UNL     1       0.581   7.885  12.667  1.00  0.00     0.049 A 
ATOM     43  H   UNL     1       0.274   9.335  11.201  1.00  0.00     0.167 HD
ATOM     44  C   UNL     1      -0.346  12.220   7.975  1.00  0.00     0.034 A 
ATOM     45  C   UNL     1      -0.275   8.137  13.679  1.00  0.00     0.034 A 
ATOM     46  C   UNL     1      -1.334  12.531   8.978  1.00  0.00     0.049 A 
ATOM     47  C   UNL     1      -1.233   9.293  13.549  1.00  0.00     0.074 A 
ATOM     48  C   UNL     1      -2.306  13.516   8.940  1.00  0.00     0.029 A 
ATOM     49  N   UNL     1      -1.482  11.874  10.191  1.00  0.00    -0.354 N 
ATOM     50  N   UNL     1      -1.403  10.111  12.537  1.00  0.00    -0.248 NA
ATOM     51  C   UNL     1      -2.115   9.562  14.692  1.00  0.00     0.031 C 
ATOM     52  C   UNL     1      -2.994  13.500  10.154  1.00  0.00     0.029 A 
ATOM     53  C   UNL     1      -2.506  12.455  10.923  1.00  0.00     0.049 A 
ATOM     54  H   UNL     1      -0.940  11.107  10.488  1.00  0.00     0.167 HD
ATOM     55  C   UNL     1      -2.418  10.984  12.916  1.00  0.00     0.074 A 
ATOM     56  C   UNL     1      -2.849  10.570  14.236  1.00  0.00     0.031 C 
ATOM     57  C   UNL     1      -2.937  12.038  12.237  1.00  0.00     0.034 A 
BRANCH  44  58
ATOM     58  C   UNL     1      -0.322  13.085   6.737  1.00  0.00     0.023 A 
ATOM     59  C   UNL     1      -0.042  14.461   6.846  1.00  0.00     0.031 A 
ATOM     60  C   UNL     1      -0.717  12.586   5.483  1.00  0.00     0.131 A 
ATOM     61  C   UNL     1      -0.201  15.296   5.732  1.00  0.00     0.055 A 
ATOM     62  C   UNL     1      -0.833  13.415   4.366  1.00  0.00     0.041 A 
ATOM     63  F   UNL     1      -0.998  11.282   5.326  1.00  0.00    -0.206 F 
ATOM     64  C   UNL     1      -0.587  14.779   4.491  1.00  0.00     0.022 A 
BRANCH  61  65
ATOM     65  S   UNL     1       0.017  17.092   5.864  1.00  0.00     0.124 S 
ATOM     66  O   UNL     1       1.075  17.338   4.886  1.00  0.00    -0.237 OA
ATOM     67  O   UNL     1      -1.304  17.588   5.491  1.00  0.00    -0.237 OA
ATOM     68  O   UNL     1       0.400  17.298   7.257  1.00  0.00    -0.744 OA
ENDBRANCH  61  65
ENDBRANCH  44  58
BRANCH  45  69
ATOM     69  C   UNL     1      -0.278   7.236  14.869  1.00  0.00     0.023 A 
ATOM     70  C   UNL     1       0.878   7.075  15.656  1.00  0.00     0.031 A 
ATOM     71  C   UNL     1      -1.393   6.434  15.163  1.00  0.00     0.131 A 
ATOM     72  C   UNL     1       0.921   6.079  16.638  1.00  0.00     0.055 A 
ATOM     73  C   UNL     1      -1.373   5.497  16.198  1.00  0.00     0.041 A 
ATOM     74  F   UNL     1      -2.514   6.541  14.434  1.00  0.00    -0.206 F 
ATOM     75  C   UNL     1      -0.204   5.301  16.927  1.00  0.00     0.022 A 
BRANCH  72  76
ATOM     76  S   UNL     1       2.481   5.655  17.462  1.00  0.00     0.124 S 
ATOM     77  O   UNL     1       2.170   5.925  18.862  1.00  0.00    -0.237 OA
ATOM     78  O   UNL     1       2.630   4.245  17.109  1.00  0.00    -0.237 OA
ATOM     79  O   UNL     1       3.451   6.552  16.845  1.00  0.00    -0.744 OA
ENDBRANCH  72  76
ENDBRANCH  45  69
BRANCH  57  80
ATOM     80  C   UNL     1      -4.030  12.851  12.890  1.00  0.00     0.023 A 
ATOM     81  C   UNL     1      -5.303  12.932  12.295  1.00  0.00     0.031 A 
ATOM     82  C   UNL     1      -3.769  13.657  14.012  1.00  0.00     0.131 A 
ATOM     83  C   UNL     1      -6.252  13.832  12.797  1.00  0.00     0.055 A 
ATOM     84  C   UNL     1      -4.735  14.514  14.540  1.00  0.00     0.041 A 
ATOM     85  F   UNL     1      -2.567  13.624  14.610  1.00  0.00    -0.206 F 
ATOM     86  C   UNL     1      -5.978  14.616  13.922  1.00  0.00     0.022 A 
BRANCH  83  87
ATOM     87  S   UNL     1      -7.840  14.086  11.956  1.00  0.00     0.124 S 
ATOM     88  O   UNL     1      -8.794  13.682  12.985  1.00  0.00    -0.237 OA
ATOM     89  O   UNL     1      -7.807  15.517  11.663  1.00  0.00    -0.237 OA
ATOM     90  O   UNL     1      -7.768  13.207  10.794  1.00  0.00    -0.744 OA
ENDBRANCH  83  87
ENDBRANCH  57  80
ENDBRANCH  31  32
ENDBRANCH  23  26
ENDBRANCH  21  22
ENDBRANCH  20  21
ENDBRANCH   1  20
TORSDOF 18
