REMARK SMILES N#Cc1ccc(C(F)(F)F)nc1N1CCOC[C@H]1C(=O)NCCCCCCNC(=O)c1ccc(-c2c3nc(c(-c4cc(S(=O)(=O)[O-])ccc4F)c4ccc([nH]4)c(-c4cc(S(=O)(=O)[O-])ccc4F)c4nc(c(-c5cc(S(=O)(=O)[O-])ccc5F)c5ccc2[nH]5)C=C4)C=C3)cc1
REMARK SMILES IDX 25 1 24 2 23 3 22 4 21 5 19 6 20 7 18 9 13 10 14 11 15 12
REMARK SMILES IDX 17 13 16 14 12 15 3 16 4 17 5 18 11 19 6 20 2 21 1 22 7 23
REMARK SMILES IDX 8 24 9 25 10 26 26 27 27 28 28 29 29 30 30 32 31 33 32 34
REMARK SMILES IDX 93 35 33 36 92 37 34 38 35 39 36 40 86 41 37 42 91 43 85 44
REMARK SMILES IDX 87 45 38 46 90 47 84 48 83 49 39 51 71 52 51 53 70 54 52 55
REMARK SMILES IDX 55 56 69 57 88 58 53 59 54 60 68 62 89 63 56 64 40 65 41 66
REMARK SMILES IDX 49 67 42 68 48 69 50 70 47 71 43 72 44 73 45 74 46 75 72 76
REMARK SMILES IDX 73 77 81 78 74 79 80 80 82 81 79 82 75 83 76 84 77 85 78 86
REMARK SMILES IDX 57 87 58 88 66 89 59 90 65 91 67 92 64 93 60 94 61 95 62 96
REMARK SMILES IDX 63 97
REMARK H PARENT 21 8 28 31 87 50 55 61
REMARK Flexibility Score: inf
ROOT
ATOM      1  C   UNL     1       1.502  -6.345   4.999  1.00  0.00     0.002 C 
ENDROOT
BRANCH   1   2
ATOM      2  C   UNL     1       0.352  -5.386   4.660  1.00  0.00     0.002 C 
BRANCH   2   3
ATOM      3  C   UNL     1       0.662  -4.421   3.519  1.00  0.00     0.021 C 
BRANCH   3   4
ATOM      4  C   UNL     1       0.933  -5.126   2.188  1.00  0.00     0.116 C 
BRANCH   4   5
ATOM      5  N   UNL     1      -0.219  -5.068   1.314  1.00  0.00    -0.354 N 
ATOM      6  C   UNL     1      -0.520  -4.371   0.186  1.00  0.00     0.245 C 
ATOM      7  O   UNL     1      -1.623  -4.657  -0.309  1.00  0.00    -0.273 OA
ATOM      8  H   UNL     1      -0.947  -5.667   1.599  1.00  0.00     0.163 HD
BRANCH   6   9
ATOM      9  C   UNL     1       0.403  -3.371  -0.555  1.00  0.00     0.199 C 
ATOM     10  N   UNL     1       0.708  -2.089   0.122  1.00  0.00    -0.339 N 
ATOM     11  C   UNL     1       1.819  -2.091   1.067  1.00  0.00     0.147 C 
ATOM     12  C   UNL     1       3.057  -2.744   0.438  1.00  0.00     0.181 C 
ATOM     13  C   UNL     1       1.708  -4.022  -1.063  1.00  0.00     0.195 C 
ATOM     14  O   UNL     1       2.781  -4.043  -0.110  1.00  0.00    -0.377 OA
BRANCH  10  15
ATOM     15  C   UNL     1      -0.051  -0.954  -0.076  1.00  0.00     0.148 A 
ATOM     16  C   UNL     1       0.517   0.326  -0.210  1.00  0.00     0.095 A 
ATOM     17  C   UNL     1      -0.300   1.457  -0.209  1.00  0.00     0.025 A 
ATOM     18  C   UNL     1      -1.674   1.304  -0.146  1.00  0.00     0.035 A 
ATOM     19  N   UNL     1      -1.399  -1.097  -0.098  1.00  0.00    -0.225 NA
ATOM     20  C   UNL     1      -2.203   0.016  -0.128  1.00  0.00     0.146 A 
BRANCH  16  21
ATOM     21  C   UNL     1       1.921   0.529  -0.418  1.00  0.00     0.103 C 
ATOM     22  N   UNL     1       3.055   0.706  -0.580  1.00  0.00    -0.192 NA
ENDBRANCH  16  21
BRANCH  20  23
ATOM     23  C   UNL     1      -3.722  -0.145  -0.144  1.00  0.00     0.433 C 
ATOM     24  F   UNL     1      -4.184  -0.797  -1.248  1.00  0.00    -0.165 F 
ATOM     25  F   UNL     1      -4.212  -0.815   0.936  1.00  0.00    -0.165 F 
ATOM     26  F   UNL     1      -4.380   1.058  -0.145  1.00  0.00    -0.165 F 
ENDBRANCH  20  23
ENDBRANCH  10  15
ENDBRANCH   6   9
ENDBRANCH   4   5
ENDBRANCH   3   4
ENDBRANCH   2   3
ENDBRANCH   1   2
BRANCH   1  27
ATOM     27  C   UNL     1       2.832  -5.665   5.337  1.00  0.00     0.021 C 
BRANCH  27  28
ATOM     28  C   UNL     1       2.748  -4.680   6.498  1.00  0.00     0.116 C 
BRANCH  28  29
ATOM     29  N   UNL     1       2.228  -5.322   7.695  1.00  0.00    -0.352 N 
ATOM     30  C   UNL     1       2.849  -5.546   8.897  1.00  0.00     0.251 C 
ATOM     31  H   UNL     1       1.298  -5.640   7.635  1.00  0.00     0.163 HD
ATOM     32  O   UNL     1       2.393  -6.375   9.677  1.00  0.00    -0.269 OA
BRANCH  30  33
ATOM     33  C   UNL     1       4.068  -4.783   9.232  1.00  0.00     0.039 A 
ATOM     34  C   UNL     1       5.137  -5.436   9.845  1.00  0.00     0.014 A 
ATOM     35  C   UNL     1       4.144  -3.418   8.939  1.00  0.00     0.014 A 
ATOM     36  C   UNL     1       6.306  -4.726  10.119  1.00  0.00     0.010 A 
ATOM     37  C   UNL     1       5.340  -2.738   9.125  1.00  0.00     0.010 A 
ATOM     38  C   UNL     1       6.430  -3.381   9.729  1.00  0.00    -0.014 A 
BRANCH  38  39
ATOM     39  C   UNL     1       7.687  -2.626   9.959  1.00  0.00     0.031 A 
ATOM     40  C   UNL     1       7.688  -1.417  10.853  1.00  0.00     0.074 A 
ATOM     41  C   UNL     1       8.814  -3.003   9.326  1.00  0.00     0.049 A 
ATOM     42  N   UNL     1       8.669  -0.602  11.142  1.00  0.00    -0.248 NA
ATOM     43  C   UNL     1       6.406  -1.062  11.477  1.00  0.00     0.031 C 
ATOM     44  C   UNL     1       8.928  -4.143   8.415  1.00  0.00     0.029 A 
ATOM     45  N   UNL     1      10.078  -2.472   9.355  1.00  0.00    -0.354 N 
ATOM     46  C   UNL     1       8.123   0.363  11.981  1.00  0.00     0.074 A 
ATOM     47  C   UNL     1       6.707   0.079  12.075  1.00  0.00     0.031 C 
ATOM     48  C   UNL     1      10.204  -4.258   8.015  1.00  0.00     0.029 A 
ATOM     49  C   UNL     1      10.984  -3.166   8.589  1.00  0.00     0.049 A 
ATOM     50  H   UNL     1      10.314  -1.671   9.876  1.00  0.00     0.167 HD
ATOM     51  C   UNL     1       8.750   1.371  12.638  1.00  0.00     0.034 A 
ATOM     52  C   UNL     1      12.294  -2.943   8.368  1.00  0.00     0.034 A 
ATOM     53  C   UNL     1      10.161   1.646  12.516  1.00  0.00     0.049 A 
ATOM     54  C   UNL     1      12.954  -1.764   9.037  1.00  0.00     0.074 A 
ATOM     55  C   UNL     1      10.908   2.623  13.151  1.00  0.00     0.029 A 
ATOM     56  N   UNL     1      11.038   0.956  11.687  1.00  0.00    -0.354 N 
ATOM     57  N   UNL     1      12.435  -0.882   9.860  1.00  0.00    -0.248 NA
ATOM     58  C   UNL     1      14.378  -1.556   8.749  1.00  0.00     0.031 C 
ATOM     59  C   UNL     1      12.208   2.584  12.637  1.00  0.00     0.029 A 
ATOM     60  C   UNL     1      12.305   1.514  11.761  1.00  0.00     0.049 A 
ATOM     61  H   UNL     1      10.794   0.182  11.128  1.00  0.00     0.167 HD
ATOM     62  C   UNL     1      13.483  -0.038  10.220  1.00  0.00     0.074 A 
ATOM     63  C   UNL     1      14.660  -0.525   9.530  1.00  0.00     0.031 C 
ATOM     64  C   UNL     1      13.473   1.034  11.055  1.00  0.00     0.034 A 
BRANCH  51  65
ATOM     65  C   UNL     1       7.892   2.261  13.511  1.00  0.00     0.023 A 
ATOM     66  C   UNL     1       7.135   1.737  14.575  1.00  0.00     0.031 A 
ATOM     67  C   UNL     1       7.770   3.634  13.237  1.00  0.00     0.131 A 
ATOM     68  C   UNL     1       6.206   2.548  15.241  1.00  0.00     0.055 A 
ATOM     69  C   UNL     1       6.925   4.462  13.981  1.00  0.00     0.041 A 
ATOM     70  F   UNL     1       8.446   4.194  12.221  1.00  0.00    -0.206 F 
ATOM     71  C   UNL     1       6.118   3.915  14.973  1.00  0.00     0.022 A 
BRANCH  68  72
ATOM     72  S   UNL     1       4.969   1.746  16.299  1.00  0.00     0.124 S 
ATOM     73  O   UNL     1       4.360   0.797  15.369  1.00  0.00    -0.237 OA
ATOM     74  O   UNL     1       5.786   1.168  17.359  1.00  0.00    -0.237 OA
ATOM     75  O   UNL     1       4.101   2.849  16.706  1.00  0.00    -0.744 OA
ENDBRANCH  68  72
ENDBRANCH  51  65
BRANCH  52  76
ATOM     76  C   UNL     1      13.074  -3.859   7.489  1.00  0.00     0.023 A 
ATOM     77  C   UNL     1      14.134  -4.620   8.007  1.00  0.00     0.031 A 
ATOM     78  C   UNL     1      12.790  -3.972   6.116  1.00  0.00     0.131 A 
ATOM     79  C   UNL     1      14.899  -5.426   7.152  1.00  0.00     0.055 A 
ATOM     80  C   UNL     1      13.515  -4.823   5.281  1.00  0.00     0.041 A 
ATOM     81  F   UNL     1      11.787  -3.266   5.569  1.00  0.00    -0.206 F 
ATOM     82  C   UNL     1      14.585  -5.548   5.796  1.00  0.00     0.022 A 
BRANCH  79  83
ATOM     83  S   UNL     1      16.369  -6.248   7.822  1.00  0.00     0.124 S 
ATOM     84  O   UNL     1      17.156  -5.111   8.287  1.00  0.00    -0.237 OA
ATOM     85  O   UNL     1      15.796  -7.100   8.859  1.00  0.00    -0.237 OA
ATOM     86  O   UNL     1      16.918  -6.957   6.668  1.00  0.00    -0.744 OA
ENDBRANCH  79  83
ENDBRANCH  52  76
BRANCH  64  87
ATOM     87  C   UNL     1      14.793   1.724  11.309  1.00  0.00     0.023 A 
ATOM     88  C   UNL     1      15.501   2.379  10.287  1.00  0.00     0.031 A 
ATOM     89  C   UNL     1      15.355   1.718  12.599  1.00  0.00     0.131 A 
ATOM     90  C   UNL     1      16.757   2.944  10.557  1.00  0.00     0.055 A 
ATOM     91  C   UNL     1      16.567   2.350  12.879  1.00  0.00     0.041 A 
ATOM     92  F   UNL     1      14.730   1.100  13.615  1.00  0.00    -0.206 F 
ATOM     93  C   UNL     1      17.283   2.955  11.852  1.00  0.00     0.022 A 
BRANCH  90  94
ATOM     94  S   UNL     1      17.751   3.560   9.171  1.00  0.00     0.124 S 
ATOM     95  O   UNL     1      17.860   2.374   8.327  1.00  0.00    -0.237 OA
ATOM     96  O   UNL     1      16.922   4.640   8.647  1.00  0.00    -0.237 OA
ATOM     97  O   UNL     1      18.997   3.986   9.804  1.00  0.00    -0.744 OA
ENDBRANCH  90  94
ENDBRANCH  64  87
ENDBRANCH  38  39
ENDBRANCH  30  33
ENDBRANCH  28  29
ENDBRANCH  27  28
ENDBRANCH   1  27
TORSDOF 19
