REMARK SMILES COc1ccc([C@@H]2[NH2+][C@H](C(=O)NCCCCCCNC(=O)c3ccc(-c4c5nc(c(-c6cc(S(=O)(=O)[O-])ccc6F)c6ccc([nH]6)c(-c6cc(S(=O)(=O)[O-])ccc6F)c6nc(c(-c7cc(S(=O)(=O)[O-])ccc7F)c7ccc4[nH]7)C=C6)C=C5)cc3)CS2)cc1Cn1nc(C)c(Br)c1C
REMARK SMILES IDX 15 1 14 2 13 3 12 4 10 5 11 6 9 8 7 9 8 10 86 11 85 14 6 15
REMARK SMILES IDX 3 16 4 17 88 18 5 19 87 20 2 21 1 22 89 23 90 24 91 25 96 26
REMARK SMILES IDX 92 27 94 28 97 29 93 30 95 31 16 32 17 33 18 34 19 35 20 36
REMARK SMILES IDX 21 38 22 39 23 40 84 41 24 42 83 43 25 44 26 45 27 46 77 47
REMARK SMILES IDX 28 48 82 49 76 50 78 51 29 52 81 53 75 54 74 55 30 57 62 58
REMARK SMILES IDX 42 59 61 60 43 61 46 62 60 63 79 64 44 65 45 66 59 68 80 69
REMARK SMILES IDX 47 70 31 71 32 72 40 73 33 74 39 75 41 76 38 77 34 78 35 79
REMARK SMILES IDX 36 80 37 81 63 82 64 83 72 84 65 85 71 86 73 87 70 88 66 89
REMARK SMILES IDX 67 90 68 91 69 92 48 93 49 94 57 95 50 96 56 97 58 98 55 99
REMARK SMILES IDX 51 100 52 101 53 102 54 103
REMARK H PARENT 12 7 8 12 8 13 19 37 78 56 46 67
REMARK Flexibility Score: inf
ROOT
ATOM      1  C   UNL     1       3.047  -3.165  -0.259  1.00  0.00     0.002 C 
ENDROOT
BRANCH   1   2
ATOM      2  C   UNL     1       2.914  -3.984  -1.679  1.00  0.00     0.021 C 
BRANCH   2   3
ATOM      3  C   UNL     1       3.227  -3.531  -3.138  1.00  0.00     0.116 C 
BRANCH   3   4
ATOM      4  N   UNL     1       4.152  -4.276  -3.971  1.00  0.00    -0.351 N 
ATOM      5  C   UNL     1       4.463  -4.058  -5.295  1.00  0.00     0.279 C 
ATOM      6  O   UNL     1       5.532  -4.556  -5.683  1.00  0.00    -0.268 OA
ATOM      7  H   UNL     1       4.614  -5.029  -3.537  1.00  0.00     0.163 HD
BRANCH   5   8
ATOM      8  C   UNL     1       3.650  -3.200  -6.326  1.00  0.00     0.283 C 
ATOM      9  C   UNL     1       1.585  -1.887  -6.349  1.00  0.00     0.274 C 
ATOM     10  N   UNL     1       2.172  -3.239  -6.181  1.00  0.00    -0.321 N 
ATOM     11  S   UNL     1       2.801  -0.864  -7.192  1.00  0.00    -0.088 SA
ATOM     12  H   UNL     1       1.783  -3.862  -6.889  1.00  0.00     0.348 HD
ATOM     13  H   UNL     1       1.947  -3.576  -5.245  1.00  0.00     0.348 HD
ATOM     14  C   UNL     1       4.161  -1.775  -6.440  1.00  0.00     0.151 C 
BRANCH   9  15
ATOM     15  C   UNL     1       1.152  -1.430  -4.960  1.00  0.00     0.021 A 
ATOM     16  C   UNL     1       0.927  -1.764  -2.205  1.00  0.00     0.123 A 
ATOM     17  C   UNL     1      -0.107  -2.194  -3.049  1.00  0.00     0.047 A 
ATOM     18  C   UNL     1       2.043  -0.941  -2.707  1.00  0.00     0.016 A 
ATOM     19  C   UNL     1       0.010  -2.034  -4.421  1.00  0.00     0.015 A 
ATOM     20  C   UNL     1       2.035  -0.750  -4.103  1.00  0.00     0.020 A 
BRANCH  16  21
ATOM     21  O   UNL     1       0.820  -2.165  -0.914  1.00  0.00    -0.496 OA
ATOM     22  C   UNL     1       0.193  -3.273  -0.213  1.00  0.00     0.278 C 
ENDBRANCH  16  21
BRANCH  18  23
ATOM     23  C   UNL     1       3.369  -0.264  -2.080  1.00  0.00     0.184 C 
BRANCH  23  24
ATOM     24  N   UNL     1       4.724  -0.948  -1.936  1.00  0.00    -0.264 N 
ATOM     25  N   UNL     1       5.186  -1.240  -0.684  1.00  0.00    -0.177 NA
ATOM     26  C   UNL     1       5.817  -1.085  -2.798  1.00  0.00     0.050 A 
ATOM     27  C   UNL     1       6.190  -2.113  -0.868  1.00  0.00     0.074 A 
ATOM     28  C   UNL     1       6.617  -2.041  -2.196  1.00  0.00     0.061 A 
ATOM     29  C   UNL     1       6.106  -0.334  -4.032  1.00  0.00     0.067 C 
ATOM     30  C   UNL     1       6.697  -2.947   0.263  1.00  0.00     0.070 C 
ATOM     31  Br  UNL     1       8.098  -2.941  -2.909  1.00  0.00    -0.047 Br
ENDBRANCH  23  24
ENDBRANCH  18  23
ENDBRANCH   9  15
ENDBRANCH   5   8
ENDBRANCH   3   4
ENDBRANCH   2   3
ENDBRANCH   1   2
BRANCH   1  32
ATOM     32  C   UNL     1       2.607  -1.780   0.641  1.00  0.00     0.002 C 
BRANCH  32  33
ATOM     33  C   UNL     1       1.617  -0.482   0.755  1.00  0.00     0.021 C 
BRANCH  33  34
ATOM     34  C   UNL     1       0.130  -0.144   0.452  1.00  0.00     0.116 C 
BRANCH  34  35
ATOM     35  N   UNL     1      -0.951  -1.025   0.816  1.00  0.00    -0.352 N 
ATOM     36  C   UNL     1      -1.550  -0.988   2.049  1.00  0.00     0.251 C 
ATOM     37  H   UNL     1      -1.272  -1.679   0.153  1.00  0.00     0.163 HD
ATOM     38  O   UNL     1      -0.943  -0.994   3.115  1.00  0.00    -0.269 OA
BRANCH  36  39
ATOM     39  C   UNL     1      -2.999  -0.660   1.961  1.00  0.00     0.039 A 
ATOM     40  C   UNL     1      -3.444   0.368   2.798  1.00  0.00     0.014 A 
ATOM     41  C   UNL     1      -3.766  -1.067   0.860  1.00  0.00     0.014 A 
ATOM     42  C   UNL     1      -4.590   1.081   2.462  1.00  0.00     0.010 A 
ATOM     43  C   UNL     1      -4.866  -0.307   0.487  1.00  0.00     0.010 A 
ATOM     44  C   UNL     1      -5.263   0.789   1.268  1.00  0.00    -0.014 A 
BRANCH  44  45
ATOM     45  C   UNL     1      -6.382   1.633   0.797  1.00  0.00     0.031 A 
ATOM     46  C   UNL     1      -7.749   1.027   0.705  1.00  0.00     0.074 A 
ATOM     47  C   UNL     1      -6.127   2.885   0.370  1.00  0.00     0.049 A 
ATOM     48  N   UNL     1      -8.848   1.531   0.216  1.00  0.00    -0.248 NA
ATOM     49  C   UNL     1      -7.878  -0.360   1.180  1.00  0.00     0.031 C 
ATOM     50  C   UNL     1      -4.805   3.522   0.362  1.00  0.00     0.029 A 
ATOM     51  N   UNL     1      -6.954   3.844  -0.151  1.00  0.00    -0.354 N 
ATOM     52  C   UNL     1      -9.794   0.516   0.304  1.00  0.00     0.074 A 
ATOM     53  C   UNL     1      -9.116  -0.653   0.816  1.00  0.00     0.031 C 
ATOM     54  C   UNL     1      -4.919   4.774  -0.111  1.00  0.00     0.029 A 
ATOM     55  C   UNL     1      -6.309   5.016  -0.477  1.00  0.00     0.049 A 
ATOM     56  H   UNL     1      -7.920   3.708  -0.280  1.00  0.00     0.167 HD
ATOM     57  C   UNL     1     -11.115   0.575   0.011  1.00  0.00     0.034 A 
ATOM     58  C   UNL     1      -6.797   6.152  -1.014  1.00  0.00     0.034 A 
ATOM     59  C   UNL     1     -11.748   1.774  -0.479  1.00  0.00     0.049 A 
ATOM     60  C   UNL     1      -8.275   6.203  -1.311  1.00  0.00     0.074 A 
ATOM     61  C   UNL     1     -13.082   1.996  -0.761  1.00  0.00     0.029 A 
ATOM     62  N   UNL     1     -11.076   2.960  -0.760  1.00  0.00    -0.354 N 
ATOM     63  N   UNL     1      -9.178   5.258  -1.162  1.00  0.00    -0.248 NA
ATOM     64  C   UNL     1      -8.804   7.468  -1.829  1.00  0.00     0.031 C 
ATOM     65  C   UNL     1     -13.207   3.295  -1.268  1.00  0.00     0.029 A 
ATOM     66  C   UNL     1     -11.963   3.910  -1.234  1.00  0.00     0.049 A 
ATOM     67  H   UNL     1     -10.109   3.103  -0.639  1.00  0.00     0.167 HD
ATOM     68  C   UNL     1     -10.388   5.824  -1.544  1.00  0.00     0.074 A 
ATOM     69  C   UNL     1     -10.099   7.199  -1.908  1.00  0.00     0.031 C 
ATOM     70  C   UNL     1     -11.627   5.269  -1.595  1.00  0.00     0.034 A 
BRANCH  57  71
ATOM     71  C   UNL     1     -11.923  -0.688   0.197  1.00  0.00     0.023 A 
ATOM     72  C   UNL     1     -12.030  -1.317   1.451  1.00  0.00     0.031 A 
ATOM     73  C   UNL     1     -12.542  -1.310  -0.901  1.00  0.00     0.131 A 
ATOM     74  C   UNL     1     -12.649  -2.571   1.559  1.00  0.00     0.055 A 
ATOM     75  C   UNL     1     -13.238  -2.514  -0.769  1.00  0.00     0.041 A 
ATOM     76  F   UNL     1     -12.456  -0.775  -2.129  1.00  0.00    -0.206 F 
ATOM     77  C   UNL     1     -13.279  -3.162   0.462  1.00  0.00     0.022 A 
BRANCH  74  78
ATOM     78  S   UNL     1     -12.475  -3.491   3.113  1.00  0.00     0.124 S 
ATOM     79  O   UNL     1     -11.024  -3.644   3.201  1.00  0.00    -0.237 OA
ATOM     80  O   UNL     1     -13.082  -2.589   4.084  1.00  0.00    -0.237 OA
ATOM     81  O   UNL     1     -13.211  -4.729   2.864  1.00  0.00    -0.744 OA
ENDBRANCH  74  78
ENDBRANCH  57  71
BRANCH  58  82
ATOM     82  C   UNL     1      -5.905   7.318  -1.284  1.00  0.00     0.023 A 
ATOM     83  C   UNL     1      -6.078   8.534  -0.602  1.00  0.00     0.031 A 
ATOM     84  C   UNL     1      -4.876   7.246  -2.240  1.00  0.00     0.131 A 
ATOM     85  C   UNL     1      -5.269   9.639  -0.914  1.00  0.00     0.055 A 
ATOM     86  C   UNL     1      -4.039   8.332  -2.512  1.00  0.00     0.041 A 
ATOM     87  F   UNL     1      -4.657   6.108  -2.918  1.00  0.00    -0.206 F 
ATOM     88  C   UNL     1      -4.242   9.542  -1.855  1.00  0.00     0.022 A 
BRANCH  85  89
ATOM     89  S   UNL     1      -5.631  11.233  -0.128  1.00  0.00     0.124 S 
ATOM     90  O   UNL     1      -7.027  11.438  -0.498  1.00  0.00    -0.237 OA
ATOM     91  O   UNL     1      -5.376  10.940   1.279  1.00  0.00    -0.237 OA
ATOM     92  O   UNL     1      -4.678  12.146  -0.755  1.00  0.00    -0.744 OA
ENDBRANCH  85  89
ENDBRANCH  58  82
BRANCH  70  93
ATOM     93  C   UNL     1     -12.750   6.172  -2.031  1.00  0.00     0.023 A 
ATOM     94  C   UNL     1     -12.825   6.666  -3.344  1.00  0.00     0.031 A 
ATOM     95  C   UNL     1     -13.754   6.543  -1.120  1.00  0.00     0.131 A 
ATOM     96  C   UNL     1     -13.850   7.555  -3.694  1.00  0.00     0.055 A 
ATOM     97  C   UNL     1     -14.809   7.373  -1.493  1.00  0.00     0.041 A 
ATOM     98  F   UNL     1     -13.726   6.097   0.146  1.00  0.00    -0.206 F 
ATOM     99  C   UNL     1     -14.854   7.896  -2.783  1.00  0.00     0.022 A 
BRANCH  96 100
ATOM    100  S   UNL     1     -13.795   8.337  -5.327  1.00  0.00     0.124 S 
ATOM    101  O   UNL     1     -12.509   9.025  -5.290  1.00  0.00    -0.237 OA
ATOM    102  O   UNL     1     -13.877   7.190  -6.226  1.00  0.00    -0.237 OA
ATOM    103  O   UNL     1     -14.967   9.210  -5.328  1.00  0.00    -0.744 OA
ENDBRANCH  96 100
ENDBRANCH  70  93
ENDBRANCH  44  45
ENDBRANCH  36  39
ENDBRANCH  34  35
ENDBRANCH  33  34
ENDBRANCH  32  33
ENDBRANCH   1  32
TORSDOF 20
