REMARK SMILES Cn1cc(/C=C/C(=O)Nc2ccc(C(=O)NCCCCCCNC(=O)c3ccc(-c4c5nc(c(-c6cc(S(=O)(=O)[O-])ccc6F)c6ccc([nH]6)c(-c6cc(S(=O)(=O)[O-])ccc6F)c6nc(c(-c7cc(S(=O)(=O)[O-])ccc7F)c7ccc4[nH]7)C=C6)C=C5)cc3)c(O)c2)cn1
REMARK SMILES IDX 19 1 18 2 17 3 16 4 14 5 15 6 13 8 10 9 11 10 91 11 12 12
REMARK SMILES IDX 89 13 9 14 7 15 8 16 6 18 5 19 4 20 1 21 2 22 3 23 93 24
REMARK SMILES IDX 92 25 90 26 20 28 21 29 22 30 23 31 24 32 25 34 26 35 27 36
REMARK SMILES IDX 88 37 28 38 87 39 29 40 30 41 31 42 81 43 32 44 86 45 80 46
REMARK SMILES IDX 82 47 33 48 85 49 79 50 78 51 34 53 66 54 46 55 65 56 47 57
REMARK SMILES IDX 50 58 64 59 83 60 48 61 49 62 63 64 84 65 51 66 35 67 36 68
REMARK SMILES IDX 44 69 37 70 43 71 45 72 42 73 38 74 39 75 40 76 41 77 67 78
REMARK SMILES IDX 68 79 76 80 69 81 75 82 77 83 74 84 70 85 71 86 72 87 73 88
REMARK SMILES IDX 52 89 53 90 61 91 54 92 60 93 62 94 59 95 55 96 56 97 57 98
REMARK SMILES IDX 58 99
REMARK H PARENT 16 7 9 17 90 27 23 33 82 52 50 63
REMARK Flexibility Score: inf
ROOT
ATOM      1  C   UNL     1      -1.230  -8.238   3.475  1.00  0.00     0.002 C 
ENDROOT
BRANCH   1   2
ATOM      2  C   UNL     1      -0.187  -7.115   3.483  1.00  0.00     0.021 C 
BRANCH   2   3
ATOM      3  C   UNL     1       0.697  -6.993   2.244  1.00  0.00     0.116 C 
BRANCH   3   4
ATOM      4  N   UNL     1      -0.028  -6.777   1.004  1.00  0.00    -0.352 N 
ATOM      5  C   UNL     1       0.353  -6.172  -0.171  1.00  0.00     0.255 C 
ATOM      6  O   UNL     1      -0.473  -6.106  -1.081  1.00  0.00    -0.269 OA
ATOM      7  H   UNL     1      -0.949  -7.122   1.005  1.00  0.00     0.163 HD
BRANCH   5   8
ATOM      8  C   UNL     1       1.677  -5.513  -0.353  1.00  0.00     0.081 A 
ATOM      9  C   UNL     1       3.942  -3.842  -0.447  1.00  0.00     0.045 A 
ATOM     10  C   UNL     1       2.813  -3.536  -1.204  1.00  0.00     0.027 A 
ATOM     11  C   UNL     1       4.013  -5.093   0.165  1.00  0.00     0.073 A 
ATOM     12  C   UNL     1       1.676  -4.343  -1.126  1.00  0.00     0.020 A 
ATOM     13  C   UNL     1       2.897  -5.937   0.176  1.00  0.00     0.130 A 
BRANCH   9  14
ATOM     14  N   UNL     1       5.008  -2.947  -0.246  1.00  0.00    -0.322 N 
ATOM     15  C   UNL     1       5.061  -1.579  -0.284  1.00  0.00     0.248 C 
ATOM     16  O   UNL     1       6.149  -1.005  -0.257  1.00  0.00    -0.270 OA
ATOM     17  H   UNL     1       5.868  -3.380  -0.042  1.00  0.00     0.170 HD
BRANCH  15  18
ATOM     18  C   UNL     1       3.831  -0.749  -0.336  1.00  0.00     0.072 C 
ATOM     19  C   UNL     1       2.735  -0.994   0.403  1.00  0.00     0.017 C 
BRANCH  19  20
ATOM     20  C   UNL     1       1.502  -0.301   0.265  1.00  0.00     0.013 A 
ATOM     21  C   UNL     1      -2.072  -0.033  -0.043  1.00  0.00     0.173 C 
ATOM     22  N   UNL     1      -0.640   0.100   0.064  1.00  0.00    -0.275 N 
ATOM     23  C   UNL     1       0.262  -0.897   0.302  1.00  0.00     0.116 A 
ATOM     24  N   UNL     1      -0.069   1.309  -0.104  1.00  0.00    -0.181 NA
ATOM     25  C   UNL     1       1.239   1.060   0.020  1.00  0.00     0.143 A 
ENDBRANCH  19  20
ENDBRANCH  15  18
ENDBRANCH   9  14
BRANCH  13  26
ATOM     26  O   UNL     1       3.110  -7.179   0.703  1.00  0.00    -0.507 OA
ATOM     27  H   UNL     1       2.407  -7.797   0.743  1.00  0.00     0.293 HD
ENDBRANCH  13  26
ENDBRANCH   5   8
ENDBRANCH   3   4
ENDBRANCH   2   3
ENDBRANCH   1   2
BRANCH   1  28
ATOM     28  C   UNL     1      -0.741  -9.639   3.095  1.00  0.00     0.002 C 
BRANCH  28  29
ATOM     29  C   UNL     1       0.453 -10.187   3.878  1.00  0.00     0.021 C 
BRANCH  29  30
ATOM     30  C   UNL     1       0.330 -10.152   5.398  1.00  0.00     0.116 C 
BRANCH  30  31
ATOM     31  N   UNL     1      -0.809 -10.904   5.892  1.00  0.00    -0.352 N 
ATOM     32  C   UNL     1      -0.864 -11.868   6.869  1.00  0.00     0.251 C 
ATOM     33  H   UNL     1      -1.670 -10.691   5.463  1.00  0.00     0.163 HD
ATOM     34  O   UNL     1      -1.909 -12.495   7.039  1.00  0.00    -0.269 OA
BRANCH  32  35
ATOM     35  C   UNL     1       0.331 -12.175   7.687  1.00  0.00     0.039 A 
ATOM     36  C   UNL     1       0.648 -13.513   7.940  1.00  0.00     0.014 A 
ATOM     37  C   UNL     1       1.137 -11.158   8.206  1.00  0.00     0.014 A 
ATOM     38  C   UNL     1       1.806 -13.830   8.655  1.00  0.00     0.010 A 
ATOM     39  C   UNL     1       2.332 -11.477   8.848  1.00  0.00     0.010 A 
ATOM     40  C   UNL     1       2.679 -12.817   9.082  1.00  0.00    -0.014 A 
BRANCH  40  41
ATOM     41  C   UNL     1       3.956 -13.143   9.772  1.00  0.00     0.031 A 
ATOM     42  C   UNL     1       4.192 -12.694  11.188  1.00  0.00     0.074 A 
ATOM     43  C   UNL     1       4.926 -13.799   9.105  1.00  0.00     0.049 A 
ATOM     44  N   UNL     1       5.253 -12.844  11.941  1.00  0.00    -0.248 NA
ATOM     45  C   UNL     1       3.099 -11.951  11.830  1.00  0.00     0.031 C 
ATOM     46  C   UNL     1       4.832 -14.258   7.718  1.00  0.00     0.029 A 
ATOM     47  N   UNL     1       6.178 -14.196   9.501  1.00  0.00    -0.354 N 
ATOM     48  C   UNL     1       4.958 -12.208  13.143  1.00  0.00     0.074 A 
ATOM     49  C   UNL     1       3.651 -11.605  12.982  1.00  0.00     0.031 C 
ATOM     50  C   UNL     1       5.960 -14.910   7.394  1.00  0.00     0.029 A 
ATOM     51  C   UNL     1       6.878 -14.871   8.528  1.00  0.00     0.049 A 
ATOM     52  H   UNL     1       6.542 -14.014  10.398  1.00  0.00     0.167 HD
ATOM     53  C   UNL     1       5.695 -12.155  14.282  1.00  0.00     0.034 A 
ATOM     54  C   UNL     1       8.119 -15.394   8.543  1.00  0.00     0.034 A 
ATOM     55  C   UNL     1       7.001 -12.756  14.419  1.00  0.00     0.049 A 
ATOM     56  C   UNL     1       8.947 -15.273   9.796  1.00  0.00     0.074 A 
ATOM     57  C   UNL     1       7.817 -12.804  15.536  1.00  0.00     0.029 A 
ATOM     58  N   UNL     1       7.694 -13.399  13.399  1.00  0.00    -0.354 N 
ATOM     59  N   UNL     1       8.637 -14.713  10.943  1.00  0.00    -0.248 NA
ATOM     60  C   UNL     1      10.291 -15.862   9.757  1.00  0.00     0.031 C 
ATOM     61  C   UNL     1       9.031 -13.396  15.171  1.00  0.00     0.029 A 
ATOM     62  C   UNL     1       8.942 -13.806  13.850  1.00  0.00     0.049 A 
ATOM     63  H   UNL     1       7.349 -13.545  12.489  1.00  0.00     0.167 HD
ATOM     64  C   UNL     1       9.737 -14.912  11.773  1.00  0.00     0.074 A 
ATOM     65  C   UNL     1      10.710 -15.654  10.996  1.00  0.00     0.031 C 
ATOM     66  C   UNL     1       9.919 -14.525  13.062  1.00  0.00     0.034 A 
BRANCH  53  67
ATOM     67  C   UNL     1       5.107 -11.386  15.446  1.00  0.00     0.023 A 
ATOM     68  C   UNL     1       3.868 -11.738  16.012  1.00  0.00     0.031 A 
ATOM     69  C   UNL     1       5.757 -10.248  15.956  1.00  0.00     0.131 A 
ATOM     70  C   UNL     1       3.267 -10.901  16.963  1.00  0.00     0.055 A 
ATOM     71  C   UNL     1       5.201  -9.477  16.980  1.00  0.00     0.041 A 
ATOM     72  F   UNL     1       6.933  -9.846  15.448  1.00  0.00    -0.206 F 
ATOM     73  C   UNL     1       3.937  -9.787  17.473  1.00  0.00     0.022 A 
BRANCH  70  74
ATOM     74  S   UNL     1       1.518 -11.172  17.367  1.00  0.00     0.124 S 
ATOM     75  O   UNL     1       0.898 -11.105  16.045  1.00  0.00    -0.237 OA
ATOM     76  O   UNL     1       1.541 -12.487  17.997  1.00  0.00    -0.237 OA
ATOM     77  O   UNL     1       1.194 -10.057  18.254  1.00  0.00    -0.744 OA
ENDBRANCH  70  74
ENDBRANCH  53  67
BRANCH  54  78
ATOM     78  C   UNL     1       8.653 -16.090   7.338  1.00  0.00     0.023 A 
ATOM     79  C   UNL     1       8.928 -17.466   7.364  1.00  0.00     0.031 A 
ATOM     80  C   UNL     1       8.907 -15.389   6.146  1.00  0.00     0.131 A 
ATOM     81  C   UNL     1       9.472 -18.093   6.232  1.00  0.00     0.055 A 
ATOM     82  C   UNL     1       9.400 -16.026   5.006  1.00  0.00     0.041 A 
ATOM     83  F   UNL     1       8.657 -14.072   6.066  1.00  0.00    -0.206 F 
ATOM     84  C   UNL     1       9.694 -17.386   5.048  1.00  0.00     0.022 A 
BRANCH  81  85
ATOM     85  S   UNL     1       9.943 -19.840   6.348  1.00  0.00     0.124 S 
ATOM     86  O   UNL     1      10.944 -19.808   7.408  1.00  0.00    -0.237 OA
ATOM     87  O   UNL     1       8.672 -20.475   6.684  1.00  0.00    -0.237 OA
ATOM     88  O   UNL     1      10.454 -20.143   5.013  1.00  0.00    -0.744 OA
ENDBRANCH  81  85
ENDBRANCH  54  78
BRANCH  66  89
ATOM     89  C   UNL     1      11.213 -14.937  13.726  1.00  0.00     0.023 A 
ATOM     90  C   UNL     1      12.460 -14.454  13.291  1.00  0.00     0.031 A 
ATOM     91  C   UNL     1      11.198 -15.843  14.803  1.00  0.00     0.131 A 
ATOM     92  C   UNL     1      13.641 -14.925  13.886  1.00  0.00     0.055 A 
ATOM     93  C   UNL     1      12.372 -16.253  15.438  1.00  0.00     0.041 A 
ATOM     94  F   UNL     1      10.039 -16.344  15.259  1.00  0.00    -0.206 F 
ATOM     95  C   UNL     1      13.603 -15.805  14.970  1.00  0.00     0.022 A 
BRANCH  92  96
ATOM     96  S   UNL     1      15.233 -14.457  13.153  1.00  0.00     0.124 S 
ATOM     97  O   UNL     1      15.092 -14.946  11.786  1.00  0.00    -0.237 OA
ATOM     98  O   UNL     1      15.238 -13.007  13.315  1.00  0.00    -0.237 OA
ATOM     99  O   UNL     1      16.211 -15.175  13.970  1.00  0.00    -0.744 OA
ENDBRANCH  92  96
ENDBRANCH  66  89
ENDBRANCH  40  41
ENDBRANCH  32  35
ENDBRANCH  30  31
ENDBRANCH  29  30
ENDBRANCH  28  29
ENDBRANCH   1  28
TORSDOF 20
