REMARK SMILES C[C@@H](Sc1ccccc1[N+](=O)[O-])[C@@H](C)C(=O)NCCCCCCNC(=O)c1ccc(-c2c3nc(c(-c4cc(S(=O)(=O)[O-])ccc4F)c4ccc([nH]4)c(-c4cc(S(=O)(=O)[O-])ccc4F)c4nc(c(-c5cc(S(=O)(=O)[O-])ccc5F)c5ccc2[nH]5)C=C4)C=C3)cc1
REMARK SMILES IDX 20 1 19 2 18 3 17 4 15 5 16 6 13 8 14 9 2 10 1 11 3 12 4 13
REMARK SMILES IDX 5 14 9 15 6 16 8 17 7 18 10 19 11 20 12 21 21 22 22 23 23 24
REMARK SMILES IDX 24 25 25 26 26 28 27 29 28 30 89 31 29 32 88 33 30 34 31 35
REMARK SMILES IDX 32 36 82 37 33 38 87 39 81 40 83 41 34 42 86 43 80 44 79 45
REMARK SMILES IDX 35 47 67 48 47 49 66 50 48 51 51 52 65 53 84 54 49 55 50 56
REMARK SMILES IDX 64 58 85 59 52 60 36 61 37 62 45 63 38 64 44 65 46 66 43 67
REMARK SMILES IDX 39 68 40 69 41 70 42 71 68 72 69 73 77 74 70 75 76 76 78 77
REMARK SMILES IDX 75 78 71 79 72 80 73 81 74 82 53 83 54 84 62 85 55 86 61 87
REMARK SMILES IDX 63 88 60 89 56 90 57 91 58 92 59 93
REMARK H PARENT 17 7 24 27 83 46 51 57
REMARK Flexibility Score: inf
ROOT
ATOM      1  C   UNL     1       0.445   4.900   3.992  1.00  0.00     0.002 C 
ENDROOT
BRANCH   1   2
ATOM      2  C   UNL     1       0.838   3.558   3.363  1.00  0.00     0.021 C 
BRANCH   2   3
ATOM      3  C   UNL     1      -0.343   2.639   3.058  1.00  0.00     0.116 C 
BRANCH   3   4
ATOM      4  N   UNL     1      -1.158   3.168   1.980  1.00  0.00    -0.356 N 
ATOM      5  C   UNL     1      -1.452   2.687   0.744  1.00  0.00     0.223 C 
ATOM      6  O   UNL     1      -2.197   3.364   0.029  1.00  0.00    -0.275 OA
ATOM      7  H   UNL     1      -1.575   4.037   2.182  1.00  0.00     0.163 HD
BRANCH   5   8
ATOM      8  C   UNL     1      -0.980   1.315   0.274  1.00  0.00     0.088 C 
ATOM      9  C   UNL     1      -1.694   0.244   1.114  1.00  0.00     0.019 C 
BRANCH   8  10
ATOM     10  C   UNL     1       0.564   1.182   0.166  1.00  0.00     0.061 C 
ATOM     11  C   UNL     1       1.004  -0.283   0.104  1.00  0.00     0.020 C 
BRANCH  10  12
ATOM     12  S   UNL     1       1.167   2.083  -1.355  1.00  0.00    -0.115 SA
BRANCH  12  13
ATOM     13  C   UNL     1       2.876   2.431  -0.931  1.00  0.00     0.085 A 
ATOM     14  C   UNL     1       3.785   1.363  -1.001  1.00  0.00     0.022 A 
ATOM     15  C   UNL     1       3.406   3.699  -0.639  1.00  0.00     0.282 A 
ATOM     16  C   UNL     1       5.143   1.531  -0.709  1.00  0.00     0.002 A 
ATOM     17  C   UNL     1       4.776   3.882  -0.364  1.00  0.00     0.087 A 
ATOM     18  C   UNL     1       5.638   2.789  -0.385  1.00  0.00     0.007 A 
BRANCH  15  19
ATOM     19  N   UNL     1       2.580   4.897  -0.640  1.00  0.00     0.063 N 
ATOM     20  O   UNL     1       3.006   5.869  -1.283  1.00  0.00    -0.258 OA
ATOM     21  O   UNL     1       1.556   4.896   0.054  1.00  0.00    -0.258 OA
ENDBRANCH  15  19
ENDBRANCH  12  13
ENDBRANCH  10  12
ENDBRANCH   8  10
ENDBRANCH   5   8
ENDBRANCH   3   4
ENDBRANCH   2   3
ENDBRANCH   1   2
BRANCH   1  22
ATOM     22  C   UNL     1      -0.320   4.797   5.316  1.00  0.00     0.002 C 
BRANCH  22  23
ATOM     23  C   UNL     1       0.367   3.967   6.405  1.00  0.00     0.021 C 
BRANCH  23  24
ATOM     24  C   UNL     1       1.771   4.430   6.785  1.00  0.00     0.116 C 
BRANCH  24  25
ATOM     25  N   UNL     1       1.780   5.787   7.303  1.00  0.00    -0.352 N 
ATOM     26  C   UNL     1       2.327   6.282   8.458  1.00  0.00     0.251 C 
ATOM     27  H   UNL     1       1.325   6.453   6.738  1.00  0.00     0.163 HD
ATOM     28  O   UNL     1       2.055   7.434   8.805  1.00  0.00    -0.269 OA
BRANCH  26  29
ATOM     29  C   UNL     1       3.213   5.446   9.298  1.00  0.00     0.039 A 
ATOM     30  C   UNL     1       3.070   5.508  10.687  1.00  0.00     0.014 A 
ATOM     31  C   UNL     1       4.201   4.631   8.736  1.00  0.00     0.014 A 
ATOM     32  C   UNL     1       3.876   4.714  11.506  1.00  0.00     0.010 A 
ATOM     33  C   UNL     1       4.960   3.790   9.551  1.00  0.00     0.010 A 
ATOM     34  C   UNL     1       4.807   3.824  10.945  1.00  0.00    -0.014 A 
BRANCH  34  35
ATOM     35  C   UNL     1       5.605   2.920  11.815  1.00  0.00     0.031 A 
ATOM     36  C   UNL     1       7.100   3.065  11.909  1.00  0.00     0.074 A 
ATOM     37  C   UNL     1       4.977   1.941  12.497  1.00  0.00     0.049 A 
ATOM     38  N   UNL     1       7.955   2.371  12.617  1.00  0.00    -0.248 NA
ATOM     39  C   UNL     1       7.716   4.109  11.078  1.00  0.00     0.031 C 
ATOM     40  C   UNL     1       3.539   1.665  12.442  1.00  0.00     0.029 A 
ATOM     41  N   UNL     1       5.460   0.999  13.369  1.00  0.00    -0.354 N 
ATOM     42  C   UNL     1       9.210   2.889  12.315  1.00  0.00     0.074 A 
ATOM     43  C   UNL     1       9.006   3.914  11.312  1.00  0.00     0.031 C 
ATOM     44  C   UNL     1       3.254   0.647  13.269  1.00  0.00     0.029 A 
ATOM     45  C   UNL     1       4.489   0.172  13.885  1.00  0.00     0.049 A 
ATOM     46  H   UNL     1       6.413   0.922  13.605  1.00  0.00     0.167 HD
ATOM     47  C   UNL     1      10.416   2.557  12.841  1.00  0.00     0.034 A 
ATOM     48  C   UNL     1       4.581  -0.853  14.754  1.00  0.00     0.034 A 
ATOM     49  C   UNL     1      10.601   1.537  13.847  1.00  0.00     0.049 A 
ATOM     50  C   UNL     1       5.930  -1.199  15.328  1.00  0.00     0.074 A 
ATOM     51  C   UNL     1      11.767   1.161  14.492  1.00  0.00     0.029 A 
ATOM     52  N   UNL     1       9.594   0.721  14.349  1.00  0.00    -0.354 N 
ATOM     53  N   UNL     1       7.099  -0.653  15.082  1.00  0.00    -0.248 NA
ATOM     54  C   UNL     1       5.967  -2.288  16.312  1.00  0.00     0.031 C 
ATOM     55  C   UNL     1      11.479   0.078  15.330  1.00  0.00     0.029 A 
ATOM     56  C   UNL     1      10.119  -0.176  15.269  1.00  0.00     0.049 A 
ATOM     57  H   UNL     1       8.646   0.772  14.090  1.00  0.00     0.167 HD
ATOM     58  C   UNL     1       8.007  -1.320  15.898  1.00  0.00     0.074 A 
ATOM     59  C   UNL     1       7.244  -2.285  16.664  1.00  0.00     0.031 C 
ATOM     60  C   UNL     1       9.351  -1.154  16.006  1.00  0.00     0.034 A 
BRANCH  47  61
ATOM     61  C   UNL     1      11.630   3.289  12.316  1.00  0.00     0.023 A 
ATOM     62  C   UNL     1      11.785   4.678  12.478  1.00  0.00     0.031 A 
ATOM     63  C   UNL     1      12.640   2.593  11.628  1.00  0.00     0.131 A 
ATOM     64  C   UNL     1      12.880   5.335  11.896  1.00  0.00     0.055 A 
ATOM     65  C   UNL     1      13.769   3.242  11.121  1.00  0.00     0.041 A 
ATOM     66  F   UNL     1      12.541   1.270  11.423  1.00  0.00    -0.206 F 
ATOM     67  C   UNL     1      13.886   4.623  11.240  1.00  0.00     0.022 A 
BRANCH  64  68
ATOM     68  S   UNL     1      12.896   7.149  11.885  1.00  0.00     0.124 S 
ATOM     69  O   UNL     1      11.661   7.450  11.165  1.00  0.00    -0.237 OA
ATOM     70  O   UNL     1      12.904   7.473  13.307  1.00  0.00    -0.237 OA
ATOM     71  O   UNL     1      14.124   7.476  11.163  1.00  0.00    -0.744 OA
ENDBRANCH  64  68
ENDBRANCH  47  61
BRANCH  48  72
ATOM     72  C   UNL     1       3.367  -1.629  15.138  1.00  0.00     0.023 A 
ATOM     73  C   UNL     1       2.887  -1.619  16.458  1.00  0.00     0.031 A 
ATOM     74  C   UNL     1       2.691  -2.425  14.197  1.00  0.00     0.131 A 
ATOM     75  C   UNL     1       1.797  -2.429  16.811  1.00  0.00     0.055 A 
ATOM     76  C   UNL     1       1.574  -3.188  14.541  1.00  0.00     0.041 A 
ATOM     77  F   UNL     1       3.104  -2.463  12.919  1.00  0.00    -0.206 F 
ATOM     78  C   UNL     1       1.130  -3.203  15.859  1.00  0.00     0.022 A 
BRANCH  75  79
ATOM     79  S   UNL     1       1.314  -2.521  18.557  1.00  0.00     0.124 S 
ATOM     80  O   UNL     1       2.548  -2.979  19.184  1.00  0.00    -0.237 OA
ATOM     81  O   UNL     1       0.925  -1.143  18.836  1.00  0.00    -0.237 OA
ATOM     82  O   UNL     1       0.217  -3.487  18.556  1.00  0.00    -0.744 OA
ENDBRANCH  75  79
ENDBRANCH  48  72
BRANCH  60  83
ATOM     83  C   UNL     1      10.063  -2.030  17.010  1.00  0.00     0.023 A 
ATOM     84  C   UNL     1      10.119  -3.427  16.858  1.00  0.00     0.031 A 
ATOM     85  C   UNL     1      10.650  -1.467  18.157  1.00  0.00     0.131 A 
ATOM     86  C   UNL     1      10.675  -4.220  17.873  1.00  0.00     0.055 A 
ATOM     87  C   UNL     1      11.264  -2.256  19.131  1.00  0.00     0.041 A 
ATOM     88  F   UNL     1      10.626  -0.139  18.356  1.00  0.00    -0.206 F 
ATOM     89  C   UNL     1      11.262  -3.642  19.002  1.00  0.00     0.022 A 
BRANCH  86  90
ATOM     90  S   UNL     1      10.505  -6.022  17.759  1.00  0.00     0.124 S 
ATOM     91  O   UNL     1       9.059  -6.184  17.639  1.00  0.00    -0.237 OA
ATOM     92  O   UNL     1      11.283  -6.333  16.564  1.00  0.00    -0.237 OA
ATOM     93  O   UNL     1      11.080  -6.501  19.015  1.00  0.00    -0.744 OA
ENDBRANCH  86  90
ENDBRANCH  60  83
ENDBRANCH  34  35
ENDBRANCH  26  29
ENDBRANCH  24  25
ENDBRANCH  23  24
ENDBRANCH  22  23
ENDBRANCH   1  22
TORSDOF 20
