REMARK SMILES CC(C)(C)c1cc2c(cc1Cl)C=C(C(=O)NCCCCCCNC(=O)c1ccc(-c3c4nc(c(-c5cc(S(=O)(=O)[O-])ccc5F)c5ccc([nH]5)c(-c5cc(S(=O)(=O)[O-])ccc5F)c5nc(c(-c6cc(S(=O)(=O)[O-])ccc6F)c6ccc3[nH]6)C=C5)C=C4)cc1)[C@@H](C(F)(F)F)O2
REMARK SMILES IDX 20 1 19 2 18 3 17 4 16 5 14 6 15 7 13 9 5 10 6 11 10 12 7 13
REMARK SMILES IDX 9 14 11 15 8 16 94 17 12 18 89 19 2 20 1 21 3 22 4 23 90 24
REMARK SMILES IDX 91 25 92 26 93 27 21 28 22 29 23 30 24 31 25 33 26 34 27 35
REMARK SMILES IDX 88 36 28 37 87 38 29 39 30 40 31 41 81 42 32 43 86 44 80 45
REMARK SMILES IDX 82 46 33 47 85 48 79 49 78 50 34 52 66 53 46 54 65 55 47 56
REMARK SMILES IDX 50 57 64 58 83 59 48 60 49 61 63 63 84 64 51 65 35 66 36 67
REMARK SMILES IDX 44 68 37 69 43 70 45 71 42 72 38 73 39 74 40 75 41 76 67 77
REMARK SMILES IDX 68 78 76 79 69 80 75 81 77 82 74 83 70 84 71 85 72 86 73 87
REMARK SMILES IDX 52 88 53 89 61 90 54 91 60 92 62 93 59 94 55 95 56 96 57 97
REMARK SMILES IDX 58 98
REMARK H PARENT 16 8 23 32 82 51 50 62
REMARK Flexibility Score: inf
ROOT
ATOM      1  C   UNL     1       2.946   8.298  10.221  1.00  0.00     0.002 C 
ENDROOT
BRANCH   1   2
ATOM      2  C   UNL     1       1.804   7.272  10.192  1.00  0.00     0.002 C 
BRANCH   2   3
ATOM      3  C   UNL     1       1.365   6.803   8.800  1.00  0.00     0.021 C 
BRANCH   3   4
ATOM      4  C   UNL     1       2.488   6.207   7.956  1.00  0.00     0.116 C 
BRANCH   4   5
ATOM      5  N   UNL     1       2.733   4.814   8.290  1.00  0.00    -0.352 N 
ATOM      6  C   UNL     1       2.675   3.616   7.665  1.00  0.00     0.251 C 
ATOM      7  O   UNL     1       2.999   2.648   8.363  1.00  0.00    -0.270 OA
ATOM      8  H   UNL     1       3.021   4.716   9.227  1.00  0.00     0.163 HD
BRANCH   6   9
ATOM      9  C   UNL     1       2.259   3.392   6.247  1.00  0.00     0.067 C 
ATOM     10  C   UNL     1       0.895   1.236   1.828  1.00  0.00    -0.020 A 
ATOM     11  C   UNL     1       0.906   2.543   2.373  1.00  0.00     0.053 A 
ATOM     12  C   UNL     1       1.283   0.205   2.713  1.00  0.00     0.045 A 
ATOM     13  C   UNL     1       1.330   2.815   3.674  1.00  0.00     0.128 A 
ATOM     14  C   UNL     1       1.704   0.489   4.030  1.00  0.00     0.032 A 
ATOM     15  Cl  UNL     1       1.233  -1.484   2.349  1.00  0.00    -0.084 Cl
ATOM     16  C   UNL     1       1.733   1.794   4.514  1.00  0.00     0.019 A 
ATOM     17  O   UNL     1       1.265   4.117   4.069  1.00  0.00    -0.475 OA
ATOM     18  C   UNL     1       2.112   2.103   5.886  1.00  0.00     0.025 C 
ATOM     19  C   UNL     1       2.052   4.486   5.235  1.00  0.00     0.314 C 
BRANCH  10  20
ATOM     20  C   UNL     1       0.396   1.085   0.368  1.00  0.00    -0.012 C 
ATOM     21  C   UNL     1       0.828  -0.194  -0.381  1.00  0.00     0.016 C 
ATOM     22  C   UNL     1       0.902   2.253  -0.527  1.00  0.00     0.016 C 
ATOM     23  C   UNL     1      -1.147   1.126   0.393  1.00  0.00     0.016 C 
ENDBRANCH  10  20
BRANCH  19  24
ATOM     24  C   UNL     1       3.376   5.115   4.765  1.00  0.00     0.429 C 
ATOM     25  F   UNL     1       3.144   6.257   4.075  1.00  0.00    -0.167 F 
ATOM     26  F   UNL     1       4.186   5.446   5.798  1.00  0.00    -0.167 F 
ATOM     27  F   UNL     1       4.082   4.287   3.961  1.00  0.00    -0.167 F 
ENDBRANCH  19  24
ENDBRANCH   6   9
ENDBRANCH   4   5
ENDBRANCH   3   4
ENDBRANCH   2   3
ENDBRANCH   1   2
BRANCH   1  28
ATOM     28  C   UNL     1       2.799   9.484   9.265  1.00  0.00     0.021 C 
BRANCH  28  29
ATOM     29  C   UNL     1       1.526  10.302   9.445  1.00  0.00     0.116 C 
BRANCH  29  30
ATOM     30  N   UNL     1       1.482  10.992  10.723  1.00  0.00    -0.352 N 
ATOM     31  C   UNL     1       1.300  12.333  10.970  1.00  0.00     0.251 C 
ATOM     32  H   UNL     1       1.598  10.425  11.519  1.00  0.00     0.163 HD
ATOM     33  O   UNL     1       1.437  12.780  12.104  1.00  0.00    -0.269 OA
BRANCH  31  34
ATOM     34  C   UNL     1       0.979  13.231   9.840  1.00  0.00     0.039 A 
ATOM     35  C   UNL     1      -0.053  12.907   8.955  1.00  0.00     0.014 A 
ATOM     36  C   UNL     1       1.763  14.368   9.630  1.00  0.00     0.014 A 
ATOM     37  C   UNL     1      -0.193  13.627   7.774  1.00  0.00     0.010 A 
ATOM     38  C   UNL     1       1.569  15.133   8.477  1.00  0.00     0.010 A 
ATOM     39  C   UNL     1       0.625  14.739   7.515  1.00  0.00    -0.014 A 
BRANCH  39  40
ATOM     40  C   UNL     1       0.489  15.473   6.230  1.00  0.00     0.031 A 
ATOM     41  C   UNL     1       1.606  15.467   5.223  1.00  0.00     0.074 A 
ATOM     42  C   UNL     1      -0.665  16.113   5.958  1.00  0.00     0.049 A 
ATOM     43  N   UNL     1       1.665  16.057   4.057  1.00  0.00    -0.248 NA
ATOM     44  C   UNL     1       2.814  14.698   5.565  1.00  0.00     0.031 C 
ATOM     45  C   UNL     1      -1.820  16.164   6.854  1.00  0.00     0.029 A 
ATOM     46  N   UNL     1      -1.065  16.824   4.855  1.00  0.00    -0.354 N 
ATOM     47  C   UNL     1       2.917  15.748   3.534  1.00  0.00     0.074 A 
ATOM     48  C   UNL     1       3.598  14.941   4.522  1.00  0.00     0.031 C 
ATOM     49  C   UNL     1      -2.813  16.829   6.249  1.00  0.00     0.029 A 
ATOM     50  C   UNL     1      -2.346  17.317   4.954  1.00  0.00     0.049 A 
ATOM     51  H   UNL     1      -0.491  16.968   4.068  1.00  0.00     0.167 HD
ATOM     52  C   UNL     1       3.440  16.097   2.334  1.00  0.00     0.034 A 
ATOM     53  C   UNL     1      -3.060  18.089   4.109  1.00  0.00     0.034 A 
ATOM     54  C   UNL     1       2.740  16.886   1.354  1.00  0.00     0.049 A 
ATOM     55  C   UNL     1      -2.439  18.499   2.800  1.00  0.00     0.074 A 
ATOM     56  C   UNL     1       3.180  17.278   0.102  1.00  0.00     0.029 A 
ATOM     57  N   UNL     1       1.458  17.396   1.504  1.00  0.00    -0.354 N 
ATOM     58  N   UNL     1      -1.264  18.177   2.312  1.00  0.00    -0.248 NA
ATOM     59  C   UNL     1      -3.231  19.375   1.927  1.00  0.00     0.031 C 
ATOM     60  C   UNL     1       2.188  18.067  -0.482  1.00  0.00     0.029 A 
ATOM     61  C   UNL     1       1.101  18.117   0.377  1.00  0.00     0.049 A 
ATOM     62  H   UNL     1       0.887  17.265   2.296  1.00  0.00     0.167 HD
ATOM     63  C   UNL     1      -1.183  18.796   1.068  1.00  0.00     0.074 A 
ATOM     64  C   UNL     1      -2.437  19.492   0.869  1.00  0.00     0.031 C 
ATOM     65  C   UNL     1      -0.159  18.791   0.178  1.00  0.00     0.034 A 
BRANCH  52  66
ATOM     66  C   UNL     1       4.831  15.629   1.987  1.00  0.00     0.023 A 
ATOM     67  C   UNL     1       5.864  16.567   1.800  1.00  0.00     0.031 A 
ATOM     68  C   UNL     1       5.102  14.277   1.713  1.00  0.00     0.131 A 
ATOM     69  C   UNL     1       7.110  16.145   1.320  1.00  0.00     0.055 A 
ATOM     70  C   UNL     1       6.356  13.856   1.268  1.00  0.00     0.041 A 
ATOM     71  F   UNL     1       4.150  13.344   1.878  1.00  0.00    -0.206 F 
ATOM     72  C   UNL     1       7.363  14.794   1.058  1.00  0.00     0.022 A 
BRANCH  69  73
ATOM     73  S   UNL     1       8.432  17.334   0.962  1.00  0.00     0.124 S 
ATOM     74  O   UNL     1       9.499  16.871   1.847  1.00  0.00    -0.237 OA
ATOM     75  O   UNL     1       8.664  17.113  -0.463  1.00  0.00    -0.237 OA
ATOM     76  O   UNL     1       7.849  18.624   1.314  1.00  0.00    -0.744 OA
ENDBRANCH  69  73
ENDBRANCH  52  66
BRANCH  53  77
ATOM     77  C   UNL     1      -4.453  18.473   4.484  1.00  0.00     0.023 A 
ATOM     78  C   UNL     1      -4.707  19.224   5.646  1.00  0.00     0.031 A 
ATOM     79  C   UNL     1      -5.552  17.987   3.757  1.00  0.00     0.131 A 
ATOM     80  C   UNL     1      -6.024  19.396   6.092  1.00  0.00     0.055 A 
ATOM     81  C   UNL     1      -6.866  18.225   4.165  1.00  0.00     0.041 A 
ATOM     82  F   UNL     1      -5.360  17.256   2.648  1.00  0.00    -0.206 F 
ATOM     83  C   UNL     1      -7.106  18.914   5.350  1.00  0.00     0.022 A 
BRANCH  80  84
ATOM     84  S   UNL     1      -6.365  20.111   7.725  1.00  0.00     0.124 S 
ATOM     85  O   UNL     1      -7.127  21.306   7.379  1.00  0.00    -0.237 OA
ATOM     86  O   UNL     1      -7.125  19.040   8.367  1.00  0.00    -0.237 OA
ATOM     87  O   UNL     1      -5.037  20.346   8.281  1.00  0.00    -0.744 OA
ENDBRANCH  80  84
ENDBRANCH  53  77
BRANCH  65  88
ATOM     88  C   UNL     1      -0.322  19.551  -1.114  1.00  0.00     0.023 A 
ATOM     89  C   UNL     1      -0.320  18.858  -2.340  1.00  0.00     0.031 A 
ATOM     90  C   UNL     1      -0.306  20.955  -1.141  1.00  0.00     0.131 A 
ATOM     91  C   UNL     1      -0.255  19.572  -3.542  1.00  0.00     0.055 A 
ATOM     92  C   UNL     1      -0.286  21.663  -2.344  1.00  0.00     0.041 A 
ATOM     93  F   UNL     1      -0.298  21.658   0.003  1.00  0.00    -0.206 F 
ATOM     94  C   UNL     1      -0.244  20.971  -3.551  1.00  0.00     0.022 A 
BRANCH  91  95
ATOM     95  S   UNL     1      -0.092  18.714  -5.133  1.00  0.00     0.124 S 
ATOM     96  O   UNL     1      -1.277  19.180  -5.850  1.00  0.00    -0.237 OA
ATOM     97  O   UNL     1       1.181  19.228  -5.630  1.00  0.00    -0.237 OA
ATOM     98  O   UNL     1      -0.101  17.300  -4.773  1.00  0.00    -0.744 OA
ENDBRANCH  91  95
ENDBRANCH  65  88
ENDBRANCH  39  40
ENDBRANCH  31  34
ENDBRANCH  29  30
ENDBRANCH  28  29
ENDBRANCH   1  28
TORSDOF 18
