REMARK SMILES COc1ccc(CCc2nnc(NC(=O)[C@@H]3[C@@H](C(=O)NCCCCCCNC(=O)c4ccc(-c5c6nc(c(-c7cc(S(=O)(=O)[O-])ccc7F)c7ccc([nH]7)c(-c7cc(S(=O)(=O)[O-])ccc7F)c7nc(c(-c8cc(S(=O)(=O)[O-])ccc8F)c8ccc5[nH]8)C=C7)C=C6)cc4)C3(C)C)s2)cc1
REMARK SMILES IDX 22 1 21 2 20 3 18 4 19 5 17 7 16 8 93 9 94 10 95 11 14 12
REMARK SMILES IDX 13 13 15 15 12 16 9 17 10 18 96 19 11 20 8 21 7 22 6 23 3 24
REMARK SMILES IDX 4 25 98 26 5 27 97 28 2 29 1 30 23 31 24 32 25 33 26 34
REMARK SMILES IDX 27 35 28 36 29 38 30 39 31 40 92 41 32 42 91 43 33 44 34 45
REMARK SMILES IDX 35 46 85 47 36 48 90 49 84 50 86 51 37 52 89 53 83 54 82 55
REMARK SMILES IDX 38 57 70 58 50 59 69 60 51 61 54 62 68 63 87 64 52 65 53 66
REMARK SMILES IDX 67 68 88 69 55 70 39 71 40 72 48 73 41 74 47 75 49 76 46 77
REMARK SMILES IDX 42 78 43 79 44 80 45 81 71 82 72 83 80 84 73 85 79 86 81 87
REMARK SMILES IDX 78 88 74 89 75 90 76 91 77 92 56 93 57 94 65 95 58 96 64 97
REMARK SMILES IDX 66 98 63 99 59 100 60 101 61 102 62 103
REMARK H PARENT 20 6 13 14 27 37 86 56 54 67
REMARK Flexibility Score: inf
ROOT
ATOM      1  C   UNL     1      -4.402   2.858  -3.379  1.00  0.00     0.021 C 
ENDROOT
BRANCH   1   2
ATOM      2  C   UNL     1      -4.040   2.880  -4.862  1.00  0.00     0.116 C 
BRANCH   2   3
ATOM      3  N   UNL     1      -2.647   2.535  -5.056  1.00  0.00    -0.356 N 
ATOM      4  C   UNL     1      -1.999   1.562  -5.755  1.00  0.00     0.224 C 
ATOM      5  O   UNL     1      -0.780   1.487  -5.590  1.00  0.00    -0.275 OA
ATOM      6  H   UNL     1      -2.033   3.137  -4.577  1.00  0.00     0.163 HD
BRANCH   4   7
ATOM      7  C   UNL     1      -2.606   0.618  -6.726  1.00  0.00     0.098 C 
ATOM      8  C   UNL     1      -3.950   0.684  -7.392  1.00  0.00     0.098 C 
ATOM      9  C   UNL     1      -3.637  -0.460  -6.412  1.00  0.00    -0.011 C 
ATOM     10  C   UNL     1      -4.409  -0.458  -5.109  1.00  0.00     0.013 C 
ATOM     11  C   UNL     1      -3.362  -1.854  -6.922  1.00  0.00     0.013 C 
BRANCH   8  12
ATOM     12  C   UNL     1      -4.002   0.572  -8.882  1.00  0.00     0.230 C 
ATOM     13  N   UNL     1      -4.433   1.642  -9.630  1.00  0.00    -0.300 N 
ATOM     14  H   UNL     1      -4.621   1.481 -10.583  1.00  0.00     0.172 HD
ATOM     15  O   UNL     1      -3.714  -0.479  -9.452  1.00  0.00    -0.274 OA
BRANCH  13  16
ATOM     16  C   UNL     1      -4.623   2.910  -9.159  1.00  0.00     0.212 A 
ATOM     17  C   UNL     1      -5.456   5.106  -8.880  1.00  0.00     0.119 A 
ATOM     18  N   UNL     1      -4.747   4.703  -7.845  1.00  0.00    -0.142 NA
ATOM     19  S   UNL     1      -5.453   3.986 -10.195  1.00  0.00    -0.080 S 
ATOM     20  N   UNL     1      -4.273   3.423  -8.008  1.00  0.00    -0.120 NA
BRANCH  17  21
ATOM     21  C   UNL     1      -6.214   6.395  -8.916  1.00  0.00     0.074 C 
BRANCH  21  22
ATOM     22  C   UNL     1      -7.736   6.236  -8.778  1.00  0.00     0.043 C 
BRANCH  22  23
ATOM     23  C   UNL     1      -8.227   5.606  -7.492  1.00  0.00    -0.047 A 
ATOM     24  C   UNL     1      -9.234   4.403  -5.163  1.00  0.00     0.118 A 
ATOM     25  C   UNL     1      -8.600   3.627  -6.124  1.00  0.00     0.046 A 
ATOM     26  C   UNL     1      -9.343   5.782  -5.336  1.00  0.00     0.046 A 
ATOM     27  C   UNL     1      -8.123   4.221  -7.291  1.00  0.00     0.007 A 
ATOM     28  C   UNL     1      -8.840   6.381  -6.497  1.00  0.00     0.007 A 
BRANCH  24  29
ATOM     29  O   UNL     1      -9.679   3.759  -4.042  1.00  0.00    -0.497 OA
ATOM     30  C   UNL     1     -11.093   3.905  -3.889  1.00  0.00     0.278 C 
ENDBRANCH  24  29
ENDBRANCH  22  23
ENDBRANCH  21  22
ENDBRANCH  17  21
ENDBRANCH  13  16
ENDBRANCH   8  12
ENDBRANCH   4   7
ENDBRANCH   2   3
ENDBRANCH   1   2
BRANCH   1  31
ATOM     31  C   UNL     1      -3.938   4.093  -2.602  1.00  0.00     0.002 C 
BRANCH  31  32
ATOM     32  C   UNL     1      -4.495   5.426  -3.111  1.00  0.00     0.002 C 
BRANCH  32  33
ATOM     33  C   UNL     1      -6.014   5.470  -3.298  1.00  0.00     0.021 C 
BRANCH  33  34
ATOM     34  C   UNL     1      -6.821   5.121  -2.052  1.00  0.00     0.116 C 
BRANCH  34  35
ATOM     35  N   UNL     1      -6.556   6.045  -0.961  1.00  0.00    -0.352 N 
ATOM     36  C   UNL     1      -7.428   6.846  -0.268  1.00  0.00     0.251 C 
ATOM     37  H   UNL     1      -5.614   6.104  -0.678  1.00  0.00     0.163 HD
ATOM     38  O   UNL     1      -6.994   7.738   0.455  1.00  0.00    -0.269 OA
BRANCH  36  39
ATOM     39  C   UNL     1      -8.887   6.643  -0.407  1.00  0.00     0.039 A 
ATOM     40  C   UNL     1      -9.717   7.759  -0.541  1.00  0.00     0.014 A 
ATOM     41  C   UNL     1      -9.438   5.360  -0.386  1.00  0.00     0.014 A 
ATOM     42  C   UNL     1     -11.093   7.585  -0.712  1.00  0.00     0.010 A 
ATOM     43  C   UNL     1     -10.798   5.187  -0.627  1.00  0.00     0.010 A 
ATOM     44  C   UNL     1     -11.643   6.296  -0.796  1.00  0.00    -0.014 A 
BRANCH  44  45
ATOM     45  C   UNL     1     -13.093   6.085  -1.069  1.00  0.00     0.031 A 
ATOM     46  C   UNL     1     -13.949   5.344  -0.077  1.00  0.00     0.074 A 
ATOM     47  C   UNL     1     -13.621   6.484  -2.244  1.00  0.00     0.049 A 
ATOM     48  N   UNL     1     -15.203   4.980  -0.174  1.00  0.00    -0.248 NA
ATOM     49  C   UNL     1     -13.299   4.935   1.176  1.00  0.00     0.031 C 
ATOM     50  C   UNL     1     -12.893   7.181  -3.308  1.00  0.00     0.029 A 
ATOM     51  N   UNL     1     -14.887   6.338  -2.757  1.00  0.00    -0.354 N 
ATOM     52  C   UNL     1     -15.492   4.304   1.007  1.00  0.00     0.074 A 
ATOM     53  C   UNL     1     -14.256   4.229   1.757  1.00  0.00     0.031 C 
ATOM     54  C   UNL     1     -13.717   7.389  -4.346  1.00  0.00     0.029 A 
ATOM     55  C   UNL     1     -15.026   6.823  -4.037  1.00  0.00     0.049 A 
ATOM     56  H   UNL     1     -15.626   5.924  -2.255  1.00  0.00     0.167 HD
ATOM     57  C   UNL     1     -16.684   3.824   1.445  1.00  0.00     0.034 A 
ATOM     58  C   UNL     1     -16.079   6.804  -4.877  1.00  0.00     0.034 A 
ATOM     59  C   UNL     1     -17.907   3.902   0.682  1.00  0.00     0.049 A 
ATOM     60  C   UNL     1     -17.382   6.218  -4.401  1.00  0.00     0.074 A 
ATOM     61  C   UNL     1     -19.179   3.497   1.047  1.00  0.00     0.029 A 
ATOM     62  N   UNL     1     -18.009   4.404  -0.610  1.00  0.00    -0.354 N 
ATOM     63  N   UNL     1     -17.657   5.642  -3.253  1.00  0.00    -0.248 NA
ATOM     64  C   UNL     1     -18.522   6.302  -5.322  1.00  0.00     0.031 C 
ATOM     65  C   UNL     1     -20.030   3.679  -0.049  1.00  0.00     0.029 A 
ATOM     66  C   UNL     1     -19.313   4.282  -1.069  1.00  0.00     0.049 A 
ATOM     67  H   UNL     1     -17.265   4.791  -1.125  1.00  0.00     0.167 HD
ATOM     68  C   UNL     1     -19.012   5.327  -3.301  1.00  0.00     0.074 A 
ATOM     69  C   UNL     1     -19.497   5.786  -4.588  1.00  0.00     0.031 C 
ATOM     70  C   UNL     1     -19.786   4.725  -2.362  1.00  0.00     0.034 A 
BRANCH  57  71
ATOM     71  C   UNL     1     -16.704   3.159   2.803  1.00  0.00     0.023 A 
ATOM     72  C   UNL     1     -16.325   3.853   3.967  1.00  0.00     0.031 A 
ATOM     73  C   UNL     1     -17.055   1.804   2.937  1.00  0.00     0.131 A 
ATOM     74  C   UNL     1     -16.205   3.169   5.186  1.00  0.00     0.055 A 
ATOM     75  C   UNL     1     -17.030   1.154   4.173  1.00  0.00     0.041 A 
ATOM     76  F   UNL     1     -17.408   1.079   1.863  1.00  0.00    -0.206 F 
ATOM     77  C   UNL     1     -16.582   1.831   5.304  1.00  0.00     0.022 A 
BRANCH  74  78
ATOM     78  S   UNL     1     -15.374   4.006   6.565  1.00  0.00     0.124 S 
ATOM     79  O   UNL     1     -14.082   4.340   5.969  1.00  0.00    -0.237 OA
ATOM     80  O   UNL     1     -16.263   5.129   6.834  1.00  0.00    -0.237 OA
ATOM     81  O   UNL     1     -15.324   2.983   7.606  1.00  0.00    -0.744 OA
ENDBRANCH  74  78
ENDBRANCH  57  71
BRANCH  58  82
ATOM     82  C   UNL     1     -15.943   7.356  -6.255  1.00  0.00     0.023 A 
ATOM     83  C   UNL     1     -16.642   8.507  -6.652  1.00  0.00     0.031 A 
ATOM     84  C   UNL     1     -15.114   6.728  -7.202  1.00  0.00     0.131 A 
ATOM     85  C   UNL     1     -16.529   8.973  -7.971  1.00  0.00     0.055 A 
ATOM     86  C   UNL     1     -14.966   7.224  -8.498  1.00  0.00     0.041 A 
ATOM     87  F   UNL     1     -14.415   5.631  -6.870  1.00  0.00    -0.206 F 
ATOM     88  C   UNL     1     -15.685   8.348  -8.892  1.00  0.00     0.022 A 
BRANCH  85  89
ATOM     89  S   UNL     1     -17.554  10.378  -8.488  1.00  0.00     0.124 S 
ATOM     90  O   UNL     1     -18.899   9.869  -8.246  1.00  0.00    -0.237 OA
ATOM     91  O   UNL     1     -17.094  11.433  -7.590  1.00  0.00    -0.237 OA
ATOM     92  O   UNL     1     -17.197  10.559  -9.893  1.00  0.00    -0.744 OA
ENDBRANCH  85  89
ENDBRANCH  58  82
BRANCH  70  93
ATOM     93  C   UNL     1     -21.255   4.567  -2.678  1.00  0.00     0.023 A 
ATOM     94  C   UNL     1     -21.707   3.741  -3.722  1.00  0.00     0.031 A 
ATOM     95  C   UNL     1     -22.218   5.264  -1.925  1.00  0.00     0.131 A 
ATOM     96  C   UNL     1     -23.077   3.678  -4.021  1.00  0.00     0.055 A 
ATOM     97  C   UNL     1     -23.584   5.143  -2.183  1.00  0.00     0.041 A 
ATOM     98  F   UNL     1     -21.846   6.072  -0.919  1.00  0.00    -0.206 F 
ATOM     99  C   UNL     1     -24.020   4.357  -3.246  1.00  0.00     0.022 A 
BRANCH  96 100
ATOM    100  S   UNL     1     -23.602   2.779  -5.506  1.00  0.00     0.124 S 
ATOM    101  O   UNL     1     -22.861   3.470  -6.556  1.00  0.00    -0.237 OA
ATOM    102  O   UNL     1     -23.172   1.415  -5.214  1.00  0.00    -0.237 OA
ATOM    103  O   UNL     1     -25.050   2.979  -5.534  1.00  0.00    -0.744 OA
ENDBRANCH  96 100
ENDBRANCH  70  93
ENDBRANCH  44  45
ENDBRANCH  36  39
ENDBRANCH  34  35
ENDBRANCH  33  34
ENDBRANCH  32  33
ENDBRANCH  31  32
ENDBRANCH   1  31
TORSDOF 22
