REMARK SMILES CC[C@@H](C)[C@H](NC(=O)N1CCn2c1nc1ccccc12)C(=O)N[C@H](C)C(=O)NCCCCCCNC(=O)c1ccc(-c2c3nc(c(-c4cc(S(=O)(=O)[O-])ccc4F)c4ccc([nH]4)c(-c4cc(S(=O)(=O)[O-])ccc4F)c4nc(c(-c5cc(S(=O)(=O)[O-])ccc5F)c5ccc2[nH]5)C=C4)C=C3)cc1
REMARK SMILES IDX 31 1 30 2 29 3 28 4 26 5 27 6 24 8 25 9 23 10 21 11 22 12
REMARK SMILES IDX 5 14 3 15 4 16 2 17 1 18 6 19 7 20 8 22 9 23 10 24 13 25
REMARK SMILES IDX 11 26 12 27 14 28 20 29 15 30 19 31 16 32 18 33 17 34 32 35
REMARK SMILES IDX 33 36 34 37 35 38 36 39 37 41 38 42 39 43 100 44 40 45 99 46
REMARK SMILES IDX 41 47 42 48 43 49 93 50 44 51 98 52 92 53 94 54 45 55 97 56
REMARK SMILES IDX 91 57 90 58 46 60 78 61 58 62 77 63 59 64 62 65 76 66 95 67
REMARK SMILES IDX 60 68 61 69 75 71 96 72 63 73 47 74 48 75 56 76 49 77 55 78
REMARK SMILES IDX 57 79 54 80 50 81 51 82 52 83 53 84 79 85 80 86 88 87 81 88
REMARK SMILES IDX 87 89 89 90 86 91 82 92 83 93 84 94 85 95 64 96 65 97 73 98
REMARK SMILES IDX 66 99 72 100 74 101 71 102 67 103 68 104 69 105 70 106
REMARK H PARENT 28 7 23 13 6 21 35 40 94 59 62 70
REMARK Flexibility Score: inf
ROOT
ATOM      1  C   UNL     1       7.532   7.240   5.100  1.00  0.00     0.002 C 
ENDROOT
BRANCH   1   2
ATOM      2  C   UNL     1       6.422   6.277   4.649  1.00  0.00     0.021 C 
BRANCH   2   3
ATOM      3  C   UNL     1       6.710   5.006   3.799  1.00  0.00     0.116 C 
BRANCH   3   4
ATOM      4  N   UNL     1       5.708   3.952   4.086  1.00  0.00    -0.354 N 
ATOM      5  C   UNL     1       4.695   3.246   3.530  1.00  0.00     0.242 C 
ATOM      6  O   UNL     1       4.192   2.446   4.345  1.00  0.00    -0.273 OA
ATOM      7  H   UNL     1       5.818   3.659   5.019  1.00  0.00     0.163 HD
BRANCH   5   8
ATOM      8  C   UNL     1       4.115   3.222   2.048  1.00  0.00     0.168 C 
ATOM      9  C   UNL     1       2.567   3.054   2.099  1.00  0.00     0.041 C 
BRANCH   8  10
ATOM     10  N   UNL     1       4.535   4.136   0.960  1.00  0.00    -0.343 N 
ATOM     11  C   UNL     1       3.635   4.822   0.148  1.00  0.00     0.243 C 
ATOM     12  O   UNL     1       3.097   4.211  -0.779  1.00  0.00    -0.273 OA
ATOM     13  H   UNL     1       5.498   4.266   0.803  1.00  0.00     0.164 HD
BRANCH  11  14
ATOM     14  C   UNL     1       3.423   6.378   0.345  1.00  0.00     0.176 C 
BRANCH  14  15
ATOM     15  C   UNL     1       3.977   6.951   1.675  1.00  0.00     0.018 C 
ATOM     16  C   UNL     1       5.487   6.942   1.475  1.00  0.00     0.010 C 
BRANCH  15  17
ATOM     17  C   UNL     1       3.224   6.293   2.862  1.00  0.00     0.002 C 
ATOM     18  C   UNL     1       3.226   6.836   4.279  1.00  0.00     0.004 C 
ENDBRANCH  15  17
ENDBRANCH  14  15
BRANCH  14  19
ATOM     19  N   UNL     1       2.017   6.769   0.174  1.00  0.00    -0.326 N 
ATOM     20  C   UNL     1       1.465   7.990   0.427  1.00  0.00     0.324 C 
ATOM     21  H   UNL     1       1.406   6.072  -0.161  1.00  0.00     0.166 HD
ATOM     22  O   UNL     1       0.306   8.018   0.852  1.00  0.00    -0.248 OA
BRANCH  20  23
ATOM     23  N   UNL     1       2.213   9.128   0.337  1.00  0.00    -0.262 N 
ATOM     24  C   UNL     1       1.919  10.381   1.055  1.00  0.00     0.152 C 
ATOM     25  C   UNL     1       3.103   9.389  -0.670  1.00  0.00     0.214 A 
ATOM     26  C   UNL     1       2.657  11.487   0.274  1.00  0.00     0.148 C 
ATOM     27  N   UNL     1       3.391  10.721  -0.713  1.00  0.00    -0.308 N 
ATOM     28  N   UNL     1       3.630   8.746  -1.668  1.00  0.00    -0.212 NA
ATOM     29  C   UNL     1       4.019  11.011  -1.873  1.00  0.00     0.070 A 
ATOM     30  C   UNL     1       4.199   9.742  -2.436  1.00  0.00     0.091 A 
ATOM     31  C   UNL     1       4.417  12.191  -2.507  1.00  0.00     0.028 A 
ATOM     32  C   UNL     1       4.831   9.633  -3.674  1.00  0.00     0.031 A 
ATOM     33  C   UNL     1       5.009  12.055  -3.768  1.00  0.00     0.002 A 
ATOM     34  C   UNL     1       5.208  10.800  -4.345  1.00  0.00     0.002 A 
ENDBRANCH  20  23
ENDBRANCH  14  19
ENDBRANCH  11  14
ENDBRANCH   8  10
ENDBRANCH   5   8
ENDBRANCH   3   4
ENDBRANCH   2   3
ENDBRANCH   1   2
BRANCH   1  35
ATOM     35  C   UNL     1       8.327   8.090   4.101  1.00  0.00     0.002 C 
BRANCH  35  36
ATOM     36  C   UNL     1       7.649   9.182   3.261  1.00  0.00     0.021 C 
BRANCH  36  37
ATOM     37  C   UNL     1       6.772  10.223   3.959  1.00  0.00     0.116 C 
BRANCH  37  38
ATOM     38  N   UNL     1       7.473  11.404   4.444  1.00  0.00    -0.352 N 
ATOM     39  C   UNL     1       8.146  12.374   3.732  1.00  0.00     0.251 C 
ATOM     40  H   UNL     1       7.464  11.527   5.421  1.00  0.00     0.163 HD
ATOM     41  O   UNL     1       8.634  13.342   4.308  1.00  0.00    -0.269 OA
BRANCH  39  42
ATOM     42  C   UNL     1       8.295  12.217   2.273  1.00  0.00     0.039 A 
ATOM     43  C   UNL     1       7.162  12.171   1.459  1.00  0.00     0.014 A 
ATOM     44  C   UNL     1       9.572  12.018   1.736  1.00  0.00     0.014 A 
ATOM     45  C   UNL     1       7.301  11.826   0.122  1.00  0.00     0.010 A 
ATOM     46  C   UNL     1       9.708  11.696   0.384  1.00  0.00     0.010 A 
ATOM     47  C   UNL     1       8.569  11.581  -0.420  1.00  0.00    -0.014 A 
BRANCH  47  48
ATOM     48  C   UNL     1       8.644  11.409  -1.872  1.00  0.00     0.031 A 
ATOM     49  C   UNL     1       9.239  12.550  -2.609  1.00  0.00     0.074 A 
ATOM     50  C   UNL     1       8.477  10.252  -2.537  1.00  0.00     0.049 A 
ATOM     51  N   UNL     1      10.513  12.631  -2.836  1.00  0.00    -0.248 NA
ATOM     52  C   UNL     1       8.487  13.750  -2.969  1.00  0.00     0.031 C 
ATOM     53  C   UNL     1       8.606   8.893  -2.011  1.00  0.00     0.029 A 
ATOM     54  N   UNL     1       8.273  10.071  -3.879  1.00  0.00    -0.354 N 
ATOM     55  C   UNL     1      10.754  13.891  -3.341  1.00  0.00     0.074 A 
ATOM     56  C   UNL     1       9.467  14.549  -3.418  1.00  0.00     0.031 C 
ATOM     57  C   UNL     1       8.598   8.024  -3.050  1.00  0.00     0.029 A 
ATOM     58  C   UNL     1       8.315   8.747  -4.288  1.00  0.00     0.049 A 
ATOM     59  H   UNL     1       8.110  10.818  -4.500  1.00  0.00     0.167 HD
ATOM     60  C   UNL     1      12.002  14.313  -3.671  1.00  0.00     0.034 A 
ATOM     61  C   UNL     1       8.626   8.313  -5.542  1.00  0.00     0.034 A 
ATOM     62  C   UNL     1      13.038  13.339  -3.475  1.00  0.00     0.049 A 
ATOM     63  C   UNL     1       9.933   9.024  -5.785  1.00  0.00     0.074 A 
ATOM     64  C   UNL     1      13.861  12.955  -2.440  1.00  0.00     0.029 A 
ATOM     65  N   UNL     1      13.214  12.375  -4.443  1.00  0.00    -0.354 N 
ATOM     66  N   UNL     1      11.068   8.647  -5.256  1.00  0.00    -0.248 NA
ATOM     67  C   UNL     1       9.944  10.386  -6.320  1.00  0.00     0.031 C 
ATOM     68  C   UNL     1      14.151  11.572  -2.670  1.00  0.00     0.029 A 
ATOM     69  C   UNL     1      13.430  11.178  -3.799  1.00  0.00     0.049 A 
ATOM     70  H   UNL     1      13.190  12.516  -5.417  1.00  0.00     0.167 HD
ATOM     71  C   UNL     1      11.822   9.812  -5.109  1.00  0.00     0.074 A 
ATOM     72  C   UNL     1      11.085  10.840  -5.814  1.00  0.00     0.031 C 
ATOM     73  C   UNL     1      12.892   9.910  -4.263  1.00  0.00     0.034 A 
BRANCH  60  74
ATOM     74  C   UNL     1      12.261  15.595  -4.356  1.00  0.00     0.023 A 
ATOM     75  C   UNL     1      12.376  16.813  -3.672  1.00  0.00     0.031 A 
ATOM     76  C   UNL     1      12.497  15.567  -5.742  1.00  0.00     0.131 A 
ATOM     77  C   UNL     1      12.750  17.961  -4.387  1.00  0.00     0.055 A 
ATOM     78  C   UNL     1      12.870  16.708  -6.445  1.00  0.00     0.041 A 
ATOM     79  F   UNL     1      12.387  14.413  -6.422  1.00  0.00    -0.206 F 
ATOM     80  C   UNL     1      13.006  17.913  -5.764  1.00  0.00     0.022 A 
BRANCH  77  81
ATOM     81  S   UNL     1      12.950  19.566  -3.563  1.00  0.00     0.124 S 
ATOM     82  O   UNL     1      14.354  19.871  -3.821  1.00  0.00    -0.237 OA
ATOM     83  O   UNL     1      11.987  20.397  -4.281  1.00  0.00    -0.237 OA
ATOM     84  O   UNL     1      12.614  19.288  -2.170  1.00  0.00    -0.744 OA
ENDBRANCH  77  81
ENDBRANCH  60  74
BRANCH  61  85
ATOM     85  C   UNL     1       7.455   8.344  -6.486  1.00  0.00     0.023 A 
ATOM     86  C   UNL     1       7.359   9.156  -7.625  1.00  0.00     0.031 A 
ATOM     87  C   UNL     1       6.307   7.590  -6.162  1.00  0.00     0.131 A 
ATOM     88  C   UNL     1       6.116   9.376  -8.243  1.00  0.00     0.055 A 
ATOM     89  C   UNL     1       5.081   7.759  -6.820  1.00  0.00     0.041 A 
ATOM     90  F   UNL     1       6.338   6.716  -5.143  1.00  0.00    -0.206 F 
ATOM     91  C   UNL     1       4.970   8.694  -7.840  1.00  0.00     0.022 A 
BRANCH  88  92
ATOM     92  S   UNL     1       5.953  10.648  -9.527  1.00  0.00     0.124 S 
ATOM     93  O   UNL     1       5.120   9.985 -10.526  1.00  0.00    -0.237 OA
ATOM     94  O   UNL     1       5.312  11.727  -8.780  1.00  0.00    -0.237 OA
ATOM     95  O   UNL     1       7.333  10.898  -9.929  1.00  0.00    -0.744 OA
ENDBRANCH  88  92
ENDBRANCH  61  85
BRANCH  73  96
ATOM     96  C   UNL     1      13.323   8.621  -3.616  1.00  0.00     0.023 A 
ATOM     97  C   UNL     1      13.310   8.464  -2.215  1.00  0.00     0.031 A 
ATOM     98  C   UNL     1      13.789   7.547  -4.393  1.00  0.00     0.131 A 
ATOM     99  C   UNL     1      13.817   7.295  -1.633  1.00  0.00     0.055 A 
ATOM    100  C   UNL     1      14.225   6.354  -3.811  1.00  0.00     0.041 A 
ATOM    101  F   UNL     1      13.858   7.647  -5.731  1.00  0.00    -0.206 F 
ATOM    102  C   UNL     1      14.255   6.229  -2.425  1.00  0.00     0.022 A 
BRANCH  99 103
ATOM    103  S   UNL     1      13.981   7.141   0.167  1.00  0.00     0.124 S 
ATOM    104  O   UNL     1      13.451   5.802   0.425  1.00  0.00    -0.237 OA
ATOM    105  O   UNL     1      15.424   7.282   0.350  1.00  0.00    -0.237 OA
ATOM    106  O   UNL     1      13.171   8.234   0.696  1.00  0.00    -0.744 OA
ENDBRANCH  99 103
ENDBRANCH  73  96
ENDBRANCH  47  48
ENDBRANCH  39  42
ENDBRANCH  37  38
ENDBRANCH  36  37
ENDBRANCH  35  36
ENDBRANCH   1  35
TORSDOF 22
