REMARK SMILES C[C@H]1[C@H](C(=O)NCCCCCCNC(=O)c2ccc(-c3c4nc(c(-c5cc(S(=O)(=O)[O-])ccc5F)c5ccc([nH]5)c(-c5cc(S(=O)(=O)[O-])ccc5F)c5nc(c(-c6cc(S(=O)(=O)[O-])ccc6F)c6ccc3[nH]6)C=C5)C=C4)cc2)CCN1C(=O)Cc1csc(N)n1
REMARK SMILES IDX 9 1 8 2 7 3 6 4 4 5 5 6 3 8 1 9 2 10 81 11 79 12 80 13 82 14
REMARK SMILES IDX 83 15 84 16 85 17 86 18 90 19 87 20 88 21 89 22 10 25 11 26
REMARK SMILES IDX 12 27 13 28 14 29 15 31 16 32 17 33 78 34 18 35 77 36 19 37
REMARK SMILES IDX 20 38 21 39 71 40 22 41 76 42 70 43 72 44 23 45 75 46 69 47
REMARK SMILES IDX 68 48 24 50 56 51 36 52 55 53 37 54 40 55 54 56 73 57 38 58
REMARK SMILES IDX 39 59 53 61 74 62 41 63 25 64 26 65 34 66 27 67 33 68 35 69
REMARK SMILES IDX 32 70 28 71 29 72 30 73 31 74 57 75 58 76 66 77 59 78 65 79
REMARK SMILES IDX 67 80 64 81 60 82 61 83 62 84 63 85 42 86 43 87 51 88 44 89
REMARK SMILES IDX 50 90 52 91 49 92 45 93 46 94 47 95 48 96
REMARK H PARENT 6 7 89 23 89 24 13 30 72 49 40 60
REMARK Flexibility Score: inf
ROOT
ATOM      1  C   UNL     1      -0.098   0.988   5.298  1.00  0.00     0.002 C 
ENDROOT
BRANCH   1   2
ATOM      2  C   UNL     1       0.046   0.135   4.033  1.00  0.00     0.021 C 
BRANCH   2   3
ATOM      3  C   UNL     1      -0.888   0.543   2.897  1.00  0.00     0.116 C 
BRANCH   3   4
ATOM      4  N   UNL     1      -0.524   1.841   2.364  1.00  0.00    -0.356 N 
ATOM      5  C   UNL     1      -0.212   2.233   1.104  1.00  0.00     0.225 C 
ATOM      6  O   UNL     1       0.129   3.409   0.945  1.00  0.00    -0.275 OA
ATOM      7  H   UNL     1      -0.500   2.564   3.032  1.00  0.00     0.163 HD
BRANCH   5   8
ATOM      8  C   UNL     1      -0.255   1.291  -0.086  1.00  0.00     0.102 C 
ATOM      9  C   UNL     1       1.722   0.268  -1.232  1.00  0.00     0.032 C 
ATOM     10  C   UNL     1       0.797   0.171  -0.012  1.00  0.00     0.094 C 
ATOM     11  N   UNL     1       0.028  -1.072  -0.049  1.00  0.00    -0.339 N 
ATOM     12  C   UNL     1      -1.607   0.612  -0.322  1.00  0.00     0.037 C 
ATOM     13  C   UNL     1      -1.285  -0.845  -0.619  1.00  0.00     0.120 C 
BRANCH  11  14
ATOM     14  C   UNL     1       0.415  -2.349   0.323  1.00  0.00     0.228 C 
ATOM     15  O   UNL     1      -0.312  -3.315   0.066  1.00  0.00    -0.274 OA
BRANCH  14  16
ATOM     16  C   UNL     1       1.633  -2.540   1.217  1.00  0.00     0.157 C 
BRANCH  16  17
ATOM     17  C   UNL     1       2.958  -2.279   0.585  1.00  0.00     0.063 A 
ATOM     18  C   UNL     1       3.856  -1.290   0.948  1.00  0.00     0.093 A 
ATOM     19  N   UNL     1       3.415  -3.115  -0.423  1.00  0.00    -0.225 NA
ATOM     20  S   UNL     1       5.254  -1.370  -0.035  1.00  0.00    -0.106 S 
ATOM     21  C   UNL     1       4.605  -2.747  -0.826  1.00  0.00     0.180 A 
BRANCH  21  22
ATOM     22  N   UNL     1       5.286  -3.384  -1.782  1.00  0.00    -0.375 N 
ATOM     23  H   UNL     1       6.179  -3.065  -2.047  1.00  0.00     0.159 HD
ATOM     24  H   UNL     1       4.895  -4.174  -2.222  1.00  0.00     0.159 HD
ENDBRANCH  21  22
ENDBRANCH  16  17
ENDBRANCH  14  16
ENDBRANCH  11  14
ENDBRANCH   5   8
ENDBRANCH   3   4
ENDBRANCH   2   3
ENDBRANCH   1   2
BRANCH   1  25
ATOM     25  C   UNL     1      -1.512   1.038   5.885  1.00  0.00     0.002 C 
BRANCH  25  26
ATOM     26  C   UNL     1      -2.144  -0.327   6.166  1.00  0.00     0.021 C 
BRANCH  26  27
ATOM     27  C   UNL     1      -1.338  -1.216   7.106  1.00  0.00     0.116 C 
BRANCH  27  28
ATOM     28  N   UNL     1      -1.187  -0.617   8.422  1.00  0.00    -0.352 N 
ATOM     29  C   UNL     1      -1.518  -1.131   9.650  1.00  0.00     0.251 C 
ATOM     30  H   UNL     1      -0.792   0.285   8.433  1.00  0.00     0.163 HD
ATOM     31  O   UNL     1      -1.529  -0.395  10.635  1.00  0.00    -0.269 OA
BRANCH  29  32
ATOM     32  C   UNL     1      -1.881  -2.558   9.776  1.00  0.00     0.039 A 
ATOM     33  C   UNL     1      -2.986  -2.910  10.553  1.00  0.00     0.014 A 
ATOM     34  C   UNL     1      -1.136  -3.546   9.124  1.00  0.00     0.014 A 
ATOM     35  C   UNL     1      -3.379  -4.248  10.629  1.00  0.00     0.010 A 
ATOM     36  C   UNL     1      -1.576  -4.866   9.137  1.00  0.00     0.010 A 
ATOM     37  C   UNL     1      -2.700  -5.233   9.893  1.00  0.00    -0.014 A 
BRANCH  37  38
ATOM     38  C   UNL     1      -3.152  -6.649   9.905  1.00  0.00     0.031 A 
ATOM     39  C   UNL     1      -2.256  -7.724  10.456  1.00  0.00     0.074 A 
ATOM     40  C   UNL     1      -4.348  -6.971   9.373  1.00  0.00     0.049 A 
ATOM     41  N   UNL     1      -2.446  -9.018  10.502  1.00  0.00    -0.248 NA
ATOM     42  C   UNL     1      -0.962  -7.288  11.004  1.00  0.00     0.031 C 
ATOM     43  C   UNL     1      -5.290  -6.020   8.777  1.00  0.00     0.029 A 
ATOM     44  N   UNL     1      -4.978  -8.183   9.243  1.00  0.00    -0.354 N 
ATOM     45  C   UNL     1      -1.296  -9.551  11.075  1.00  0.00     0.074 A 
ATOM     46  C   UNL     1      -0.389  -8.445  11.296  1.00  0.00     0.031 C 
ATOM     47  C   UNL     1      -6.387  -6.681   8.376  1.00  0.00     0.029 A 
ATOM     48  C   UNL     1      -6.209  -8.106   8.633  1.00  0.00     0.049 A 
ATOM     49  H   UNL     1      -4.585  -9.030   9.557  1.00  0.00     0.167 HD
ATOM     50  C   UNL     1      -1.033 -10.839  11.410  1.00  0.00     0.034 A 
ATOM     51  C   UNL     1      -7.088  -9.074   8.305  1.00  0.00     0.034 A 
ATOM     52  C   UNL     1      -1.952 -11.928  11.184  1.00  0.00     0.049 A 
ATOM     53  C   UNL     1      -6.752 -10.505   8.642  1.00  0.00     0.074 A 
ATOM     54  C   UNL     1      -1.809 -13.262  11.527  1.00  0.00     0.029 A 
ATOM     55  N   UNL     1      -3.181 -11.816  10.544  1.00  0.00    -0.354 N 
ATOM     56  N   UNL     1      -5.682 -10.986   9.233  1.00  0.00    -0.248 NA
ATOM     57  C   UNL     1      -7.745 -11.522   8.274  1.00  0.00     0.031 C 
ATOM     58  C   UNL     1      -2.908 -13.966  11.024  1.00  0.00     0.029 A 
ATOM     59  C   UNL     1      -3.785 -13.061  10.447  1.00  0.00     0.049 A 
ATOM     60  H   UNL     1      -3.567 -10.974  10.208  1.00  0.00     0.167 HD
ATOM     61  C   UNL     1      -5.891 -12.360   9.335  1.00  0.00     0.074 A 
ATOM     62  C   UNL     1      -7.194 -12.623   8.762  1.00  0.00     0.031 C 
ATOM     63  C   UNL     1      -5.080 -13.315   9.859  1.00  0.00     0.034 A 
BRANCH  50  64
ATOM     64  C   UNL     1       0.314 -11.136  12.028  1.00  0.00     0.023 A 
ATOM     65  C   UNL     1       0.708 -10.566  13.252  1.00  0.00     0.031 A 
ATOM     66  C   UNL     1       1.230 -11.979  11.373  1.00  0.00     0.131 A 
ATOM     67  C   UNL     1       2.006 -10.779  13.740  1.00  0.00     0.055 A 
ATOM     68  C   UNL     1       2.488 -12.259  11.910  1.00  0.00     0.041 A 
ATOM     69  F   UNL     1       0.923 -12.536  10.191  1.00  0.00    -0.206 F 
ATOM     70  C   UNL     1       2.889 -11.644  13.092  1.00  0.00     0.022 A 
BRANCH  67  71
ATOM     71  S   UNL     1       2.575  -9.783  15.145  1.00  0.00     0.124 S 
ATOM     72  O   UNL     1       2.399  -8.425  14.635  1.00  0.00    -0.237 OA
ATOM     73  O   UNL     1       1.664 -10.189  16.209  1.00  0.00    -0.237 OA
ATOM     74  O   UNL     1       3.965 -10.199  15.320  1.00  0.00    -0.744 OA
ENDBRANCH  67  71
ENDBRANCH  50  64
BRANCH  51  75
ATOM     75  C   UNL     1      -8.363  -8.734   7.609  1.00  0.00     0.023 A 
ATOM     76  C   UNL     1      -9.606  -8.983   8.211  1.00  0.00     0.031 A 
ATOM     77  C   UNL     1      -8.358  -8.196   6.309  1.00  0.00     0.131 A 
ATOM     78  C   UNL     1     -10.791  -8.742   7.498  1.00  0.00     0.055 A 
ATOM     79  C   UNL     1      -9.540  -7.902   5.627  1.00  0.00     0.041 A 
ATOM     80  F   UNL     1      -7.198  -7.936   5.685  1.00  0.00    -0.206 F 
ATOM     81  C   UNL     1     -10.767  -8.189   6.217  1.00  0.00     0.022 A 
BRANCH  78  82
ATOM     82  S   UNL     1     -12.367  -9.254   8.236  1.00  0.00     0.124 S 
ATOM     83  O   UNL     1     -12.150 -10.682   8.439  1.00  0.00    -0.237 OA
ATOM     84  O   UNL     1     -12.418  -8.434   9.442  1.00  0.00    -0.237 OA
ATOM     85  O   UNL     1     -13.350  -8.911   7.210  1.00  0.00    -0.744 OA
ENDBRANCH  78  82
ENDBRANCH  51  75
BRANCH  63  86
ATOM     86  C   UNL     1      -5.606 -14.731   9.873  1.00  0.00     0.023 A 
ATOM     87  C   UNL     1      -5.849 -15.445   8.687  1.00  0.00     0.031 A 
ATOM     88  C   UNL     1      -5.878 -15.371  11.096  1.00  0.00     0.131 A 
ATOM     89  C   UNL     1      -6.403 -16.733   8.747  1.00  0.00     0.055 A 
ATOM     90  C   UNL     1      -6.363 -16.679  11.151  1.00  0.00     0.041 A 
ATOM     91  F   UNL     1      -5.671 -14.737  12.261  1.00  0.00    -0.206 F 
ATOM     92  C   UNL     1      -6.642 -17.362   9.971  1.00  0.00     0.022 A 
BRANCH  89  93
ATOM     93  S   UNL     1      -6.904 -17.539   7.201  1.00  0.00     0.124 S 
ATOM     94  O   UNL     1      -7.860 -16.581   6.657  1.00  0.00    -0.237 OA
ATOM     95  O   UNL     1      -5.638 -17.654   6.484  1.00  0.00    -0.237 OA
ATOM     96  O   UNL     1      -7.481 -18.806   7.646  1.00  0.00    -0.744 OA
ENDBRANCH  89  93
ENDBRANCH  63  86
ENDBRANCH  37  38
ENDBRANCH  29  32
ENDBRANCH  27  28
ENDBRANCH  26  27
ENDBRANCH  25  26
ENDBRANCH   1  25
TORSDOF 20
