REMARK SMILES O=C(NCCCCCCNC(=O)c1cc(NC(=O)c2cccc(Cl)c2)ccc1N1CC[NH+](CC(=O)N2CCOCC2)CC1)c1ccc(-c2c3nc(c(-c4cc(S(=O)(=O)[O-])ccc4F)c4ccc([nH]4)c(-c4cc(S(=O)(=O)[O-])ccc4F)c4nc(c(-c5cc(S(=O)(=O)[O-])ccc5F)c5ccc2[nH]5)C=C4)C=C3)cc1
REMARK SMILES IDX 6 1 5 2 4 3 3 4 1 5 2 6 44 8 45 9 106 10 46 11 105 12 47 13
REMARK SMILES IDX 48 14 49 15 99 16 50 17 104 18 98 19 100 20 51 21 103 22
REMARK SMILES IDX 97 23 96 24 52 26 84 27 64 28 83 29 65 30 68 31 82 32 101 33
REMARK SMILES IDX 66 34 67 35 81 37 102 38 69 39 53 40 54 41 62 42 55 43 61 44
REMARK SMILES IDX 63 45 60 46 56 47 57 48 58 49 59 50 85 51 86 52 94 53 87 54
REMARK SMILES IDX 93 55 95 56 92 57 88 58 89 59 90 60 91 61 70 62 71 63 79 64
REMARK SMILES IDX 72 65 78 66 80 67 77 68 73 69 74 70 75 71 76 72 7 73 8 74
REMARK SMILES IDX 9 75 10 76 11 77 12 79 13 80 14 81 28 82 15 83 27 84 26 85
REMARK SMILES IDX 29 86 30 87 43 88 31 89 42 90 32 91 33 93 34 94 35 95 36 96
REMARK SMILES IDX 37 97 41 98 38 99 40 100 39 101 16 102 17 103 18 105 19 106
REMARK SMILES IDX 20 107 25 108 21 109 23 110 22 111 24 112
REMARK H PARENT 3 7 100 25 68 36 10 78 32 92 16 104
REMARK Flexibility Score: inf
ROOT
ATOM      1  C   UNL     1       3.916  -3.829   0.136  1.00  0.00     0.002 C 
ENDROOT
BRANCH   1   2
ATOM      2  C   UNL     1       4.491  -2.498   0.606  1.00  0.00     0.021 C 
BRANCH   2   3
ATOM      3  C   UNL     1       4.163  -1.305  -0.276  1.00  0.00     0.116 C 
BRANCH   3   4
ATOM      4  N   UNL     1       2.739  -1.019  -0.344  1.00  0.00    -0.352 N 
ATOM      5  O   UNL     1       0.846   0.179  -0.085  1.00  0.00    -0.269 OA
ATOM      6  C   UNL     1       2.077   0.163  -0.114  1.00  0.00     0.251 C 
ATOM      7  H   UNL     1       2.167  -1.782  -0.589  1.00  0.00     0.163 HD
BRANCH   6   8
ATOM      8  C   UNL     1       2.842   1.409   0.115  1.00  0.00     0.039 A 
ATOM      9  C   UNL     1       3.973   1.700  -0.650  1.00  0.00     0.014 A 
ATOM     10  C   UNL     1       2.419   2.303   1.103  1.00  0.00     0.014 A 
ATOM     11  C   UNL     1       4.764   2.794  -0.329  1.00  0.00     0.010 A 
ATOM     12  C   UNL     1       3.154   3.468   1.347  1.00  0.00     0.010 A 
ATOM     13  C   UNL     1       4.345   3.713   0.645  1.00  0.00    -0.014 A 
BRANCH  13  14
ATOM     14  C   UNL     1       5.123   4.964   0.839  1.00  0.00     0.031 A 
ATOM     15  C   UNL     1       5.772   5.288   2.154  1.00  0.00     0.074 A 
ATOM     16  C   UNL     1       5.250   5.804  -0.208  1.00  0.00     0.049 A 
ATOM     17  N   UNL     1       6.470   6.343   2.490  1.00  0.00    -0.248 NA
ATOM     18  C   UNL     1       5.607   4.307   3.235  1.00  0.00     0.031 C 
ATOM     19  C   UNL     1       4.660   5.588  -1.533  1.00  0.00     0.029 A 
ATOM     20  N   UNL     1       5.926   6.989  -0.340  1.00  0.00    -0.354 N 
ATOM     21  C   UNL     1       6.811   6.167   3.827  1.00  0.00     0.074 A 
ATOM     22  C   UNL     1       6.209   4.917   4.246  1.00  0.00     0.031 C 
ATOM     23  C   UNL     1       5.048   6.571  -2.355  1.00  0.00     0.029 A 
ATOM     24  C   UNL     1       5.832   7.536  -1.598  1.00  0.00     0.049 A 
ATOM     25  H   UNL     1       6.430   7.407   0.395  1.00  0.00     0.167 HD
ATOM     26  C   UNL     1       7.562   6.972   4.622  1.00  0.00     0.034 A 
ATOM     27  C   UNL     1       6.294   8.703  -2.085  1.00  0.00     0.034 A 
ATOM     28  C   UNL     1       8.144   8.219   4.177  1.00  0.00     0.049 A 
ATOM     29  C   UNL     1       7.065   9.608  -1.166  1.00  0.00     0.074 A 
ATOM     30  C   UNL     1       8.944   9.100   4.886  1.00  0.00     0.029 A 
ATOM     31  N   UNL     1       7.976   8.774   2.913  1.00  0.00    -0.354 N 
ATOM     32  N   UNL     1       7.391   9.421   0.093  1.00  0.00    -0.248 NA
ATOM     33  C   UNL     1       7.528  10.879  -1.731  1.00  0.00     0.031 C 
ATOM     34  C   UNL     1       9.187  10.219   4.083  1.00  0.00     0.029 A 
ATOM     35  C   UNL     1       8.621  10.001   2.837  1.00  0.00     0.049 A 
ATOM     36  H   UNL     1       7.472   8.357   2.177  1.00  0.00     0.167 HD
ATOM     37  C   UNL     1       8.120  10.546   0.464  1.00  0.00     0.074 A 
ATOM     38  C   UNL     1       8.200  11.392  -0.711  1.00  0.00     0.031 C 
ATOM     39  C   UNL     1       8.675  10.848   1.665  1.00  0.00     0.034 A 
BRANCH  26  40
ATOM     40  C   UNL     1       7.743   6.553   6.065  1.00  0.00     0.023 A 
ATOM     41  C   UNL     1       8.377   5.348   6.416  1.00  0.00     0.031 A 
ATOM     42  C   UNL     1       7.239   7.353   7.107  1.00  0.00     0.131 A 
ATOM     43  C   UNL     1       8.410   4.936   7.757  1.00  0.00     0.055 A 
ATOM     44  C   UNL     1       7.357   6.981   8.448  1.00  0.00     0.041 A 
ATOM     45  F   UNL     1       6.605   8.506   6.840  1.00  0.00    -0.206 F 
ATOM     46  C   UNL     1       7.928   5.756   8.779  1.00  0.00     0.022 A 
BRANCH  43  47
ATOM     47  S   UNL     1       8.932   3.238   8.127  1.00  0.00     0.124 S 
ATOM     48  O   UNL     1       8.010   2.459   7.303  1.00  0.00    -0.237 OA
ATOM     49  O   UNL     1      10.326   3.238   7.701  1.00  0.00    -0.237 OA
ATOM     50  O   UNL     1       8.718   3.119   9.568  1.00  0.00    -0.744 OA
ENDBRANCH  43  47
ENDBRANCH  26  40
BRANCH  27  51
ATOM     51  C   UNL     1       6.008   9.088  -3.495  1.00  0.00     0.023 A 
ATOM     52  C   UNL     1       7.043   9.243  -4.427  1.00  0.00     0.031 A 
ATOM     53  C   UNL     1       4.688   9.311  -3.930  1.00  0.00     0.131 A 
ATOM     54  C   UNL     1       6.747   9.643  -5.739  1.00  0.00     0.055 A 
ATOM     55  C   UNL     1       4.393   9.651  -5.250  1.00  0.00     0.041 A 
ATOM     56  F   UNL     1       3.659   9.172  -3.079  1.00  0.00    -0.206 F 
ATOM     57  C   UNL     1       5.428   9.831  -6.162  1.00  0.00     0.022 A 
BRANCH  54  58
ATOM     58  S   UNL     1       8.120   9.988  -6.871  1.00  0.00     0.124 S 
ATOM     59  O   UNL     1       8.835  11.040  -6.159  1.00  0.00    -0.237 OA
ATOM     60  O   UNL     1       8.787   8.692  -6.942  1.00  0.00    -0.237 OA
ATOM     61  O   UNL     1       7.450  10.409  -8.100  1.00  0.00    -0.744 OA
ENDBRANCH  54  58
ENDBRANCH  27  51
BRANCH  39  62
ATOM     62  C   UNL     1       9.458  12.137   1.746  1.00  0.00     0.023 A 
ATOM     63  C   UNL     1       8.840  13.391   1.598  1.00  0.00     0.031 A 
ATOM     64  C   UNL     1      10.849  12.106   1.950  1.00  0.00     0.131 A 
ATOM     65  C   UNL     1       9.619  14.558   1.591  1.00  0.00     0.055 A 
ATOM     66  C   UNL     1      11.609  13.274   2.013  1.00  0.00     0.041 A 
ATOM     67  F   UNL     1      11.494  10.937   2.090  1.00  0.00    -0.206 F 
ATOM     68  C   UNL     1      10.997  14.509   1.818  1.00  0.00     0.022 A 
BRANCH  65  69
ATOM     69  S   UNL     1       8.825  16.134   1.171  1.00  0.00     0.124 S 
ATOM     70  O   UNL     1       8.284  15.855  -0.155  1.00  0.00    -0.237 OA
ATOM     71  O   UNL     1       7.844  16.284   2.241  1.00  0.00    -0.237 OA
ATOM     72  O   UNL     1       9.928  17.093   1.202  1.00  0.00    -0.744 OA
ENDBRANCH  65  69
ENDBRANCH  39  62
ENDBRANCH  13  14
ENDBRANCH   6   8
ENDBRANCH   3   4
ENDBRANCH   2   3
ENDBRANCH   1   2
BRANCH   1  73
ATOM     73  C   UNL     1       4.302  -4.290  -1.273  1.00  0.00     0.002 C 
BRANCH  73  74
ATOM     74  C   UNL     1       5.770  -4.185  -1.719  1.00  0.00     0.021 C 
BRANCH  74  75
ATOM     75  C   UNL     1       6.825  -4.893  -0.872  1.00  0.00     0.116 C 
BRANCH  75  76
ATOM     76  N   UNL     1       6.543  -6.294  -0.635  1.00  0.00    -0.352 N 
ATOM     77  C   UNL     1       7.382  -7.280  -0.178  1.00  0.00     0.253 C 
ATOM     78  H   UNL     1       5.621  -6.579  -0.829  1.00  0.00     0.163 HD
ATOM     79  O   UNL     1       6.925  -8.418  -0.042  1.00  0.00    -0.269 OA
BRANCH  77  80
ATOM     80  C   UNL     1       8.828  -7.032   0.124  1.00  0.00     0.065 A 
ATOM     81  C   UNL     1       9.674  -8.029  -0.364  1.00  0.00     0.042 A 
ATOM     82  C   UNL     1       9.355  -5.971   0.897  1.00  0.00     0.050 A 
ATOM     83  C   UNL     1      11.050  -7.876  -0.387  1.00  0.00     0.042 A 
ATOM     84  C   UNL     1      10.756  -5.870   0.957  1.00  0.00     0.029 A 
ATOM     85  C   UNL     1      11.594  -6.800   0.312  1.00  0.00     0.028 A 
BRANCH  82  86
ATOM     86  N   UNL     1       8.530  -5.167   1.681  1.00  0.00    -0.360 N 
ATOM     87  C   UNL     1       8.945  -3.922   2.370  1.00  0.00     0.178 C 
ATOM     88  C   UNL     1       7.643  -5.965   2.522  1.00  0.00     0.178 C 
ATOM     89  C   UNL     1       7.711  -3.181   3.009  1.00  0.00     0.284 C 
ATOM     90  C   UNL     1       6.368  -5.192   2.836  1.00  0.00     0.284 C 
ATOM     91  N   UNL     1       6.605  -3.979   3.602  1.00  0.00    -0.324 N 
ATOM     92  H   UNL     1       5.791  -3.369   3.523  1.00  0.00     0.348 HD
BRANCH  91  93
ATOM     93  C   UNL     1       6.658  -4.221   5.058  1.00  0.00     0.363 C 
BRANCH  93  94
ATOM     94  C   UNL     1       7.915  -4.936   5.564  1.00  0.00     0.277 C 
ATOM     95  O   UNL     1       8.954  -4.279   5.707  1.00  0.00    -0.268 OA
ATOM     96  N   UNL     1       7.906  -6.316   5.829  1.00  0.00    -0.333 N 
ATOM     97  C   UNL     1       6.888  -7.288   5.378  1.00  0.00     0.148 C 
ATOM     98  C   UNL     1       9.220  -6.872   6.162  1.00  0.00     0.148 C 
ATOM     99  C   UNL     1       7.037  -8.717   5.916  1.00  0.00     0.181 C 
ATOM    100  C   UNL     1       9.158  -8.262   6.779  1.00  0.00     0.181 C 
ATOM    101  O   UNL     1       8.401  -9.146   5.947  1.00  0.00    -0.378 OA
ENDBRANCH  93  94
ENDBRANCH  91  93
ENDBRANCH  82  86
BRANCH  83 102
ATOM    102  N   UNL     1      11.904  -8.741  -1.101  1.00  0.00    -0.322 N 
ATOM    103  C   UNL     1      11.632  -9.664  -2.100  1.00  0.00     0.255 C 
ATOM    104  H   UNL     1      12.854  -8.680  -0.849  1.00  0.00     0.170 HD
ATOM    105  O   UNL     1      12.511 -10.423  -2.504  1.00  0.00    -0.269 OA
BRANCH 103 106
ATOM    106  C   UNL     1      10.290  -9.752  -2.725  1.00  0.00     0.041 A 
ATOM    107  C   UNL     1       9.583 -10.955  -2.606  1.00  0.00     0.014 A 
ATOM    108  C   UNL     1       9.683  -8.624  -3.295  1.00  0.00     0.034 A 
ATOM    109  C   UNL     1       8.236 -11.004  -2.967  1.00  0.00     0.002 A 
ATOM    110  C   UNL     1       8.330  -8.679  -3.628  1.00  0.00     0.041 A 
ATOM    111  C   UNL     1       7.603  -9.858  -3.455  1.00  0.00     0.020 A 
ATOM    112  Cl  UNL     1       7.528  -7.257  -4.174  1.00  0.00    -0.084 Cl
ENDBRANCH 103 106
ENDBRANCH  83 102
ENDBRANCH  77  80
ENDBRANCH  75  76
ENDBRANCH  74  75
ENDBRANCH  73  74
ENDBRANCH   1  73
TORSDOF 21
