REMARK SMILES O=C(NCCCCCCNC(=O)c1cc(S(=O)(=O)N2CCCCCC2)ccc1Br)c1ccc(-c2c3nc(c(-c4cc(S(=O)(=O)[O-])ccc4F)c4ccc([nH]4)c(-c4cc(S(=O)(=O)[O-])ccc4F)c4nc(c(-c5cc(S(=O)(=O)[O-])ccc5F)c5ccc2[nH]5)C=C4)C=C3)cc1
REMARK SMILES IDX 8 1 7 2 6 3 5 4 4 5 3 6 1 7 2 8 30 10 31 11 92 12 32 13
REMARK SMILES IDX 91 14 33 15 34 16 35 17 85 18 36 19 90 20 84 21 86 22 37 23
REMARK SMILES IDX 89 24 83 25 82 26 38 28 70 29 50 30 69 31 51 32 54 33 68 34
REMARK SMILES IDX 87 35 52 36 53 37 67 39 88 40 55 41 39 42 40 43 48 44 41 45
REMARK SMILES IDX 47 46 49 47 46 48 42 49 43 50 44 51 45 52 71 53 72 54 80 55
REMARK SMILES IDX 73 56 79 57 81 58 78 59 74 60 75 61 76 62 77 63 56 64 57 65
REMARK SMILES IDX 65 66 58 67 64 68 66 69 63 70 59 71 60 72 61 73 62 74 9 75
REMARK SMILES IDX 10 76 11 77 12 79 13 80 14 81 28 82 15 83 27 84 29 85 26 86
REMARK SMILES IDX 16 87 17 88 18 89 19 90 20 91 21 92 25 94 24 95 23 96 22 97
REMARK H PARENT 3 9 86 27 54 38 10 78
REMARK Flexibility Score: 80.00
ROOT
ATOM      1  C   UNL     1       6.225  -4.038   1.461  1.00  0.00     0.021 C 
ENDROOT
BRANCH   1   2
ATOM      2  C   UNL     1       4.706  -3.922   1.625  1.00  0.00     0.002 C 
BRANCH   2   3
ATOM      3  C   UNL     1       4.216  -2.773   2.511  1.00  0.00     0.002 C 
BRANCH   3   4
ATOM      4  C   UNL     1       4.716  -1.379   2.128  1.00  0.00     0.021 C 
BRANCH   4   5
ATOM      5  C   UNL     1       4.463  -0.967   0.682  1.00  0.00     0.116 C 
BRANCH   5   6
ATOM      6  N   UNL     1       3.049  -0.941   0.346  1.00  0.00    -0.352 N 
ATOM      7  O   UNL     1       1.085  -0.039  -0.287  1.00  0.00    -0.269 OA
ATOM      8  C   UNL     1       2.306   0.069  -0.214  1.00  0.00     0.251 C 
ATOM      9  H   UNL     1       2.553  -1.766   0.550  1.00  0.00     0.163 HD
BRANCH   8  10
ATOM     10  C   UNL     1       2.974   1.293  -0.710  1.00  0.00     0.039 A 
ATOM     11  C   UNL     1       4.123   1.216  -1.501  1.00  0.00     0.014 A 
ATOM     12  C   UNL     1       2.425   2.537  -0.390  1.00  0.00     0.014 A 
ATOM     13  C   UNL     1       4.790   2.381  -1.872  1.00  0.00     0.010 A 
ATOM     14  C   UNL     1       3.057   3.706  -0.821  1.00  0.00     0.010 A 
ATOM     15  C   UNL     1       4.260   3.638  -1.543  1.00  0.00    -0.014 A 
BRANCH  15  16
ATOM     16  C   UNL     1       4.948   4.878  -1.988  1.00  0.00     0.031 A 
ATOM     17  C   UNL     1       5.544   5.826  -0.985  1.00  0.00     0.074 A 
ATOM     18  C   UNL     1       5.024   5.149  -3.304  1.00  0.00     0.049 A 
ATOM     19  N   UNL     1       6.123   6.983  -1.182  1.00  0.00    -0.248 NA
ATOM     20  C   UNL     1       5.467   5.424   0.426  1.00  0.00     0.031 C 
ATOM     21  C   UNL     1       4.486   4.301  -4.370  1.00  0.00     0.029 A 
ATOM     22  N   UNL     1       5.577   6.211  -3.972  1.00  0.00    -0.354 N 
ATOM     23  C   UNL     1       6.466   7.459   0.080  1.00  0.00     0.074 A 
ATOM     24  C   UNL     1       5.994   6.477   1.035  1.00  0.00     0.031 C 
ATOM     25  C   UNL     1       4.749   4.867  -5.557  1.00  0.00     0.029 A 
ATOM     26  C   UNL     1       5.415   6.146  -5.336  1.00  0.00     0.049 A 
ATOM     27  H   UNL     1       6.045   6.950  -3.519  1.00  0.00     0.167 HD
ATOM     28  C   UNL     1       7.120   8.603   0.406  1.00  0.00     0.034 A 
ATOM     29  C   UNL     1       5.735   7.029  -6.301  1.00  0.00     0.034 A 
ATOM     30  C   UNL     1       7.574   9.573  -0.564  1.00  0.00     0.049 A 
ATOM     31  C   UNL     1       6.408   8.318  -5.914  1.00  0.00     0.074 A 
ATOM     32  C   UNL     1       8.266  10.753  -0.347  1.00  0.00     0.029 A 
ATOM     33  N   UNL     1       7.369   9.485  -1.936  1.00  0.00    -0.354 N 
ATOM     34  N   UNL     1       6.736   8.749  -4.718  1.00  0.00    -0.248 NA
ATOM     35  C   UNL     1       6.757   9.235  -7.005  1.00  0.00     0.031 C 
ATOM     36  C   UNL     1       8.419  11.407  -1.575  1.00  0.00     0.029 A 
ATOM     37  C   UNL     1       7.893  10.601  -2.572  1.00  0.00     0.049 A 
ATOM     38  H   UNL     1       6.917   8.738  -2.391  1.00  0.00     0.167 HD
ATOM     39  C   UNL     1       7.356   9.979  -4.917  1.00  0.00     0.074 A 
ATOM     40  C   UNL     1       7.361  10.214  -6.347  1.00  0.00     0.031 C 
ATOM     41  C   UNL     1       7.880  10.831  -3.999  1.00  0.00     0.034 A 
BRANCH  28  42
ATOM     42  C   UNL     1       7.331   8.884   1.877  1.00  0.00     0.023 A 
ATOM     43  C   UNL     1       8.108   8.038   2.688  1.00  0.00     0.031 A 
ATOM     44  C   UNL     1       6.712   9.990   2.486  1.00  0.00     0.131 A 
ATOM     45  C   UNL     1       8.176   8.261   4.072  1.00  0.00     0.055 A 
ATOM     46  C   UNL     1       6.853  10.255   3.851  1.00  0.00     0.041 A 
ATOM     47  F   UNL     1       5.942  10.824   1.770  1.00  0.00    -0.206 F 
ATOM     48  C   UNL     1       7.573   9.377   4.656  1.00  0.00     0.022 A 
BRANCH  45  49
ATOM     49  S   UNL     1       8.925   6.982   5.119  1.00  0.00     0.124 S 
ATOM     50  O   UNL     1       8.138   5.804   4.760  1.00  0.00    -0.237 OA
ATOM     51  O   UNL     1      10.313   6.981   4.672  1.00  0.00    -0.237 OA
ATOM     52  O   UNL     1       8.706   7.476   6.476  1.00  0.00    -0.744 OA
ENDBRANCH  45  49
ENDBRANCH  28  42
BRANCH  29  53
ATOM     53  C   UNL     1       5.386   6.735  -7.718  1.00  0.00     0.023 A 
ATOM     54  C   UNL     1       6.381   6.510  -8.680  1.00  0.00     0.031 A 
ATOM     55  C   UNL     1       4.041   6.673  -8.128  1.00  0.00     0.131 A 
ATOM     56  C   UNL     1       6.019   6.258 -10.012  1.00  0.00     0.055 A 
ATOM     57  C   UNL     1       3.685   6.376  -9.443  1.00  0.00     0.041 A 
ATOM     58  F   UNL     1       3.052   6.873  -7.243  1.00  0.00    -0.206 F 
ATOM     59  C   UNL     1       4.678   6.175 -10.397  1.00  0.00     0.022 A 
BRANCH  56  60
ATOM     60  S   UNL     1       7.331   6.091 -11.252  1.00  0.00     0.124 S 
ATOM     61  O   UNL     1       7.993   7.387 -11.161  1.00  0.00    -0.237 OA
ATOM     62  O   UNL     1       8.084   4.948 -10.744  1.00  0.00    -0.237 OA
ATOM     63  O   UNL     1       6.598   5.848 -12.492  1.00  0.00    -0.744 OA
ENDBRANCH  56  60
ENDBRANCH  29  53
BRANCH  41  64
ATOM     64  C   UNL     1       8.552  12.075  -4.527  1.00  0.00     0.023 A 
ATOM     65  C   UNL     1       7.825  13.109  -5.142  1.00  0.00     0.031 A 
ATOM     66  C   UNL     1       9.947  12.219  -4.418  1.00  0.00     0.131 A 
ATOM     67  C   UNL     1       8.502  14.220  -5.668  1.00  0.00     0.055 A 
ATOM     68  C   UNL     1      10.608  13.351  -4.894  1.00  0.00     0.041 A 
ATOM     69  F   UNL     1      10.689  11.259  -3.843  1.00  0.00    -0.206 F 
ATOM     70  C   UNL     1       9.887  14.355  -5.533  1.00  0.00     0.022 A 
BRANCH  67  71
ATOM     71  S   UNL     1       7.559  15.456  -6.604  1.00  0.00     0.124 S 
ATOM     72  O   UNL     1       7.004  14.654  -7.690  1.00  0.00    -0.237 OA
ATOM     73  O   UNL     1       6.603  15.937  -5.612  1.00  0.00    -0.237 OA
ATOM     74  O   UNL     1       8.574  16.428  -7.008  1.00  0.00    -0.744 OA
ENDBRANCH  67  71
ENDBRANCH  41  64
ENDBRANCH  15  16
ENDBRANCH   8  10
ENDBRANCH   5   6
ENDBRANCH   4   5
ENDBRANCH   3   4
ENDBRANCH   2   3
ENDBRANCH   1   2
BRANCH   1  75
ATOM     75  C   UNL     1       7.014  -4.122   2.764  1.00  0.00     0.116 C 
BRANCH  75  76
ATOM     76  N   UNL     1       6.680  -5.304   3.544  1.00  0.00    -0.352 N 
ATOM     77  C   UNL     1       7.523  -6.111   4.265  1.00  0.00     0.252 C 
ATOM     78  H   UNL     1       5.729  -5.556   3.556  1.00  0.00     0.163 HD
ATOM     79  O   UNL     1       7.111  -7.104   4.853  1.00  0.00    -0.269 OA
BRANCH  77  80
ATOM     80  C   UNL     1       8.963  -5.807   4.274  1.00  0.00     0.055 A 
ATOM     81  C   UNL     1       9.805  -6.693   3.589  1.00  0.00     0.036 A 
ATOM     82  C   UNL     1       9.491  -4.686   4.925  1.00  0.00     0.030 A 
ATOM     83  C   UNL     1      11.174  -6.422   3.510  1.00  0.00     0.083 A 
ATOM     84  C   UNL     1      10.851  -4.400   4.802  1.00  0.00     0.018 A 
ATOM     85  Br  UNL     1       8.452  -3.543   6.027  1.00  0.00    -0.050 Br
ATOM     86  C   UNL     1      11.689  -5.258   4.085  1.00  0.00     0.023 A 
BRANCH  83  87
ATOM     87  S   UNL     1      12.200  -7.628   2.688  1.00  0.00     0.243 S 
ATOM     88  O   UNL     1      12.245  -8.780   3.568  1.00  0.00    -0.207 OA
ATOM     89  O   UNL     1      11.702  -7.733   1.336  1.00  0.00    -0.207 OA
BRANCH  87  90
ATOM     90  N   UNL     1      13.766  -6.962   2.636  1.00  0.00    -0.198 NA
BRANCH  90  91
ATOM     91  C   UNL     1      14.050  -5.935   1.616  1.00  0.00     0.102 C 
BRANCH  91  92
ATOM     92  C   UNL     1      15.453  -6.097   1.039  1.00  0.00     0.017 CG0
ATOM     93  G   UNL     1      16.520  -5.358   1.838  1.00  0.00     0.000 G0
ENDBRANCH  91  92
ENDBRANCH  90  91
BRANCH  90  94
ATOM     94  C   UNL     1      14.563  -7.040   3.881  1.00  0.00     0.102 C 
BRANCH  94  95
ATOM     95  C   UNL     1      15.534  -5.891   4.129  1.00  0.00     0.017 C 
BRANCH  95  96
ATOM     96  C   UNL     1      16.764  -5.925   3.230  1.00  0.00     0.001 C 
BRANCH  96  97
ATOM     97  C   UNL     1      16.520  -5.358   1.838  1.00  0.00     0.001 CG0
ATOM     98  G   UNL     1      15.453  -6.097   1.039  1.00  0.00     0.000 G0
ENDBRANCH  96  97
ENDBRANCH  95  96
ENDBRANCH  94  95
ENDBRANCH  90  94
ENDBRANCH  87  90
ENDBRANCH  83  87
ENDBRANCH  77  80
ENDBRANCH  75  76
ENDBRANCH   1  75
TORSDOF 18
