REMARK SMILES O=C(NCCCCCCNC(=O)c1ccc(Br)c(NC(=S)NC(=O)c2ccc(F)cc2)c1)c1ccc(-c2c3nc(c(-c4cc(S(=O)(=O)[O-])ccc4F)c4ccc([nH]4)c(-c4cc(S(=O)(=O)[O-])ccc4F)c4nc(c(-c5cc(S(=O)(=O)[O-])ccc5F)c5ccc2[nH]5)C=C4)C=C3)cc1
REMARK SMILES IDX 7 1 6 2 5 3 4 4 3 5 1 6 2 7 33 9 34 10 95 11 35 12 94 13
REMARK SMILES IDX 36 14 37 15 38 16 88 17 39 18 93 19 87 20 89 21 40 22 92 23
REMARK SMILES IDX 86 24 85 25 41 27 73 28 53 29 72 30 54 31 57 32 71 33 90 34
REMARK SMILES IDX 55 35 56 36 70 38 91 39 58 40 42 41 43 42 51 43 44 44 50 45
REMARK SMILES IDX 52 46 49 47 45 48 46 49 47 50 48 51 74 52 75 53 83 54 76 55
REMARK SMILES IDX 82 56 84 57 81 58 77 59 78 60 79 61 80 62 59 63 60 64 68 65
REMARK SMILES IDX 61 66 67 67 69 68 66 69 62 70 63 71 64 72 65 73 8 74 9 75
REMARK SMILES IDX 10 76 11 77 12 79 13 80 14 81 32 82 15 83 18 84 16 85 17 86
REMARK SMILES IDX 19 87 20 89 21 90 22 91 23 92 24 94 25 95 26 96 31 97 27 98
REMARK SMILES IDX 30 99 28 100 29 101
REMARK H PARENT 3 8 89 26 57 37 10 78 19 88 22 93
REMARK Flexibility Score: inf
ROOT
ATOM      1  C   UNL     1       4.692   3.542  -2.366  1.00  0.00     0.002 C 
ENDROOT
BRANCH   1   2
ATOM      2  C   UNL     1       4.138   2.293  -3.061  1.00  0.00     0.002 C 
BRANCH   2   3
ATOM      3  C   UNL     1       4.543   0.963  -2.442  1.00  0.00     0.021 C 
BRANCH   3   4
ATOM      4  C   UNL     1       4.277   0.869  -0.955  1.00  0.00     0.116 C 
BRANCH   4   5
ATOM      5  N   UNL     1       2.856   0.857  -0.640  1.00  0.00    -0.352 N 
ATOM      6  O   UNL     1       0.933  -0.066   0.123  1.00  0.00    -0.269 OA
ATOM      7  C   UNL     1       2.158  -0.092   0.071  1.00  0.00     0.251 C 
ATOM      8  H   UNL     1       2.332   1.619  -0.976  1.00  0.00     0.163 HD
BRANCH   7   9
ATOM      9  C   UNL     1       2.925  -1.160   0.746  1.00  0.00     0.039 A 
ATOM     10  C   UNL     1       4.076  -0.824   1.459  1.00  0.00     0.014 A 
ATOM     11  C   UNL     1       2.550  -2.495   0.590  1.00  0.00     0.014 A 
ATOM     12  C   UNL     1       4.954  -1.823   1.840  1.00  0.00     0.010 A 
ATOM     13  C   UNL     1       3.364  -3.502   1.118  1.00  0.00     0.010 A 
ATOM     14  C   UNL     1       4.586  -3.174   1.726  1.00  0.00    -0.014 A 
BRANCH  14  15
ATOM     15  C   UNL     1       5.454  -4.190   2.374  1.00  0.00     0.031 A 
ATOM     16  C   UNL     1       6.113  -5.290   1.597  1.00  0.00     0.074 A 
ATOM     17  C   UNL     1       5.681  -4.057   3.697  1.00  0.00     0.049 A 
ATOM     18  N   UNL     1       6.940  -6.208   2.029  1.00  0.00    -0.248 NA
ATOM     19  C   UNL     1       5.806  -5.388   0.163  1.00  0.00     0.031 C 
ATOM     20  C   UNL     1       5.084  -3.021   4.548  1.00  0.00     0.029 A 
ATOM     21  N   UNL     1       6.495  -4.751   4.552  1.00  0.00    -0.354 N 
ATOM     22  C   UNL     1       7.240  -7.003   0.929  1.00  0.00     0.074 A 
ATOM     23  C   UNL     1       6.482  -6.475  -0.185  1.00  0.00     0.031 C 
ATOM     24  C   UNL     1       5.624  -3.085   5.768  1.00  0.00     0.029 A 
ATOM     25  C   UNL     1       6.515  -4.236   5.826  1.00  0.00     0.049 A 
ATOM     26  H   UNL     1       7.016  -5.541   4.280  1.00  0.00     0.167 HD
ATOM     27  C   UNL     1       8.075  -8.069   0.866  1.00  0.00     0.034 A 
ATOM     28  C   UNL     1       7.151  -4.649   6.937  1.00  0.00     0.034 A 
ATOM     29  C   UNL     1       8.817  -8.575   1.996  1.00  0.00     0.049 A 
ATOM     30  C   UNL     1       8.016  -5.869   6.856  1.00  0.00     0.074 A 
ATOM     31  C   UNL     1       9.716  -9.628   2.029  1.00  0.00     0.029 A 
ATOM     32  N   UNL     1       8.737  -8.084   3.294  1.00  0.00    -0.354 N 
ATOM     33  N   UNL     1       8.286  -6.610   5.808  1.00  0.00    -0.248 NA
ATOM     34  C   UNL     1       8.653  -6.319   8.099  1.00  0.00     0.031 C 
ATOM     35  C   UNL     1      10.105  -9.831   3.355  1.00  0.00     0.029 A 
ATOM     36  C   UNL     1       9.533  -8.841   4.139  1.00  0.00     0.049 A 
ATOM     37  H   UNL     1       8.194  -7.311   3.572  1.00  0.00     0.167 HD
ATOM     38  C   UNL     1       9.141  -7.607   6.260  1.00  0.00     0.074 A 
ATOM     39  C   UNL     1       9.340  -7.373   7.677  1.00  0.00     0.031 C 
ATOM     40  C   UNL     1       9.715  -8.612   5.555  1.00  0.00     0.034 A 
BRANCH  27  41
ATOM     41  C   UNL     1       8.200  -8.792  -0.453  1.00  0.00     0.023 A 
ATOM     42  C   UNL     1       8.761  -8.181  -1.586  1.00  0.00     0.031 A 
ATOM     43  C   UNL     1       7.774 -10.129  -0.569  1.00  0.00     0.131 A 
ATOM     44  C   UNL     1       8.838  -8.887  -2.797  1.00  0.00     0.055 A 
ATOM     45  C   UNL     1       7.918 -10.849  -1.756  1.00  0.00     0.041 A 
ATOM     46  F   UNL     1       7.215 -10.760   0.476  1.00  0.00    -0.206 F 
ATOM     47  C   UNL     1       8.444 -10.225  -2.883  1.00  0.00     0.022 A 
BRANCH  44  48
ATOM     48  S   UNL     1       9.370  -8.000  -4.286  1.00  0.00     0.124 S 
ATOM     49  O   UNL     1       8.356  -6.952  -4.384  1.00  0.00    -0.237 OA
ATOM     50  O   UNL     1      10.712  -7.556  -3.928  1.00  0.00    -0.237 OA
ATOM     51  O   UNL     1       9.308  -9.017  -5.333  1.00  0.00    -0.744 OA
ENDBRANCH  44  48
ENDBRANCH  27  41
BRANCH  28  52
ATOM     52  C   UNL     1       6.946  -3.899   8.204  1.00  0.00     0.023 A 
ATOM     53  C   UNL     1       7.970  -3.119   8.757  1.00  0.00     0.031 A 
ATOM     54  C   UNL     1       5.681  -3.876   8.824  1.00  0.00     0.131 A 
ATOM     55  C   UNL     1       7.710  -2.339   9.895  1.00  0.00     0.055 A 
ATOM     56  C   UNL     1       5.418  -3.067   9.929  1.00  0.00     0.041 A 
ATOM     57  F   UNL     1       4.664  -4.589   8.315  1.00  0.00    -0.206 F 
ATOM     58  C   UNL     1       6.437  -2.293  10.472  1.00  0.00     0.022 A 
BRANCH  55  59
ATOM     59  S   UNL     1       9.064  -1.370  10.613  1.00  0.00     0.124 S 
ATOM     60  O   UNL     1       9.980  -2.418  11.047  1.00  0.00    -0.237 OA
ATOM     61  O   UNL     1       9.500  -0.565   9.477  1.00  0.00    -0.237 OA
ATOM     62  O   UNL     1       8.414  -0.623  11.688  1.00  0.00    -0.744 OA
ENDBRANCH  55  59
ENDBRANCH  28  52
BRANCH  40  63
ATOM     63  C   UNL     1      10.659  -9.530   6.286  1.00  0.00     0.023 A 
ATOM     64  C   UNL     1      10.200 -10.480   7.212  1.00  0.00     0.031 A 
ATOM     65  C   UNL     1      12.031  -9.507   5.977  1.00  0.00     0.131 A 
ATOM     66  C   UNL     1      11.111 -11.369   7.803  1.00  0.00     0.055 A 
ATOM     67  C   UNL     1      12.923 -10.424   6.531  1.00  0.00     0.041 A 
ATOM     68  F   UNL     1      12.517  -8.616   5.098  1.00  0.00    -0.206 F 
ATOM     69  C   UNL     1      12.464 -11.362   7.451  1.00  0.00     0.022 A 
BRANCH  66  70
ATOM     70  S   UNL     1      10.510 -12.533   9.057  1.00  0.00     0.124 S 
ATOM     71  O   UNL     1      10.084 -11.633  10.124  1.00  0.00    -0.237 OA
ATOM     72  O   UNL     1       9.443 -13.236   8.351  1.00  0.00    -0.237 OA
ATOM     73  O   UNL     1      11.686 -13.345   9.363  1.00  0.00    -0.744 OA
ENDBRANCH  66  70
ENDBRANCH  40  63
ENDBRANCH  14  15
ENDBRANCH   7   9
ENDBRANCH   4   5
ENDBRANCH   3   4
ENDBRANCH   2   3
ENDBRANCH   1   2
BRANCH   1  74
ATOM     74  C   UNL     1       6.200   3.570  -2.087  1.00  0.00     0.021 C 
BRANCH  74  75
ATOM     75  C   UNL     1       7.105   3.204  -3.256  1.00  0.00     0.116 C 
BRANCH  75  76
ATOM     76  N   UNL     1       6.747   3.896  -4.476  1.00  0.00    -0.352 N 
ATOM     77  C   UNL     1       7.481   4.542  -5.433  1.00  0.00     0.251 C 
ATOM     78  H   UNL     1       5.778   3.905  -4.652  1.00  0.00     0.163 HD
ATOM     79  O   UNL     1       6.855   4.892  -6.430  1.00  0.00    -0.269 OA
BRANCH  77  80
ATOM     80  C   UNL     1       9.009   4.725  -5.231  1.00  0.00     0.041 A 
ATOM     81  C   UNL     1       9.718   3.079  -4.889  1.00  0.00     0.015 A 
ATOM     82  C   UNL     1      10.364   6.219  -5.345  1.00  0.00     0.041 A 
ATOM     83  C   UNL     1      11.480   2.955  -4.623  1.00  0.00     0.018 A 
ATOM     84  C   UNL     1      12.017   6.010  -4.976  1.00  0.00     0.055 A 
ATOM     85  C   UNL     1      12.573   4.380  -4.665  1.00  0.00     0.041 A 
ATOM     86  Br  UNL     1      14.367   4.129  -4.112  1.00  0.00    -0.049 Br
BRANCH  84  87
ATOM     87  N   UNL     1      12.540   7.212  -4.458  1.00  0.00    -0.331 N 
ATOM     88  H   UNL     1      13.511   7.203  -4.298  1.00  0.00     0.169 HD
BRANCH  87  89
ATOM     89  C   UNL     1      11.916   8.400  -4.138  1.00  0.00     0.177 C 
ATOM     90  S   UNL     1      12.927   9.646  -3.627  1.00  0.00    -0.040 S 
BRANCH  89  91
ATOM     91  N   UNL     1      10.517   8.727  -4.161  1.00  0.00    -0.299 N 
ATOM     92  C   UNL     1       9.054   8.451  -4.370  1.00  0.00     0.257 C 
ATOM     93  H   UNL     1      10.515   9.670  -3.877  1.00  0.00     0.172 HD
ATOM     94  O   UNL     1       8.258   9.387  -4.349  1.00  0.00    -0.269 OA
BRANCH  92  95
ATOM     95  C   UNL     1       8.540   7.042  -4.662  1.00  0.00     0.040 A 
ATOM     96  C   UNL     1       9.361   6.065  -3.474  1.00  0.00     0.017 A 
ATOM     97  C   UNL     1       8.582   6.707  -6.433  1.00  0.00     0.017 A 
ATOM     98  C   UNL     1      10.502   4.839  -4.057  1.00  0.00     0.040 A 
ATOM     99  C   UNL     1       9.660   5.481  -7.164  1.00  0.00     0.040 A 
ATOM    100  C   UNL     1      10.726   4.534  -6.051  1.00  0.00     0.123 A 
ATOM    101  F   UNL     1      11.590   3.732  -6.724  1.00  0.00    -0.207 F 
ENDBRANCH  92  95
ENDBRANCH  89  91
ENDBRANCH  87  89
ENDBRANCH  84  87
ENDBRANCH  77  80
ENDBRANCH  75  76
ENDBRANCH  74  75
ENDBRANCH   1  74
TORSDOF 20
