REMARK SMILES O=C(Nc1nc(C2CC2)cs1)N[C@@H]1C=C[C@@H](C(=O)NCCCCCCNC(=O)c2ccc(-c3c4nc(c(-c5cc(S(=O)(=O)[O-])ccc5F)c5ccc([nH]5)c(-c5cc(S(=O)(=O)[O-])ccc5F)c5nc(c(-c6cc(S(=O)(=O)[O-])ccc6F)c6ccc3[nH]6)C=C5)C=C4)cc2)C1
REMARK SMILES IDX 22 1 21 2 20 3 19 4 17 5 18 6 16 8 13 9 14 10 92 11 15 12
REMARK SMILES IDX 12 13 1 14 2 15 3 16 4 19 5 20 11 21 6 22 10 23 7 24 8 25
REMARK SMILES IDX 9 26 23 27 24 28 25 29 26 30 27 31 28 33 29 34 30 35 91 36
REMARK SMILES IDX 31 37 90 38 32 39 33 40 34 41 84 42 35 43 89 44 83 45 85 46
REMARK SMILES IDX 36 47 88 48 82 49 81 50 37 52 69 53 49 54 68 55 50 56 53 57
REMARK SMILES IDX 67 58 86 59 51 60 52 61 66 63 87 64 54 65 38 66 39 67 47 68
REMARK SMILES IDX 40 69 46 70 48 71 45 72 41 73 42 74 43 75 44 76 70 77 71 78
REMARK SMILES IDX 79 79 72 80 78 81 80 82 77 83 73 84 74 85 75 86 76 87 55 88
REMARK SMILES IDX 56 89 64 90 57 91 63 92 65 93 62 94 58 95 59 96 60 97 61 98
REMARK H PARENT 19 7 3 17 12 18 26 32 85 51 53 62
REMARK Flexibility Score: inf
ROOT
ATOM      1  C   UNL     1       0.989  -1.806   4.107  1.00  0.00     0.002 C 
ENDROOT
BRANCH   1   2
ATOM      2  C   UNL     1       1.486  -1.577   2.676  1.00  0.00     0.021 C 
BRANCH   2   3
ATOM      3  C   UNL     1       1.696  -2.862   1.879  1.00  0.00     0.116 C 
BRANCH   3   4
ATOM      4  N   UNL     1       0.431  -3.499   1.566  1.00  0.00    -0.356 N 
ATOM      5  C   UNL     1      -0.162  -3.766   0.371  1.00  0.00     0.227 C 
ATOM      6  O   UNL     1      -1.259  -4.334   0.400  1.00  0.00    -0.274 OA
ATOM      7  H   UNL     1      -0.086  -3.788   2.352  1.00  0.00     0.163 HD
BRANCH   5   8
ATOM      8  C   UNL     1       0.484  -3.413  -0.971  1.00  0.00     0.103 C 
ATOM      9  C   UNL     1       2.296  -1.860  -1.601  1.00  0.00     0.107 C 
ATOM     10  C   UNL     1       2.752  -3.286  -1.547  1.00  0.00    -0.006 C 
ATOM     11  C   UNL     1       0.820  -1.928  -1.172  1.00  0.00     0.047 C 
ATOM     12  C   UNL     1       1.777  -4.130  -1.198  1.00  0.00    -0.016 C 
BRANCH   9  13
ATOM     13  N   UNL     1       2.455  -1.396  -2.951  1.00  0.00    -0.332 N 
ATOM     14  O   UNL     1       4.640  -0.774  -2.759  1.00  0.00    -0.248 OA
ATOM     15  C   UNL     1       3.639  -0.945  -3.451  1.00  0.00     0.321 C 
ATOM     16  N   UNL     1       3.718  -0.798  -4.804  1.00  0.00    -0.284 N 
ATOM     17  H   UNL     1       4.600  -0.592  -5.189  1.00  0.00     0.174 HD
ATOM     18  H   UNL     1       1.669  -1.405  -3.544  1.00  0.00     0.165 HD
BRANCH  16  19
ATOM     19  C   UNL     1       2.667  -0.917  -5.663  1.00  0.00     0.191 A 
ATOM     20  N   UNL     1       1.389  -0.857  -5.373  1.00  0.00    -0.225 NA
ATOM     21  S   UNL     1       3.073  -1.245  -7.283  1.00  0.00    -0.105 S 
ATOM     22  C   UNL     1       0.660  -1.122  -6.512  1.00  0.00     0.057 A 
ATOM     23  C   UNL     1       1.399  -1.454  -7.628  1.00  0.00     0.092 A 
BRANCH  22  24
ATOM     24  C   UNL     1      -0.860  -1.042  -6.524  1.00  0.00     0.039 C 
ATOM     25  C   UNL     1      -1.598  -0.880  -5.212  1.00  0.00     0.011 C 
ATOM     26  C   UNL     1      -1.491   0.281  -6.143  1.00  0.00     0.011 C 
ENDBRANCH  22  24
ENDBRANCH  16  19
ENDBRANCH   9  13
ENDBRANCH   5   8
ENDBRANCH   3   4
ENDBRANCH   2   3
ENDBRANCH   1   2
BRANCH   1  27
ATOM     27  C   UNL     1       1.893  -2.695   4.968  1.00  0.00     0.002 C 
BRANCH  27  28
ATOM     28  C   UNL     1       3.356  -2.252   5.042  1.00  0.00     0.021 C 
BRANCH  28  29
ATOM     29  C   UNL     1       3.564  -0.837   5.570  1.00  0.00     0.116 C 
BRANCH  29  30
ATOM     30  N   UNL     1       3.095  -0.695   6.939  1.00  0.00    -0.352 N 
ATOM     31  C   UNL     1       3.774  -0.249   8.045  1.00  0.00     0.251 C 
ATOM     32  H   UNL     1       2.159  -0.955   7.095  1.00  0.00     0.163 HD
ATOM     33  O   UNL     1       3.287  -0.405   9.164  1.00  0.00    -0.269 OA
BRANCH  31  34
ATOM     34  C   UNL     1       5.096   0.393   7.888  1.00  0.00     0.039 A 
ATOM     35  C   UNL     1       6.130   0.040   8.757  1.00  0.00     0.014 A 
ATOM     36  C   UNL     1       5.316   1.340   6.883  1.00  0.00     0.014 A 
ATOM     37  C   UNL     1       7.401   0.592   8.580  1.00  0.00     0.010 A 
ATOM     38  C   UNL     1       6.601   1.828   6.659  1.00  0.00     0.010 A 
ATOM     39  C   UNL     1       7.657   1.463   7.507  1.00  0.00    -0.014 A 
BRANCH  39  40
ATOM     40  C   UNL     1       9.020   2.006   7.263  1.00  0.00     0.031 A 
ATOM     41  C   UNL     1       9.268   3.488   7.348  1.00  0.00     0.074 A 
ATOM     42  C   UNL     1      10.020   1.171   6.916  1.00  0.00     0.049 A 
ATOM     43  N   UNL     1      10.364   4.160   7.104  1.00  0.00    -0.248 NA
ATOM     44  C   UNL     1       8.121   4.326   7.729  1.00  0.00     0.031 C 
ATOM     45  C   UNL     1       9.896  -0.281   6.772  1.00  0.00     0.029 A 
ATOM     46  N   UNL     1      11.335   1.421   6.615  1.00  0.00    -0.354 N 
ATOM     47  C   UNL     1      10.039   5.499   7.295  1.00  0.00     0.074 A 
ATOM     48  C   UNL     1       8.625   5.544   7.605  1.00  0.00     0.031 C 
ATOM     49  C   UNL     1      11.092  -0.794   6.444  1.00  0.00     0.029 A 
ATOM     50  C   UNL     1      12.055   0.292   6.299  1.00  0.00     0.049 A 
ATOM     51  H   UNL     1      11.728   2.324   6.626  1.00  0.00     0.167 HD
ATOM     52  C   UNL     1      10.849   6.586   7.244  1.00  0.00     0.034 A 
ATOM     53  C   UNL     1      13.341   0.149   5.920  1.00  0.00     0.034 A 
ATOM     54  C   UNL     1      12.256   6.521   6.933  1.00  0.00     0.049 A 
ATOM     55  C   UNL     1      14.209   1.379   5.814  1.00  0.00     0.074 A 
ATOM     56  C   UNL     1      13.178   7.553   6.893  1.00  0.00     0.029 A 
ATOM     57  N   UNL     1      12.946   5.362   6.596  1.00  0.00    -0.354 N 
ATOM     58  N   UNL     1      13.898   2.634   6.043  1.00  0.00    -0.248 NA
ATOM     59  C   UNL     1      15.604   1.170   5.406  1.00  0.00     0.031 C 
ATOM     60  C   UNL     1      14.401   7.032   6.455  1.00  0.00     0.029 A 
ATOM     61  C   UNL     1      14.270   5.661   6.311  1.00  0.00     0.049 A 
ATOM     62  H   UNL     1      12.551   4.461   6.564  1.00  0.00     0.167 HD
ATOM     63  C   UNL     1      15.071   3.358   5.843  1.00  0.00     0.074 A 
ATOM     64  C   UNL     1      16.095   2.397   5.490  1.00  0.00     0.031 C 
ATOM     65  C   UNL     1      15.283   4.695   5.950  1.00  0.00     0.034 A 
BRANCH  52  66
ATOM     66  C   UNL     1      10.217   7.935   7.503  1.00  0.00     0.023 A 
ATOM     67  C   UNL     1       9.602   8.239   8.730  1.00  0.00     0.031 A 
ATOM     68  C   UNL     1      10.200   8.921   6.500  1.00  0.00     0.131 A 
ATOM     69  C   UNL     1       8.925   9.457   8.894  1.00  0.00     0.055 A 
ATOM     70  C   UNL     1       9.604  10.168   6.702  1.00  0.00     0.041 A 
ATOM     71  F   UNL     1      10.751   8.685   5.298  1.00  0.00    -0.206 F 
ATOM     72  C   UNL     1       8.945  10.435   7.898  1.00  0.00     0.022 A 
BRANCH  69  73
ATOM     73  S   UNL     1       7.880   9.674  10.360  1.00  0.00     0.124 S 
ATOM     74  O   UNL     1       6.959   8.546  10.236  1.00  0.00    -0.237 OA
ATOM     75  O   UNL     1       8.845   9.594  11.450  1.00  0.00    -0.237 OA
ATOM     76  O   UNL     1       7.273  10.988  10.157  1.00  0.00    -0.744 OA
ENDBRANCH  69  73
ENDBRANCH  52  66
BRANCH  53  77
ATOM     77  C   UNL     1      13.893  -1.201   5.601  1.00  0.00     0.023 A 
ATOM     78  C   UNL     1      14.941  -1.749   6.357  1.00  0.00     0.031 A 
ATOM     79  C   UNL     1      13.414  -1.942   4.506  1.00  0.00     0.131 A 
ATOM     80  C   UNL     1      15.513  -2.973   5.977  1.00  0.00     0.055 A 
ATOM     81  C   UNL     1      13.944  -3.188   4.169  1.00  0.00     0.041 A 
ATOM     82  F   UNL     1      12.412  -1.466   3.749  1.00  0.00    -0.206 F 
ATOM     83  C   UNL     1      15.011  -3.704   4.898  1.00  0.00     0.022 A 
BRANCH  80  84
ATOM     84  S   UNL     1      16.992  -3.550   6.854  1.00  0.00     0.124 S 
ATOM     85  O   UNL     1      17.913  -2.440   6.642  1.00  0.00    -0.237 OA
ATOM     86  O   UNL     1      16.491  -3.718   8.214  1.00  0.00    -0.237 OA
ATOM     87  O   UNL     1      17.337  -4.789   6.161  1.00  0.00    -0.744 OA
ENDBRANCH  80  84
ENDBRANCH  53  77
BRANCH  65  88
ATOM     88  C   UNL     1      16.695   5.188   5.732  1.00  0.00     0.023 A 
ATOM     89  C   UNL     1      17.335   5.088   4.484  1.00  0.00     0.031 A 
ATOM     90  C   UNL     1      17.413   5.761   6.798  1.00  0.00     0.131 A 
ATOM     91  C   UNL     1      18.671   5.497   4.349  1.00  0.00     0.055 A 
ATOM     92  C   UNL     1      18.717   6.230   6.639  1.00  0.00     0.041 A 
ATOM     93  F   UNL     1      16.855   5.878   8.013  1.00  0.00    -0.206 F 
ATOM     94  C   UNL     1      19.359   6.086   5.412  1.00  0.00     0.022 A 
BRANCH  91  95
ATOM     95  S   UNL     1      19.533   5.156   2.790  1.00  0.00     0.124 S 
ATOM     96  O   UNL     1      19.413   3.705   2.688  1.00  0.00    -0.237 OA
ATOM     97  O   UNL     1      18.756   5.929   1.827  1.00  0.00    -0.237 OA
ATOM     98  O   UNL     1      20.887   5.651   3.031  1.00  0.00    -0.744 OA
ENDBRANCH  91  95
ENDBRANCH  65  88
ENDBRANCH  39  40
ENDBRANCH  31  34
ENDBRANCH  29  30
ENDBRANCH  28  29
ENDBRANCH  27  28
ENDBRANCH   1  27
TORSDOF 19
