REMARK SMILES Cc1cc(C[N@@H+]2C[C@H](C)[C@H](C(=O)NCCCCCCNC(=O)c3ccc(-c4c5nc(c(-c6cc(S(=O)(=O)[O-])ccc6F)c6ccc([nH]6)c(-c6cc(S(=O)(=O)[O-])ccc6F)c6nc(c(-c7cc(S(=O)(=O)[O-])ccc7F)c7ccc4[nH]7)C=C6)C=C5)cc3)C2)ccc1Br
REMARK SMILES IDX 17 1 16 2 15 3 14 4 13 5 11 6 12 7 10 9 6 10 7 11 86 12 8 14
REMARK SMILES IDX 9 15 5 16 4 17 1 18 2 19 3 20 89 21 88 22 90 23 87 24 18 25
REMARK SMILES IDX 19 26 20 27 21 28 22 30 23 31 24 32 85 33 25 34 84 35 26 36
REMARK SMILES IDX 27 37 28 38 78 39 29 40 83 41 77 42 79 43 30 44 82 45 76 46
REMARK SMILES IDX 75 47 31 49 63 50 43 51 62 52 44 53 47 54 61 55 80 56 45 57
REMARK SMILES IDX 46 58 60 60 81 61 48 62 32 63 33 64 41 65 34 66 40 67 42 68
REMARK SMILES IDX 39 69 35 70 36 71 37 72 38 73 64 74 65 75 73 76 66 77 72 78
REMARK SMILES IDX 74 79 71 80 67 81 68 82 69 83 70 84 49 85 50 86 58 87 51 88
REMARK SMILES IDX 57 89 59 90 56 91 52 92 53 93 54 94 55 95
REMARK H PARENT 13 8 6 13 20 29 79 48 47 59
REMARK Flexibility Score: inf
ROOT
ATOM      1  C   UNL     1      -1.270  -1.734  -3.535  1.00  0.00     0.002 C 
ENDROOT
BRANCH   1   2
ATOM      2  C   UNL     1      -1.013  -0.241  -3.767  1.00  0.00     0.002 C 
BRANCH   2   3
ATOM      3  C   UNL     1       0.041   0.408  -2.865  1.00  0.00     0.021 C 
BRANCH   3   4
ATOM      4  C   UNL     1       1.452  -0.164  -2.991  1.00  0.00     0.116 C 
BRANCH   4   5
ATOM      5  N   UNL     1       2.108   0.263  -4.213  1.00  0.00    -0.356 N 
ATOM      6  C   UNL     1       3.279   0.909  -4.446  1.00  0.00     0.229 C 
ATOM      7  O   UNL     1       3.530   1.172  -5.629  1.00  0.00    -0.275 OA
ATOM      8  H   UNL     1       1.607   0.042  -5.031  1.00  0.00     0.163 HD
BRANCH   6   9
ATOM      9  C   UNL     1       4.260   1.347  -3.366  1.00  0.00     0.142 C 
ATOM     10  N   UNL     1       5.091   1.084  -1.160  1.00  0.00    -0.330 N 
ATOM     11  C   UNL     1       4.842   2.505  -1.354  1.00  0.00     0.266 C 
ATOM     12  C   UNL     1       4.680   0.315  -2.328  1.00  0.00     0.276 C 
ATOM     13  H   UNL     1       6.106   0.995  -1.109  1.00  0.00     0.348 HD
ATOM     14  C   UNL     1       3.969   2.643  -2.604  1.00  0.00     0.059 C 
ATOM     15  C   UNL     1       2.519   2.942  -2.251  1.00  0.00     0.015 C 
BRANCH  10  16
ATOM     16  C   UNL     1       4.837   0.510   0.156  1.00  0.00     0.299 C 
BRANCH  16  17
ATOM     17  C   UNL     1       3.386   0.332   0.560  1.00  0.00     0.007 A 
ATOM     18  C   UNL     1       0.908  -2.543   0.855  1.00  0.00     0.045 C 
ATOM     19  C   UNL     1       1.440  -1.137   0.901  1.00  0.00    -0.036 A 
ATOM     20  C   UNL     1       2.775  -0.933   0.497  1.00  0.00     0.014 A 
ATOM     21  C   UNL     1       0.713  -0.035   1.373  1.00  0.00     0.020 A 
ATOM     22  C   UNL     1       1.309   1.227   1.441  1.00  0.00     0.016 A 
ATOM     23  Br  UNL     1      -1.086  -0.155   1.962  1.00  0.00    -0.051 Br
ATOM     24  C   UNL     1       2.637   1.405   1.055  1.00  0.00     0.011 A 
ENDBRANCH  16  17
ENDBRANCH  10  16
ENDBRANCH   6   9
ENDBRANCH   4   5
ENDBRANCH   3   4
ENDBRANCH   2   3
ENDBRANCH   1   2
BRANCH   1  25
ATOM     25  C   UNL     1      -1.513  -2.153  -2.083  1.00  0.00     0.021 C 
BRANCH  25  26
ATOM     26  C   UNL     1      -2.692  -1.482  -1.383  1.00  0.00     0.116 C 
BRANCH  26  27
ATOM     27  N   UNL     1      -3.971  -1.909  -1.919  1.00  0.00    -0.352 N 
ATOM     28  C   UNL     1      -5.047  -2.479  -1.280  1.00  0.00     0.251 C 
ATOM     29  H   UNL     1      -4.086  -1.769  -2.886  1.00  0.00     0.163 HD
ATOM     30  O   UNL     1      -5.964  -2.939  -1.958  1.00  0.00    -0.269 OA
BRANCH  28  31
ATOM     31  C   UNL     1      -5.107  -2.572   0.202  1.00  0.00     0.039 A 
ATOM     32  C   UNL     1      -5.619  -3.740   0.777  1.00  0.00     0.014 A 
ATOM     33  C   UNL     1      -4.722  -1.513   1.028  1.00  0.00     0.014 A 
ATOM     34  C   UNL     1      -5.700  -3.863   2.169  1.00  0.00     0.010 A 
ATOM     35  C   UNL     1      -4.744  -1.661   2.419  1.00  0.00     0.010 A 
ATOM     36  C   UNL     1      -5.242  -2.834   3.006  1.00  0.00    -0.014 A 
BRANCH  36  37
ATOM     37  C   UNL     1      -5.301  -2.972   4.490  1.00  0.00     0.031 A 
ATOM     38  C   UNL     1      -6.194  -2.072   5.306  1.00  0.00     0.074 A 
ATOM     39  C   UNL     1      -4.533  -3.889   5.111  1.00  0.00     0.049 A 
ATOM     40  N   UNL     1      -6.366  -2.030   6.604  1.00  0.00    -0.248 NA
ATOM     41  C   UNL     1      -6.976  -1.072   4.566  1.00  0.00     0.031 C 
ATOM     42  C   UNL     1      -3.596  -4.796   4.444  1.00  0.00     0.029 A 
ATOM     43  N   UNL     1      -4.414  -4.212   6.441  1.00  0.00    -0.354 N 
ATOM     44  C   UNL     1      -7.267  -0.996   6.837  1.00  0.00     0.074 A 
ATOM     45  C   UNL     1      -7.557  -0.401   5.549  1.00  0.00     0.031 C 
ATOM     46  C   UNL     1      -3.019  -5.586   5.364  1.00  0.00     0.029 A 
ATOM     47  C   UNL     1      -3.513  -5.222   6.689  1.00  0.00     0.049 A 
ATOM     48  H   UNL     1      -4.926  -3.761   7.151  1.00  0.00     0.167 HD
ATOM     49  C   UNL     1      -7.820  -0.593   8.009  1.00  0.00     0.034 A 
ATOM     50  C   UNL     1      -3.123  -5.788   7.849  1.00  0.00     0.034 A 
ATOM     51  C   UNL     1      -7.535  -1.201   9.288  1.00  0.00     0.049 A 
ATOM     52  C   UNL     1      -3.741  -5.317   9.142  1.00  0.00     0.074 A 
ATOM     53  C   UNL     1      -8.084  -0.906  10.524  1.00  0.00     0.029 A 
ATOM     54  N   UNL     1      -6.616  -2.221   9.498  1.00  0.00    -0.354 N 
ATOM     55  N   UNL     1      -4.634  -4.374   9.336  1.00  0.00    -0.248 NA
ATOM     56  C   UNL     1      -3.309  -5.999  10.369  1.00  0.00     0.031 C 
ATOM     57  C   UNL     1      -7.453  -1.701  11.489  1.00  0.00     0.029 A 
ATOM     58  C   UNL     1      -6.562  -2.545  10.846  1.00  0.00     0.049 A 
ATOM     59  H   UNL     1      -6.081  -2.652   8.793  1.00  0.00     0.167 HD
ATOM     60  C   UNL     1      -4.890  -4.371  10.705  1.00  0.00     0.074 A 
ATOM     61  C   UNL     1      -4.071  -5.415  11.283  1.00  0.00     0.031 C 
ATOM     62  C   UNL     1      -5.731  -3.579  11.418  1.00  0.00     0.034 A 
BRANCH  49  63
ATOM     63  C   UNL     1      -8.772   0.580   7.961  1.00  0.00     0.023 A 
ATOM     64  C   UNL     1      -9.986   0.518   7.253  1.00  0.00     0.031 A 
ATOM     65  C   UNL     1      -8.452   1.785   8.611  1.00  0.00     0.131 A 
ATOM     66  C   UNL     1     -10.795   1.659   7.147  1.00  0.00     0.055 A 
ATOM     67  C   UNL     1      -9.301   2.893   8.569  1.00  0.00     0.041 A 
ATOM     68  F   UNL     1      -7.299   1.912   9.287  1.00  0.00    -0.206 F 
ATOM     69  C   UNL     1     -10.473   2.839   7.821  1.00  0.00     0.022 A 
BRANCH  66  70
ATOM     70  S   UNL     1     -12.199   1.622   5.999  1.00  0.00     0.124 S 
ATOM     71  O   UNL     1     -11.535   1.329   4.731  1.00  0.00    -0.237 OA
ATOM     72  O   UNL     1     -13.028   0.556   6.548  1.00  0.00    -0.237 OA
ATOM     73  O   UNL     1     -12.762   2.967   6.103  1.00  0.00    -0.744 OA
ENDBRANCH  66  70
ENDBRANCH  49  63
BRANCH  50  74
ATOM     74  C   UNL     1      -2.087  -6.860   7.854  1.00  0.00     0.023 A 
ATOM     75  C   UNL     1      -2.400  -8.169   8.252  1.00  0.00     0.031 A 
ATOM     76  C   UNL     1      -0.755  -6.577   7.502  1.00  0.00     0.131 A 
ATOM     77  C   UNL     1      -1.385  -9.137   8.333  1.00  0.00     0.055 A 
ATOM     78  C   UNL     1       0.240  -7.555   7.536  1.00  0.00     0.041 A 
ATOM     79  F   UNL     1      -0.404  -5.342   7.109  1.00  0.00    -0.206 F 
ATOM     80  C   UNL     1      -0.070  -8.841   7.967  1.00  0.00     0.022 A 
BRANCH  77  81
ATOM     81  S   UNL     1      -1.795 -10.772   9.003  1.00  0.00     0.124 S 
ATOM     82  O   UNL     1      -2.301 -10.433  10.328  1.00  0.00    -0.237 OA
ATOM     83  O   UNL     1      -2.782 -11.253   8.042  1.00  0.00    -0.237 OA
ATOM     84  O   UNL     1      -0.515 -11.477   8.984  1.00  0.00    -0.744 OA
ENDBRANCH  77  81
ENDBRANCH  50  74
BRANCH  62  85
ATOM     85  C   UNL     1      -5.832  -3.847  12.900  1.00  0.00     0.023 A 
ATOM     86  C   UNL     1      -4.753  -3.616  13.771  1.00  0.00     0.031 A 
ATOM     87  C   UNL     1      -7.022  -4.362  13.445  1.00  0.00     0.131 A 
ATOM     88  C   UNL     1      -4.864  -3.953  15.129  1.00  0.00     0.055 A 
ATOM     89  C   UNL     1      -7.147  -4.641  14.807  1.00  0.00     0.041 A 
ATOM     90  F   UNL     1      -8.085  -4.604  12.661  1.00  0.00    -0.206 F 
ATOM     91  C   UNL     1      -6.060  -4.450  15.655  1.00  0.00     0.022 A 
BRANCH  88  92
ATOM     92  S   UNL     1      -3.394  -3.823  16.184  1.00  0.00     0.124 S 
ATOM     93  O   UNL     1      -2.448  -4.696  15.497  1.00  0.00    -0.237 OA
ATOM     94  O   UNL     1      -3.098  -2.395  16.131  1.00  0.00    -0.237 OA
ATOM     95  O   UNL     1      -3.858  -4.311  17.481  1.00  0.00    -0.744 OA
ENDBRANCH  88  92
ENDBRANCH  62  85
ENDBRANCH  36  37
ENDBRANCH  28  31
ENDBRANCH  26  27
ENDBRANCH  25  26
ENDBRANCH   1  25
TORSDOF 18
