REMARK SMILES O=C(NCCCCCCNC(=O)[C@H](c1c[nH]c2ccc(Cl)cc12)[NH+]1CCN(c2ncc(Br)cn2)CC1)c1ccc(-c2c3nc(c(-c4cc(S(=O)(=O)[O-])ccc4F)c4ccc([nH]4)c(-c4cc(S(=O)(=O)[O-])ccc4F)c4nc(c(-c5cc(S(=O)(=O)[O-])ccc5F)c5ccc2[nH]5)C=C4)C=C3)cc1
REMARK SMILES IDX 6 1 5 2 4 3 3 4 1 5 2 6 37 8 38 9 99 10 39 11 98 12 40 13
REMARK SMILES IDX 41 14 42 15 92 16 43 17 97 18 91 19 93 20 44 21 96 22 90 23
REMARK SMILES IDX 89 24 45 26 77 27 57 28 76 29 58 30 61 31 75 32 94 33 59 34
REMARK SMILES IDX 60 35 74 37 95 38 62 39 46 40 47 41 55 42 48 43 54 44 56 45
REMARK SMILES IDX 53 46 49 47 50 48 51 49 52 50 78 51 79 52 87 53 80 54 86 55
REMARK SMILES IDX 88 56 85 57 81 58 82 59 83 60 84 61 63 62 64 63 72 64 65 65
REMARK SMILES IDX 71 66 73 67 70 68 66 69 67 70 68 71 69 72 7 73 8 74 9 75
REMARK SMILES IDX 10 76 11 77 12 79 13 80 24 81 25 82 36 83 26 85 35 86 27 87
REMARK SMILES IDX 28 88 29 89 34 90 30 91 33 92 31 93 32 94 14 95 15 96 23 97
REMARK SMILES IDX 16 98 17 99 22 100 18 102 20 103 19 104 21 105
REMARK H PARENT 3 7 93 25 61 36 10 78 24 84 16 101
REMARK Flexibility Score: inf
ROOT
ATOM      1  C   UNL     1      10.160   8.948   3.539  1.00  0.00     0.002 C 
ENDROOT
BRANCH   1   2
ATOM      2  C   UNL     1      10.554  10.425   3.518  1.00  0.00     0.021 C 
BRANCH   2   3
ATOM      3  C   UNL     1       9.531  11.350   4.160  1.00  0.00     0.116 C 
BRANCH   3   4
ATOM      4  N   UNL     1       9.411  11.121   5.590  1.00  0.00    -0.352 N 
ATOM      5  O   UNL     1       9.581  11.661   7.774  1.00  0.00    -0.269 OA
ATOM      6  C   UNL     1       9.515  12.035   6.612  1.00  0.00     0.251 C 
ATOM      7  H   UNL     1       9.233  10.192   5.862  1.00  0.00     0.163 HD
BRANCH   6   8
ATOM      8  C   UNL     1       9.560  13.476   6.280  1.00  0.00     0.039 A 
ATOM      9  C   UNL     1       8.656  14.014   5.359  1.00  0.00     0.014 A 
ATOM     10  C   UNL     1      10.520  14.289   6.886  1.00  0.00     0.014 A 
ATOM     11  C   UNL     1       8.792  15.334   4.952  1.00  0.00     0.010 A 
ATOM     12  C   UNL     1      10.598  15.640   6.538  1.00  0.00     0.010 A 
ATOM     13  C   UNL     1       9.746  16.169   5.555  1.00  0.00    -0.014 A 
BRANCH  13  14
ATOM     14  C   UNL     1       9.776  17.610   5.198  1.00  0.00     0.031 A 
ATOM     15  C   UNL     1      10.966  18.219   4.513  1.00  0.00     0.074 A 
ATOM     16  C   UNL     1       8.695  18.361   5.487  1.00  0.00     0.049 A 
ATOM     17  N   UNL     1      11.155  19.459   4.141  1.00  0.00    -0.248 NA
ATOM     18  C   UNL     1      12.093  17.324   4.216  1.00  0.00     0.031 C 
ATOM     19  C   UNL     1       7.486  17.869   6.154  1.00  0.00     0.029 A 
ATOM     20  N   UNL     1       8.425  19.683   5.248  1.00  0.00    -0.354 N 
ATOM     21  C   UNL     1      12.427  19.501   3.578  1.00  0.00     0.074 A 
ATOM     22  C   UNL     1      12.974  18.164   3.690  1.00  0.00     0.031 C 
ATOM     23  C   UNL     1       6.590  18.862   6.231  1.00  0.00     0.029 A 
ATOM     24  C   UNL     1       7.184  20.078   5.691  1.00  0.00     0.049 A 
ATOM     25  H   UNL     1       9.058  20.291   4.803  1.00  0.00     0.167 HD
ATOM     26  C   UNL     1      13.069  20.557   3.016  1.00  0.00     0.034 A 
ATOM     27  C   UNL     1       6.597  21.290   5.689  1.00  0.00     0.034 A 
ATOM     28  C   UNL     1      12.501  21.882   2.920  1.00  0.00     0.049 A 
ATOM     29  C   UNL     1       7.351  22.452   5.104  1.00  0.00     0.074 A 
ATOM     30  C   UNL     1      13.051  23.017   2.346  1.00  0.00     0.029 A 
ATOM     31  N   UNL     1      11.258  22.258   3.418  1.00  0.00    -0.354 N 
ATOM     32  N   UNL     1       8.547  22.471   4.563  1.00  0.00    -0.248 NA
ATOM     33  C   UNL     1       6.675  23.754   5.127  1.00  0.00     0.031 C 
ATOM     34  C   UNL     1      12.175  24.088   2.560  1.00  0.00     0.029 A 
ATOM     35  C   UNL     1      11.041  23.610   3.196  1.00  0.00     0.049 A 
ATOM     36  H   UNL     1      10.624  21.651   3.865  1.00  0.00     0.167 HD
ATOM     37  C   UNL     1       8.758  23.786   4.162  1.00  0.00     0.074 A 
ATOM     38  C   UNL     1       7.558  24.521   4.505  1.00  0.00     0.031 C 
ATOM     39  C   UNL     1       9.846  24.335   3.563  1.00  0.00     0.034 A 
BRANCH  26  40
ATOM     40  C   UNL     1      14.474  20.330   2.509  1.00  0.00     0.023 A 
ATOM     41  C   UNL     1      14.749  19.452   1.446  1.00  0.00     0.031 A 
ATOM     42  C   UNL     1      15.560  20.994   3.109  1.00  0.00     0.131 A 
ATOM     43  C   UNL     1      16.077  19.210   1.060  1.00  0.00     0.055 A 
ATOM     44  C   UNL     1      16.873  20.808   2.669  1.00  0.00     0.041 A 
ATOM     45  F   UNL     1      15.365  21.829   4.141  1.00  0.00    -0.206 F 
ATOM     46  C   UNL     1      17.139  19.901   1.648  1.00  0.00     0.022 A 
BRANCH  43  47
ATOM     47  S   UNL     1      16.409  17.880  -0.128  1.00  0.00     0.124 S 
ATOM     48  O   UNL     1      15.819  16.726   0.546  1.00  0.00    -0.237 OA
ATOM     49  O   UNL     1      15.715  18.344  -1.324  1.00  0.00    -0.237 OA
ATOM     50  O   UNL     1      17.867  17.858  -0.222  1.00  0.00    -0.744 OA
ENDBRANCH  43  47
ENDBRANCH  26  40
BRANCH  27  51
ATOM     51  C   UNL     1       5.247  21.467   6.293  1.00  0.00     0.023 A 
ATOM     52  C   UNL     1       4.149  21.855   5.512  1.00  0.00     0.031 A 
ATOM     53  C   UNL     1       5.042  21.268   7.671  1.00  0.00     0.131 A 
ATOM     54  C   UNL     1       2.901  22.068   6.120  1.00  0.00     0.055 A 
ATOM     55  C   UNL     1       3.788  21.426   8.261  1.00  0.00     0.041 A 
ATOM     56  F   UNL     1       6.059  20.891   8.462  1.00  0.00    -0.206 F 
ATOM     57  C   UNL     1       2.710  21.841   7.485  1.00  0.00     0.022 A 
BRANCH  54  58
ATOM     58  S   UNL     1       1.546  22.725   5.111  1.00  0.00     0.124 S 
ATOM     59  O   UNL     1       2.123  23.966   4.607  1.00  0.00    -0.237 OA
ATOM     60  O   UNL     1       1.356  21.661   4.130  1.00  0.00    -0.237 OA
ATOM     61  O   UNL     1       0.455  22.887   6.070  1.00  0.00    -0.744 OA
ENDBRANCH  54  58
ENDBRANCH  27  51
BRANCH  39  62
ATOM     62  C   UNL     1       9.757  25.799   3.212  1.00  0.00     0.023 A 
ATOM     63  C   UNL     1       9.695  26.794   4.204  1.00  0.00     0.031 A 
ATOM     64  C   UNL     1       9.702  26.201   1.866  1.00  0.00     0.131 A 
ATOM     65  C   UNL     1       9.522  28.137   3.835  1.00  0.00     0.055 A 
ATOM     66  C   UNL     1       9.592  27.544   1.504  1.00  0.00     0.041 A 
ATOM     67  F   UNL     1       9.752  25.292   0.879  1.00  0.00    -0.206 F 
ATOM     68  C   UNL     1       9.487  28.520   2.492  1.00  0.00     0.022 A 
BRANCH  65  69
ATOM     69  S   UNL     1       9.245  29.369   5.138  1.00  0.00     0.124 S 
ATOM     70  O   UNL     1       8.043  28.856   5.788  1.00  0.00    -0.237 OA
ATOM     71  O   UNL     1      10.476  29.284   5.915  1.00  0.00    -0.237 OA
ATOM     72  O   UNL     1       9.065  30.616   4.397  1.00  0.00    -0.744 OA
ENDBRANCH  65  69
ENDBRANCH  39  62
ENDBRANCH  13  14
ENDBRANCH   6   8
ENDBRANCH   3   4
ENDBRANCH   2   3
ENDBRANCH   1   2
BRANCH   1  73
ATOM     73  C   UNL     1       8.819   8.635   2.868  1.00  0.00     0.002 C 
BRANCH  73  74
ATOM     74  C   UNL     1       8.681   9.154   1.429  1.00  0.00     0.021 C 
BRANCH  74  75
ATOM     75  C   UNL     1       9.806   8.690   0.502  1.00  0.00     0.116 C 
BRANCH  75  76
ATOM     76  N   UNL     1       9.828   7.241   0.440  1.00  0.00    -0.351 N 
ATOM     77  C   UNL     1       9.076   6.443  -0.384  1.00  0.00     0.283 C 
ATOM     78  H   UNL     1      10.447   6.783   1.053  1.00  0.00     0.163 HD
ATOM     79  O   UNL     1       8.749   5.337   0.052  1.00  0.00    -0.268 OA
BRANCH  77  80
ATOM     80  C   UNL     1       8.742   6.947  -1.805  1.00  0.00     0.307 C 
BRANCH  80  81
ATOM     81  N   UNL     1       9.283   6.105  -2.904  1.00  0.00    -0.318 N 
ATOM     82  C   UNL     1      10.764   6.009  -2.858  1.00  0.00     0.285 C 
ATOM     83  C   UNL     1       8.718   4.768  -3.143  1.00  0.00     0.285 C 
ATOM     84  H   UNL     1       8.954   6.643  -3.705  1.00  0.00     0.349 HD
ATOM     85  C   UNL     1      11.363   4.887  -1.970  1.00  0.00     0.181 C 
ATOM     86  C   UNL     1       9.288   3.563  -2.357  1.00  0.00     0.181 C 
ATOM     87  N   UNL     1      10.748   3.608  -2.294  1.00  0.00    -0.330 N 
BRANCH  87  88
ATOM     88  C   UNL     1      11.372   2.460  -1.862  1.00  0.00     0.225 A 
ATOM     89  N   UNL     1      11.018   1.296  -2.439  1.00  0.00    -0.220 NA
ATOM     90  N   UNL     1      12.348   2.542  -0.939  1.00  0.00    -0.220 NA
ATOM     91  C   UNL     1      11.711   0.190  -2.096  1.00  0.00     0.132 A 
ATOM     92  C   UNL     1      12.979   1.400  -0.588  1.00  0.00     0.132 A 
ATOM     93  C   UNL     1      12.712   0.184  -1.160  1.00  0.00     0.054 A 
ATOM     94  Br  UNL     1      13.657  -1.373  -0.710  1.00  0.00    -0.047 Br
ENDBRANCH  87  88
ENDBRANCH  80  81
BRANCH  80  95
ATOM     95  C   UNL     1       7.272   7.294  -1.915  1.00  0.00     0.044 A 
ATOM     96  C   UNL     1       6.180   6.457  -1.751  1.00  0.00     0.094 A 
ATOM     97  C   UNL     1       6.730   8.628  -2.030  1.00  0.00     0.011 A 
ATOM     98  N   UNL     1       5.035   7.202  -1.805  1.00  0.00    -0.361 N 
ATOM     99  C   UNL     1       5.342   8.536  -1.914  1.00  0.00     0.046 A 
ATOM    100  C   UNL     1       7.298   9.915  -2.159  1.00  0.00     0.031 A 
ATOM    101  H   UNL     1       4.123   6.834  -1.771  1.00  0.00     0.166 HD
ATOM    102  C   UNL     1       4.498   9.654  -1.898  1.00  0.00     0.028 A 
ATOM    103  C   UNL     1       6.468  11.041  -2.121  1.00  0.00     0.041 A 
ATOM    104  C   UNL     1       5.090  10.916  -1.988  1.00  0.00     0.022 A 
ATOM    105  Cl  UNL     1       7.173  12.609  -2.213  1.00  0.00    -0.084 Cl
ENDBRANCH  80  95
ENDBRANCH  77  80
ENDBRANCH  75  76
ENDBRANCH  74  75
ENDBRANCH  73  74
ENDBRANCH   1  73
TORSDOF 19
