REMARK SMILES CC(C)(C)OC(=O)N[C@@H](Cc1c[nH]c2cccc(Cl)c12)C(=O)NCCCCCCNC(=O)c1ccc(-c2c3nc(c(-c4cc(S(=O)(=O)[O-])ccc4F)c4ccc([nH]4)c(-c4cc(S(=O)(=O)[O-])ccc4F)c4nc(c(-c5cc(S(=O)(=O)[O-])ccc5F)c5ccc2[nH]5)C=C4)C=C3)cc1
REMARK SMILES IDX 26 1 25 2 24 3 23 4 21 5 22 6 9 8 8 9 6 10 7 11 5 13 2 14
REMARK SMILES IDX 1 15 3 16 4 17 10 18 11 19 12 20 20 21 13 22 14 23 18 24
REMARK SMILES IDX 15 26 17 27 19 28 16 29 27 30 28 31 29 32 30 33 31 34 32 36
REMARK SMILES IDX 33 37 34 38 95 39 35 40 94 41 36 42 37 43 38 44 88 45 39 46
REMARK SMILES IDX 93 47 87 48 89 49 40 50 92 51 86 52 85 53 41 55 73 56 53 57
REMARK SMILES IDX 72 58 54 59 57 60 71 61 90 62 55 63 56 64 70 66 91 67 58 68
REMARK SMILES IDX 42 69 43 70 51 71 44 72 50 73 52 74 49 75 45 76 46 77 47 78
REMARK SMILES IDX 48 79 74 80 75 81 83 82 76 83 82 84 84 85 81 86 77 87 78 88
REMARK SMILES IDX 79 89 80 90 59 91 60 92 68 93 61 94 67 95 69 96 66 97 62 98
REMARK SMILES IDX 63 99 64 100 65 101
REMARK H PARENT 23 7 8 12 13 25 30 35 89 54 57 65
REMARK Flexibility Score: inf
ROOT
ATOM      1  C   UNL     1      -1.143   9.385  -1.614  1.00  0.00     0.002 C 
ENDROOT
BRANCH   1   2
ATOM      2  C   UNL     1      -0.760   8.022  -2.197  1.00  0.00     0.021 C 
BRANCH   2   3
ATOM      3  C   UNL     1       0.541   7.440  -1.665  1.00  0.00     0.116 C 
BRANCH   3   4
ATOM      4  N   UNL     1       0.454   6.833  -0.355  1.00  0.00    -0.354 N 
ATOM      5  C   UNL     1       1.171   5.797   0.177  1.00  0.00     0.243 C 
ATOM      6  O   UNL     1       1.204   5.725   1.413  1.00  0.00    -0.273 OA
ATOM      7  H   UNL     1      -0.223   7.224   0.244  1.00  0.00     0.163 HD
BRANCH   5   8
ATOM      8  C   UNL     1       1.997   4.799  -0.675  1.00  0.00     0.179 C 
BRANCH   8   9
ATOM      9  N   UNL     1       1.267   4.306  -1.843  1.00  0.00    -0.309 N 
ATOM     10  C   UNL     1       0.634   3.116  -1.989  1.00  0.00     0.408 C 
ATOM     11  O   UNL     1      -0.065   2.918  -2.982  1.00  0.00    -0.225 OA
ATOM     12  H   UNL     1       1.231   4.912  -2.617  1.00  0.00     0.167 HD
BRANCH  10  13
ATOM     13  O   UNL     1       0.895   2.218  -1.015  1.00  0.00    -0.444 OA
BRANCH  13  14
ATOM     14  C   UNL     1       0.393   0.859  -1.137  1.00  0.00     0.106 C 
ATOM     15  C   UNL     1       0.958   0.108   0.080  1.00  0.00     0.056 C 
ATOM     16  C   UNL     1       0.925   0.175  -2.405  1.00  0.00     0.056 C 
ATOM     17  C   UNL     1      -1.138   0.818  -1.064  1.00  0.00     0.056 C 
ENDBRANCH  13  14
ENDBRANCH  10  13
ENDBRANCH   8   9
BRANCH   8  18
ATOM     18  C   UNL     1       3.441   5.238  -0.999  1.00  0.00     0.073 C 
BRANCH  18  19
ATOM     19  C   UNL     1       3.619   6.471  -1.843  1.00  0.00    -0.019 A 
ATOM     20  C   UNL     1       3.550   6.483  -3.226  1.00  0.00     0.087 A 
ATOM     21  C   UNL     1       3.873   7.835  -1.427  1.00  0.00     0.021 A 
ATOM     22  N   UNL     1       3.686   7.769  -3.664  1.00  0.00    -0.361 N 
ATOM     23  C   UNL     1       3.865   8.616  -2.595  1.00  0.00     0.047 A 
ATOM     24  C   UNL     1       4.047   8.541  -0.211  1.00  0.00     0.050 A 
ATOM     25  H   UNL     1       3.659   8.049  -4.607  1.00  0.00     0.166 HD
ATOM     26  C   UNL     1       3.984  10.015  -2.587  1.00  0.00     0.027 A 
ATOM     27  C   UNL     1       4.145   9.936  -0.176  1.00  0.00     0.021 A 
ATOM     28  Cl  UNL     1       4.114   7.657   1.248  1.00  0.00    -0.084 Cl
ATOM     29  C   UNL     1       4.101  10.664  -1.356  1.00  0.00     0.004 A 
ENDBRANCH  18  19
ENDBRANCH   8  18
ENDBRANCH   5   8
ENDBRANCH   3   4
ENDBRANCH   2   3
ENDBRANCH   1   2
BRANCH   1  30
ATOM     30  C   UNL     1      -0.068  10.485  -1.645  1.00  0.00     0.002 C 
BRANCH  30  31
ATOM     31  C   UNL     1       0.644  10.736  -2.982  1.00  0.00     0.021 C 
BRANCH  31  32
ATOM     32  C   UNL     1      -0.264  11.146  -4.127  1.00  0.00     0.116 C 
BRANCH  32  33
ATOM     33  N   UNL     1      -0.940  12.409  -3.870  1.00  0.00    -0.352 N 
ATOM     34  C   UNL     1      -1.864  13.058  -4.657  1.00  0.00     0.251 C 
ATOM     35  H   UNL     1      -0.706  12.856  -3.025  1.00  0.00     0.163 HD
ATOM     36  O   UNL     1      -2.077  14.255  -4.486  1.00  0.00    -0.269 OA
BRANCH  34  37
ATOM     37  C   UNL     1      -2.577  12.312  -5.711  1.00  0.00     0.039 A 
ATOM     38  C   UNL     1      -2.849  12.924  -6.936  1.00  0.00     0.014 A 
ATOM     39  C   UNL     1      -2.988  10.999  -5.472  1.00  0.00     0.014 A 
ATOM     40  C   UNL     1      -3.474  12.184  -7.934  1.00  0.00     0.010 A 
ATOM     41  C   UNL     1      -3.494  10.230  -6.498  1.00  0.00     0.010 A 
ATOM     42  C   UNL     1      -3.776  10.828  -7.719  1.00  0.00    -0.014 A 
BRANCH  42  43
ATOM     43  C   UNL     1      -4.315  10.029  -8.814  1.00  0.00     0.031 A 
ATOM     44  C   UNL     1      -3.508  10.062 -10.060  1.00  0.00     0.074 A 
ATOM     45  C   UNL     1      -5.382   9.210  -8.718  1.00  0.00     0.049 A 
ATOM     46  N   UNL     1      -3.749  10.746 -11.128  1.00  0.00    -0.248 NA
ATOM     47  C   UNL     1      -2.204   9.385 -10.062  1.00  0.00     0.031 C 
ATOM     48  C   UNL     1      -6.110   8.793  -7.514  1.00  0.00     0.029 A 
ATOM     49  N   UNL     1      -6.005   8.511  -9.709  1.00  0.00    -0.354 N 
ATOM     50  C   UNL     1      -2.739  10.417 -12.027  1.00  0.00     0.074 A 
ATOM     51  C   UNL     1      -1.727   9.735 -11.259  1.00  0.00     0.031 C 
ATOM     52  C   UNL     1      -6.932   7.763  -7.816  1.00  0.00     0.029 A 
ATOM     53  C   UNL     1      -6.933   7.587  -9.256  1.00  0.00     0.049 A 
ATOM     54  H   UNL     1      -5.812   8.651 -10.664  1.00  0.00     0.167 HD
ATOM     55  C   UNL     1      -2.927  10.520 -13.374  1.00  0.00     0.034 A 
ATOM     56  C   UNL     1      -7.667   6.738 -10.012  1.00  0.00     0.034 A 
ATOM     57  C   UNL     1      -4.164  11.189 -13.674  1.00  0.00     0.049 A 
ATOM     58  C   UNL     1      -7.745   7.297 -11.377  1.00  0.00     0.074 A 
ATOM     59  C   UNL     1      -4.636  12.479 -13.601  1.00  0.00     0.029 A 
ATOM     60  N   UNL     1      -5.253  10.357 -13.759  1.00  0.00    -0.354 N 
ATOM     61  N   UNL     1      -8.391   8.388 -11.675  1.00  0.00    -0.248 NA
ATOM     62  C   UNL     1      -6.818   6.822 -12.396  1.00  0.00     0.031 C 
ATOM     63  C   UNL     1      -6.036  12.366 -13.365  1.00  0.00     0.029 A 
ATOM     64  C   UNL     1      -6.380  11.012 -13.340  1.00  0.00     0.049 A 
ATOM     65  H   UNL     1      -5.227   9.425 -14.076  1.00  0.00     0.167 HD
ATOM     66  C   UNL     1      -7.637   8.965 -12.678  1.00  0.00     0.074 A 
ATOM     67  C   UNL     1      -6.815   7.884 -13.206  1.00  0.00     0.031 C 
ATOM     68  C   UNL     1      -7.528  10.319 -12.781  1.00  0.00     0.034 A 
BRANCH  55  69
ATOM     69  C   UNL     1      -2.231   9.665 -14.405  1.00  0.00     0.023 A 
ATOM     70  C   UNL     1      -1.584   8.462 -14.073  1.00  0.00     0.031 A 
ATOM     71  C   UNL     1      -2.407   9.911 -15.782  1.00  0.00     0.131 A 
ATOM     72  C   UNL     1      -1.110   7.585 -15.056  1.00  0.00     0.055 A 
ATOM     73  C   UNL     1      -1.995   9.001 -16.766  1.00  0.00     0.041 A 
ATOM     74  F   UNL     1      -3.031  11.020 -16.211  1.00  0.00    -0.206 F 
ATOM     75  C   UNL     1      -1.339   7.831 -16.405  1.00  0.00     0.022 A 
BRANCH  72  76
ATOM     76  S   UNL     1      -0.205   6.089 -14.576  1.00  0.00     0.124 S 
ATOM     77  O   UNL     1      -1.002   5.040 -15.201  1.00  0.00    -0.237 OA
ATOM     78  O   UNL     1       1.105   6.335 -15.175  1.00  0.00    -0.237 OA
ATOM     79  O   UNL     1      -0.234   6.128 -13.117  1.00  0.00    -0.744 OA
ENDBRANCH  72  76
ENDBRANCH  55  69
BRANCH  56  80
ATOM     80  C   UNL     1      -8.006   5.330  -9.722  1.00  0.00     0.023 A 
ATOM     81  C   UNL     1      -7.127   4.553  -8.947  1.00  0.00     0.031 A 
ATOM     82  C   UNL     1      -8.986   4.657 -10.470  1.00  0.00     0.131 A 
ATOM     83  C   UNL     1      -7.186   3.155  -9.004  1.00  0.00     0.055 A 
ATOM     84  C   UNL     1      -9.054   3.261 -10.511  1.00  0.00     0.041 A 
ATOM     85  F   UNL     1      -9.844   5.342 -11.242  1.00  0.00    -0.206 F 
ATOM     86  C   UNL     1      -8.137   2.502  -9.790  1.00  0.00     0.022 A 
BRANCH  83  87
ATOM     87  S   UNL     1      -5.961   2.156  -8.115  1.00  0.00     0.124 S 
ATOM     88  O   UNL     1      -6.777   1.074  -7.569  1.00  0.00    -0.237 OA
ATOM     89  O   UNL     1      -5.053   1.778  -9.191  1.00  0.00    -0.237 OA
ATOM     90  O   UNL     1      -5.427   3.085  -7.123  1.00  0.00    -0.744 OA
ENDBRANCH  83  87
ENDBRANCH  56  80
BRANCH  68  91
ATOM     91  C   UNL     1      -8.572  11.168 -12.105  1.00  0.00     0.023 A 
ATOM     92  C   UNL     1      -9.274  12.072 -12.919  1.00  0.00     0.031 A 
ATOM     93  C   UNL     1      -8.780  11.241 -10.716  1.00  0.00     0.131 A 
ATOM     94  C   UNL     1     -10.111  13.035 -12.350  1.00  0.00     0.055 A 
ATOM     95  C   UNL     1      -9.670  12.163 -10.153  1.00  0.00     0.041 A 
ATOM     96  F   UNL     1      -8.086  10.476  -9.863  1.00  0.00    -0.206 F 
ATOM     97  C   UNL     1     -10.329  13.076 -10.970  1.00  0.00     0.022 A 
BRANCH  94  98
ATOM     98  S   UNL     1     -10.838  14.331 -13.381  1.00  0.00     0.124 S 
ATOM     99  O   UNL     1     -12.268  14.148 -13.151  1.00  0.00    -0.237 OA
ATOM    100  O   UNL     1     -10.260  15.543 -12.802  1.00  0.00    -0.237 OA
ATOM    101  O   UNL     1     -10.378  14.011 -14.730  1.00  0.00    -0.744 OA
ENDBRANCH  94  98
ENDBRANCH  68  91
ENDBRANCH  42  43
ENDBRANCH  34  37
ENDBRANCH  32  33
ENDBRANCH  31  32
ENDBRANCH  30  31
ENDBRANCH   1  30
TORSDOF 21
