REMARK SMILES Cc1ccc(-c2cnnc(-n3nc(C)c4c3NC(=O)C[C@@H]4c3ccc(C(=O)NCCCCCCNC(=O)c4ccc(-c5c6nc(c(-c7cc(S(=O)(=O)[O-])ccc7F)c7ccc([nH]7)c(-c7cc(S(=O)(=O)[O-])ccc7F)c7nc(c(-c8cc(S(=O)(=O)[O-])ccc8F)c8ccc5[nH]8)C=C7)C=C6)cc4)cc3)n2)cc1
REMARK SMILES IDX 31 1 30 2 29 3 28 4 26 5 27 6 25 8 22 9 23 10 102 11 24 12
REMARK SMILES IDX 101 13 21 14 11 15 12 16 16 17 13 18 15 19 17 20 14 21 18 22
REMARK SMILES IDX 20 24 19 25 10 26 6 27 7 28 103 29 8 30 9 31 5 32 1 33 2 34
REMARK SMILES IDX 3 35 105 36 4 37 104 38 32 39 33 40 34 41 35 42 36 43 37 45
REMARK SMILES IDX 38 46 39 47 100 48 40 49 99 50 41 51 42 52 43 53 93 54 44 55
REMARK SMILES IDX 98 56 92 57 94 58 45 59 97 60 91 61 90 62 46 64 78 65 58 66
REMARK SMILES IDX 77 67 59 68 62 69 76 70 95 71 60 72 61 73 75 75 96 76 63 77
REMARK SMILES IDX 47 78 48 79 56 80 49 81 55 82 57 83 54 84 50 85 51 86 52 87
REMARK SMILES IDX 53 88 79 89 80 90 88 91 81 92 87 93 89 94 86 95 82 96 83 97
REMARK SMILES IDX 84 98 85 99 64 100 65 101 73 102 66 103 72 104 74 105 71 106
REMARK SMILES IDX 67 107 68 108 69 109 70 110
REMARK H PARENT 28 7 17 23 35 44 94 63 62 74
REMARK Flexibility Score: inf
ROOT
ATOM      1  C   UNL     1     -12.566   7.915  -6.249  1.00  0.00     0.002 C 
ENDROOT
BRANCH   1   2
ATOM      2  C   UNL     1     -11.463   6.910  -5.886  1.00  0.00     0.021 C 
BRANCH   2   3
ATOM      3  C   UNL     1     -11.716   5.492  -6.399  1.00  0.00     0.116 C 
BRANCH   3   4
ATOM      4  N   UNL     1     -11.566   5.413  -7.845  1.00  0.00    -0.352 N 
ATOM      5  C   UNL     1     -10.672   4.726  -8.628  1.00  0.00     0.251 C 
ATOM      6  O   UNL     1     -10.841   4.659  -9.842  1.00  0.00    -0.269 OA
ATOM      7  H   UNL     1     -12.221   5.947  -8.351  1.00  0.00     0.163 HD
BRANCH   5   8
ATOM      8  C   UNL     1      -9.543   3.985  -8.023  1.00  0.00     0.039 A 
ATOM      9  C   UNL     1      -7.702   2.352  -6.677  1.00  0.00    -0.040 A 
ATOM     10  C   UNL     1      -8.323   1.908  -7.859  1.00  0.00     0.005 A 
ATOM     11  C   UNL     1      -7.873   3.693  -6.307  1.00  0.00     0.005 A 
ATOM     12  C   UNL     1      -9.233   2.722  -8.532  1.00  0.00     0.014 A 
ATOM     13  C   UNL     1      -8.795   4.500  -6.968  1.00  0.00     0.014 A 
BRANCH   9  14
ATOM     14  C   UNL     1      -6.935   1.335  -5.861  1.00  0.00     0.064 C 
ATOM     15  N   UNL     1      -5.833   2.112  -2.507  1.00  0.00    -0.180 N 
ATOM     16  N   UNL     1      -7.130   2.474  -2.300  1.00  0.00    -0.168 NA
ATOM     17  C   UNL     1      -5.585   2.111  -3.870  1.00  0.00     0.143 A 
ATOM     18  C   UNL     1      -7.745   2.179  -3.448  1.00  0.00     0.066 A 
ATOM     19  C   UNL     1      -6.804   1.797  -4.446  1.00  0.00     0.026 A 
ATOM     20  N   UNL     1      -4.481   2.363  -4.663  1.00  0.00    -0.310 N 
ATOM     21  C   UNL     1      -9.208   2.417  -3.528  1.00  0.00     0.069 C 
ATOM     22  C   UNL     1      -4.567   2.070  -6.070  1.00  0.00     0.226 C 
ATOM     23  H   UNL     1      -3.655   2.734  -4.276  1.00  0.00     0.171 HD
ATOM     24  C   UNL     1      -5.566   1.002  -6.452  1.00  0.00     0.113 C 
ATOM     25  O   UNL     1      -3.773   2.590  -6.813  1.00  0.00    -0.275 OA
BRANCH  15  26
ATOM     26  C   UNL     1      -5.126   1.394  -1.492  1.00  0.00     0.272 A 
ATOM     27  C   UNL     1      -3.298   0.342  -0.617  1.00  0.00     0.095 A 
ATOM     28  C   UNL     1      -4.112  -0.276   0.318  1.00  0.00     0.164 A 
ATOM     29  N   UNL     1      -3.799   1.153  -1.594  1.00  0.00    -0.208 NA
ATOM     30  N   UNL     1      -5.429  -0.045   0.347  1.00  0.00    -0.153 NA
ATOM     31  N   UNL     1      -5.928   0.835  -0.544  1.00  0.00    -0.109 NA
BRANCH  27  32
ATOM     32  C   UNL     1      -1.839   0.229  -0.505  1.00  0.00     0.002 A 
ATOM     33  C   UNL     1       2.446  -0.028   0.072  1.00  0.00     0.044 C 
ATOM     34  C   UNL     1       0.960   0.066  -0.103  1.00  0.00    -0.051 A 
ATOM     35  C   UNL     1       0.186  -1.096  -0.179  1.00  0.00     0.004 A 
ATOM     36  C   UNL     1       0.329   1.308  -0.212  1.00  0.00     0.004 A 
ATOM     37  C   UNL     1      -1.197  -1.016  -0.376  1.00  0.00     0.011 A 
ATOM     38  C   UNL     1      -1.051   1.387  -0.415  1.00  0.00     0.011 A 
ENDBRANCH  27  32
ENDBRANCH  15  26
ENDBRANCH   9  14
ENDBRANCH   5   8
ENDBRANCH   3   4
ENDBRANCH   2   3
ENDBRANCH   1   2
BRANCH   1  39
ATOM     39  C   UNL     1     -13.991   7.539  -5.810  1.00  0.00     0.002 C 
BRANCH  39  40
ATOM     40  C   UNL     1     -14.152   7.193  -4.332  1.00  0.00     0.021 C 
BRANCH  40  41
ATOM     41  C   UNL     1     -13.999   8.392  -3.415  1.00  0.00     0.116 C 
BRANCH  41  42
ATOM     42  N   UNL     1     -15.216   9.173  -3.261  1.00  0.00    -0.352 N 
ATOM     43  C   UNL     1     -15.537  10.155  -2.342  1.00  0.00     0.251 C 
ATOM     44  H   UNL     1     -15.924   8.970  -3.915  1.00  0.00     0.163 HD
ATOM     45  O   UNL     1     -16.709  10.488  -2.184  1.00  0.00    -0.269 OA
BRANCH  43  46
ATOM     46  C   UNL     1     -14.462  10.954  -1.699  1.00  0.00     0.039 A 
ATOM     47  C   UNL     1     -14.700  12.334  -1.566  1.00  0.00     0.014 A 
ATOM     48  C   UNL     1     -13.168  10.464  -1.628  1.00  0.00     0.014 A 
ATOM     49  C   UNL     1     -13.639  13.219  -1.676  1.00  0.00     0.010 A 
ATOM     50  C   UNL     1     -12.153  11.313  -1.951  1.00  0.00     0.010 A 
ATOM     51  C   UNL     1     -12.403  12.682  -2.003  1.00  0.00    -0.014 A 
BRANCH  51  52
ATOM     52  C   UNL     1     -11.222  13.440  -2.316  1.00  0.00     0.031 A 
ATOM     53  C   UNL     1     -10.290  13.660  -1.200  1.00  0.00     0.074 A 
ATOM     54  C   UNL     1     -10.956  13.665  -3.620  1.00  0.00     0.049 A 
ATOM     55  N   UNL     1      -9.456  14.630  -1.139  1.00  0.00    -0.248 NA
ATOM     56  C   UNL     1     -10.273  12.827   0.008  1.00  0.00     0.031 C 
ATOM     57  C   UNL     1      -9.689  14.022  -4.239  1.00  0.00     0.029 A 
ATOM     58  N   UNL     1     -11.881  13.772  -4.655  1.00  0.00    -0.354 N 
ATOM     59  C   UNL     1      -8.570  14.329  -0.127  1.00  0.00     0.074 A 
ATOM     60  C   UNL     1      -9.206  13.304   0.654  1.00  0.00     0.031 C 
ATOM     61  C   UNL     1      -9.930  14.553  -5.453  1.00  0.00     0.029 A 
ATOM     62  C   UNL     1     -11.373  14.690  -5.589  1.00  0.00     0.049 A 
ATOM     63  H   UNL     1     -12.738  13.291  -4.720  1.00  0.00     0.167 HD
ATOM     64  C   UNL     1      -7.312  14.834  -0.209  1.00  0.00     0.034 A 
ATOM     65  C   UNL     1     -12.024  15.877  -5.791  1.00  0.00     0.034 A 
ATOM     66  C   UNL     1      -7.184  15.613  -1.435  1.00  0.00     0.049 A 
ATOM     67  C   UNL     1     -11.210  17.047  -5.286  1.00  0.00     0.074 A 
ATOM     68  C   UNL     1      -6.686  15.287  -2.686  1.00  0.00     0.029 A 
ATOM     69  N   UNL     1      -7.933  16.766  -1.586  1.00  0.00    -0.354 N 
ATOM     70  N   UNL     1     -10.323  16.960  -4.330  1.00  0.00    -0.248 NA
ATOM     71  C   UNL     1     -11.277  18.382  -5.871  1.00  0.00     0.031 C 
ATOM     72  C   UNL     1      -7.183  16.243  -3.606  1.00  0.00     0.029 A 
ATOM     73  C   UNL     1      -7.963  17.148  -2.907  1.00  0.00     0.049 A 
ATOM     74  H   UNL     1      -8.380  17.245  -0.852  1.00  0.00     0.167 HD
ATOM     75  C   UNL     1      -9.684  18.167  -4.190  1.00  0.00     0.074 A 
ATOM     76  C   UNL     1     -10.324  19.024  -5.172  1.00  0.00     0.031 C 
ATOM     77  C   UNL     1      -8.662  18.355  -3.300  1.00  0.00     0.034 A 
BRANCH  64  78
ATOM     78  C   UNL     1      -6.107  14.400   0.580  1.00  0.00     0.023 A 
ATOM     79  C   UNL     1      -4.842  14.660   0.012  1.00  0.00     0.031 A 
ATOM     80  C   UNL     1      -6.088  13.750   1.825  1.00  0.00     0.131 A 
ATOM     81  C   UNL     1      -3.653  14.232   0.614  1.00  0.00     0.055 A 
ATOM     82  C   UNL     1      -4.898  13.311   2.429  1.00  0.00     0.041 A 
ATOM     83  F   UNL     1      -7.203  13.541   2.536  1.00  0.00    -0.206 F 
ATOM     84  C   UNL     1      -3.671  13.546   1.820  1.00  0.00     0.022 A 
BRANCH  81  85
ATOM     85  S   UNL     1      -2.094  14.586  -0.236  1.00  0.00     0.124 S 
ATOM     86  O   UNL     1      -2.250  13.835  -1.478  1.00  0.00    -0.237 OA
ATOM     87  O   UNL     1      -2.125  16.040  -0.351  1.00  0.00    -0.237 OA
ATOM     88  O   UNL     1      -1.085  14.059   0.681  1.00  0.00    -0.744 OA
ENDBRANCH  81  85
ENDBRANCH  64  78
BRANCH  65  89
ATOM     89  C   UNL     1     -13.510  15.721  -5.688  1.00  0.00     0.023 A 
ATOM     90  C   UNL     1     -14.124  14.910  -6.668  1.00  0.00     0.031 A 
ATOM     91  C   UNL     1     -14.167  15.870  -4.456  1.00  0.00     0.131 A 
ATOM     92  C   UNL     1     -15.226  14.109  -6.329  1.00  0.00     0.055 A 
ATOM     93  C   UNL     1     -15.302  15.109  -4.145  1.00  0.00     0.041 A 
ATOM     94  F   UNL     1     -13.634  16.624  -3.483  1.00  0.00    -0.206 F 
ATOM     95  C   UNL     1     -15.802  14.182  -5.061  1.00  0.00     0.022 A 
BRANCH  92  96
ATOM     96  S   UNL     1     -15.723  12.804  -7.492  1.00  0.00     0.124 S 
ATOM     97  O   UNL     1     -16.171  13.575  -8.647  1.00  0.00    -0.237 OA
ATOM     98  O   UNL     1     -14.477  12.060  -7.666  1.00  0.00    -0.237 OA
ATOM     99  O   UNL     1     -16.772  12.077  -6.781  1.00  0.00    -0.744 OA
ENDBRANCH  92  96
ENDBRANCH  65  89
BRANCH  77 100
ATOM    100  C   UNL     1      -8.139  19.685  -2.803  1.00  0.00     0.023 A 
ATOM    101  C   UNL     1      -8.770  20.894  -3.098  1.00  0.00     0.031 A 
ATOM    102  C   UNL     1      -7.018  19.782  -1.935  1.00  0.00     0.131 A 
ATOM    103  C   UNL     1      -8.239  22.118  -2.665  1.00  0.00     0.055 A 
ATOM    104  C   UNL     1      -6.555  20.993  -1.414  1.00  0.00     0.041 A 
ATOM    105  F   UNL     1      -6.323  18.710  -1.533  1.00  0.00    -0.206 F 
ATOM    106  C   UNL     1      -7.150  22.179  -1.802  1.00  0.00     0.022 A 
BRANCH 103 107
ATOM    107  S   UNL     1      -8.952  23.623  -3.363  1.00  0.00     0.124 S 
ATOM    108  O   UNL     1      -8.697  23.437  -4.790  1.00  0.00    -0.237 OA
ATOM    109  O   UNL     1     -10.349  23.525  -2.953  1.00  0.00    -0.237 OA
ATOM    110  O   UNL     1      -8.187  24.693  -2.728  1.00  0.00    -0.744 OA
ENDBRANCH 103 107
ENDBRANCH  77 100
ENDBRANCH  51  52
ENDBRANCH  43  46
ENDBRANCH  41  42
ENDBRANCH  40  41
ENDBRANCH  39  40
ENDBRANCH   1  39
TORSDOF 19
