REMARK SMILES O=C(NCCCCCCNC(=O)c1ccc2nc(-c3c[nH]nc3-c3ccc(F)cc3F)[nH]c2c1)c1ccc(-c2c3nc(c(-c4cc(S(=O)(=O)[O-])ccc4F)c4ccc([nH]4)c(-c4cc(S(=O)(=O)[O-])ccc4F)c4nc(c(-c5cc(S(=O)(=O)[O-])ccc5F)c5ccc2[nH]5)C=C4)C=C3)cc1
REMARK SMILES IDX 6 1 5 2 4 3 3 4 1 5 2 6 35 8 36 9 97 10 37 11 96 12 38 13
REMARK SMILES IDX 39 14 40 15 90 16 41 17 95 18 89 19 91 20 42 21 94 22 88 23
REMARK SMILES IDX 87 24 43 26 75 27 55 28 74 29 56 30 59 31 73 32 92 33 57 34
REMARK SMILES IDX 58 35 72 37 93 38 60 39 44 40 45 41 53 42 46 43 52 44 54 45
REMARK SMILES IDX 51 46 47 47 48 48 49 49 50 50 76 51 77 52 85 53 78 54 84 55
REMARK SMILES IDX 86 56 83 57 79 58 80 59 81 60 82 61 61 62 62 63 70 64 63 65
REMARK SMILES IDX 69 66 71 67 68 68 64 69 65 70 66 71 67 72 7 73 8 74 9 75
REMARK SMILES IDX 10 76 11 77 12 79 13 80 14 81 34 82 15 83 33 84 16 85 32 86
REMARK SMILES IDX 17 87 18 88 19 90 20 91 23 92 21 93 22 94 24 96 25 97 30 98
REMARK SMILES IDX 26 99 29 100 31 101 27 102 28 103
REMARK H PARENT 3 7 91 25 59 36 10 78 32 89 21 95
REMARK Flexibility Score: inf
ROOT
ATOM      1  C   UNL     1       4.126   3.975   0.416  1.00  0.00     0.002 C 
ENDROOT
BRANCH   1   2
ATOM      2  C   UNL     1       4.595   2.786  -0.421  1.00  0.00     0.021 C 
BRANCH   2   3
ATOM      3  C   UNL     1       4.353   1.421   0.209  1.00  0.00     0.116 C 
BRANCH   3   4
ATOM      4  N   UNL     1       2.939   1.120   0.357  1.00  0.00    -0.352 N 
ATOM      5  O   UNL     1       1.035  -0.043   0.029  1.00  0.00    -0.269 OA
ATOM      6  C   UNL     1       2.262  -0.013  -0.022  1.00  0.00     0.251 C 
ATOM      7  H   UNL     1       2.395   1.820   0.785  1.00  0.00     0.163 HD
BRANCH   6   8
ATOM      8  C   UNL     1       3.019  -1.190  -0.504  1.00  0.00     0.039 A 
ATOM      9  C   UNL     1       4.151  -1.636   0.183  1.00  0.00     0.014 A 
ATOM     10  C   UNL     1       2.581  -1.863  -1.649  1.00  0.00     0.014 A 
ATOM     11  C   UNL     1       4.905  -2.685  -0.332  1.00  0.00     0.010 A 
ATOM     12  C   UNL     1       3.297  -2.967  -2.121  1.00  0.00     0.010 A 
ATOM     13  C   UNL     1       4.471  -3.380  -1.472  1.00  0.00    -0.014 A 
BRANCH  13  14
ATOM     14  C   UNL     1       5.200  -4.602  -1.896  1.00  0.00     0.031 A 
ATOM     15  C   UNL     1       5.937  -4.660  -3.204  1.00  0.00     0.074 A 
ATOM     16  C   UNL     1       5.193  -5.665  -1.066  1.00  0.00     0.049 A 
ATOM     17  N   UNL     1       6.618  -5.652  -3.719  1.00  0.00    -0.248 NA
ATOM     18  C   UNL     1       5.902  -3.456  -4.047  1.00  0.00     0.031 C 
ATOM     19  C   UNL     1       4.497  -5.716   0.225  1.00  0.00     0.029 A 
ATOM     20  N   UNL     1       5.788  -6.895  -1.167  1.00  0.00    -0.354 N 
ATOM     21  C   UNL     1       7.080  -5.203  -4.951  1.00  0.00     0.074 A 
ATOM     22  C   UNL     1       6.584  -3.852  -5.114  1.00  0.00     0.031 C 
ATOM     23  C   UNL     1       4.733  -6.900   0.807  1.00  0.00     0.029 A 
ATOM     24  C   UNL     1       5.533  -7.719  -0.094  1.00  0.00     0.049 A 
ATOM     25  H   UNL     1       6.344  -7.164  -1.933  1.00  0.00     0.167 HD
ATOM     26  C   UNL     1       7.846  -5.862  -5.855  1.00  0.00     0.034 A 
ATOM     27  C   UNL     1       5.878  -9.002   0.128  1.00  0.00     0.034 A 
ATOM     28  C   UNL     1       8.336  -7.208  -5.666  1.00  0.00     0.049 A 
ATOM     29  C   UNL     1       6.698  -9.715  -0.912  1.00  0.00     0.074 A 
ATOM     30  C   UNL     1       9.169  -7.944  -6.492  1.00  0.00     0.029 A 
ATOM     31  N   UNL     1       8.029  -8.026  -4.586  1.00  0.00    -0.354 N 
ATOM     32  N   UNL     1       7.162  -9.257  -2.052  1.00  0.00    -0.248 NA
ATOM     33  C   UNL     1       7.042 -11.114  -0.637  1.00  0.00     0.031 C 
ATOM     34  C   UNL     1       9.306  -9.227  -5.949  1.00  0.00     0.029 A 
ATOM     35  C   UNL     1       8.620  -9.271  -4.747  1.00  0.00     0.049 A 
ATOM     36  H   UNL     1       7.472  -7.761  -3.819  1.00  0.00     0.167 HD
ATOM     37  C   UNL     1       7.867 -10.312  -2.622  1.00  0.00     0.074 A 
ATOM     38  C   UNL     1       7.792 -11.415  -1.687  1.00  0.00     0.031 C 
ATOM     39  C   UNL     1       8.515 -10.367  -3.813  1.00  0.00     0.034 A 
BRANCH  26  40
ATOM     40  C   UNL     1       8.171  -5.163  -7.152  1.00  0.00     0.023 A 
ATOM     41  C   UNL     1       9.010  -4.038  -7.203  1.00  0.00     0.031 A 
ATOM     42  C   UNL     1       7.653  -5.655  -8.364  1.00  0.00     0.131 A 
ATOM     43  C   UNL     1       9.277  -3.419  -8.435  1.00  0.00     0.055 A 
ATOM     44  C   UNL     1       7.971  -5.073  -9.592  1.00  0.00     0.041 A 
ATOM     45  F   UNL     1       6.831  -6.717  -8.373  1.00  0.00    -0.206 F 
ATOM     46  C   UNL     1       8.782  -3.944  -9.632  1.00  0.00     0.022 A 
BRANCH  43  47
ATOM     47  S   UNL     1      10.211  -1.865  -8.446  1.00  0.00     0.124 S 
ATOM     48  O   UNL     1       9.351  -0.996  -7.646  1.00  0.00    -0.237 OA
ATOM     49  O   UNL     1      11.476  -2.251  -7.832  1.00  0.00    -0.237 OA
ATOM     50  O   UNL     1      10.287  -1.519  -9.864  1.00  0.00    -0.744 OA
ENDBRANCH  43  47
ENDBRANCH  26  40
BRANCH  27  51
ATOM     51  C   UNL     1       5.408  -9.709   1.353  1.00  0.00     0.023 A 
ATOM     52  C   UNL     1       6.318 -10.215   2.293  1.00  0.00     0.031 A 
ATOM     53  C   UNL     1       4.037  -9.935   1.575  1.00  0.00     0.131 A 
ATOM     54  C   UNL     1       5.851 -10.964   3.384  1.00  0.00     0.055 A 
ATOM     55  C   UNL     1       3.574 -10.627   2.694  1.00  0.00     0.041 A 
ATOM     56  F   UNL     1       3.122  -9.472   0.708  1.00  0.00    -0.206 F 
ATOM     57  C   UNL     1       4.485 -11.162   3.599  1.00  0.00     0.022 A 
BRANCH  54  58
ATOM     58  S   UNL     1       7.065 -11.773   4.462  1.00  0.00     0.124 S 
ATOM     59  O   UNL     1       7.857 -12.534   3.502  1.00  0.00    -0.237 OA
ATOM     60  O   UNL     1       7.730 -10.630   5.078  1.00  0.00    -0.237 OA
ATOM     61  O   UNL     1       6.239 -12.573   5.363  1.00  0.00    -0.744 OA
ENDBRANCH  54  58
ENDBRANCH  27  51
BRANCH  39  62
ATOM     62  C   UNL     1       9.210 -11.664  -4.143  1.00  0.00     0.023 A 
ATOM     63  C   UNL     1       8.484 -12.843  -4.385  1.00  0.00     0.031 A 
ATOM     64  C   UNL     1      10.613 -11.729  -4.178  1.00  0.00     0.131 A 
ATOM     65  C   UNL     1       9.165 -14.052  -4.590  1.00  0.00     0.055 A 
ATOM     66  C   UNL     1      11.285 -12.922  -4.444  1.00  0.00     0.041 A 
ATOM     67  F   UNL     1      11.354 -10.632  -3.950  1.00  0.00    -0.206 F 
ATOM     68  C   UNL     1      10.561 -14.095  -4.637  1.00  0.00     0.022 A 
BRANCH  65  69
ATOM     69  S   UNL     1       8.203 -15.585  -4.697  1.00  0.00     0.124 S 
ATOM     70  O   UNL     1       7.522 -15.607  -3.406  1.00  0.00    -0.237 OA
ATOM     71  O   UNL     1       7.356 -15.342  -5.860  1.00  0.00    -0.237 OA
ATOM     72  O   UNL     1       9.222 -16.617  -4.879  1.00  0.00    -0.744 OA
ENDBRANCH  65  69
ENDBRANCH  39  62
ENDBRANCH  13  14
ENDBRANCH   6   8
ENDBRANCH   3   4
ENDBRANCH   2   3
ENDBRANCH   1   2
BRANCH   1  73
ATOM     73  C   UNL     1       4.695   4.045   1.836  1.00  0.00     0.002 C 
BRANCH  73  74
ATOM     74  C   UNL     1       6.223   3.968   1.941  1.00  0.00     0.021 C 
BRANCH  74  75
ATOM     75  C   UNL     1       6.980   4.989   1.094  1.00  0.00     0.116 C 
BRANCH  75  76
ATOM     76  N   UNL     1       6.657   6.349   1.491  1.00  0.00    -0.352 N 
ATOM     77  C   UNL     1       7.505   7.331   1.924  1.00  0.00     0.251 C 
ATOM     78  H   UNL     1       5.705   6.595   1.442  1.00  0.00     0.163 HD
ATOM     79  O   UNL     1       7.075   8.372   2.409  1.00  0.00    -0.269 OA
BRANCH  77  80
ATOM     80  C   UNL     1       8.959   7.127   1.804  1.00  0.00     0.042 A 
ATOM     81  C   UNL     1       9.532   6.971   0.534  1.00  0.00     0.016 A 
ATOM     82  C   UNL     1       9.729   7.136   2.977  1.00  0.00     0.042 A 
ATOM     83  C   UNL     1      10.918   6.844   0.398  1.00  0.00     0.031 A 
ATOM     84  C   UNL     1      11.104   6.978   2.805  1.00  0.00     0.067 A 
ATOM     85  C   UNL     1      11.708   6.881   1.555  1.00  0.00     0.089 A 
ATOM     86  N   UNL     1      12.149   6.889   3.690  1.00  0.00    -0.338 N 
ATOM     87  N   UNL     1      13.069   6.872   1.676  1.00  0.00    -0.228 NA
ATOM     88  C   UNL     1      13.315   6.884   2.968  1.00  0.00     0.142 A 
ATOM     89  H   UNL     1      12.075   6.837   4.670  1.00  0.00     0.168 HD
BRANCH  88  90
ATOM     90  C   UNL     1      14.678   6.941   3.540  1.00  0.00     0.063 A 
ATOM     91  C   UNL     1      15.079   6.463   4.763  1.00  0.00     0.117 A 
ATOM     92  C   UNL     1      15.836   7.519   2.947  1.00  0.00     0.106 A 
ATOM     93  N   UNL     1      16.427   6.677   4.803  1.00  0.00    -0.284 N 
ATOM     94  N   UNL     1      16.899   7.374   3.758  1.00  0.00    -0.175 NA
ATOM     95  H   UNL     1      17.000   6.350   5.534  1.00  0.00     0.189 HD
BRANCH  92  96
ATOM     96  C   UNL     1      15.903   8.320   1.731  1.00  0.00     0.039 A 
ATOM     97  C   UNL     1      15.087   9.460   1.613  1.00  0.00     0.016 A 
ATOM     98  C   UNL     1      16.744   7.978   0.670  1.00  0.00     0.135 A 
ATOM     99  C   UNL     1      15.110  10.228   0.448  1.00  0.00     0.040 A 
ATOM    100  C   UNL     1      16.773   8.744  -0.493  1.00  0.00     0.079 A 
ATOM    101  F   UNL     1      17.532   6.894   0.737  1.00  0.00    -0.206 F 
ATOM    102  C   UNL     1      15.954   9.862  -0.593  1.00  0.00     0.126 A 
ATOM    103  F   UNL     1      15.976  10.602  -1.709  1.00  0.00    -0.207 F 
ENDBRANCH  92  96
ENDBRANCH  88  90
ENDBRANCH  77  80
ENDBRANCH  75  76
ENDBRANCH  74  75
ENDBRANCH  73  74
ENDBRANCH   1  73
TORSDOF 18
