REMARK SMILES COCC[C@H](NC(=O)c1ccc(Br)nc1)C(=O)NCCCCCCNC(=O)c1ccc(-c2c3nc(c(-c4cc(S(=O)(=O)[O-])ccc4F)c4ccc([nH]4)c(-c4cc(S(=O)(=O)[O-])ccc4F)c4nc(c(-c5cc(S(=O)(=O)[O-])ccc5F)c5ccc2[nH]5)C=C4)C=C3)cc1
REMARK SMILES IDX 21 1 20 2 19 3 18 4 16 5 17 6 5 8 4 9 3 10 2 11 1 12 6 13
REMARK SMILES IDX 7 14 8 16 9 17 10 18 15 19 11 20 14 21 12 22 13 23 22 24
REMARK SMILES IDX 23 25 24 26 25 27 26 28 27 30 28 31 29 32 90 33 30 34 89 35
REMARK SMILES IDX 31 36 32 37 33 38 83 39 34 40 88 41 82 42 84 43 35 44 87 45
REMARK SMILES IDX 81 46 80 47 36 49 68 50 48 51 67 52 49 53 52 54 66 55 85 56
REMARK SMILES IDX 50 57 51 58 65 60 86 61 53 62 37 63 38 64 46 65 39 66 45 67
REMARK SMILES IDX 47 68 44 69 40 70 41 71 42 72 43 73 69 74 70 75 78 76 71 77
REMARK SMILES IDX 77 78 79 79 76 80 72 81 73 82 74 83 75 84 54 85 55 86 63 87
REMARK SMILES IDX 56 88 62 89 64 90 61 91 57 92 58 93 59 94 60 95
REMARK H PARENT 18 7 6 15 25 29 84 48 52 59
REMARK Flexibility Score: inf
ROOT
ATOM      1  C   UNL     1       0.340  -4.066   6.492  1.00  0.00     0.002 C 
ENDROOT
BRANCH   1   2
ATOM      2  C   UNL     1       0.663  -2.703   5.871  1.00  0.00     0.021 C 
BRANCH   2   3
ATOM      3  C   UNL     1       1.390  -2.774   4.532  1.00  0.00     0.116 C 
BRANCH   3   4
ATOM      4  N   UNL     1       0.523  -3.286   3.481  1.00  0.00    -0.354 N 
ATOM      5  C   UNL     1       0.366  -2.883   2.187  1.00  0.00     0.242 C 
ATOM      6  O   UNL     1      -0.314  -3.594   1.442  1.00  0.00    -0.273 OA
ATOM      7  H   UNL     1      -0.041  -4.047   3.747  1.00  0.00     0.163 HD
BRANCH   5   8
ATOM      8  C   UNL     1       1.132  -1.664   1.633  1.00  0.00     0.173 C 
BRANCH   8   9
ATOM      9  C   UNL     1       2.617  -2.031   1.472  1.00  0.00     0.063 C 
BRANCH   9  10
ATOM     10  C   UNL     1       2.851  -3.132   0.436  1.00  0.00     0.162 C 
BRANCH  10  11
ATOM     11  O   UNL     1       2.543  -2.674  -0.880  1.00  0.00    -0.385 OA
ATOM     12  C   UNL     1       1.359  -3.241  -1.427  1.00  0.00     0.194 C 
ENDBRANCH  10  11
ENDBRANCH   9  10
ENDBRANCH   8   9
BRANCH   8  13
ATOM     13  N   UNL     1       0.862  -0.486   2.471  1.00  0.00    -0.340 N 
ATOM     14  C   UNL     1       1.259   0.819   2.335  1.00  0.00     0.253 C 
ATOM     15  H   UNL     1       0.303  -0.665   3.261  1.00  0.00     0.164 HD
ATOM     16  O   UNL     1       0.914   1.660   3.152  1.00  0.00    -0.269 OA
BRANCH  14  17
ATOM     17  C   UNL     1       2.153   1.203   1.236  1.00  0.00     0.058 A 
ATOM     18  C   UNL     1       1.836   0.991  -0.104  1.00  0.00     0.018 A 
ATOM     19  C   UNL     1       3.390   1.745   1.553  1.00  0.00     0.126 A 
ATOM     20  C   UNL     1       2.803   1.254  -1.072  1.00  0.00     0.037 A 
ATOM     21  N   UNL     1       4.344   2.012   0.629  1.00  0.00    -0.249 NA
ATOM     22  C   UNL     1       4.037   1.745  -0.660  1.00  0.00     0.106 A 
ATOM     23  Br  UNL     1       5.383   2.039  -1.963  1.00  0.00    -0.029 Br
ENDBRANCH  14  17
ENDBRANCH   8  13
ENDBRANCH   5   8
ENDBRANCH   3   4
ENDBRANCH   2   3
ENDBRANCH   1   2
BRANCH   1  24
ATOM     24  C   UNL     1       1.543  -4.985   6.729  1.00  0.00     0.002 C 
BRANCH  24  25
ATOM     25  C   UNL     1       2.700  -4.371   7.523  1.00  0.00     0.021 C 
BRANCH  25  26
ATOM     26  C   UNL     1       2.322  -3.787   8.880  1.00  0.00     0.116 C 
BRANCH  26  27
ATOM     27  N   UNL     1       1.774  -4.783   9.781  1.00  0.00    -0.352 N 
ATOM     28  C   UNL     1       1.982  -4.936  11.129  1.00  0.00     0.251 C 
ATOM     29  H   UNL     1       1.168  -5.440   9.368  1.00  0.00     0.163 HD
ATOM     30  O   UNL     1       1.546  -5.935  11.696  1.00  0.00    -0.269 OA
BRANCH  28  31
ATOM     31  C   UNL     1       2.751  -3.922  11.887  1.00  0.00     0.039 A 
ATOM     32  C   UNL     1       3.690  -4.359  12.825  1.00  0.00     0.014 A 
ATOM     33  C   UNL     1       2.527  -2.553  11.707  1.00  0.00     0.014 A 
ATOM     34  C   UNL     1       4.428  -3.427  13.559  1.00  0.00     0.010 A 
ATOM     35  C   UNL     1       3.305  -1.624  12.397  1.00  0.00     0.010 A 
ATOM     36  C   UNL     1       4.250  -2.052  13.342  1.00  0.00    -0.014 A 
BRANCH  36  37
ATOM     37  C   UNL     1       5.001  -1.050  14.140  1.00  0.00     0.031 A 
ATOM     38  C   UNL     1       4.268  -0.179  15.125  1.00  0.00     0.074 A 
ATOM     39  C   UNL     1       6.325  -0.894  13.951  1.00  0.00     0.049 A 
ATOM     40  N   UNL     1       4.722   0.793  15.874  1.00  0.00    -0.248 NA
ATOM     41  C   UNL     1       2.823  -0.415  15.255  1.00  0.00     0.031 C 
ATOM     42  C   UNL     1       7.138  -1.650  12.996  1.00  0.00     0.029 A 
ATOM     43  N   UNL     1       7.219  -0.042  14.548  1.00  0.00    -0.354 N 
ATOM     44  C   UNL     1       3.616   1.298  16.551  1.00  0.00     0.074 A 
ATOM     45  C   UNL     1       2.464   0.560  16.077  1.00  0.00     0.031 C 
ATOM     46  C   UNL     1       8.414  -1.238  13.084  1.00  0.00     0.029 A 
ATOM     47  C   UNL     1       8.505  -0.175  14.080  1.00  0.00     0.049 A 
ATOM     48  H   UNL     1       6.964   0.604  15.245  1.00  0.00     0.167 HD
ATOM     49  C   UNL     1       3.568   2.271  17.496  1.00  0.00     0.034 A 
ATOM     50  C   UNL     1       9.629   0.487  14.418  1.00  0.00     0.034 A 
ATOM     51  C   UNL     1       4.728   2.986  17.970  1.00  0.00     0.049 A 
ATOM     52  C   UNL     1       9.561   1.538  15.495  1.00  0.00     0.074 A 
ATOM     53  C   UNL     1       4.803   3.972  18.939  1.00  0.00     0.029 A 
ATOM     54  N   UNL     1       6.024   2.786  17.509  1.00  0.00    -0.354 N 
ATOM     55  N   UNL     1       8.514   1.984  16.149  1.00  0.00    -0.248 NA
ATOM     56  C   UNL     1      10.831   2.158  15.894  1.00  0.00     0.031 C 
ATOM     57  C   UNL     1       6.135   4.396  19.034  1.00  0.00     0.029 A 
ATOM     58  C   UNL     1       6.902   3.633  18.169  1.00  0.00     0.049 A 
ATOM     59  H   UNL     1       6.281   2.137  16.816  1.00  0.00     0.167 HD
ATOM     60  C   UNL     1       9.005   2.913  17.061  1.00  0.00     0.074 A 
ATOM     61  C   UNL     1      10.442   2.955  16.878  1.00  0.00     0.031 C 
ATOM     62  C   UNL     1       8.332   3.661  17.973  1.00  0.00     0.034 A 
BRANCH  49  63
ATOM     63  C   UNL     1       2.206   2.627  18.044  1.00  0.00     0.023 A 
ATOM     64  C   UNL     1       1.430   1.691  18.752  1.00  0.00     0.031 A 
ATOM     65  C   UNL     1       1.650   3.896  17.807  1.00  0.00     0.131 A 
ATOM     66  C   UNL     1       0.112   2.005  19.114  1.00  0.00     0.055 A 
ATOM     67  C   UNL     1       0.367   4.231  18.247  1.00  0.00     0.041 A 
ATOM     68  F   UNL     1       2.333   4.825  17.121  1.00  0.00    -0.206 F 
ATOM     69  C   UNL     1      -0.418   3.277  18.889  1.00  0.00     0.022 A 
BRANCH  66  70
ATOM     70  S   UNL     1      -0.953   0.674  19.737  1.00  0.00     0.124 S 
ATOM     71  O   UNL     1      -0.942  -0.260  18.613  1.00  0.00    -0.237 OA
ATOM     72  O   UNL     1      -0.248   0.240  20.937  1.00  0.00    -0.237 OA
ATOM     73  O   UNL     1      -2.233   1.340  19.971  1.00  0.00    -0.744 OA
ENDBRANCH  66  70
ENDBRANCH  49  63
BRANCH  50  74
ATOM     74  C   UNL     1      10.919   0.168  13.747  1.00  0.00     0.023 A 
ATOM     75  C   UNL     1      11.965  -0.451  14.450  1.00  0.00     0.031 A 
ATOM     76  C   UNL     1      11.135   0.508  12.401  1.00  0.00     0.131 A 
ATOM     77  C   UNL     1      13.197  -0.672  13.816  1.00  0.00     0.055 A 
ATOM     78  C   UNL     1      12.349   0.249  11.763  1.00  0.00     0.041 A 
ATOM     79  F   UNL     1      10.161   1.090  11.683  1.00  0.00    -0.206 F 
ATOM     80  C   UNL     1      13.393  -0.334  12.475  1.00  0.00     0.022 A 
BRANCH  77  81
ATOM     81  S   UNL     1      14.565  -1.352  14.793  1.00  0.00     0.124 S 
ATOM     82  O   UNL     1      14.700  -0.358  15.851  1.00  0.00    -0.237 OA
ATOM     83  O   UNL     1      14.032  -2.650  15.196  1.00  0.00    -0.237 OA
ATOM     84  O   UNL     1      15.671  -1.405  13.840  1.00  0.00    -0.744 OA
ENDBRANCH  77  81
ENDBRANCH  50  74
BRANCH  62  85
ATOM     85  C   UNL     1       9.159   4.539  18.876  1.00  0.00     0.023 A 
ATOM     86  C   UNL     1       9.850   5.662  18.389  1.00  0.00     0.031 A 
ATOM     87  C   UNL     1       9.279   4.226  20.241  1.00  0.00     0.131 A 
ATOM     88  C   UNL     1      10.678   6.398  19.249  1.00  0.00     0.055 A 
ATOM     89  C   UNL     1      10.064   4.992  21.103  1.00  0.00     0.041 A 
ATOM     90  F   UNL     1       8.640   3.163  20.757  1.00  0.00    -0.206 F 
ATOM     91  C   UNL     1      10.780   6.077  20.606  1.00  0.00     0.022 A 
BRANCH  88  92
ATOM     92  S   UNL     1      11.700   7.724  18.551  1.00  0.00     0.124 S 
ATOM     93  O   UNL     1      12.441   7.023  17.507  1.00  0.00    -0.237 OA
ATOM     94  O   UNL     1      10.697   8.679  18.090  1.00  0.00    -0.237 OA
ATOM     95  O   UNL     1      12.505   8.172  19.687  1.00  0.00    -0.744 OA
ENDBRANCH  88  92
ENDBRANCH  62  85
ENDBRANCH  36  37
ENDBRANCH  28  31
ENDBRANCH  26  27
ENDBRANCH  25  26
ENDBRANCH  24  25
ENDBRANCH   1  24
TORSDOF 21
