REMARK SMILES Cc1cc(Nc2ccc(C(=O)NCCCCCCNC(=O)c3ccc(-c4c5nc(c(-c6cc(S(=O)(=O)[O-])ccc6F)c6ccc([nH]6)c(-c6cc(S(=O)(=O)[O-])ccc6F)c6nc(c(-c7cc(S(=O)(=O)[O-])ccc7F)c7ccc4[nH]7)C=C6)C=C5)cc3)cc2)nc(C(C)C)n1
REMARK SMILES IDX 15 1 14 2 13 3 12 4 10 5 11 6 9 8 6 9 7 10 86 11 8 12 85 13
REMARK SMILES IDX 5 14 4 16 1 17 2 18 3 19 92 20 88 21 87 22 89 23 90 24 91 25
REMARK SMILES IDX 16 26 17 27 18 28 19 29 20 30 21 32 22 33 23 34 84 35 24 36
REMARK SMILES IDX 83 37 25 38 26 39 27 40 77 41 28 42 82 43 76 44 78 45 29 46
REMARK SMILES IDX 81 47 75 48 74 49 30 51 62 52 42 53 61 54 43 55 46 56 60 57
REMARK SMILES IDX 79 58 44 59 45 60 59 62 80 63 47 64 31 65 32 66 40 67 33 68
REMARK SMILES IDX 39 69 41 70 38 71 34 72 35 73 36 74 37 75 63 76 64 77 72 78
REMARK SMILES IDX 65 79 71 80 73 81 70 82 66 83 67 84 68 85 69 86 48 87 49 88
REMARK SMILES IDX 57 89 50 90 56 91 58 92 55 93 51 94 52 95 53 96 54 97
REMARK H PARENT 12 7 5 15 19 31 78 50 46 61
REMARK Flexibility Score: inf
ROOT
ATOM      1  C   UNL     1       9.578  -0.893   3.730  1.00  0.00     0.002 C 
ENDROOT
BRANCH   1   2
ATOM      2  C   UNL     1       8.095  -1.008   3.352  1.00  0.00     0.021 C 
BRANCH   2   3
ATOM      3  C   UNL     1       7.792  -0.499   1.940  1.00  0.00     0.116 C 
BRANCH   3   4
ATOM      4  N   UNL     1       8.202  -1.491   0.961  1.00  0.00    -0.352 N 
ATOM      5  C   UNL     1       7.496  -2.377   0.190  1.00  0.00     0.251 C 
ATOM      6  O   UNL     1       8.131  -3.121  -0.559  1.00  0.00    -0.269 OA
ATOM      7  H   UNL     1       9.176  -1.535   0.825  1.00  0.00     0.163 HD
BRANCH   5   8
ATOM      8  C   UNL     1       6.009  -2.426   0.163  1.00  0.00     0.039 A 
ATOM      9  C   UNL     1       3.209  -2.357  -0.140  1.00  0.00     0.040 A 
ATOM     10  C   UNL     1       4.019  -2.771  -1.197  1.00  0.00     0.027 A 
ATOM     11  C   UNL     1       3.800  -2.101   1.102  1.00  0.00     0.027 A 
ATOM     12  C   UNL     1       5.409  -2.783  -1.054  1.00  0.00     0.016 A 
ATOM     13  C   UNL     1       5.189  -2.159   1.260  1.00  0.00     0.016 A 
BRANCH   9  14
ATOM     14  N   UNL     1       1.814  -2.313  -0.297  1.00  0.00    -0.340 N 
ATOM     15  H   UNL     1       1.353  -3.152  -0.527  1.00  0.00     0.168 HD
BRANCH  14  16
ATOM     16  C   UNL     1       1.028  -1.153  -0.150  1.00  0.00     0.134 A 
ATOM     17  C   UNL     1      -2.579  -0.132  -0.000  1.00  0.00     0.067 C 
ATOM     18  C   UNL     1      -1.082  -0.106  -0.044  1.00  0.00     0.043 A 
ATOM     19  C   UNL     1      -0.349  -1.272  -0.145  1.00  0.00     0.070 A 
ATOM     20  N   UNL     1      -0.501   1.107  -0.000  1.00  0.00    -0.238 NA
ATOM     21  C   UNL     1       0.843   1.141  -0.038  1.00  0.00     0.133 A 
ATOM     22  N   UNL     1       1.625   0.051  -0.108  1.00  0.00    -0.216 NA
BRANCH  21  23
ATOM     23  C   UNL     1       1.531   2.488  -0.057  1.00  0.00     0.051 C 
ATOM     24  C   UNL     1       1.178   3.254  -1.332  1.00  0.00     0.016 C 
ATOM     25  C   UNL     1       1.188   3.304   1.188  1.00  0.00     0.016 C 
ENDBRANCH  21  23
ENDBRANCH  14  16
ENDBRANCH   9  14
ENDBRANCH   5   8
ENDBRANCH   3   4
ENDBRANCH   2   3
ENDBRANCH   1   2
BRANCH   1  26
ATOM     26  C   UNL     1      10.105   0.544   3.834  1.00  0.00     0.002 C 
BRANCH  26  27
ATOM     27  C   UNL     1       9.346   1.444   4.814  1.00  0.00     0.021 C 
BRANCH  27  28
ATOM     28  C   UNL     1       9.357   0.956   6.260  1.00  0.00     0.116 C 
BRANCH  28  29
ATOM     29  N   UNL     1      10.700   0.952   6.815  1.00  0.00    -0.352 N 
ATOM     30  C   UNL     1      11.177   1.563   7.949  1.00  0.00     0.251 C 
ATOM     31  H   UNL     1      11.365   0.437   6.304  1.00  0.00     0.163 HD
ATOM     32  O   UNL     1      12.388   1.649   8.126  1.00  0.00    -0.269 OA
BRANCH  30  33
ATOM     33  C   UNL     1      10.234   2.127   8.940  1.00  0.00     0.039 A 
ATOM     34  C   UNL     1      10.521   3.367   9.516  1.00  0.00     0.014 A 
ATOM     35  C   UNL     1       9.087   1.425   9.323  1.00  0.00     0.014 A 
ATOM     36  C   UNL     1       9.633   3.925  10.438  1.00  0.00     0.010 A 
ATOM     37  C   UNL     1       8.168   2.014  10.189  1.00  0.00     0.010 A 
ATOM     38  C   UNL     1       8.435   3.266  10.762  1.00  0.00    -0.014 A 
BRANCH  38  39
ATOM     39  C   UNL     1       7.460   3.875  11.703  1.00  0.00     0.031 A 
ATOM     40  C   UNL     1       7.167   3.220  13.025  1.00  0.00     0.074 A 
ATOM     41  C   UNL     1       6.802   4.994  11.342  1.00  0.00     0.049 A 
ATOM     42  N   UNL     1       6.341   3.591  13.970  1.00  0.00    -0.248 NA
ATOM     43  C   UNL     1       7.876   1.965  13.306  1.00  0.00     0.031 C 
ATOM     44  C   UNL     1       6.967   5.695  10.067  1.00  0.00     0.029 A 
ATOM     45  N   UNL     1       5.868   5.740  12.013  1.00  0.00    -0.354 N 
ATOM     46  C   UNL     1       6.420   2.608  14.951  1.00  0.00     0.074 A 
ATOM     47  C   UNL     1       7.324   1.594  14.450  1.00  0.00     0.031 C 
ATOM     48  C   UNL     1       6.192   6.792  10.066  1.00  0.00     0.029 A 
ATOM     49  C   UNL     1       5.448   6.851  11.319  1.00  0.00     0.049 A 
ATOM     50  H   UNL     1       5.529   5.504  12.907  1.00  0.00     0.167 HD
ATOM     51  C   UNL     1       5.814   2.568  16.166  1.00  0.00     0.034 A 
ATOM     52  C   UNL     1       4.565   7.811  11.658  1.00  0.00     0.034 A 
ATOM     53  C   UNL     1       4.921   3.595  16.649  1.00  0.00     0.049 A 
ATOM     54  C   UNL     1       3.887   7.736  13.000  1.00  0.00     0.074 A 
ATOM     55  C   UNL     1       4.308   3.697  17.886  1.00  0.00     0.029 A 
ATOM     56  N   UNL     1       4.497   4.694  15.910  1.00  0.00    -0.354 N 
ATOM     57  N   UNL     1       4.022   6.837  13.948  1.00  0.00    -0.248 NA
ATOM     58  C   UNL     1       2.944   8.814  13.319  1.00  0.00     0.031 C 
ATOM     59  C   UNL     1       3.461   4.812  17.869  1.00  0.00     0.029 A 
ATOM     60  C   UNL     1       3.602   5.455  16.649  1.00  0.00     0.049 A 
ATOM     61  H   UNL     1       4.791   4.903  14.994  1.00  0.00     0.167 HD
ATOM     62  C   UNL     1       3.200   7.258  14.989  1.00  0.00     0.074 A 
ATOM     63  C   UNL     1       2.590   8.500  14.556  1.00  0.00     0.031 C 
ATOM     64  C   UNL     1       2.975   6.676  16.196  1.00  0.00     0.034 A 
BRANCH  51  65
ATOM     65  C   UNL     1       6.079   1.354  17.029  1.00  0.00     0.023 A 
ATOM     66  C   UNL     1       7.377   1.016  17.455  1.00  0.00     0.031 A 
ATOM     67  C   UNL     1       5.029   0.486  17.382  1.00  0.00     0.131 A 
ATOM     68  C   UNL     1       7.606  -0.203  18.113  1.00  0.00     0.055 A 
ATOM     69  C   UNL     1       5.251  -0.678  18.121  1.00  0.00     0.041 A 
ATOM     70  F   UNL     1       3.771   0.741  16.992  1.00  0.00    -0.206 F 
ATOM     71  C   UNL     1       6.549  -1.041  18.471  1.00  0.00     0.022 A 
BRANCH  68  72
ATOM     72  S   UNL     1       9.319  -0.762  18.323  1.00  0.00     0.124 S 
ATOM     73  O   UNL     1       9.807  -0.741  16.945  1.00  0.00    -0.237 OA
ATOM     74  O   UNL     1       9.874   0.250  19.213  1.00  0.00    -0.237 OA
ATOM     75  O   UNL     1       9.176  -2.096  18.903  1.00  0.00    -0.744 OA
ENDBRANCH  68  72
ENDBRANCH  51  65
BRANCH  52  76
ATOM     76  C   UNL     1       4.286   8.937  10.723  1.00  0.00     0.023 A 
ATOM     77  C   UNL     1       4.664  10.248  11.049  1.00  0.00     0.031 A 
ATOM     78  C   UNL     1       3.620   8.723   9.504  1.00  0.00     0.131 A 
ATOM     79  C   UNL     1       4.343  11.304  10.182  1.00  0.00     0.055 A 
ATOM     80  C   UNL     1       3.343   9.770   8.623  1.00  0.00     0.041 A 
ATOM     81  F   UNL     1       3.245   7.485   9.143  1.00  0.00    -0.206 F 
ATOM     82  C   UNL     1       3.697  11.072   8.966  1.00  0.00     0.022 A 
BRANCH  79  83
ATOM     83  S   UNL     1       4.736  12.998  10.696  1.00  0.00     0.124 S 
ATOM     84  O   UNL     1       3.952  13.128  11.919  1.00  0.00    -0.237 OA
ATOM     85  O   UNL     1       6.184  12.937  10.864  1.00  0.00    -0.237 OA
ATOM     86  O   UNL     1       4.277  13.809   9.570  1.00  0.00    -0.744 OA
ENDBRANCH  79  83
ENDBRANCH  52  76
BRANCH  64  87
ATOM     87  C   UNL     1       2.046   7.405  17.137  1.00  0.00     0.023 A 
ATOM     88  C   UNL     1       0.682   7.579  16.840  1.00  0.00     0.031 A 
ATOM     89  C   UNL     1       2.539   7.970  18.326  1.00  0.00     0.131 A 
ATOM     90  C   UNL     1      -0.124   8.359  17.684  1.00  0.00     0.055 A 
ATOM     91  C   UNL     1       1.718   8.687  19.197  1.00  0.00     0.041 A 
ATOM     92  F   UNL     1       3.834   7.839  18.659  1.00  0.00    -0.206 F 
ATOM     93  C   UNL     1       0.381   8.900  18.869  1.00  0.00     0.022 A 
BRANCH  90  94
ATOM     94  S   UNL     1      -1.813   8.755  17.153  1.00  0.00     0.124 S 
ATOM     95  O   UNL     1      -1.582   9.399  15.864  1.00  0.00    -0.237 OA
ATOM     96  O   UNL     1      -2.441   7.439  17.104  1.00  0.00    -0.237 OA
ATOM     97  O   UNL     1      -2.306   9.639  18.208  1.00  0.00    -0.744 OA
ENDBRANCH  90  94
ENDBRANCH  64  87
ENDBRANCH  38  39
ENDBRANCH  30  33
ENDBRANCH  28  29
ENDBRANCH  27  28
ENDBRANCH  26  27
ENDBRANCH   1  26
TORSDOF 19
