REMARK SMILES NC(=O)C1CC[NH+](Cc2ccc(C(=O)NCCCCCCNC(=O)c3ccc(-c4c5nc(c(-c6cc(S(=O)(=O)[O-])ccc6F)c6ccc([nH]6)c(-c6cc(S(=O)(=O)[O-])ccc6F)c6nc(c(-c7cc(S(=O)(=O)[O-])ccc7F)c7ccc4[nH]7)C=C6)C=C5)cc3)cc2)CC1
REMARK SMILES IDX 18 1 17 2 16 3 15 4 13 5 14 6 12 8 9 9 10 10 89 11 11 12
REMARK SMILES IDX 88 13 8 14 7 15 4 16 5 17 91 18 6 19 90 20 2 22 1 23 3 26
REMARK SMILES IDX 19 27 20 28 21 29 22 30 23 31 24 33 25 34 26 35 87 36 27 37
REMARK SMILES IDX 86 38 28 39 29 40 30 41 80 42 31 43 85 44 79 45 81 46 32 47
REMARK SMILES IDX 84 48 78 49 77 50 33 52 65 53 45 54 64 55 46 56 49 57 63 58
REMARK SMILES IDX 82 59 47 60 48 61 62 63 83 64 50 65 34 66 35 67 43 68 36 69
REMARK SMILES IDX 42 70 44 71 41 72 37 73 38 74 39 75 40 76 66 77 67 78 75 79
REMARK SMILES IDX 68 80 74 81 76 82 73 83 69 84 70 85 71 86 72 87 51 88 52 89
REMARK SMILES IDX 60 90 53 91 59 92 61 93 58 94 54 95 55 96 56 97 57 98
REMARK H PARENT 15 7 7 21 1 24 1 25 22 32 81 51 49 62
REMARK Flexibility Score: inf
ROOT
ATOM      1  C   UNL     1      -6.035   2.184  -5.035  1.00  0.00     0.002 C 
ENDROOT
BRANCH   1   2
ATOM      2  C   UNL     1      -4.620   2.606  -4.616  1.00  0.00     0.021 C 
BRANCH   2   3
ATOM      3  C   UNL     1      -3.834   1.504  -3.901  1.00  0.00     0.116 C 
BRANCH   3   4
ATOM      4  N   UNL     1      -3.379   0.503  -4.854  1.00  0.00    -0.352 N 
ATOM      5  C   UNL     1      -2.127   0.221  -5.339  1.00  0.00     0.251 C 
ATOM      6  O   UNL     1      -1.985  -0.744  -6.090  1.00  0.00    -0.269 OA
ATOM      7  H   UNL     1      -4.094  -0.071  -5.212  1.00  0.00     0.163 HD
BRANCH   5   8
ATOM      8  C   UNL     1      -0.932   0.999  -4.927  1.00  0.00     0.039 A 
ATOM      9  C   UNL     1       1.345   2.319  -3.930  1.00  0.00     0.006 A 
ATOM     10  C   UNL     1       1.379   0.942  -4.189  1.00  0.00     0.010 A 
ATOM     11  C   UNL     1       0.194   3.041  -4.283  1.00  0.00     0.010 A 
ATOM     12  C   UNL     1       0.247   0.286  -4.678  1.00  0.00     0.014 A 
ATOM     13  C   UNL     1      -0.930   2.388  -4.794  1.00  0.00     0.014 A 
BRANCH   9  14
ATOM     14  C   UNL     1       2.489   3.012  -3.211  1.00  0.00     0.299 C 
BRANCH  14  15
ATOM     15  N   UNL     1       2.438   2.974  -1.732  1.00  0.00    -0.331 N 
ATOM     16  C   UNL     1       1.380   2.145   0.885  1.00  0.00     0.089 C 
ATOM     17  C   UNL     1       1.165   3.562   0.340  1.00  0.00     0.075 C 
ATOM     18  C   UNL     1       2.714   1.633   0.334  1.00  0.00     0.075 C 
ATOM     19  C   UNL     1       1.207   3.573  -1.193  1.00  0.00     0.263 C 
ATOM     20  C   UNL     1       2.717   1.642  -1.195  1.00  0.00     0.263 C 
ATOM     21  H   UNL     1       3.199   3.569  -1.403  1.00  0.00     0.348 HD
BRANCH  16  22
ATOM     22  C   UNL     1       0.177   1.253   0.554  1.00  0.00     0.220 C 
ATOM     23  N   UNL     1       0.365  -0.094   0.619  1.00  0.00    -0.369 N 
ATOM     24  H   UNL     1      -0.380  -0.705   0.415  1.00  0.00     0.159 HD
ATOM     25  H   UNL     1       1.244  -0.457   0.871  1.00  0.00     0.159 HD
ATOM     26  O   UNL     1      -0.943   1.686   0.300  1.00  0.00    -0.275 OA
ENDBRANCH  16  22
ENDBRANCH  14  15
ENDBRANCH   9  14
ENDBRANCH   5   8
ENDBRANCH   3   4
ENDBRANCH   2   3
ENDBRANCH   1   2
BRANCH   1  27
ATOM     27  C   UNL     1      -6.992   1.881  -3.876  1.00  0.00     0.002 C 
BRANCH  27  28
ATOM     28  C   UNL     1      -7.174   3.015  -2.862  1.00  0.00     0.021 C 
BRANCH  28  29
ATOM     29  C   UNL     1      -7.710   4.320  -3.447  1.00  0.00     0.116 C 
BRANCH  29  30
ATOM     30  N   UNL     1      -9.049   4.159  -3.989  1.00  0.00    -0.352 N 
ATOM     31  C   UNL     1     -10.203   4.841  -3.694  1.00  0.00     0.251 C 
ATOM     32  H   UNL     1      -9.142   3.455  -4.671  1.00  0.00     0.163 HD
ATOM     33  O   UNL     1     -11.279   4.401  -4.088  1.00  0.00    -0.269 OA
BRANCH  31  34
ATOM     34  C   UNL     1     -10.158   6.090  -2.897  1.00  0.00     0.039 A 
ATOM     35  C   UNL     1     -11.145   6.307  -1.932  1.00  0.00     0.014 A 
ATOM     36  C   UNL     1      -9.184   7.066  -3.130  1.00  0.00     0.014 A 
ATOM     37  C   UNL     1     -11.130   7.479  -1.171  1.00  0.00     0.010 A 
ATOM     38  C   UNL     1      -9.134   8.207  -2.327  1.00  0.00     0.010 A 
ATOM     39  C   UNL     1     -10.111   8.430  -1.345  1.00  0.00    -0.014 A 
BRANCH  39  40
ATOM     40  C   UNL     1     -10.073   9.670  -0.524  1.00  0.00     0.031 A 
ATOM     41  C   UNL     1     -10.271  11.013  -1.175  1.00  0.00     0.074 A 
ATOM     42  C   UNL     1      -9.829   9.588   0.799  1.00  0.00     0.049 A 
ATOM     43  N   UNL     1     -10.219  12.207  -0.642  1.00  0.00    -0.248 NA
ATOM     44  C   UNL     1     -10.541  11.014  -2.621  1.00  0.00     0.031 C 
ATOM     45  C   UNL     1      -9.589   8.346   1.538  1.00  0.00     0.029 A 
ATOM     46  N   UNL     1      -9.735  10.565   1.759  1.00  0.00    -0.354 N 
ATOM     47  C   UNL     1     -10.449  13.100  -1.683  1.00  0.00     0.074 A 
ATOM     48  C   UNL     1     -10.576  12.311  -2.890  1.00  0.00     0.031 C 
ATOM     49  C   UNL     1      -9.394   8.636   2.834  1.00  0.00     0.029 A 
ATOM     50  C   UNL     1      -9.452  10.083   3.017  1.00  0.00     0.049 A 
ATOM     51  H   UNL     1      -9.858  11.523   1.565  1.00  0.00     0.167 HD
ATOM     52  C   UNL     1     -10.569  14.450  -1.635  1.00  0.00     0.034 A 
ATOM     53  C   UNL     1      -9.250  10.733   4.181  1.00  0.00     0.034 A 
ATOM     54  C   UNL     1     -10.447  15.226  -0.425  1.00  0.00     0.049 A 
ATOM     55  C   UNL     1      -9.365  12.238   4.203  1.00  0.00     0.074 A 
ATOM     56  C   UNL     1     -10.572  16.595  -0.260  1.00  0.00     0.029 A 
ATOM     57  N   UNL     1     -10.173  14.700   0.832  1.00  0.00    -0.354 N 
ATOM     58  N   UNL     1      -9.618  13.062   3.212  1.00  0.00    -0.248 NA
ATOM     59  C   UNL     1      -9.185  12.899   5.502  1.00  0.00     0.031 C 
ATOM     60  C   UNL     1     -10.321  16.902   1.081  1.00  0.00     0.029 A 
ATOM     61  C   UNL     1     -10.109  15.719   1.770  1.00  0.00     0.049 A 
ATOM     62  H   UNL     1     -10.044  13.744   1.027  1.00  0.00     0.167 HD
ATOM     63  C   UNL     1      -9.662  14.333   3.778  1.00  0.00     0.074 A 
ATOM     64  C   UNL     1      -9.428  14.164   5.197  1.00  0.00     0.031 C 
ATOM     65  C   UNL     1      -9.876  15.533   3.182  1.00  0.00     0.034 A 
BRANCH  52  66
ATOM     66  C   UNL     1     -10.836  15.172  -2.933  1.00  0.00     0.023 A 
ATOM     67  C   UNL     1     -12.030  14.976  -3.650  1.00  0.00     0.031 A 
ATOM     68  C   UNL     1      -9.889  16.065  -3.465  1.00  0.00     0.131 A 
ATOM     69  C   UNL     1     -12.220  15.614  -4.885  1.00  0.00     0.055 A 
ATOM     70  C   UNL     1     -10.116  16.755  -4.658  1.00  0.00     0.041 A 
ATOM     71  F   UNL     1      -8.723  16.279  -2.836  1.00  0.00    -0.206 F 
ATOM     72  C   UNL     1     -11.282  16.522  -5.381  1.00  0.00     0.022 A 
BRANCH  69  73
ATOM     73  S   UNL     1     -13.658  15.151  -5.888  1.00  0.00     0.124 S 
ATOM     74  O   UNL     1     -13.403  13.733  -6.128  1.00  0.00    -0.237 OA
ATOM     75  O   UNL     1     -14.774  15.459  -5.003  1.00  0.00    -0.237 OA
ATOM     76  O   UNL     1     -13.542  16.007  -7.067  1.00  0.00    -0.744 OA
ENDBRANCH  69  73
ENDBRANCH  52  66
BRANCH  53  77
ATOM     77  C   UNL     1      -8.901   9.982   5.422  1.00  0.00     0.023 A 
ATOM     78  C   UNL     1      -9.742  10.008   6.546  1.00  0.00     0.031 A 
ATOM     79  C   UNL     1      -7.685   9.284   5.527  1.00  0.00     0.131 A 
ATOM     80  C   UNL     1      -9.328   9.406   7.745  1.00  0.00     0.055 A 
ATOM     81  C   UNL     1      -7.305   8.633   6.703  1.00  0.00     0.041 A 
ATOM     82  F   UNL     1      -6.843   9.223   4.483  1.00  0.00    -0.206 F 
ATOM     83  C   UNL     1      -8.121   8.708   7.828  1.00  0.00     0.022 A 
BRANCH  80  84
ATOM     84  S   UNL     1     -10.336   9.654   9.233  1.00  0.00     0.124 S 
ATOM     85  O   UNL     1     -10.425  11.108   9.293  1.00  0.00    -0.237 OA
ATOM     86  O   UNL     1     -11.565   8.949   8.885  1.00  0.00    -0.237 OA
ATOM     87  O   UNL     1      -9.540   9.034  10.290  1.00  0.00    -0.744 OA
ENDBRANCH  80  84
ENDBRANCH  53  77
BRANCH  65  88
ATOM     88  C   UNL     1      -9.922  16.745   4.078  1.00  0.00     0.023 A 
ATOM     89  C   UNL     1      -8.781  17.209   4.756  1.00  0.00     0.031 A 
ATOM     90  C   UNL     1     -11.131  17.439   4.264  1.00  0.00     0.131 A 
ATOM     91  C   UNL     1      -8.886  18.299   5.633  1.00  0.00     0.055 A 
ATOM     92  C   UNL     1     -11.216  18.558   5.093  1.00  0.00     0.041 A 
ATOM     93  F   UNL     1     -12.252  17.039   3.641  1.00  0.00    -0.206 F 
ATOM     94  C   UNL     1     -10.092  18.986   5.793  1.00  0.00     0.022 A 
BRANCH  91  95
ATOM     95  S   UNL     1      -7.441  18.756   6.630  1.00  0.00     0.124 S 
ATOM     96  O   UNL     1      -7.181  17.526   7.371  1.00  0.00    -0.237 OA
ATOM     97  O   UNL     1      -6.456  19.106   5.611  1.00  0.00    -0.237 OA
ATOM     98  O   UNL     1      -7.921  19.877   7.436  1.00  0.00    -0.744 OA
ENDBRANCH  91  95
ENDBRANCH  65  88
ENDBRANCH  39  40
ENDBRANCH  31  34
ENDBRANCH  29  30
ENDBRANCH  28  29
ENDBRANCH  27  28
ENDBRANCH   1  27
TORSDOF 19
