REMARK SMILES COc1cc(/C=C2/S/C(=[NH+]\C(C)=O)NC2=O)cc(Br)c1OCC(=O)NCCCCCCNC(=O)c1ccc(-c2c3nc(c(-c4cc(S(=O)(=O)[O-])ccc4F)c4ccc([nH]4)c(-c4cc(S(=O)(=O)[O-])ccc4F)c4nc(c(-c5cc(S(=O)(=O)[O-])ccc5F)c5ccc2[nH]5)C=C4)C=C3)cc1
REMARK SMILES IDX 28 1 27 2 26 3 25 4 23 5 24 6 22 8 21 9 20 10 3 11 4 12 5 13
REMARK SMILES IDX 18 14 17 15 19 16 2 17 1 18 6 19 7 20 8 21 15 22 9 23 14 24
REMARK SMILES IDX 16 25 10 26 11 28 12 30 13 31 29 32 30 33 31 34 32 35 33 36
REMARK SMILES IDX 34 38 35 39 36 40 97 41 37 42 96 43 38 44 39 45 40 46 90 47
REMARK SMILES IDX 41 48 95 49 89 50 91 51 42 52 94 53 88 54 87 55 43 57 75 58
REMARK SMILES IDX 55 59 74 60 56 61 59 62 73 63 92 64 57 65 58 66 72 68 93 69
REMARK SMILES IDX 60 70 44 71 45 72 53 73 46 74 52 75 54 76 51 77 47 78 48 79
REMARK SMILES IDX 49 80 50 81 76 82 77 83 85 84 78 85 84 86 86 87 83 88 79 89
REMARK SMILES IDX 80 90 81 91 82 92 61 93 62 94 70 95 63 96 69 97 71 98 68 99
REMARK SMILES IDX 64 100 65 101 66 102 67 103
REMARK H PARENT 25 7 14 27 10 29 32 37 91 56 59 67
REMARK Flexibility Score: inf
ROOT
ATOM      1  C   UNL     1      -2.290   3.996  -1.409  1.00  0.00     0.002 C 
ENDROOT
BRANCH   1   2
ATOM      2  C   UNL     1      -2.031   2.487  -1.305  1.00  0.00     0.021 C 
BRANCH   2   3
ATOM      3  C   UNL     1      -3.021   1.610  -2.068  1.00  0.00     0.116 C 
BRANCH   3   4
ATOM      4  N   UNL     1      -3.020   1.915  -3.483  1.00  0.00    -0.353 N 
ATOM      5  C   UNL     1      -2.771   1.084  -4.533  1.00  0.00     0.257 C 
ATOM      6  O   UNL     1      -2.882   1.538  -5.674  1.00  0.00    -0.271 OA
ATOM      7  H   UNL     1      -3.227   2.848  -3.718  1.00  0.00     0.163 HD
BRANCH   5   8
ATOM      8  C   UNL     1      -2.458  -0.399  -4.273  1.00  0.00     0.329 C 
BRANCH   8   9
ATOM      9  O   UNL     1      -1.320  -0.813  -3.543  1.00  0.00    -0.479 OA
BRANCH   9  10
ATOM     10  C   UNL     1      -0.083  -0.278  -3.788  1.00  0.00     0.176 A 
ATOM     11  C   UNL     1       0.722  -0.132  -2.628  1.00  0.00     0.162 A 
ATOM     12  C   UNL     1       2.032   0.356  -2.721  1.00  0.00     0.058 A 
ATOM     13  C   UNL     1       2.554   0.734  -3.955  1.00  0.00    -0.019 A 
ATOM     14  C   UNL     1       0.480   0.038  -5.032  1.00  0.00     0.064 A 
ATOM     15  C   UNL     1       1.780   0.566  -5.104  1.00  0.00     0.028 A 
ATOM     16  Br  UNL     1      -0.303  -0.337  -6.724  1.00  0.00    -0.047 Br
BRANCH  11  17
ATOM     17  O   UNL     1       0.155  -0.531  -1.437  1.00  0.00    -0.493 OA
ATOM     18  C   UNL     1       0.752  -0.041  -0.240  1.00  0.00     0.278 C 
ENDBRANCH  11  17
BRANCH  13  19
ATOM     19  C   UNL     1       3.911   1.284  -4.038  1.00  0.00     0.032 C 
ATOM     20  C   UNL     1       4.186   2.568  -4.302  1.00  0.00     0.110 C 
ATOM     21  S   UNL     1       5.790   3.185  -4.534  1.00  0.00     0.007 SA
ATOM     22  C   UNL     1       3.206   3.668  -4.534  1.00  0.00     0.346 C 
ATOM     23  C   UNL     1       5.210   4.657  -5.250  1.00  0.00     0.324 C 
ATOM     24  N   UNL     1       3.864   4.734  -5.080  1.00  0.00    -0.199 N 
ATOM     25  O   UNL     1       2.015   3.644  -4.296  1.00  0.00    -0.240 OA
ATOM     26  N   UNL     1       5.779   5.619  -5.872  1.00  0.00    -0.204 N 
ATOM     27  H   UNL     1       3.371   5.543  -5.346  1.00  0.00     0.316 HD
ATOM     28  C   UNL     1       7.103   5.820  -6.155  1.00  0.00     0.304 C 
ATOM     29  H   UNL     1       5.172   6.323  -6.198  1.00  0.00     0.316 HD
ATOM     30  C   UNL     1       8.104   4.703  -6.257  1.00  0.00     0.144 C 
ATOM     31  O   UNL     1       7.503   6.958  -6.405  1.00  0.00    -0.247 OA
ENDBRANCH  13  19
ENDBRANCH   9  10
ENDBRANCH   8   9
ENDBRANCH   5   8
ENDBRANCH   3   4
ENDBRANCH   2   3
ENDBRANCH   1   2
BRANCH   1  32
ATOM     32  C   UNL     1      -3.703   4.453  -1.033  1.00  0.00     0.002 C 
BRANCH  32  33
ATOM     33  C   UNL     1      -4.180   4.026   0.357  1.00  0.00     0.021 C 
BRANCH  33  34
ATOM     34  C   UNL     1      -3.289   4.480   1.508  1.00  0.00     0.116 C 
BRANCH  34  35
ATOM     35  N   UNL     1      -3.213   5.927   1.604  1.00  0.00    -0.352 N 
ATOM     36  C   UNL     1      -3.433   6.744   2.685  1.00  0.00     0.251 C 
ATOM     37  H   UNL     1      -2.968   6.391   0.771  1.00  0.00     0.163 HD
ATOM     38  O   UNL     1      -3.523   7.957   2.514  1.00  0.00    -0.269 OA
BRANCH  36  39
ATOM     39  C   UNL     1      -3.583   6.170   4.042  1.00  0.00     0.039 A 
ATOM     40  C   UNL     1      -4.542   6.715   4.899  1.00  0.00     0.014 A 
ATOM     41  C   UNL     1      -2.767   5.123   4.485  1.00  0.00     0.014 A 
ATOM     42  C   UNL     1      -4.709   6.185   6.180  1.00  0.00     0.010 A 
ATOM     43  C   UNL     1      -2.993   4.542   5.731  1.00  0.00     0.010 A 
ATOM     44  C   UNL     1      -3.956   5.075   6.600  1.00  0.00    -0.014 A 
BRANCH  44  45
ATOM     45  C   UNL     1      -4.157   4.489   7.952  1.00  0.00     0.031 A 
ATOM     46  C   UNL     1      -3.040   4.508   8.962  1.00  0.00     0.074 A 
ATOM     47  C   UNL     1      -5.339   3.919   8.262  1.00  0.00     0.049 A 
ATOM     48  N   UNL     1      -3.022   4.043  10.186  1.00  0.00    -0.248 NA
ATOM     49  C   UNL     1      -1.766   5.104   8.531  1.00  0.00     0.031 C 
ATOM     50  C   UNL     1      -6.482   3.802   7.353  1.00  0.00     0.029 A 
ATOM     51  N   UNL     1      -5.780   3.338   9.424  1.00  0.00    -0.354 N 
ATOM     52  C   UNL     1      -1.739   4.285  10.667  1.00  0.00     0.074 A 
ATOM     53  C   UNL     1      -0.989   4.871   9.577  1.00  0.00     0.031 C 
ATOM     54  C   UNL     1      -7.504   3.225   8.004  1.00  0.00     0.029 A 
ATOM     55  C   UNL     1      -7.079   2.886   9.358  1.00  0.00     0.049 A 
ATOM     56  H   UNL     1      -5.220   3.252  10.229  1.00  0.00     0.167 HD
ATOM     57  C   UNL     1      -1.241   4.065  11.910  1.00  0.00     0.034 A 
ATOM     58  C   UNL     1      -7.839   2.265  10.282  1.00  0.00     0.034 A 
ATOM     59  C   UNL     1      -2.005   3.483  12.987  1.00  0.00     0.049 A 
ATOM     60  C   UNL     1      -7.254   2.006  11.648  1.00  0.00     0.074 A 
ATOM     61  C   UNL     1      -1.617   3.258  14.297  1.00  0.00     0.029 A 
ATOM     62  N   UNL     1      -3.313   3.024  12.880  1.00  0.00    -0.354 N 
ATOM     63  N   UNL     1      -6.056   2.293  12.103  1.00  0.00    -0.248 NA
ATOM     64  C   UNL     1      -8.132   1.356  12.628  1.00  0.00     0.031 C 
ATOM     65  C   UNL     1      -2.655   2.592  14.956  1.00  0.00     0.029 A 
ATOM     66  C   UNL     1      -3.731   2.484  14.089  1.00  0.00     0.049 A 
ATOM     67  H   UNL     1      -3.863   3.074  12.065  1.00  0.00     0.167 HD
ATOM     68  C   UNL     1      -6.050   1.886  13.435  1.00  0.00     0.074 A 
ATOM     69  C   UNL     1      -7.371   1.359  13.711  1.00  0.00     0.031 C 
ATOM     70  C   UNL     1      -5.045   1.944  14.349  1.00  0.00     0.034 A 
BRANCH  57  71
ATOM     71  C   UNL     1       0.207   4.430  12.155  1.00  0.00     0.023 A 
ATOM     72  C   UNL     1       0.670   5.752  12.027  1.00  0.00     0.031 A 
ATOM     73  C   UNL     1       1.143   3.439  12.499  1.00  0.00     0.131 A 
ATOM     74  C   UNL     1       2.039   6.032  12.161  1.00  0.00     0.055 A 
ATOM     75  C   UNL     1       2.489   3.740  12.720  1.00  0.00     0.041 A 
ATOM     76  F   UNL     1       0.770   2.154  12.614  1.00  0.00    -0.206 F 
ATOM     77  C   UNL     1       2.947   5.041  12.535  1.00  0.00     0.022 A 
BRANCH  74  78
ATOM     78  S   UNL     1       2.636   7.677  11.683  1.00  0.00     0.124 S 
ATOM     79  O   UNL     1       2.201   7.755  10.291  1.00  0.00    -0.237 OA
ATOM     80  O   UNL     1       1.940   8.550  12.621  1.00  0.00    -0.237 OA
ATOM     81  O   UNL     1       4.082   7.584  11.871  1.00  0.00    -0.744 OA
ENDBRANCH  74  78
ENDBRANCH  57  71
BRANCH  58  82
ATOM     82  C   UNL     1      -9.231   1.836   9.954  1.00  0.00     0.023 A 
ATOM     83  C   UNL     1     -10.335   2.367  10.640  1.00  0.00     0.031 A 
ATOM     84  C   UNL     1      -9.473   0.850   8.981  1.00  0.00     0.131 A 
ATOM     85  C   UNL     1     -11.623   1.871  10.384  1.00  0.00     0.055 A 
ATOM     86  C   UNL     1     -10.763   0.405   8.686  1.00  0.00     0.041 A 
ATOM     87  F   UNL     1      -8.455   0.309   8.293  1.00  0.00    -0.206 F 
ATOM     88  C   UNL     1     -11.846   0.905   9.400  1.00  0.00     0.022 A 
BRANCH  85  89
ATOM     89  S   UNL     1     -12.996   2.437  11.427  1.00  0.00     0.124 S 
ATOM     90  O   UNL     1     -12.530   2.062  12.757  1.00  0.00    -0.237 OA
ATOM     91  O   UNL     1     -13.028   3.866  11.136  1.00  0.00    -0.237 OA
ATOM     92  O   UNL     1     -14.138   1.675  10.927  1.00  0.00    -0.744 OA
ENDBRANCH  85  89
ENDBRANCH  58  82
BRANCH  70  93
ATOM     93  C   UNL     1      -5.362   1.460  15.745  1.00  0.00     0.023 A 
ATOM     94  C   UNL     1      -5.711   0.123  16.006  1.00  0.00     0.031 A 
ATOM     95  C   UNL     1      -5.353   2.360  16.827  1.00  0.00     0.131 A 
ATOM     96  C   UNL     1      -6.114  -0.258  17.295  1.00  0.00     0.055 A 
ATOM     97  C   UNL     1      -5.679   1.957  18.123  1.00  0.00     0.041 A 
ATOM     98  F   UNL     1      -5.033   3.650  16.641  1.00  0.00    -0.206 F 
ATOM     99  C   UNL     1      -6.081   0.646  18.359  1.00  0.00     0.022 A 
BRANCH  96 100
ATOM    100  S   UNL     1      -6.813  -1.915  17.532  1.00  0.00     0.124 S 
ATOM    101  O   UNL     1      -7.908  -1.922  16.567  1.00  0.00    -0.237 OA
ATOM    102  O   UNL     1      -5.680  -2.779  17.217  1.00  0.00    -0.237 OA
ATOM    103  O   UNL     1      -7.223  -1.916  18.936  1.00  0.00    -0.744 OA
ENDBRANCH  96 100
ENDBRANCH  70  93
ENDBRANCH  44  45
ENDBRANCH  36  39
ENDBRANCH  34  35
ENDBRANCH  33  34
ENDBRANCH  32  33
ENDBRANCH   1  32
TORSDOF 20
