REMARK SMILES Cc1noc(C)c1CCC(=O)N1CCC2(CC1)NC(=O)C[C@@H]2C(=O)NCCCCCCNC(=O)c1ccc(-c2c3nc(c(-c4cc(S(=O)(=O)[O-])ccc4F)c4ccc([nH]4)c(-c4cc(S(=O)(=O)[O-])ccc4F)c4nc(c(-c5cc(S(=O)(=O)[O-])ccc5F)c5ccc2[nH]5)C=C4)C=C3)cc1
REMARK SMILES IDX 28 1 27 2 26 3 25 4 23 5 24 6 22 8 10 9 11 10 12 11 13 12
REMARK SMILES IDX 17 13 14 14 16 15 15 16 18 17 19 18 21 20 20 21 9 22 8 23
REMARK SMILES IDX 7 24 1 25 2 26 3 27 4 28 5 29 6 30 29 31 30 32 31 33 32 34
REMARK SMILES IDX 33 35 34 37 35 38 36 39 97 40 37 41 96 42 38 43 39 44 40 45
REMARK SMILES IDX 90 46 41 47 95 48 89 49 91 50 42 51 94 52 88 53 87 54 43 56
REMARK SMILES IDX 75 57 55 58 74 59 56 60 59 61 73 62 92 63 57 64 58 65 72 67
REMARK SMILES IDX 93 68 60 69 44 70 45 71 53 72 46 73 52 74 54 75 51 76 47 77
REMARK SMILES IDX 48 78 49 79 50 80 76 81 77 82 85 83 78 84 84 85 86 86 83 87
REMARK SMILES IDX 79 88 80 89 81 90 82 91 61 92 62 93 70 94 63 95 69 96 71 97
REMARK SMILES IDX 68 98 64 99 65 100 66 101 67 102
REMARK H PARENT 25 7 18 19 32 36 91 55 59 66
REMARK Flexibility Score: inf
ROOT
ATOM      1  C   UNL     1      -7.129   1.010  -3.747  1.00  0.00     0.002 C 
ENDROOT
BRANCH   1   2
ATOM      2  C   UNL     1      -6.212  -0.214  -3.751  1.00  0.00     0.021 C 
BRANCH   2   3
ATOM      3  C   UNL     1      -5.385  -0.353  -2.490  1.00  0.00     0.116 C 
BRANCH   3   4
ATOM      4  N   UNL     1      -5.304  -1.656  -1.882  1.00  0.00    -0.356 N 
ATOM      5  C   UNL     1      -4.380  -1.880  -0.900  1.00  0.00     0.226 C 
ATOM      6  O   UNL     1      -4.822  -1.954   0.255  1.00  0.00    -0.275 OA
ATOM      7  H   UNL     1      -5.908  -2.378  -2.171  1.00  0.00     0.163 HD
BRANCH   5   8
ATOM      8  C   UNL     1      -2.928  -2.322  -1.162  1.00  0.00     0.113 C 
ATOM      9  C   UNL     1      -1.096   2.249  -1.520  1.00  0.00     0.222 C 
ATOM     10  O   UNL     1      -2.100   2.956  -1.638  1.00  0.00    -0.275 OA
ATOM     11  N   UNL     1      -1.075   0.912  -1.955  1.00  0.00    -0.343 N 
ATOM     12  C   UNL     1      -2.222   0.536  -2.734  1.00  0.00     0.122 C 
ATOM     13  C   UNL     1      -0.502  -0.125  -1.118  1.00  0.00     0.122 C 
ATOM     14  C   UNL     1      -2.179  -0.871  -3.324  1.00  0.00     0.051 C 
ATOM     15  C   UNL     1      -0.526  -1.541  -1.671  1.00  0.00     0.051 C 
ATOM     16  C   UNL     1      -1.895  -1.948  -2.281  1.00  0.00     0.055 C 
ATOM     17  N   UNL     1      -1.659  -3.213  -2.961  1.00  0.00    -0.350 N 
ATOM     18  C   UNL     1      -2.125  -4.315  -2.301  1.00  0.00     0.221 C 
ATOM     19  H   UNL     1      -1.200  -3.269  -3.830  1.00  0.00     0.164 HD
ATOM     20  C   UNL     1      -3.014  -3.871  -1.188  1.00  0.00     0.116 C 
ATOM     21  O   UNL     1      -1.854  -5.465  -2.589  1.00  0.00    -0.275 OA
BRANCH   9  22
ATOM     22  C   UNL     1       0.172   2.832  -0.938  1.00  0.00     0.105 C 
BRANCH  22  23
ATOM     23  C   UNL     1       0.161   2.967   0.582  1.00  0.00     0.051 C 
BRANCH  23  24
ATOM     24  C   UNL     1       0.347   1.686   1.327  1.00  0.00     0.018 A 
ATOM     25  C   UNL     1      -2.066   1.231   2.263  1.00  0.00     0.071 C 
ATOM     26  C   UNL     1      -0.620   0.952   2.076  1.00  0.00     0.084 A 
ATOM     27  N   UNL     1      -0.103  -0.185   2.558  1.00  0.00    -0.085 NA
ATOM     28  O   UNL     1       1.203  -0.224   2.120  1.00  0.00    -0.361 OA
ATOM     29  C   UNL     1       1.469   0.880   1.374  1.00  0.00     0.137 A 
ATOM     30  C   UNL     1       2.796   0.906   0.721  1.00  0.00     0.091 C 
ENDBRANCH  23  24
ENDBRANCH  22  23
ENDBRANCH   9  22
ENDBRANCH   5   8
ENDBRANCH   3   4
ENDBRANCH   2   3
ENDBRANCH   1   2
BRANCH   1  31
ATOM     31  C   UNL     1      -6.552   2.353  -3.267  1.00  0.00     0.002 C 
BRANCH  31  32
ATOM     32  C   UNL     1      -5.337   2.920  -4.005  1.00  0.00     0.021 C 
BRANCH  32  33
ATOM     33  C   UNL     1      -5.449   3.023  -5.523  1.00  0.00     0.116 C 
BRANCH  33  34
ATOM     34  N   UNL     1      -6.693   3.635  -5.960  1.00  0.00    -0.352 N 
ATOM     35  C   UNL     1      -6.926   4.704  -6.786  1.00  0.00     0.251 C 
ATOM     36  H   UNL     1      -7.505   3.210  -5.601  1.00  0.00     0.163 HD
ATOM     37  O   UNL     1      -8.071   5.133  -6.905  1.00  0.00    -0.269 OA
BRANCH  35  38
ATOM     38  C   UNL     1      -5.813   5.358  -7.506  1.00  0.00     0.039 A 
ATOM     39  C   UNL     1      -5.759   6.755  -7.526  1.00  0.00     0.014 A 
ATOM     40  C   UNL     1      -4.838   4.611  -8.172  1.00  0.00     0.014 A 
ATOM     41  C   UNL     1      -4.685   7.402  -8.142  1.00  0.00     0.010 A 
ATOM     42  C   UNL     1      -3.737   5.254  -8.734  1.00  0.00     0.010 A 
ATOM     43  C   UNL     1      -3.642   6.655  -8.711  1.00  0.00    -0.014 A 
BRANCH  43  44
ATOM     44  C   UNL     1      -2.426   7.314  -9.256  1.00  0.00     0.031 A 
ATOM     45  C   UNL     1      -2.100   7.209 -10.719  1.00  0.00     0.074 A 
ATOM     46  C   UNL     1      -1.576   7.932  -8.412  1.00  0.00     0.049 A 
ATOM     47  N   UNL     1      -1.028   7.600 -11.357  1.00  0.00    -0.248 NA
ATOM     48  C   UNL     1      -3.104   6.554 -11.570  1.00  0.00     0.031 C 
ATOM     49  C   UNL     1      -1.777   8.075  -6.967  1.00  0.00     0.029 A 
ATOM     50  N   UNL     1      -0.364   8.537  -8.637  1.00  0.00    -0.354 N 
ATOM     51  C   UNL     1      -1.219   7.228 -12.684  1.00  0.00     0.074 A 
ATOM     52  C   UNL     1      -2.490   6.536 -12.744  1.00  0.00     0.031 C 
ATOM     53  C   UNL     1      -0.733   8.733  -6.441  1.00  0.00     0.029 A 
ATOM     54  C   UNL     1       0.240   9.008  -7.493  1.00  0.00     0.049 A 
ATOM     55  H   UNL     1       0.035   8.626  -9.533  1.00  0.00     0.167 HD
ATOM     56  C   UNL     1      -0.414   7.457 -13.751  1.00  0.00     0.034 A 
ATOM     57  C   UNL     1       1.452   9.568  -7.307  1.00  0.00     0.034 A 
ATOM     58  C   UNL     1       0.846   8.155 -13.668  1.00  0.00     0.049 A 
ATOM     59  C   UNL     1       2.353   9.762  -8.501  1.00  0.00     0.074 A 
ATOM     60  C   UNL     1       1.710   8.497 -14.694  1.00  0.00     0.029 A 
ATOM     61  N   UNL     1       1.433   8.604 -12.492  1.00  0.00    -0.354 N 
ATOM     62  N   UNL     1       2.135   9.448  -9.758  1.00  0.00    -0.248 NA
ATOM     63  C   UNL     1       3.659  10.384  -8.253  1.00  0.00     0.031 C 
ATOM     64  C   UNL     1       2.850   9.080 -14.132  1.00  0.00     0.029 A 
ATOM     65  C   UNL     1       2.666   9.178 -12.762  1.00  0.00     0.049 A 
ATOM     66  H   UNL     1       1.031   8.527 -11.596  1.00  0.00     0.167 HD
ATOM     67  C   UNL     1       3.270   9.858 -10.452  1.00  0.00     0.074 A 
ATOM     68  C   UNL     1       4.160  10.456  -9.478  1.00  0.00     0.031 C 
ATOM     69  C   UNL     1       3.550   9.753 -11.776  1.00  0.00     0.034 A 
BRANCH  56  70
ATOM     70  C   UNL     1      -0.858   6.917 -15.090  1.00  0.00     0.023 A 
ATOM     71  C   UNL     1      -2.037   7.361 -15.714  1.00  0.00     0.031 A 
ATOM     72  C   UNL     1      -0.099   5.932 -15.747  1.00  0.00     0.131 A 
ATOM     73  C   UNL     1      -2.459   6.772 -16.916  1.00  0.00     0.055 A 
ATOM     74  C   UNL     1      -0.482   5.408 -16.983  1.00  0.00     0.041 A 
ATOM     75  F   UNL     1       1.025   5.452 -15.192  1.00  0.00    -0.206 F 
ATOM     76  C   UNL     1      -1.677   5.817 -17.568  1.00  0.00     0.022 A 
BRANCH  73  77
ATOM     77  S   UNL     1      -4.115   7.171 -17.539  1.00  0.00     0.124 S 
ATOM     78  O   UNL     1      -4.958   6.763 -16.418  1.00  0.00    -0.237 OA
ATOM     79  O   UNL     1      -4.024   8.606 -17.782  1.00  0.00    -0.237 OA
ATOM     80  O   UNL     1      -4.239   6.341 -18.736  1.00  0.00    -0.744 OA
ENDBRANCH  73  77
ENDBRANCH  56  70
BRANCH  57  81
ATOM     81  C   UNL     1       1.904   9.954  -5.939  1.00  0.00     0.023 A 
ATOM     82  C   UNL     1       2.167  11.293  -5.614  1.00  0.00     0.031 A 
ATOM     83  C   UNL     1       2.122   8.981  -4.946  1.00  0.00     0.131 A 
ATOM     84  C   UNL     1       2.675  11.620  -4.347  1.00  0.00     0.055 A 
ATOM     85  C   UNL     1       2.572   9.317  -3.668  1.00  0.00     0.041 A 
ATOM     86  F   UNL     1       1.887   7.684  -5.201  1.00  0.00    -0.206 F 
ATOM     87  C   UNL     1       2.865  10.643  -3.367  1.00  0.00     0.022 A 
BRANCH  84  88
ATOM     88  S   UNL     1       3.176  13.333  -4.027  1.00  0.00     0.124 S 
ATOM     89  O   UNL     1       4.164  13.554  -5.076  1.00  0.00    -0.237 OA
ATOM     90  O   UNL     1       1.913  14.049  -4.173  1.00  0.00    -0.237 OA
ATOM     91  O   UNL     1       3.708  13.283  -2.667  1.00  0.00    -0.744 OA
ENDBRANCH  84  88
ENDBRANCH  57  81
BRANCH  69  92
ATOM     92  C   UNL     1       4.864  10.326 -12.247  1.00  0.00     0.023 A 
ATOM     93  C   UNL     1       6.093   9.751 -11.880  1.00  0.00     0.031 A 
ATOM     94  C   UNL     1       4.885  11.457 -13.082  1.00  0.00     0.131 A 
ATOM     95  C   UNL     1       7.294  10.336 -12.309  1.00  0.00     0.055 A 
ATOM     96  C   UNL     1       6.081  11.999 -13.555  1.00  0.00     0.041 A 
ATOM     97  F   UNL     1       3.741  12.049 -13.460  1.00  0.00    -0.206 F 
ATOM     98  C   UNL     1       7.295  11.445 -13.160  1.00  0.00     0.022 A 
BRANCH  95  99
ATOM     99  S   UNL     1       8.861   9.671 -11.682  1.00  0.00     0.124 S 
ATOM    100  O   UNL     1       8.722   9.875 -10.244  1.00  0.00    -0.237 OA
ATOM    101  O   UNL     1       8.818   8.285 -12.136  1.00  0.00    -0.237 OA
ATOM    102  O   UNL     1       9.871  10.504 -12.332  1.00  0.00    -0.744 OA
ENDBRANCH  95  99
ENDBRANCH  69  92
ENDBRANCH  43  44
ENDBRANCH  35  38
ENDBRANCH  33  34
ENDBRANCH  32  33
ENDBRANCH  31  32
ENDBRANCH   1  31
TORSDOF 19
