REMARK SMILES COC(=O)C[C@H](NC(=O)N(C)C[C@@H]1CCC[N@H+]1C)C(=O)NCCCCCCNC(=O)c1ccc(-c2c3nc(c(-c4cc(S(=O)(=O)[O-])ccc4F)c4ccc([nH]4)c(-c4cc(S(=O)(=O)[O-])ccc4F)c4nc(c(-c5cc(S(=O)(=O)[O-])ccc5F)c5ccc2[nH]5)C=C4)C=C3)cc1
REMARK SMILES IDX 24 1 23 2 22 3 21 4 19 5 20 6 6 8 5 9 3 10 4 11 2 12 1 13
REMARK SMILES IDX 7 14 8 15 9 17 10 18 11 19 12 20 13 21 14 22 17 23 15 24
REMARK SMILES IDX 16 25 18 26 25 28 26 29 27 30 28 31 29 32 30 34 31 35 32 36
REMARK SMILES IDX 93 37 33 38 92 39 34 40 35 41 36 42 86 43 37 44 91 45 85 46
REMARK SMILES IDX 87 47 38 48 90 49 84 50 83 51 39 53 71 54 51 55 70 56 52 57
REMARK SMILES IDX 55 58 69 59 88 60 53 61 54 62 68 64 89 65 56 66 40 67 41 68
REMARK SMILES IDX 49 69 42 70 48 71 50 72 47 73 43 74 44 75 45 76 46 77 72 78
REMARK SMILES IDX 73 79 81 80 74 81 80 82 82 83 79 84 75 85 76 86 77 87 78 88
REMARK SMILES IDX 57 89 58 90 66 91 59 92 65 93 67 94 64 95 60 96 61 97 62 98
REMARK SMILES IDX 63 99
REMARK H PARENT 21 7 7 16 17 27 28 33 87 52 55 63
REMARK Flexibility Score: inf
ROOT
ATOM      1  C   UNL     1       0.864   9.460  -7.875  1.00  0.00     0.002 C 
ENDROOT
BRANCH   1   2
ATOM      2  C   UNL     1       0.172   8.395  -7.020  1.00  0.00     0.021 C 
BRANCH   2   3
ATOM      3  C   UNL     1      -1.232   8.023  -7.492  1.00  0.00     0.116 C 
BRANCH   3   4
ATOM      4  N   UNL     1      -1.206   7.321  -8.768  1.00  0.00    -0.354 N 
ATOM      5  C   UNL     1      -1.683   6.092  -9.131  1.00  0.00     0.243 C 
ATOM      6  O   UNL     1      -1.649   5.791 -10.327  1.00  0.00    -0.273 OA
ATOM      7  H   UNL     1      -0.769   7.819  -9.496  1.00  0.00     0.163 HD
BRANCH   5   8
ATOM      8  C   UNL     1      -2.317   5.146  -8.093  1.00  0.00     0.184 C 
BRANCH   8   9
ATOM      9  C   UNL     1      -3.658   5.715  -7.646  1.00  0.00     0.157 C 
BRANCH   9  10
ATOM     10  C   UNL     1      -4.569   4.684  -7.044  1.00  0.00     0.308 C 
ATOM     11  O   UNL     1      -5.178   4.846  -6.000  1.00  0.00    -0.252 OA
BRANCH  10  12
ATOM     12  O   UNL     1      -4.698   3.599  -7.858  1.00  0.00    -0.469 OA
ATOM     13  C   UNL     1      -5.578   2.605  -7.335  1.00  0.00     0.282 C 
ENDBRANCH  10  12
ENDBRANCH   9  10
ENDBRANCH   8   9
BRANCH   8  14
ATOM     14  N   UNL     1      -1.322   4.917  -7.054  1.00  0.00    -0.326 N 
ATOM     15  C   UNL     1      -1.451   4.210  -5.901  1.00  0.00     0.318 C 
ATOM     16  H   UNL     1      -0.441   5.329  -7.207  1.00  0.00     0.166 HD
ATOM     17  O   UNL     1      -1.652   4.825  -4.856  1.00  0.00    -0.249 OA
BRANCH  15  18
ATOM     18  N   UNL     1      -0.910   2.941  -5.941  1.00  0.00    -0.322 N 
ATOM     19  C   UNL     1      -1.153   2.000  -7.016  1.00  0.00     0.149 C 
BRANCH  18  20
ATOM     20  C   UNL     1      -0.141   2.465  -4.787  1.00  0.00     0.185 C 
BRANCH  20  21
ATOM     21  C   UNL     1       1.356   2.911  -4.727  1.00  0.00     0.203 C 
ATOM     22  C   UNL     1       1.600   4.425  -4.829  1.00  0.00     0.073 C 
ATOM     23  N   UNL     1       2.272   2.347  -5.749  1.00  0.00    -0.333 N 
ATOM     24  C   UNL     1       2.923   4.592  -5.564  1.00  0.00     0.068 C 
ATOM     25  C   UNL     1       3.477   3.190  -5.683  1.00  0.00     0.262 C 
ATOM     26  C   UNL     1       2.628   0.956  -5.481  1.00  0.00     0.333 C 
ATOM     27  H   UNL     1       1.827   2.346  -6.667  1.00  0.00     0.348 HD
ENDBRANCH  20  21
ENDBRANCH  18  20
ENDBRANCH  15  18
ENDBRANCH   8  14
ENDBRANCH   5   8
ENDBRANCH   3   4
ENDBRANCH   2   3
ENDBRANCH   1   2
BRANCH   1  28
ATOM     28  C   UNL     1       0.094  10.777  -8.019  1.00  0.00     0.002 C 
BRANCH  28  29
ATOM     29  C   UNL     1      -0.314  11.443  -6.702  1.00  0.00     0.021 C 
BRANCH  29  30
ATOM     30  C   UNL     1       0.843  11.761  -5.758  1.00  0.00     0.116 C 
BRANCH  30  31
ATOM     31  N   UNL     1       1.796  12.677  -6.361  1.00  0.00    -0.352 N 
ATOM     32  C   UNL     1       2.279  13.874  -5.897  1.00  0.00     0.251 C 
ATOM     33  H   UNL     1       2.150  12.395  -7.236  1.00  0.00     0.163 HD
ATOM     34  O   UNL     1       2.905  14.603  -6.663  1.00  0.00    -0.269 OA
BRANCH  32  35
ATOM     35  C   UNL     1       2.035  14.295  -4.499  1.00  0.00     0.039 A 
ATOM     36  C   UNL     1       1.752  15.640  -4.248  1.00  0.00     0.014 A 
ATOM     37  C   UNL     1       2.117  13.392  -3.434  1.00  0.00     0.014 A 
ATOM     38  C   UNL     1       1.504  16.065  -2.942  1.00  0.00     0.010 A 
ATOM     39  C   UNL     1       1.792  13.802  -2.141  1.00  0.00     0.010 A 
ATOM     40  C   UNL     1       1.486  15.145  -1.879  1.00  0.00    -0.014 A 
BRANCH  40  41
ATOM     41  C   UNL     1       1.139  15.593  -0.503  1.00  0.00     0.031 A 
ATOM     42  C   UNL     1       2.146  15.505   0.612  1.00  0.00     0.074 A 
ATOM     43  C   UNL     1      -0.098  16.074  -0.261  1.00  0.00     0.049 A 
ATOM     44  N   UNL     1       2.023  15.861   1.866  1.00  0.00    -0.248 NA
ATOM     45  C   UNL     1       3.456  14.923   0.281  1.00  0.00     0.031 C 
ATOM     46  C   UNL     1      -1.176  16.161  -1.250  1.00  0.00     0.029 A 
ATOM     47  N   UNL     1      -0.658  16.585   0.883  1.00  0.00    -0.354 N 
ATOM     48  C   UNL     1       3.239  15.559   2.469  1.00  0.00     0.074 A 
ATOM     49  C   UNL     1       4.058  14.920   1.461  1.00  0.00     0.031 C 
ATOM     50  C   UNL     1      -2.252  16.726  -0.680  1.00  0.00     0.029 A 
ATOM     51  C   UNL     1      -1.963  16.997   0.724  1.00  0.00     0.049 A 
ATOM     52  H   UNL     1      -0.173  16.652   1.737  1.00  0.00     0.167 HD
ATOM     53  C   UNL     1       3.647  15.821   3.736  1.00  0.00     0.034 A 
ATOM     54  C   UNL     1      -2.832  17.523   1.610  1.00  0.00     0.034 A 
ATOM     55  C   UNL     1       2.817  16.452   4.734  1.00  0.00     0.049 A 
ATOM     56  C   UNL     1      -2.364  17.770   3.023  1.00  0.00     0.074 A 
ATOM     57  C   UNL     1       3.137  16.781   6.041  1.00  0.00     0.029 A 
ATOM     58  N   UNL     1       1.498  16.845   4.542  1.00  0.00    -0.354 N 
ATOM     59  N   UNL     1      -1.191  17.525   3.560  1.00  0.00    -0.248 NA
ATOM     60  C   UNL     1      -3.331  18.382   3.941  1.00  0.00     0.031 C 
ATOM     61  C   UNL     1       1.995  17.306   6.656  1.00  0.00     0.029 A 
ATOM     62  C   UNL     1       0.985  17.387   5.712  1.00  0.00     0.049 A 
ATOM     63  H   UNL     1       0.999  16.752   3.698  1.00  0.00     0.167 HD
ATOM     64  C   UNL     1      -1.274  17.980   4.874  1.00  0.00     0.074 A 
ATOM     65  C   UNL     1      -2.599  18.544   5.032  1.00  0.00     0.031 C 
ATOM     66  C   UNL     1      -0.344  17.932   5.862  1.00  0.00     0.034 A 
BRANCH  53  67
ATOM     67  C   UNL     1       5.053  15.415   4.114  1.00  0.00     0.023 A 
ATOM     68  C   UNL     1       6.175  15.981   3.481  1.00  0.00     0.031 A 
ATOM     69  C   UNL     1       5.281  14.454   5.114  1.00  0.00     0.131 A 
ATOM     70  C   UNL     1       7.465  15.536   3.807  1.00  0.00     0.055 A 
ATOM     71  C   UNL     1       6.571  14.075   5.492  1.00  0.00     0.041 A 
ATOM     72  F   UNL     1       4.252  13.861   5.739  1.00  0.00    -0.206 F 
ATOM     73  C   UNL     1       7.673  14.607   4.829  1.00  0.00     0.022 A 
BRANCH  70  74
ATOM     74  S   UNL     1       8.858  16.093   2.787  1.00  0.00     0.124 S 
ATOM     75  O   UNL     1       8.468  15.605   1.466  1.00  0.00    -0.237 OA
ATOM     76  O   UNL     1       8.826  17.539   2.970  1.00  0.00    -0.237 OA
ATOM     77  O   UNL     1      10.008  15.413   3.379  1.00  0.00    -0.744 OA
ENDBRANCH  70  74
ENDBRANCH  53  67
BRANCH  54  78
ATOM     78  C   UNL     1      -4.236  17.832   1.206  1.00  0.00     0.023 A 
ATOM     79  C   UNL     1      -4.746  19.138   1.272  1.00  0.00     0.031 A 
ATOM     80  C   UNL     1      -5.113  16.805   0.809  1.00  0.00     0.131 A 
ATOM     81  C   UNL     1      -6.106  19.374   1.013  1.00  0.00     0.055 A 
ATOM     82  C   UNL     1      -6.447  17.055   0.485  1.00  0.00     0.041 A 
ATOM     83  F   UNL     1      -4.681  15.537   0.726  1.00  0.00    -0.206 F 
ATOM     84  C   UNL     1      -6.955  18.344   0.604  1.00  0.00     0.022 A 
BRANCH  81  85
ATOM     85  S   UNL     1      -6.779  21.027   1.340  1.00  0.00     0.124 S 
ATOM     86  O   UNL     1      -6.411  21.226   2.737  1.00  0.00    -0.237 OA
ATOM     87  O   UNL     1      -6.063  21.843   0.365  1.00  0.00    -0.237 OA
ATOM     88  O   UNL     1      -8.209  20.867   1.087  1.00  0.00    -0.744 OA
ENDBRANCH  81  85
ENDBRANCH  54  78
BRANCH  66  89
ATOM     89  C   UNL     1      -0.728  18.545   7.190  1.00  0.00     0.023 A 
ATOM     90  C   UNL     1      -1.782  18.030   7.964  1.00  0.00     0.031 A 
ATOM     91  C   UNL     1      -0.056  19.685   7.667  1.00  0.00     0.131 A 
ATOM     92  C   UNL     1      -2.188  18.700   9.128  1.00  0.00     0.055 A 
ATOM     93  C   UNL     1      -0.414  20.301   8.867  1.00  0.00     0.041 A 
ATOM     94  F   UNL     1       0.958  20.224   6.971  1.00  0.00    -0.206 F 
ATOM     95  C   UNL     1      -1.498  19.821   9.595  1.00  0.00     0.022 A 
BRANCH  92  96
ATOM     96  S   UNL     1      -3.713  18.163   9.951  1.00  0.00     0.124 S 
ATOM     97  O   UNL     1      -4.691  18.270   8.873  1.00  0.00    -0.237 OA
ATOM     98  O   UNL     1      -3.378  16.808  10.376  1.00  0.00    -0.237 OA
ATOM     99  O   UNL     1      -3.876  19.130  11.035  1.00  0.00    -0.744 OA
ENDBRANCH  92  96
ENDBRANCH  66  89
ENDBRANCH  40  41
ENDBRANCH  32  35
ENDBRANCH  30  31
ENDBRANCH  29  30
ENDBRANCH  28  29
ENDBRANCH   1  28
TORSDOF 23
