REMARK SMILES C[C@@H]1[NH2+]CC[C@@H]1C(=O)Nc1cc(F)ccc1C(=O)NCCCCCCNC(=O)c1ccc(-c2c3nc(c(-c4cc(S(=O)(=O)[O-])ccc4F)c4ccc([nH]4)c(-c4cc(S(=O)(=O)[O-])ccc4F)c4nc(c(-c5cc(S(=O)(=O)[O-])ccc5F)c5ccc2[nH]5)C=C4)C=C3)cc1
REMARK SMILES IDX 23 1 22 2 21 3 20 4 19 5 17 6 18 7 16 9 10 10 11 11 12 12
REMARK SMILES IDX 15 13 13 14 14 15 9 16 7 17 8 18 6 20 1 21 2 22 3 23 4 24
REMARK SMILES IDX 5 27 24 28 25 29 26 30 27 31 28 33 29 34 30 35 91 36 31 37
REMARK SMILES IDX 90 38 32 39 33 40 34 41 84 42 35 43 89 44 83 45 85 46 36 47
REMARK SMILES IDX 88 48 82 49 81 50 37 52 69 53 49 54 68 55 50 56 53 57 67 58
REMARK SMILES IDX 86 59 51 60 52 61 66 63 87 64 54 65 38 66 39 67 47 68 40 69
REMARK SMILES IDX 46 70 48 71 45 72 41 73 42 74 43 75 44 76 70 77 71 78 79 79
REMARK SMILES IDX 72 80 78 81 80 82 77 83 73 84 74 85 75 86 76 87 55 88 56 89
REMARK SMILES IDX 64 90 57 91 63 92 65 93 62 94 58 95 59 96 60 97 61 98
REMARK H PARENT 19 8 9 19 3 25 3 26 26 32 85 51 53 62
REMARK Flexibility Score: inf
ROOT
ATOM      1  C   UNL     1       1.401   5.777  -3.739  1.00  0.00     0.002 C 
ENDROOT
BRANCH   1   2
ATOM      2  C   UNL     1       1.697   6.278  -2.322  1.00  0.00     0.002 C 
BRANCH   2   3
ATOM      3  C   UNL     1       1.523   5.289  -1.165  1.00  0.00     0.021 C 
BRANCH   3   4
ATOM      4  C   UNL     1       2.166   3.917  -1.329  1.00  0.00     0.116 C 
BRANCH   4   5
ATOM      5  N   UNL     1       3.595   3.936  -1.552  1.00  0.00    -0.352 N 
ATOM      6  C   UNL     1       4.579   3.016  -1.293  1.00  0.00     0.253 C 
ATOM      7  O   UNL     1       5.722   3.307  -1.655  1.00  0.00    -0.269 OA
ATOM      8  H   UNL     1       3.923   4.765  -1.967  1.00  0.00     0.163 HD
BRANCH   6   9
ATOM      9  C   UNL     1       4.386   1.729  -0.554  1.00  0.00     0.063 A 
ATOM     10  C   UNL     1       3.295   0.835  -0.645  1.00  0.00     0.056 A 
ATOM     11  C   UNL     1       3.356  -0.364   0.076  1.00  0.00     0.066 A 
ATOM     12  C   UNL     1       4.448  -0.677   0.879  1.00  0.00     0.125 A 
ATOM     13  C   UNL     1       5.485   1.383   0.272  1.00  0.00     0.019 A 
ATOM     14  F   UNL     1       4.485  -1.859   1.507  1.00  0.00    -0.207 F 
ATOM     15  C   UNL     1       5.517   0.188   0.987  1.00  0.00     0.040 A 
BRANCH  10  16
ATOM     16  N   UNL     1       2.264   1.022  -1.582  1.00  0.00    -0.325 N 
ATOM     17  C   UNL     1       0.909   0.808  -1.539  1.00  0.00     0.233 C 
ATOM     18  O   UNL     1       0.285   1.063  -2.574  1.00  0.00    -0.274 OA
ATOM     19  H   UNL     1       2.578   1.379  -2.445  1.00  0.00     0.169 HD
BRANCH  17  20
ATOM     20  C   UNL     1       0.181   0.420  -0.249  1.00  0.00     0.142 C 
ATOM     21  C   UNL     1       0.256  -1.992  -1.199  1.00  0.00     0.076 C 
ATOM     22  C   UNL     1       0.070  -1.087   0.020  1.00  0.00     0.192 C 
ATOM     23  N   UNL     1      -1.271  -1.294   0.596  1.00  0.00    -0.343 N 
ATOM     24  C   UNL     1      -2.132  -0.355  -0.125  1.00  0.00     0.261 C 
ATOM     25  H   UNL     1      -1.270  -1.087   1.595  1.00  0.00     0.346 HD
ATOM     26  H   UNL     1      -1.587  -2.260   0.503  1.00  0.00     0.346 HD
ATOM     27  C   UNL     1      -1.287   0.903  -0.232  1.00  0.00     0.081 C 
ENDBRANCH  17  20
ENDBRANCH  10  16
ENDBRANCH   6   9
ENDBRANCH   4   5
ENDBRANCH   3   4
ENDBRANCH   2   3
ENDBRANCH   1   2
BRANCH   1  28
ATOM     28  C   UNL     1       0.040   5.124  -3.989  1.00  0.00     0.021 C 
BRANCH  28  29
ATOM     29  C   UNL     1      -1.189   5.885  -3.502  1.00  0.00     0.116 C 
BRANCH  29  30
ATOM     30  N   UNL     1      -1.276   7.236  -4.026  1.00  0.00    -0.352 N 
ATOM     31  C   UNL     1      -2.335   7.892  -4.603  1.00  0.00     0.251 C 
ATOM     32  H   UNL     1      -0.448   7.763  -3.957  1.00  0.00     0.163 HD
ATOM     33  O   UNL     1      -2.156   9.017  -5.076  1.00  0.00    -0.269 OA
BRANCH  31  34
ATOM     34  C   UNL     1      -3.670   7.258  -4.695  1.00  0.00     0.039 A 
ATOM     35  C   UNL     1      -4.386   7.383  -5.890  1.00  0.00     0.014 A 
ATOM     36  C   UNL     1      -4.234   6.564  -3.620  1.00  0.00     0.014 A 
ATOM     37  C   UNL     1      -5.631   6.762  -6.028  1.00  0.00     0.010 A 
ATOM     38  C   UNL     1      -5.446   5.891  -3.781  1.00  0.00     0.010 A 
ATOM     39  C   UNL     1      -6.156   5.979  -4.988  1.00  0.00    -0.014 A 
BRANCH  39  40
ATOM     40  C   UNL     1      -7.437   5.242  -5.153  1.00  0.00     0.031 A 
ATOM     41  C   UNL     1      -8.633   5.596  -4.311  1.00  0.00     0.074 A 
ATOM     42  C   UNL     1      -7.512   4.224  -6.033  1.00  0.00     0.049 A 
ATOM     43  N   UNL     1      -9.807   5.019  -4.261  1.00  0.00    -0.248 NA
ATOM     44  C   UNL     1      -8.484   6.735  -3.392  1.00  0.00     0.031 C 
ATOM     45  C   UNL     1      -6.417   3.770  -6.893  1.00  0.00     0.029 A 
ATOM     46  N   UNL     1      -8.551   3.385  -6.353  1.00  0.00    -0.354 N 
ATOM     47  C   UNL     1     -10.533   5.716  -3.301  1.00  0.00     0.074 A 
ATOM     48  C   UNL     1      -9.650   6.728  -2.761  1.00  0.00     0.031 C 
ATOM     49  C   UNL     1      -6.851   2.761  -7.664  1.00  0.00     0.029 A 
ATOM     50  C   UNL     1      -8.238   2.460  -7.322  1.00  0.00     0.049 A 
ATOM     51  H   UNL     1      -9.438   3.441  -5.928  1.00  0.00     0.167 HD
ATOM     52  C   UNL     1     -11.821   5.540  -2.920  1.00  0.00     0.034 A 
ATOM     53  C   UNL     1      -8.976   1.472  -7.867  1.00  0.00     0.034 A 
ATOM     54  C   UNL     1     -12.699   4.542  -3.479  1.00  0.00     0.049 A 
ATOM     55  C   UNL     1     -10.393   1.272  -7.402  1.00  0.00     0.074 A 
ATOM     56  C   UNL     1     -14.035   4.316  -3.193  1.00  0.00     0.029 A 
ATOM     57  N   UNL     1     -12.333   3.604  -4.435  1.00  0.00    -0.354 N 
ATOM     58  N   UNL     1     -11.063   1.942  -6.495  1.00  0.00    -0.248 NA
ATOM     59  C   UNL     1     -11.153   0.183  -8.032  1.00  0.00     0.031 C 
ATOM     60  C   UNL     1     -14.459   3.205  -3.928  1.00  0.00     0.029 A 
ATOM     61  C   UNL     1     -13.409   2.780  -4.726  1.00  0.00     0.049 A 
ATOM     62  H   UNL     1     -11.441   3.534  -4.845  1.00  0.00     0.167 HD
ATOM     63  C   UNL     1     -12.330   1.368  -6.458  1.00  0.00     0.074 A 
ATOM     64  C   UNL     1     -12.333   0.299  -7.436  1.00  0.00     0.031 C 
ATOM     65  C   UNL     1     -13.396   1.705  -5.689  1.00  0.00     0.034 A 
BRANCH  52  66
ATOM     66  C   UNL     1     -12.358   6.434  -1.832  1.00  0.00     0.023 A 
ATOM     67  C   UNL     1     -12.542   7.812  -2.036  1.00  0.00     0.031 A 
ATOM     68  C   UNL     1     -12.711   5.897  -0.582  1.00  0.00     0.131 A 
ATOM     69  C   UNL     1     -13.020   8.616  -0.990  1.00  0.00     0.055 A 
ATOM     70  C   UNL     1     -13.249   6.691   0.433  1.00  0.00     0.041 A 
ATOM     71  F   UNL     1     -12.540   4.591  -0.327  1.00  0.00    -0.206 F 
ATOM     72  C   UNL     1     -13.398   8.060   0.235  1.00  0.00     0.022 A 
BRANCH  69  73
ATOM     73  S   UNL     1     -13.062  10.413  -1.223  1.00  0.00     0.124 S 
ATOM     74  O   UNL     1     -11.642  10.723  -1.369  1.00  0.00    -0.237 OA
ATOM     75  O   UNL     1     -13.874  10.559  -2.425  1.00  0.00    -0.237 OA
ATOM     76  O   UNL     1     -13.677  10.904   0.008  1.00  0.00    -0.744 OA
ENDBRANCH  69  73
ENDBRANCH  52  66
BRANCH  53  77
ATOM     77  C   UNL     1      -8.379   0.592  -8.908  1.00  0.00     0.023 A 
ATOM     78  C   UNL     1      -8.792   0.672 -10.246  1.00  0.00     0.031 A 
ATOM     79  C   UNL     1      -7.369  -0.330  -8.579  1.00  0.00     0.131 A 
ATOM     80  C   UNL     1      -8.208  -0.167 -11.208  1.00  0.00     0.055 A 
ATOM     81  C   UNL     1      -6.766  -1.136  -9.545  1.00  0.00     0.041 A 
ATOM     82  F   UNL     1      -6.934  -0.436  -7.313  1.00  0.00    -0.206 F 
ATOM     83  C   UNL     1      -7.188  -1.060 -10.868  1.00  0.00     0.022 A 
BRANCH  80  84
ATOM     84  S   UNL     1      -8.810  -0.086 -12.917  1.00  0.00     0.124 S 
ATOM     85  O   UNL     1     -10.177  -0.572 -12.773  1.00  0.00    -0.237 OA
ATOM     86  O   UNL     1      -8.661   1.332 -13.228  1.00  0.00    -0.237 OA
ATOM     87  O   UNL     1      -7.903  -0.976 -13.639  1.00  0.00    -0.744 OA
ENDBRANCH  80  84
ENDBRANCH  53  77
BRANCH  65  88
ATOM     88  C   UNL     1     -14.671   0.929  -5.888  1.00  0.00     0.023 A 
ATOM     89  C   UNL     1     -14.801  -0.398  -5.447  1.00  0.00     0.031 A 
ATOM     90  C   UNL     1     -15.786   1.547  -6.482  1.00  0.00     0.131 A 
ATOM     91  C   UNL     1     -16.017  -1.075  -5.626  1.00  0.00     0.055 A 
ATOM     92  C   UNL     1     -17.006   0.884  -6.617  1.00  0.00     0.041 A 
ATOM     93  F   UNL     1     -15.711   2.814  -6.918  1.00  0.00    -0.206 F 
ATOM     94  C   UNL     1     -17.125  -0.436  -6.192  1.00  0.00     0.022 A 
BRANCH  91  95
ATOM     95  S   UNL     1     -16.130  -2.816  -5.133  1.00  0.00     0.124 S 
ATOM     96  O   UNL     1     -15.196  -3.452  -6.057  1.00  0.00    -0.237 OA
ATOM     97  O   UNL     1     -15.716  -2.777  -3.735  1.00  0.00    -0.237 OA
ATOM     98  O   UNL     1     -17.538  -3.144  -5.351  1.00  0.00    -0.744 OA
ENDBRANCH  91  95
ENDBRANCH  65  88
ENDBRANCH  39  40
ENDBRANCH  31  34
ENDBRANCH  29  30
ENDBRANCH  28  29
ENDBRANCH   1  28
TORSDOF 18
