REMARK SMILES C#CC[C@]1(C(=O)NCCCCCCNC(=O)c2ccc(-c3c4nc(c(-c5cc(S(=O)(=O)[O-])ccc5F)c5ccc([nH]5)c(-c5cc(S(=O)(=O)[O-])ccc5F)c5nc(c(-c6cc(S(=O)(=O)[O-])ccc6F)c6ccc3[nH]6)C=C5)C=C4)cc2)CC[C@@H](C)C1
REMARK SMILES IDX 11 1 10 2 9 3 8 4 7 5 5 6 6 7 4 9 80 10 84 11 81 12 82 13
REMARK SMILES IDX 83 14 3 15 2 16 1 17 12 18 13 19 14 20 15 21 16 23 17 24
REMARK SMILES IDX 18 25 79 26 19 27 78 28 20 29 21 30 22 31 72 32 23 33 77 34
REMARK SMILES IDX 71 35 73 36 24 37 76 38 70 39 69 40 25 42 57 43 37 44 56 45
REMARK SMILES IDX 38 46 41 47 55 48 74 49 39 50 40 51 54 53 75 54 42 55 26 56
REMARK SMILES IDX 27 57 35 58 28 59 34 60 36 61 33 62 29 63 30 64 31 65 32 66
REMARK SMILES IDX 58 67 59 68 67 69 60 70 66 71 68 72 65 73 61 74 62 75 63 76
REMARK SMILES IDX 64 77 43 78 44 79 52 80 45 81 51 82 53 83 50 84 46 85 47 86
REMARK SMILES IDX 48 87 49 88
REMARK H PARENT 7 8 14 22 73 41 41 52
REMARK Flexibility Score: inf
ROOT
ATOM      1  C   UNL     1      -4.758   0.125  -4.362  1.00  0.00     0.002 C 
ENDROOT
BRANCH   1   2
ATOM      2  C   UNL     1      -4.589   1.345  -3.444  1.00  0.00     0.002 C 
BRANCH   2   3
ATOM      3  C   UNL     1      -4.783   1.069  -1.955  1.00  0.00     0.021 C 
BRANCH   3   4
ATOM      4  C   UNL     1      -3.933  -0.073  -1.425  1.00  0.00     0.116 C 
BRANCH   4   5
ATOM      5  N   UNL     1      -2.625   0.339  -0.978  1.00  0.00    -0.356 N 
ATOM      6  C   UNL     1      -1.886   0.022   0.112  1.00  0.00     0.227 C 
ATOM      7  O   UNL     1      -0.690   0.342   0.027  1.00  0.00    -0.274 OA
ATOM      8  H   UNL     1      -2.182   0.976  -1.584  1.00  0.00     0.163 HD
BRANCH   6   9
ATOM      9  C   UNL     1      -2.390  -0.687   1.402  1.00  0.00     0.060 C 
ATOM     10  C   UNL     1      -3.892  -0.943   1.613  1.00  0.00     0.018 C 
ATOM     11  C   UNL     1      -1.827  -2.130   1.422  1.00  0.00     0.021 C 
ATOM     12  C   UNL     1      -4.213  -2.325   1.020  1.00  0.00     0.004 C 
ATOM     13  C   UNL     1      -2.877  -3.012   0.735  1.00  0.00    -0.013 C 
ATOM     14  C   UNL     1      -2.599  -3.227  -0.753  1.00  0.00     0.007 C 
BRANCH   9  15
ATOM     15  C   UNL     1      -1.737   0.174   2.539  1.00  0.00     0.106 C 
BRANCH  15  16
ATOM     16  C   UNL     1      -2.469   0.238   3.819  1.00  0.00    -0.106 C 
ATOM     17  C   UNL     1      -3.100   0.347   4.832  1.00  0.00     0.004 C 
ENDBRANCH  15  16
ENDBRANCH   9  15
ENDBRANCH   6   9
ENDBRANCH   4   5
ENDBRANCH   3   4
ENDBRANCH   2   3
ENDBRANCH   1   2
BRANCH   1  18
ATOM     18  C   UNL     1      -6.047  -0.679  -4.161  1.00  0.00     0.021 C 
BRANCH  18  19
ATOM     19  C   UNL     1      -7.331   0.135  -4.296  1.00  0.00     0.116 C 
BRANCH  19  20
ATOM     20  N   UNL     1      -7.392   0.835  -5.570  1.00  0.00    -0.352 N 
ATOM     21  C   UNL     1      -8.312   0.730  -6.582  1.00  0.00     0.251 C 
ATOM     22  H   UNL     1      -6.666   1.480  -5.729  1.00  0.00     0.163 HD
ATOM     23  O   UNL     1      -8.068   1.213  -7.683  1.00  0.00    -0.269 OA
BRANCH  21  24
ATOM     24  C   UNL     1      -9.581   0.015  -6.340  1.00  0.00     0.039 A 
ATOM     25  C   UNL     1     -10.025  -0.914  -7.282  1.00  0.00     0.014 A 
ATOM     26  C   UNL     1     -10.318   0.249  -5.175  1.00  0.00     0.014 A 
ATOM     27  C   UNL     1     -11.166  -1.671  -7.016  1.00  0.00     0.010 A 
ATOM     28  C   UNL     1     -11.415  -0.555  -4.880  1.00  0.00     0.010 A 
ATOM     29  C   UNL     1     -11.838  -1.536  -5.790  1.00  0.00    -0.014 A 
BRANCH  29  30
ATOM     30  C   UNL     1     -12.944  -2.455  -5.413  1.00  0.00     0.031 A 
ATOM     31  C   UNL     1     -14.328  -1.920  -5.175  1.00  0.00     0.074 A 
ATOM     32  C   UNL     1     -12.669  -3.760  -5.205  1.00  0.00     0.049 A 
ATOM     33  N   UNL     1     -15.389  -2.548  -4.740  1.00  0.00    -0.248 NA
ATOM     34  C   UNL     1     -14.545  -0.489  -5.444  1.00  0.00     0.031 C 
ATOM     35  C   UNL     1     -11.354  -4.383  -5.378  1.00  0.00     0.029 A 
ATOM     36  N   UNL     1     -13.468  -4.795  -4.784  1.00  0.00    -0.354 N 
ATOM     37  C   UNL     1     -16.394  -1.591  -4.663  1.00  0.00     0.074 A 
ATOM     38  C   UNL     1     -15.807  -0.331  -5.068  1.00  0.00     0.031 C 
ATOM     39  C   UNL     1     -11.439  -5.688  -5.080  1.00  0.00     0.029 A 
ATOM     40  C   UNL     1     -12.793  -5.987  -4.627  1.00  0.00     0.049 A 
ATOM     41  H   UNL     1     -14.432  -4.696  -4.612  1.00  0.00     0.167 HD
ATOM     42  C   UNL     1     -17.686  -1.756  -4.292  1.00  0.00     0.034 A 
ATOM     43  C   UNL     1     -13.205  -7.173  -4.135  1.00  0.00     0.034 A 
ATOM     44  C   UNL     1     -18.252  -3.025  -3.904  1.00  0.00     0.049 A 
ATOM     45  C   UNL     1     -14.638  -7.309  -3.679  1.00  0.00     0.074 A 
ATOM     46  C   UNL     1     -19.570  -3.314  -3.596  1.00  0.00     0.029 A 
ATOM     47  N   UNL     1     -17.538  -4.203  -3.742  1.00  0.00    -0.354 N 
ATOM     48  N   UNL     1     -15.597  -6.411  -3.699  1.00  0.00    -0.248 NA
ATOM     49  C   UNL     1     -15.048  -8.611  -3.136  1.00  0.00     0.031 C 
ATOM     50  C   UNL     1     -19.633  -4.636  -3.148  1.00  0.00     0.029 A 
ATOM     51  C   UNL     1     -18.375  -5.203  -3.274  1.00  0.00     0.049 A 
ATOM     52  H   UNL     1     -16.578  -4.313  -3.932  1.00  0.00     0.167 HD
ATOM     53  C   UNL     1     -16.725  -7.051  -3.193  1.00  0.00     0.074 A 
ATOM     54  C   UNL     1     -16.337  -8.415  -2.904  1.00  0.00     0.031 C 
ATOM     55  C   UNL     1     -17.971  -6.557  -2.982  1.00  0.00     0.034 A 
BRANCH  42  56
ATOM     56  C   UNL     1     -18.577  -0.541  -4.238  1.00  0.00     0.023 A 
ATOM     57  C   UNL     1     -18.936   0.176  -5.391  1.00  0.00     0.031 A 
ATOM     58  C   UNL     1     -19.120  -0.127  -3.007  1.00  0.00     0.131 A 
ATOM     59  C   UNL     1     -19.785   1.289  -5.284  1.00  0.00     0.055 A 
ATOM     60  C   UNL     1     -20.020   0.935  -2.918  1.00  0.00     0.041 A 
ATOM     61  F   UNL     1     -18.790  -0.759  -1.869  1.00  0.00    -0.206 F 
ATOM     62  C   UNL     1     -20.353   1.654  -4.061  1.00  0.00     0.022 A 
BRANCH  59  63
ATOM     63  S   UNL     1     -20.059   2.319  -6.751  1.00  0.00     0.124 S 
ATOM     64  O   UNL     1     -18.697   2.733  -7.080  1.00  0.00    -0.237 OA
ATOM     65  O   UNL     1     -20.685   1.385  -7.681  1.00  0.00    -0.237 OA
ATOM     66  O   UNL     1     -20.927   3.389  -6.263  1.00  0.00    -0.744 OA
ENDBRANCH  59  63
ENDBRANCH  42  56
BRANCH  43  67
ATOM     67  C   UNL     1     -12.250  -8.312  -3.978  1.00  0.00     0.023 A 
ATOM     68  C   UNL     1     -12.483  -9.546  -4.605  1.00  0.00     0.031 A 
ATOM     69  C   UNL     1     -11.137  -8.213  -3.122  1.00  0.00     0.131 A 
ATOM     70  C   UNL     1     -11.667 -10.648  -4.307  1.00  0.00     0.055 A 
ATOM     71  C   UNL     1     -10.280  -9.291  -2.893  1.00  0.00     0.041 A 
ATOM     72  F   UNL     1     -10.865  -7.061  -2.487  1.00  0.00    -0.206 F 
ATOM     73  C   UNL     1     -10.556 -10.525  -3.470  1.00  0.00     0.022 A 
BRANCH  70  74
ATOM     74  S   UNL     1     -12.173 -12.285  -4.905  1.00  0.00     0.124 S 
ATOM     75  O   UNL     1     -13.529 -12.384  -4.375  1.00  0.00    -0.237 OA
ATOM     76  O   UNL     1     -12.059 -12.127  -6.351  1.00  0.00    -0.237 OA
ATOM     77  O   UNL     1     -11.197 -13.185  -4.297  1.00  0.00    -0.744 OA
ENDBRANCH  70  74
ENDBRANCH  43  67
BRANCH  55  78
ATOM     78  C   UNL     1     -19.011  -7.505  -2.438  1.00  0.00     0.023 A 
ATOM     79  C   UNL     1     -18.916  -8.037  -1.141  1.00  0.00     0.031 A 
ATOM     80  C   UNL     1     -20.122  -7.864  -3.221  1.00  0.00     0.131 A 
ATOM     81  C   UNL     1     -19.894  -8.931  -0.680  1.00  0.00     0.055 A 
ATOM     82  C   UNL     1     -21.127  -8.699  -2.733  1.00  0.00     0.041 A 
ATOM     83  F   UNL     1     -20.259  -7.391  -4.471  1.00  0.00    -0.206 F 
ATOM     84  C   UNL     1     -21.011  -9.246  -1.458  1.00  0.00     0.022 A 
BRANCH  81  85
ATOM     85  S   UNL     1     -19.647  -9.740   0.924  1.00  0.00     0.124 S 
ATOM     86  O   UNL     1     -18.395 -10.458   0.711  1.00  0.00    -0.237 OA
ATOM     87  O   UNL     1     -19.583  -8.606   1.841  1.00  0.00    -0.237 OA
ATOM     88  O   UNL     1     -20.831 -10.585   1.067  1.00  0.00    -0.744 OA
ENDBRANCH  81  85
ENDBRANCH  55  78
ENDBRANCH  29  30
ENDBRANCH  21  24
ENDBRANCH  19  20
ENDBRANCH  18  19
ENDBRANCH   1  18
TORSDOF 18
