REMARK SMILES O=C(NCCCCCCNC(=O)c1ccc(-c2c3nc(c(-c4cc(S(=O)(=O)[O-])ccc4F)c4ccc([nH]4)c(-c4cc(S(=O)(=O)[O-])ccc4F)c4nc(c(-c5cc(S(=O)(=O)[O-])ccc5F)c5ccc2[nH]5)C=C4)C=C3)cc1)C1=Cc2cc(Cl)c(Cl)c(Cl)c2O[C@@H]1C(F)(F)F
REMARK SMILES IDX 7 1 6 2 5 3 4 4 3 5 1 6 2 7 76 9 77 10 88 11 78 12 87 13
REMARK SMILES IDX 79 14 86 15 80 16 84 17 81 18 82 19 85 20 83 21 89 22 90 23
REMARK SMILES IDX 91 24 92 25 8 26 9 27 10 28 11 29 12 31 13 32 14 33 75 34
REMARK SMILES IDX 15 35 74 36 16 37 17 38 18 39 68 40 19 41 73 42 67 43 69 44
REMARK SMILES IDX 20 45 72 46 66 47 65 48 21 50 53 51 33 52 52 53 34 54 37 55
REMARK SMILES IDX 51 56 70 57 35 58 36 59 50 61 71 62 38 63 22 64 23 65 31 66
REMARK SMILES IDX 24 67 30 68 32 69 29 70 25 71 26 72 27 73 28 74 54 75 55 76
REMARK SMILES IDX 63 77 56 78 62 79 64 80 61 81 57 82 58 83 59 84 60 85 39 86
REMARK SMILES IDX 40 87 48 88 41 89 47 90 49 91 46 92 42 93 43 94 44 95 45 96
REMARK H PARENT 3 8 10 30 69 49 37 60
REMARK Flexibility Score: inf
ROOT
ATOM      1  C   UNL     1       4.398  -3.912   2.532  1.00  0.00     0.002 C 
ENDROOT
BRANCH   1   2
ATOM      2  C   UNL     1       3.784  -2.784   3.371  1.00  0.00     0.002 C 
BRANCH   2   3
ATOM      3  C   UNL     1       4.160  -1.353   2.984  1.00  0.00     0.021 C 
BRANCH   3   4
ATOM      4  C   UNL     1       3.891  -0.945   1.536  1.00  0.00     0.116 C 
BRANCH   4   5
ATOM      5  N   UNL     1       2.621  -0.261   1.312  1.00  0.00    -0.352 N 
ATOM      6  O   UNL     1       1.070   0.946   0.206  1.00  0.00    -0.270 OA
ATOM      7  C   UNL     1       2.247   0.619   0.321  1.00  0.00     0.251 C 
ATOM      8  H   UNL     1       1.920  -0.461   1.974  1.00  0.00     0.163 HD
BRANCH   7   9
ATOM      9  C   UNL     1       3.228   1.038  -0.722  1.00  0.00     0.067 C 
ATOM     10  C   UNL     1       4.434   1.541  -0.427  1.00  0.00     0.025 C 
ATOM     11  C   UNL     1       3.059   0.352  -2.045  1.00  0.00     0.314 C 
ATOM     12  C   UNL     1       5.559   0.700  -0.837  1.00  0.00     0.020 A 
ATOM     13  O   UNL     1       4.111  -0.607  -2.294  1.00  0.00    -0.474 OA
ATOM     14  C   UNL     1       6.766   0.803  -0.137  1.00  0.00     0.034 A 
ATOM     15  C   UNL     1       5.322  -0.408  -1.666  1.00  0.00     0.148 A 
ATOM     16  C   UNL     1       7.704  -0.232  -0.207  1.00  0.00     0.062 A 
ATOM     17  C   UNL     1       6.280  -1.430  -1.763  1.00  0.00     0.103 A 
ATOM     18  Cl  UNL     1       9.084  -0.103   0.828  1.00  0.00    -0.083 Cl
ATOM     19  C   UNL     1       7.465  -1.359  -1.010  1.00  0.00     0.082 A 
ATOM     20  Cl  UNL     1       5.909  -2.824  -2.734  1.00  0.00    -0.079 Cl
ATOM     21  Cl  UNL     1       8.578  -2.691  -0.996  1.00  0.00    -0.081 Cl
BRANCH  11  22
ATOM     22  C   UNL     1       2.970   1.397  -3.180  1.00  0.00     0.429 C 
ATOM     23  F   UNL     1       2.676   0.815  -4.366  1.00  0.00    -0.167 F 
ATOM     24  F   UNL     1       2.003   2.318  -2.945  1.00  0.00    -0.167 F 
ATOM     25  F   UNL     1       4.129   2.080  -3.347  1.00  0.00    -0.167 F 
ENDBRANCH  11  22
ENDBRANCH   7   9
ENDBRANCH   4   5
ENDBRANCH   3   4
ENDBRANCH   2   3
ENDBRANCH   1   2
BRANCH   1  26
ATOM     26  C   UNL     1       5.909  -3.858   2.282  1.00  0.00     0.021 C 
BRANCH  26  27
ATOM     27  C   UNL     1       6.805  -3.788   3.518  1.00  0.00     0.116 C 
BRANCH  27  28
ATOM     28  N   UNL     1       6.608  -4.903   4.425  1.00  0.00    -0.352 N 
ATOM     29  C   UNL     1       7.524  -5.742   5.016  1.00  0.00     0.251 C 
ATOM     30  H   UNL     1       5.669  -5.089   4.654  1.00  0.00     0.163 HD
ATOM     31  O   UNL     1       7.117  -6.715   5.641  1.00  0.00    -0.269 OA
BRANCH  29  32
ATOM     32  C   UNL     1       8.983  -5.502   4.886  1.00  0.00     0.039 A 
ATOM     33  C   UNL     1       9.824  -6.604   4.700  1.00  0.00     0.014 A 
ATOM     34  C   UNL     1       9.536  -4.223   4.996  1.00  0.00     0.014 A 
ATOM     35  C   UNL     1      11.204  -6.421   4.574  1.00  0.00     0.010 A 
ATOM     36  C   UNL     1      10.907  -4.034   4.806  1.00  0.00     0.010 A 
ATOM     37  C   UNL     1      11.757  -5.131   4.598  1.00  0.00    -0.014 A 
BRANCH  37  38
ATOM     38  C   UNL     1      13.220  -4.920   4.422  1.00  0.00     0.031 A 
ATOM     39  C   UNL     1      14.049  -4.361   5.547  1.00  0.00     0.074 A 
ATOM     40  C   UNL     1      13.795  -5.187   3.233  1.00  0.00     0.049 A 
ATOM     41  N   UNL     1      15.320  -4.049   5.567  1.00  0.00    -0.248 NA
ATOM     42  C   UNL     1      13.344  -4.094   6.809  1.00  0.00     0.031 C 
ATOM     43  C   UNL     1      13.093  -5.698   2.054  1.00  0.00     0.029 A 
ATOM     44  N   UNL     1      15.096  -5.057   2.813  1.00  0.00    -0.354 N 
ATOM     45  C   UNL     1      15.568  -3.541   6.838  1.00  0.00     0.074 A 
ATOM     46  C   UNL     1      14.297  -3.529   7.535  1.00  0.00     0.031 C 
ATOM     47  C   UNL     1      13.973  -5.853   1.052  1.00  0.00     0.029 A 
ATOM     48  C   UNL     1      15.291  -5.413   1.499  1.00  0.00     0.049 A 
ATOM     49  H   UNL     1      15.821  -4.739   3.399  1.00  0.00     0.167 HD
ATOM     50  C   UNL     1      16.746  -3.144   7.382  1.00  0.00     0.034 A 
ATOM     51  C   UNL     1      16.400  -5.376   0.734  1.00  0.00     0.034 A 
ATOM     52  C   UNL     1      18.005  -3.163   6.673  1.00  0.00     0.049 A 
ATOM     53  C   UNL     1      17.694  -4.903   1.346  1.00  0.00     0.074 A 
ATOM     54  C   UNL     1      19.264  -2.826   7.139  1.00  0.00     0.029 A 
ATOM     55  N   UNL     1      18.163  -3.530   5.342  1.00  0.00    -0.354 N 
ATOM     56  N   UNL     1      17.921  -4.468   2.565  1.00  0.00    -0.248 NA
ATOM     57  C   UNL     1      18.882  -4.928   0.484  1.00  0.00     0.031 C 
ATOM     58  C   UNL     1      20.169  -2.922   6.076  1.00  0.00     0.029 A 
ATOM     59  C   UNL     1      19.492  -3.396   4.963  1.00  0.00     0.049 A 
ATOM     60  H   UNL     1      17.438  -3.839   4.752  1.00  0.00     0.167 HD
ATOM     61  C   UNL     1      19.285  -4.192   2.621  1.00  0.00     0.074 A 
ATOM     62  C   UNL     1      19.829  -4.526   1.320  1.00  0.00     0.031 C 
ATOM     63  C   UNL     1      20.021  -3.713   3.656  1.00  0.00     0.034 A 
BRANCH  50  64
ATOM     64  C   UNL     1      16.713  -2.630   8.804  1.00  0.00     0.023 A 
ATOM     65  C   UNL     1      16.299  -3.444   9.874  1.00  0.00     0.031 A 
ATOM     66  C   UNL     1      17.059  -1.298   9.092  1.00  0.00     0.131 A 
ATOM     67  C   UNL     1      16.152  -2.897  11.158  1.00  0.00     0.055 A 
ATOM     68  C   UNL     1      16.997  -0.784  10.390  1.00  0.00     0.041 A 
ATOM     69  F   UNL     1      17.445  -0.464   8.114  1.00  0.00    -0.206 F 
ATOM     70  C   UNL     1      16.523  -1.579  11.429  1.00  0.00     0.022 A 
BRANCH  67  71
ATOM     71  S   UNL     1      15.311  -3.884  12.426  1.00  0.00     0.124 S 
ATOM     72  O   UNL     1      14.023  -4.148  11.789  1.00  0.00    -0.237 OA
ATOM     73  O   UNL     1      16.198  -5.030  12.575  1.00  0.00    -0.237 OA
ATOM     74  O   UNL     1      15.253  -2.984  13.578  1.00  0.00    -0.744 OA
ENDBRANCH  67  71
ENDBRANCH  50  64
BRANCH  51  75
ATOM     75  C   UNL     1      16.336  -5.782  -0.699  1.00  0.00     0.023 A 
ATOM     76  C   UNL     1      17.017  -6.917  -1.165  1.00  0.00     0.031 A 
ATOM     77  C   UNL     1      15.606  -5.021  -1.630  1.00  0.00     0.131 A 
ATOM     78  C   UNL     1      16.985  -7.240  -2.530  1.00  0.00     0.055 A 
ATOM     79  C   UNL     1      15.536  -5.374  -2.978  1.00  0.00     0.041 A 
ATOM     80  F   UNL     1      14.934  -3.928  -1.236  1.00  0.00    -0.206 F 
ATOM     81  C   UNL     1      16.238  -6.484  -3.438  1.00  0.00     0.022 A 
BRANCH  78  82
ATOM     82  S   UNL     1      17.993  -8.628  -3.120  1.00  0.00     0.124 S 
ATOM     83  O   UNL     1      19.334  -8.208  -2.730  1.00  0.00    -0.237 OA
ATOM     84  O   UNL     1      17.430  -9.749  -2.376  1.00  0.00    -0.237 OA
ATOM     85  O   UNL     1      17.738  -8.647  -4.559  1.00  0.00    -0.744 OA
ENDBRANCH  78  82
ENDBRANCH  51  75
BRANCH  63  86
ATOM     86  C   UNL     1      21.506  -3.559   3.428  1.00  0.00     0.023 A 
ATOM     87  C   UNL     1      22.023  -2.615   2.523  1.00  0.00     0.031 A 
ATOM     88  C   UNL     1      22.415  -4.379   4.119  1.00  0.00     0.131 A 
ATOM     89  C   UNL     1      23.406  -2.553   2.292  1.00  0.00     0.055 A 
ATOM     90  C   UNL     1      23.794  -4.272   3.929  1.00  0.00     0.041 A 
ATOM     91  F   UNL     1      21.978  -5.300   4.993  1.00  0.00    -0.206 F 
ATOM     92  C   UNL     1      24.296  -3.363   3.002  1.00  0.00     0.022 A 
BRANCH  89  93
ATOM     93  S   UNL     1      24.024  -1.459   0.983  1.00  0.00     0.124 S 
ATOM     94  O   UNL     1      23.326  -1.970  -0.193  1.00  0.00    -0.237 OA
ATOM     95  O   UNL     1      23.605  -0.143   1.451  1.00  0.00    -0.237 OA
ATOM     96  O   UNL     1      25.468  -1.690   0.996  1.00  0.00    -0.744 OA
ENDBRANCH  89  93
ENDBRANCH  63  86
ENDBRANCH  37  38
ENDBRANCH  29  32
ENDBRANCH  27  28
ENDBRANCH  26  27
ENDBRANCH   1  26
TORSDOF 17
