REMARK SMILES NS(=O)(=O)c1ccc(N2N=C(C(=O)NCCCCCCNC(=O)c3ccc(-c4c5nc(c(-c6cc(S(=O)(=O)[O-])ccc6F)c6ccc([nH]6)c(-c6cc(S(=O)(=O)[O-])ccc6F)c6nc(c(-c7cc(S(=O)(=O)[O-])ccc7F)c7ccc4[nH]7)C=C6)C=C5)cc3)C[C@H]2c2ccco2)cc1
REMARK SMILES IDX 17 1 16 2 15 3 14 4 12 5 13 6 11 8 9 9 10 10 88 11 87 12
REMARK SMILES IDX 8 13 5 14 6 15 95 16 7 17 94 18 2 19 3 20 4 21 1 22 89 25
REMARK SMILES IDX 90 26 93 27 91 28 92 29 18 30 19 31 20 32 21 33 22 34 23 36
REMARK SMILES IDX 24 37 25 38 86 39 26 40 85 41 27 42 28 43 29 44 79 45 30 46
REMARK SMILES IDX 84 47 78 48 80 49 31 50 83 51 77 52 76 53 32 55 64 56 44 57
REMARK SMILES IDX 63 58 45 59 48 60 62 61 81 62 46 63 47 64 61 66 82 67 49 68
REMARK SMILES IDX 33 69 34 70 42 71 35 72 41 73 43 74 40 75 36 76 37 77 38 78
REMARK SMILES IDX 39 79 65 80 66 81 74 82 67 83 73 84 75 85 72 86 68 87 69 88
REMARK SMILES IDX 70 89 71 90 50 91 51 92 59 93 52 94 58 95 60 96 57 97 53 98
REMARK SMILES IDX 54 99 55 100 56 101
REMARK H PARENT 14 7 1 23 1 24 21 35 80 54 48 65
REMARK Flexibility Score: inf
ROOT
ATOM      1  C   UNL     1       3.964  -5.799 -12.505  1.00  0.00     0.002 C 
ENDROOT
BRANCH   1   2
ATOM      2  C   UNL     1       4.437  -5.442 -11.093  1.00  0.00     0.021 C 
BRANCH   2   3
ATOM      3  C   UNL     1       3.871  -4.139 -10.535  1.00  0.00     0.116 C 
BRANCH   3   4
ATOM      4  N   UNL     1       2.471  -4.280 -10.186  1.00  0.00    -0.351 N 
ATOM      5  C   UNL     1       1.738  -4.055  -9.051  1.00  0.00     0.267 C 
ATOM      6  O   UNL     1       0.546  -4.357  -9.079  1.00  0.00    -0.268 OA
ATOM      7  H   UNL     1       1.924  -4.613 -10.934  1.00  0.00     0.163 HD
BRANCH   5   8
ATOM      8  C   UNL     1       2.292  -3.420  -7.783  1.00  0.00     0.128 C 
ATOM      9  N   UNL     1       2.251  -2.476  -5.871  1.00  0.00    -0.254 N 
ATOM     10  N   UNL     1       1.517  -3.191  -6.764  1.00  0.00    -0.171 NA
ATOM     11  C   UNL     1       3.671  -2.381  -6.213  1.00  0.00     0.180 C 
ATOM     12  C   UNL     1       3.713  -3.002  -7.612  1.00  0.00     0.099 C 
BRANCH   9  13
ATOM     13  C   UNL     1       1.795  -2.297  -4.571  1.00  0.00     0.060 A 
ATOM     14  C   UNL     1       0.924  -1.887  -1.935  1.00  0.00     0.082 A 
ATOM     15  C   UNL     1       0.977  -3.183  -2.454  1.00  0.00     0.024 A 
ATOM     16  C   UNL     1       1.289  -0.794  -2.720  1.00  0.00     0.024 A 
ATOM     17  C   UNL     1       1.395  -3.379  -3.775  1.00  0.00     0.029 A 
ATOM     18  C   UNL     1       1.723  -1.007  -4.028  1.00  0.00     0.029 A 
BRANCH  14  19
ATOM     19  S   UNL     1       0.424  -1.649  -0.259  1.00  0.00     0.238 S 
ATOM     20  O   UNL     1       1.014  -2.684   0.558  1.00  0.00    -0.207 OA
ATOM     21  O   UNL     1      -0.987  -1.341  -0.233  1.00  0.00    -0.207 OA
BRANCH  19  22
ATOM     22  N   UNL     1       1.211  -0.234   0.202  1.00  0.00    -0.225 NA
ATOM     23  H   UNL     1       0.978  -0.015   1.170  1.00  0.00     0.137 HD
ATOM     24  H   UNL     1       0.913   0.533  -0.401  1.00  0.00     0.137 HD
ENDBRANCH  19  22
ENDBRANCH  14  19
ENDBRANCH   9  13
BRANCH  11  25
ATOM     25  C   UNL     1       4.303  -1.022  -6.157  1.00  0.00     0.128 A 
ATOM     26  C   UNL     1       4.931  -0.327  -5.141  1.00  0.00     0.048 A 
ATOM     27  O   UNL     1       4.296  -0.262  -7.293  1.00  0.00    -0.467 OA
ATOM     28  C   UNL     1       5.327   0.917  -5.687  1.00  0.00     0.042 A 
ATOM     29  C   UNL     1       4.930   0.902  -7.002  1.00  0.00     0.195 A 
ENDBRANCH  11  25
ENDBRANCH   5   8
ENDBRANCH   3   4
ENDBRANCH   2   3
ENDBRANCH   1   2
BRANCH   1  30
ATOM     30  C   UNL     1       4.259  -4.754 -13.585  1.00  0.00     0.002 C 
BRANCH  30  31
ATOM     31  C   UNL     1       5.704  -4.251 -13.649  1.00  0.00     0.021 C 
BRANCH  31  32
ATOM     32  C   UNL     1       6.768  -5.333 -13.809  1.00  0.00     0.116 C 
BRANCH  32  33
ATOM     33  N   UNL     1       6.625  -6.070 -15.051  1.00  0.00    -0.352 N 
ATOM     34  C   UNL     1       7.567  -6.349 -16.011  1.00  0.00     0.251 C 
ATOM     35  H   UNL     1       5.723  -6.421 -15.232  1.00  0.00     0.163 HD
ATOM     36  O   UNL     1       7.214  -6.841 -17.080  1.00  0.00    -0.269 OA
BRANCH  34  37
ATOM     37  C   UNL     1       8.993  -6.034 -15.770  1.00  0.00     0.039 A 
ATOM     38  C   UNL     1       9.728  -5.423 -16.790  1.00  0.00     0.014 A 
ATOM     39  C   UNL     1       9.612  -6.353 -14.557  1.00  0.00     0.014 A 
ATOM     40  C   UNL     1      11.066  -5.082 -16.576  1.00  0.00     0.010 A 
ATOM     41  C   UNL     1      10.929  -5.957 -14.323  1.00  0.00     0.010 A 
ATOM     42  C   UNL     1      11.670  -5.321 -15.331  1.00  0.00    -0.014 A 
BRANCH  42  43
ATOM     43  C   UNL     1      13.078  -4.920 -15.069  1.00  0.00     0.031 A 
ATOM     44  C   UNL     1      14.126  -5.969 -14.815  1.00  0.00     0.074 A 
ATOM     45  C   UNL     1      13.398  -3.613 -15.000  1.00  0.00     0.049 A 
ATOM     46  N   UNL     1      15.383  -5.822 -14.486  1.00  0.00    -0.248 NA
ATOM     47  C   UNL     1      13.690  -7.370 -14.915  1.00  0.00     0.031 C 
ATOM     48  C   UNL     1      12.462  -2.502 -15.190  1.00  0.00     0.029 A 
ATOM     49  N   UNL     1      14.595  -2.995 -14.737  1.00  0.00    -0.354 N 
ATOM     50  C   UNL     1      15.887  -7.109 -14.323  1.00  0.00     0.074 A 
ATOM     51  C   UNL     1      14.781  -8.019 -14.538  1.00  0.00     0.031 C 
ATOM     52  C   UNL     1      13.123  -1.342 -15.052  1.00  0.00     0.029 A 
ATOM     53  C   UNL     1      14.518  -1.621 -14.724  1.00  0.00     0.049 A 
ATOM     54  H   UNL     1      15.431  -3.488 -14.573  1.00  0.00     0.167 HD
ATOM     55  C   UNL     1      17.157  -7.495 -14.040  1.00  0.00     0.034 A 
ATOM     56  C   UNL     1      15.460  -0.693 -14.465  1.00  0.00     0.034 A 
ATOM     57  C   UNL     1      18.252  -6.575 -13.848  1.00  0.00     0.049 A 
ATOM     58  C   UNL     1      16.863  -1.144 -14.150  1.00  0.00     0.074 A 
ATOM     59  C   UNL     1      19.587  -6.858 -13.617  1.00  0.00     0.029 A 
ATOM     60  N   UNL     1      18.139  -5.190 -13.859  1.00  0.00    -0.354 N 
ATOM     61  N   UNL     1      17.332  -2.366 -14.045  1.00  0.00    -0.248 NA
ATOM     62  C   UNL     1      17.863  -0.092 -13.931  1.00  0.00     0.031 C 
ATOM     63  C   UNL     1      20.268  -5.650 -13.429  1.00  0.00     0.029 A 
ATOM     64  C   UNL     1      19.373  -4.608 -13.611  1.00  0.00     0.049 A 
ATOM     65  H   UNL     1      17.303  -4.694 -14.019  1.00  0.00     0.167 HD
ATOM     66  C   UNL     1      18.691  -2.227 -13.774  1.00  0.00     0.074 A 
ATOM     67  C   UNL     1      18.965  -0.805 -13.746  1.00  0.00     0.031 C 
ATOM     68  C   UNL     1      19.628  -3.188 -13.573  1.00  0.00     0.034 A 
BRANCH  55  69
ATOM     69  C   UNL     1      17.416  -8.975 -13.897  1.00  0.00     0.023 A 
ATOM     70  C   UNL     1      17.243  -9.864 -14.973  1.00  0.00     0.031 A 
ATOM     71  C   UNL     1      17.813  -9.512 -12.659  1.00  0.00     0.131 A 
ATOM     72  C   UNL     1      17.390 -11.245 -14.772  1.00  0.00     0.055 A 
ATOM     73  C   UNL     1      18.037 -10.880 -12.487  1.00  0.00     0.041 A 
ATOM     74  F   UNL     1      17.975  -8.717 -11.590  1.00  0.00    -0.206 F 
ATOM     75  C   UNL     1      17.810 -11.757 -13.543  1.00  0.00     0.022 A 
BRANCH  72  76
ATOM     76  S   UNL     1      16.885 -12.370 -16.102  1.00  0.00     0.124 S 
ATOM     77  O   UNL     1      15.475 -12.021 -16.262  1.00  0.00    -0.237 OA
ATOM     78  O   UNL     1      17.768 -11.984 -17.195  1.00  0.00    -0.237 OA
ATOM     79  O   UNL     1      17.130 -13.697 -15.539  1.00  0.00    -0.744 OA
ENDBRANCH  72  76
ENDBRANCH  55  69
BRANCH  56  80
ATOM     80  C   UNL     1      15.112   0.756 -14.480  1.00  0.00     0.023 A 
ATOM     81  C   UNL     1      15.652   1.620 -15.445  1.00  0.00     0.031 A 
ATOM     82  C   UNL     1      14.260   1.304 -13.505  1.00  0.00     0.131 A 
ATOM     83  C   UNL     1      15.370   2.994 -15.389  1.00  0.00     0.055 A 
ATOM     84  C   UNL     1      13.945   2.664 -13.482  1.00  0.00     0.041 A 
ATOM     85  F   UNL     1      13.711   0.519 -12.564  1.00  0.00    -0.206 F 
ATOM     86  C   UNL     1      14.511   3.519 -14.422  1.00  0.00     0.022 A 
BRANCH  83  87
ATOM     87  S   UNL     1      16.204   4.099 -16.561  1.00  0.00     0.124 S 
ATOM     88  O   UNL     1      17.609   3.839 -16.266  1.00  0.00    -0.237 OA
ATOM     89  O   UNL     1      15.714   3.606 -17.843  1.00  0.00    -0.237 OA
ATOM     90  O   UNL     1      15.721   5.425 -16.180  1.00  0.00    -0.744 OA
ENDBRANCH  83  87
ENDBRANCH  56  80
BRANCH  68  91
ATOM     91  C   UNL     1      21.045  -2.722 -13.347  1.00  0.00     0.023 A 
ATOM     92  C   UNL     1      21.419  -2.033 -12.180  1.00  0.00     0.031 A 
ATOM     93  C   UNL     1      22.030  -2.960 -14.321  1.00  0.00     0.131 A 
ATOM     94  C   UNL     1      22.733  -1.560 -12.040  1.00  0.00     0.055 A 
ATOM     95  C   UNL     1      23.348  -2.535 -14.152  1.00  0.00     0.041 A 
ATOM     96  F   UNL     1      21.726  -3.612 -15.455  1.00  0.00    -0.206 F 
ATOM     97  C   UNL     1      23.703  -1.820 -13.012  1.00  0.00     0.022 A 
BRANCH  94  98
ATOM     98  S   UNL     1      23.137  -0.525 -10.607  1.00  0.00     0.124 S 
ATOM     99  O   UNL     1      22.208   0.589 -10.764  1.00  0.00    -0.237 OA
ATOM    100  O   UNL     1      22.871  -1.423  -9.488  1.00  0.00    -0.237 OA
ATOM    101  O   UNL     1      24.546  -0.191 -10.810  1.00  0.00    -0.744 OA
ENDBRANCH  94  98
ENDBRANCH  68  91
ENDBRANCH  42  43
ENDBRANCH  34  37
ENDBRANCH  32  33
ENDBRANCH  31  32
ENDBRANCH  30  31
ENDBRANCH   1  30
TORSDOF 20
