REMARK SMILES COc1ccccc1C[N@@H+](C)[C@@H](C)c1ccc(C(=O)NCCCCCCNC(=O)c2ccc(-c3c4nc(c(-c5cc(S(=O)(=O)[O-])ccc5F)c5ccc([nH]5)c(-c5cc(S(=O)(=O)[O-])ccc5F)c5nc(c(-c6cc(S(=O)(=O)[O-])ccc6F)c6ccc3[nH]6)C=C5)C=C4)cc2)o1
REMARK SMILES IDX 22 1 21 2 20 3 18 4 19 5 17 7 14 8 15 9 93 10 16 11 12 12
REMARK SMILES IDX 13 13 10 14 11 15 9 17 8 18 3 19 4 20 5 21 7 22 6 23 2 24
REMARK SMILES IDX 1 25 23 26 24 27 25 28 26 29 27 30 28 31 29 33 30 34 31 35
REMARK SMILES IDX 92 36 32 37 91 38 33 39 34 40 35 41 85 42 36 43 90 44 84 45
REMARK SMILES IDX 86 46 37 47 89 48 83 49 82 50 38 52 70 53 50 54 69 55 51 56
REMARK SMILES IDX 54 57 68 58 87 59 52 60 53 61 67 63 88 64 55 65 39 66 40 67
REMARK SMILES IDX 48 68 41 69 47 70 49 71 46 72 42 73 43 74 44 75 45 76 71 77
REMARK SMILES IDX 72 78 80 79 73 80 79 81 81 82 78 83 74 84 75 85 76 86 77 87
REMARK SMILES IDX 56 88 57 89 65 90 58 91 64 92 66 93 63 94 59 95 60 96 61 97
REMARK SMILES IDX 62 98
REMARK H PARENT 20 6 10 16 27 32 86 51 54 62
REMARK Flexibility Score: inf
ROOT
ATOM      1  C   UNL     1      -1.482   3.480  -6.589  1.00  0.00     0.021 C 
ENDROOT
BRANCH   1   2
ATOM      2  C   UNL     1      -0.137   3.020  -7.151  1.00  0.00     0.116 C 
BRANCH   2   3
ATOM      3  N   UNL     1       0.980   3.637  -6.475  1.00  0.00    -0.349 N 
ATOM      4  C   UNL     1       2.000   3.111  -5.713  1.00  0.00     0.287 C 
ATOM      5  O   UNL     1       2.907   3.911  -5.456  1.00  0.00    -0.266 OA
ATOM      6  H   UNL     1       1.021   4.615  -6.579  1.00  0.00     0.163 HD
BRANCH   4   7
ATOM      7  C   UNL     1       1.988   1.736  -5.234  1.00  0.00     0.191 A 
ATOM      8  C   UNL     1       2.810   0.103  -3.962  1.00  0.00     0.161 A 
ATOM      9  C   UNL     1       1.646  -0.379  -4.517  1.00  0.00     0.053 A 
ATOM     10  O   UNL     1       3.070   1.345  -4.470  1.00  0.00    -0.450 OA
ATOM     11  C   UNL     1       1.103   0.673  -5.288  1.00  0.00     0.057 A 
BRANCH   8  12
ATOM     12  C   UNL     1       3.776  -0.469  -2.955  1.00  0.00     0.248 C 
ATOM     13  C   UNL     1       3.215  -1.774  -2.355  1.00  0.00     0.084 C 
BRANCH  12  14
ATOM     14  N   UNL     1       4.255   0.516  -1.944  1.00  0.00    -0.325 N 
ATOM     15  C   UNL     1       5.432  -0.002  -1.238  1.00  0.00     0.333 C 
ATOM     16  H   UNL     1       4.481   1.346  -2.491  1.00  0.00     0.348 HD
BRANCH  14  17
ATOM     17  C   UNL     1       3.252   0.944  -0.948  1.00  0.00     0.303 C 
BRANCH  17  18
ATOM     18  C   UNL     1       2.160   1.862  -1.450  1.00  0.00     0.048 A 
ATOM     19  C   UNL     1       0.812   1.480  -1.486  1.00  0.00     0.127 A 
ATOM     20  C   UNL     1      -0.162   2.321  -2.035  1.00  0.00     0.047 A 
ATOM     21  C   UNL     1       0.189   3.587  -2.499  1.00  0.00     0.004 A 
ATOM     22  C   UNL     1       2.492   3.149  -1.910  1.00  0.00     0.013 A 
ATOM     23  C   UNL     1       1.514   4.005  -2.424  1.00  0.00     0.001 A 
BRANCH  19  24
ATOM     24  O   UNL     1       0.412   0.234  -1.077  1.00  0.00    -0.496 OA
ATOM     25  C   UNL     1       0.130   0.238   0.322  1.00  0.00     0.278 C 
ENDBRANCH  19  24
ENDBRANCH  17  18
ENDBRANCH  14  17
ENDBRANCH  12  14
ENDBRANCH   8  12
ENDBRANCH   4   7
ENDBRANCH   2   3
ENDBRANCH   1   2
BRANCH   1  26
ATOM     26  C   UNL     1      -1.947   4.843  -7.121  1.00  0.00     0.002 C 
BRANCH  26  27
ATOM     27  C   UNL     1      -1.951   4.982  -8.649  1.00  0.00     0.002 C 
BRANCH  27  28
ATOM     28  C   UNL     1      -2.664   3.856  -9.403  1.00  0.00     0.021 C 
BRANCH  28  29
ATOM     29  C   UNL     1      -4.153   3.747  -9.101  1.00  0.00     0.116 C 
BRANCH  29  30
ATOM     30  N   UNL     1      -4.875   4.922  -9.558  1.00  0.00    -0.352 N 
ATOM     31  C   UNL     1      -5.921   5.003 -10.445  1.00  0.00     0.251 C 
ATOM     32  H   UNL     1      -4.574   5.779  -9.179  1.00  0.00     0.163 HD
ATOM     33  O   UNL     1      -6.243   6.090 -10.912  1.00  0.00    -0.269 OA
BRANCH  31  34
ATOM     34  C   UNL     1      -6.639   3.772 -10.838  1.00  0.00     0.039 A 
ATOM     35  C   UNL     1      -6.965   3.570 -12.181  1.00  0.00     0.014 A 
ATOM     36  C   UNL     1      -6.994   2.821  -9.876  1.00  0.00     0.014 A 
ATOM     37  C   UNL     1      -7.601   2.388 -12.566  1.00  0.00     0.010 A 
ATOM     38  C   UNL     1      -7.556   1.613 -10.273  1.00  0.00     0.010 A 
ATOM     39  C   UNL     1      -7.876   1.387 -11.620  1.00  0.00    -0.014 A 
BRANCH  39  40
ATOM     40  C   UNL     1      -8.527   0.108 -12.006  1.00  0.00     0.031 A 
ATOM     41  C   UNL     1      -9.877  -0.241 -11.438  1.00  0.00     0.074 A 
ATOM     42  C   UNL     1      -7.881  -0.763 -12.805  1.00  0.00     0.049 A 
ATOM     43  N   UNL     1     -10.564  -1.348 -11.551  1.00  0.00    -0.248 NA
ATOM     44  C   UNL     1     -10.521   0.784 -10.602  1.00  0.00     0.031 C 
ATOM     45  C   UNL     1      -6.559  -0.547 -13.397  1.00  0.00     0.029 A 
ATOM     46  N   UNL     1      -8.242  -2.011 -13.249  1.00  0.00    -0.354 N 
ATOM     47  C   UNL     1     -11.712  -1.160 -10.789  1.00  0.00     0.074 A 
ATOM     48  C   UNL     1     -11.592   0.141 -10.165  1.00  0.00     0.031 C 
ATOM     49  C   UNL     1      -6.233  -1.614 -14.144  1.00  0.00     0.029 A 
ATOM     50  C   UNL     1      -7.292  -2.613 -14.041  1.00  0.00     0.049 A 
ATOM     51  H   UNL     1      -9.101  -2.435 -13.022  1.00  0.00     0.167 HD
ATOM     52  C   UNL     1     -12.779  -1.985 -10.643  1.00  0.00     0.034 A 
ATOM     53  C   UNL     1      -7.269  -3.837 -14.605  1.00  0.00     0.034 A 
ATOM     54  C   UNL     1     -12.884  -3.274 -11.282  1.00  0.00     0.049 A 
ATOM     55  C   UNL     1      -8.447  -4.757 -14.394  1.00  0.00     0.074 A 
ATOM     56  C   UNL     1     -13.934  -4.174 -11.240  1.00  0.00     0.029 A 
ATOM     57  N   UNL     1     -11.899  -3.853 -12.074  1.00  0.00    -0.354 N 
ATOM     58  N   UNL     1      -9.542  -4.552 -13.698  1.00  0.00    -0.248 NA
ATOM     59  C   UNL     1      -8.389  -6.069 -15.051  1.00  0.00     0.031 C 
ATOM     60  C   UNL     1     -13.555  -5.324 -11.940  1.00  0.00     0.029 A 
ATOM     61  C   UNL     1     -12.305  -5.109 -12.497  1.00  0.00     0.049 A 
ATOM     62  H   UNL     1     -11.038  -3.432 -12.301  1.00  0.00     0.167 HD
ATOM     63  C   UNL     1     -10.320  -5.695 -13.870  1.00  0.00     0.074 A 
ATOM     64  C   UNL     1      -9.571  -6.579 -14.739  1.00  0.00     0.031 C 
ATOM     65  C   UNL     1     -11.546  -5.983 -13.362  1.00  0.00     0.034 A 
BRANCH  52  66
ATOM     66  C   UNL     1     -13.896  -1.523  -9.735  1.00  0.00     0.023 A 
ATOM     67  C   UNL     1     -14.623  -0.348  -9.996  1.00  0.00     0.031 A 
ATOM     68  C   UNL     1     -14.214  -2.245  -8.571  1.00  0.00     0.131 A 
ATOM     69  C   UNL     1     -15.566   0.115  -9.066  1.00  0.00     0.055 A 
ATOM     70  C   UNL     1     -15.219  -1.828  -7.696  1.00  0.00     0.041 A 
ATOM     71  F   UNL     1     -13.541  -3.362  -8.253  1.00  0.00    -0.206 F 
ATOM     72  C   UNL     1     -15.889  -0.631  -7.931  1.00  0.00     0.022 A 
BRANCH  69  73
ATOM     73  S   UNL     1     -16.237   1.787  -9.277  1.00  0.00     0.124 S 
ATOM     74  O   UNL     1     -15.020   2.596  -9.267  1.00  0.00    -0.237 OA
ATOM     75  O   UNL     1     -16.930   1.690 -10.556  1.00  0.00    -0.237 OA
ATOM     76  O   UNL     1     -17.100   1.959  -8.110  1.00  0.00    -0.744 OA
ENDBRANCH  69  73
ENDBRANCH  52  66
BRANCH  53  77
ATOM     77  C   UNL     1      -6.095  -4.276 -15.414  1.00  0.00     0.023 A 
ATOM     78  C   UNL     1      -6.226  -4.563 -16.782  1.00  0.00     0.031 A 
ATOM     79  C   UNL     1      -4.832  -4.456 -14.822  1.00  0.00     0.131 A 
ATOM     80  C   UNL     1      -5.130  -5.062 -17.501  1.00  0.00     0.055 A 
ATOM     81  C   UNL     1      -3.729  -4.896 -15.556  1.00  0.00     0.041 A 
ATOM     82  F   UNL     1      -4.648  -4.194 -13.518  1.00  0.00    -0.206 F 
ATOM     83  C   UNL     1      -3.878  -5.216 -16.901  1.00  0.00     0.022 A 
BRANCH  80  84
ATOM     84  S   UNL     1      -5.387  -5.597 -19.215  1.00  0.00     0.124 S 
ATOM     85  O   UNL     1      -6.421  -6.613 -19.055  1.00  0.00    -0.237 OA
ATOM     86  O   UNL     1      -5.801  -4.356 -19.861  1.00  0.00    -0.237 OA
ATOM     87  O   UNL     1      -4.074  -6.098 -19.616  1.00  0.00    -0.744 OA
ENDBRANCH  80  84
ENDBRANCH  53  77
BRANCH  65  88
ATOM     88  C   UNL     1     -12.180  -7.287 -13.787  1.00  0.00     0.023 A 
ATOM     89  C   UNL     1     -11.646  -8.533 -13.416  1.00  0.00     0.031 A 
ATOM     90  C   UNL     1     -13.344  -7.275 -14.578  1.00  0.00     0.131 A 
ATOM     91  C   UNL     1     -12.244  -9.715 -13.881  1.00  0.00     0.055 A 
ATOM     92  C   UNL     1     -13.972  -8.454 -14.981  1.00  0.00     0.041 A 
ATOM     93  F   UNL     1     -13.896  -6.114 -14.965  1.00  0.00    -0.206 F 
ATOM     94  C   UNL     1     -13.414  -9.683 -14.644  1.00  0.00     0.022 A 
BRANCH  91  95
ATOM     95  S   UNL     1     -11.419 -11.296 -13.553  1.00  0.00     0.124 S 
ATOM     96  O   UNL     1     -10.113 -11.091 -14.172  1.00  0.00    -0.237 OA
ATOM     97  O   UNL     1     -11.430 -11.358 -12.095  1.00  0.00    -0.237 OA
ATOM     98  O   UNL     1     -12.275 -12.275 -14.220  1.00  0.00    -0.744 OA
ENDBRANCH  91  95
ENDBRANCH  65  88
ENDBRANCH  39  40
ENDBRANCH  31  34
ENDBRANCH  29  30
ENDBRANCH  28  29
ENDBRANCH  27  28
ENDBRANCH  26  27
ENDBRANCH   1  26
TORSDOF 21
