REMARK SMILES Cc1ccc(OCCC(=O)N2C[C@H](O)C[C@@H]2C(=O)NCCCCCCNC(=O)c2ccc(-c3c4nc(c(-c5cc(S(=O)(=O)[O-])ccc5F)c5ccc([nH]5)c(-c5cc(S(=O)(=O)[O-])ccc5F)c5nc(c(-c6cc(S(=O)(=O)[O-])ccc6F)c6ccc3[nH]6)C=C5)C=C4)cc2)cc1
REMARK SMILES IDX 21 1 20 2 19 3 17 4 18 5 16 7 11 8 12 9 13 10 15 11 9 12
REMARK SMILES IDX 10 13 8 14 7 15 6 16 5 17 1 18 2 19 3 20 93 21 4 22 92 23
REMARK SMILES IDX 14 24 22 26 23 27 24 28 25 29 26 30 27 31 28 33 29 34 30 35
REMARK SMILES IDX 91 36 31 37 90 38 32 39 33 40 34 41 84 42 35 43 89 44 83 45
REMARK SMILES IDX 85 46 36 47 88 48 82 49 81 50 37 52 69 53 49 54 68 55 50 56
REMARK SMILES IDX 53 57 67 58 86 59 51 60 52 61 66 63 87 64 54 65 38 66 39 67
REMARK SMILES IDX 47 68 40 69 46 70 48 71 45 72 41 73 42 74 43 75 44 76 70 77
REMARK SMILES IDX 71 78 79 79 72 80 78 81 80 82 77 83 73 84 74 85 75 86 76 87
REMARK SMILES IDX 55 88 56 89 64 90 57 91 63 92 65 93 62 94 58 95 59 96 60 97
REMARK SMILES IDX 61 98
REMARK H PARENT 19 6 14 25 26 32 85 51 53 62
REMARK Flexibility Score: inf
ROOT
ATOM      1  C   UNL     1      -3.691  -0.390   4.142  1.00  0.00     0.021 C 
ENDROOT
BRANCH   1   2
ATOM      2  C   UNL     1      -2.811   0.857   4.122  1.00  0.00     0.116 C 
BRANCH   2   3
ATOM      3  N   UNL     1      -1.462   0.639   4.609  1.00  0.00    -0.354 N 
ATOM      4  C   UNL     1      -0.306   1.155   4.080  1.00  0.00     0.242 C 
ATOM      5  O   UNL     1       0.583   1.481   4.875  1.00  0.00    -0.273 OA
ATOM      6  H   UNL     1      -1.367   0.062   5.400  1.00  0.00     0.163 HD
BRANCH   4   7
ATOM      7  C   UNL     1       0.004   1.081   2.555  1.00  0.00     0.177 C 
ATOM      8  N   UNL     1      -1.106   0.825   1.645  1.00  0.00    -0.328 N 
ATOM      9  C   UNL     1      -1.257  -0.607   1.406  1.00  0.00     0.152 C 
ATOM     10  C   UNL     1      -0.034  -1.269   2.043  1.00  0.00     0.136 C 
ATOM     11  C   UNL     1       0.930  -0.119   2.320  1.00  0.00     0.069 C 
BRANCH   8  12
ATOM     12  C   UNL     1      -1.798   1.842   1.018  1.00  0.00     0.226 C 
ATOM     13  O   UNL     1      -1.418   3.014   1.056  1.00  0.00    -0.275 OA
BRANCH  12  14
ATOM     14  C   UNL     1      -3.144   1.492   0.397  1.00  0.00     0.141 C 
BRANCH  14  15
ATOM     15  C   UNL     1      -3.263   1.791  -1.093  1.00  0.00     0.239 C 
BRANCH  15  16
ATOM     16  O   UNL     1      -2.758   0.742  -1.932  1.00  0.00    -0.493 OA
BRANCH  16  17
ATOM     17  C   UNL     1      -1.398   0.622  -2.006  1.00  0.00     0.119 A 
ATOM     18  C   UNL     1       2.784  -0.178  -1.463  1.00  0.00     0.044 C 
ATOM     19  C   UNL     1       1.342   0.108  -1.748  1.00  0.00    -0.051 A 
ATOM     20  C   UNL     1       0.455  -0.934  -2.042  1.00  0.00     0.007 A 
ATOM     21  C   UNL     1       0.860   1.420  -1.710  1.00  0.00     0.007 A 
ATOM     22  C   UNL     1      -0.911  -0.674  -2.185  1.00  0.00     0.046 A 
ATOM     23  C   UNL     1      -0.503   1.676  -1.852  1.00  0.00     0.046 A 
ENDBRANCH  16  17
ENDBRANCH  15  16
ENDBRANCH  14  15
ENDBRANCH  12  14
ENDBRANCH   8  12
BRANCH  10  24
ATOM     24  O   UNL     1      -0.364  -1.940   3.254  1.00  0.00    -0.391 OA
ATOM     25  H   UNL     1      -0.749  -1.307   3.880  1.00  0.00     0.211 HD
ENDBRANCH  10  24
ENDBRANCH   4   7
ENDBRANCH   2   3
ENDBRANCH   1   2
BRANCH   1  26
ATOM     26  C   UNL     1      -4.581  -0.504   5.380  1.00  0.00     0.002 C 
BRANCH  26  27
ATOM     27  C   UNL     1      -5.411   0.742   5.731  1.00  0.00     0.002 C 
BRANCH  27  28
ATOM     28  C   UNL     1      -6.210   1.351   4.580  1.00  0.00     0.021 C 
BRANCH  28  29
ATOM     29  C   UNL     1      -7.405   0.506   4.163  1.00  0.00     0.116 C 
BRANCH  29  30
ATOM     30  N   UNL     1      -8.631   0.837   4.879  1.00  0.00    -0.352 N 
ATOM     31  C   UNL     1      -9.885   0.267   4.743  1.00  0.00     0.251 C 
ATOM     32  H   UNL     1      -8.558   1.558   5.545  1.00  0.00     0.163 HD
ATOM     33  O   UNL     1     -10.852   0.669   5.367  1.00  0.00    -0.269 OA
BRANCH  31  34
ATOM     34  C   UNL     1      -9.999  -0.942   3.897  1.00  0.00     0.039 A 
ATOM     35  C   UNL     1     -10.396  -2.125   4.529  1.00  0.00     0.014 A 
ATOM     36  C   UNL     1      -9.465  -0.959   2.610  1.00  0.00     0.014 A 
ATOM     37  C   UNL     1     -10.047  -3.345   3.962  1.00  0.00     0.010 A 
ATOM     38  C   UNL     1      -9.042  -2.167   2.089  1.00  0.00     0.010 A 
ATOM     39  C   UNL     1      -9.274  -3.350   2.801  1.00  0.00    -0.014 A 
BRANCH  39  40
ATOM     40  C   UNL     1      -8.557  -4.537   2.349  1.00  0.00     0.031 A 
ATOM     41  C   UNL     1      -9.060  -5.327   1.210  1.00  0.00     0.074 A 
ATOM     42  C   UNL     1      -7.430  -4.920   2.987  1.00  0.00     0.049 A 
ATOM     43  N   UNL     1      -8.821  -6.581   1.024  1.00  0.00    -0.248 NA
ATOM     44  C   UNL     1      -9.947  -4.755   0.208  1.00  0.00     0.031 C 
ATOM     45  C   UNL     1      -6.474  -5.942   2.571  1.00  0.00     0.029 A 
ATOM     46  N   UNL     1      -7.075  -4.623   4.301  1.00  0.00    -0.354 N 
ATOM     47  C   UNL     1      -9.273  -6.914  -0.233  1.00  0.00     0.074 A 
ATOM     48  C   UNL     1     -10.036  -5.764  -0.661  1.00  0.00     0.031 C 
ATOM     49  C   UNL     1      -5.806  -6.373   3.653  1.00  0.00     0.029 A 
ATOM     50  C   UNL     1      -6.412  -5.747   4.816  1.00  0.00     0.049 A 
ATOM     51  H   UNL     1      -7.255  -3.781   4.778  1.00  0.00     0.167 HD
ATOM     52  C   UNL     1      -8.832  -8.066  -0.818  1.00  0.00     0.034 A 
ATOM     53  C   UNL     1      -6.911  -6.422   5.891  1.00  0.00     0.034 A 
ATOM     54  C   UNL     1      -8.034  -8.870   0.114  1.00  0.00     0.049 A 
ATOM     55  C   UNL     1      -7.248  -7.869   5.604  1.00  0.00     0.074 A 
ATOM     56  C   UNL     1      -6.671  -9.070   0.265  1.00  0.00     0.029 A 
ATOM     57  N   UNL     1      -8.633  -9.399   1.256  1.00  0.00    -0.354 N 
ATOM     58  N   UNL     1      -7.400  -8.377   4.411  1.00  0.00    -0.248 NA
ATOM     59  C   UNL     1      -7.463  -8.848   6.662  1.00  0.00     0.031 C 
ATOM     60  C   UNL     1      -6.451  -9.670   1.534  1.00  0.00     0.029 A 
ATOM     61  C   UNL     1      -7.680  -9.865   2.143  1.00  0.00     0.049 A 
ATOM     62  H   UNL     1      -9.605  -9.436   1.410  1.00  0.00     0.167 HD
ATOM     63  C   UNL     1      -7.765  -9.698   4.519  1.00  0.00     0.074 A 
ATOM     64  C   UNL     1      -7.749  -9.950   5.950  1.00  0.00     0.031 C 
ATOM     65  C   UNL     1      -8.068 -10.459   3.420  1.00  0.00     0.034 A 
BRANCH  52  66
ATOM     66  C   UNL     1      -8.848  -8.304  -2.319  1.00  0.00     0.023 A 
ATOM     67  C   UNL     1      -7.852  -9.120  -2.901  1.00  0.00     0.031 A 
ATOM     68  C   UNL     1      -9.740  -7.716  -3.237  1.00  0.00     0.131 A 
ATOM     69  C   UNL     1      -7.698  -9.218  -4.298  1.00  0.00     0.055 A 
ATOM     70  C   UNL     1      -9.553  -7.761  -4.626  1.00  0.00     0.041 A 
ATOM     71  F   UNL     1     -10.873  -7.125  -2.841  1.00  0.00    -0.206 F 
ATOM     72  C   UNL     1      -8.515  -8.502  -5.165  1.00  0.00     0.022 A 
BRANCH  69  73
ATOM     73  S   UNL     1      -6.409 -10.300  -4.976  1.00  0.00     0.124 S 
ATOM     74  O   UNL     1      -5.194  -9.736  -4.398  1.00  0.00    -0.237 OA
ATOM     75  O   UNL     1      -6.814 -11.611  -4.480  1.00  0.00    -0.237 OA
ATOM     76  O   UNL     1      -6.543 -10.123  -6.422  1.00  0.00    -0.744 OA
ENDBRANCH  69  73
ENDBRANCH  52  66
BRANCH  53  77
ATOM     77  C   UNL     1      -7.647  -5.561   6.860  1.00  0.00     0.023 A 
ATOM     78  C   UNL     1      -6.939  -4.523   7.502  1.00  0.00     0.031 A 
ATOM     79  C   UNL     1      -9.048  -5.521   6.895  1.00  0.00     0.131 A 
ATOM     80  C   UNL     1      -7.628  -3.430   8.045  1.00  0.00     0.055 A 
ATOM     81  C   UNL     1      -9.732  -4.442   7.467  1.00  0.00     0.041 A 
ATOM     82  F   UNL     1      -9.774  -6.461   6.273  1.00  0.00    -0.206 F 
ATOM     83  C   UNL     1      -9.023  -3.373   8.010  1.00  0.00     0.022 A 
BRANCH  80  84
ATOM     84  S   UNL     1      -6.713  -1.968   8.609  1.00  0.00     0.124 S 
ATOM     85  O   UNL     1      -6.756  -2.115  10.059  1.00  0.00    -0.237 OA
ATOM     86  O   UNL     1      -5.398  -2.137   7.997  1.00  0.00    -0.237 OA
ATOM     87  O   UNL     1      -7.502  -0.866   8.062  1.00  0.00    -0.744 OA
ENDBRANCH  80  84
ENDBRANCH  53  77
BRANCH  65  88
ATOM     88  C   UNL     1      -8.671 -11.857   3.433  1.00  0.00     0.023 A 
ATOM     89  C   UNL     1      -9.200 -12.473   4.578  1.00  0.00     0.031 A 
ATOM     90  C   UNL     1      -8.787 -12.615   2.240  1.00  0.00     0.131 A 
ATOM     91  C   UNL     1      -9.711 -13.785   4.543  1.00  0.00     0.055 A 
ATOM     92  C   UNL     1      -9.367 -13.889   2.191  1.00  0.00     0.041 A 
ATOM     93  F   UNL     1      -8.354 -12.150   1.059  1.00  0.00    -0.206 F 
ATOM     94  C   UNL     1      -9.818 -14.493   3.352  1.00  0.00     0.022 A 
BRANCH  91  95
ATOM     95  S   UNL     1     -10.178 -14.565   6.113  1.00  0.00     0.124 S 
ATOM     96  O   UNL     1      -8.902 -14.599   6.822  1.00  0.00    -0.237 OA
ATOM     97  O   UNL     1     -11.171 -13.636   6.641  1.00  0.00    -0.237 OA
ATOM     98  O   UNL     1     -10.698 -15.870   5.710  1.00  0.00    -0.744 OA
ENDBRANCH  91  95
ENDBRANCH  65  88
ENDBRANCH  39  40
ENDBRANCH  31  34
ENDBRANCH  29  30
ENDBRANCH  28  29
ENDBRANCH  27  28
ENDBRANCH  26  27
ENDBRANCH   1  26
TORSDOF 22
