REMARK SMILES C[C@@H](C(=O)NCCCCCCNC(=O)c1ccc(-c2c3nc(c(-c4cc(S(=O)(=O)[O-])ccc4F)c4ccc([nH]4)c(-c4cc(S(=O)(=O)[O-])ccc4F)c4nc(c(-c5cc(S(=O)(=O)[O-])ccc5F)c5ccc2[nH]5)C=C4)C=C3)cc1)N1C(=O)/C(=C\c2ccc(OCc3ccccc3Cl)cc2)SC1=S
REMARK SMILES IDX 7 1 6 2 5 3 3 4 4 5 2 7 1 8 78 9 79 10 99 11 80 12 81 13
REMARK SMILES IDX 98 14 100 15 82 16 83 17 84 18 97 19 85 20 96 21 86 22 87 23
REMARK SMILES IDX 88 24 89 25 90 26 94 27 91 28 93 29 95 30 92 31 8 32 9 33
REMARK SMILES IDX 10 34 11 35 12 36 13 37 14 39 15 40 16 41 77 42 17 43 76 44
REMARK SMILES IDX 18 45 19 46 20 47 70 48 21 49 75 50 69 51 71 52 22 53 74 54
REMARK SMILES IDX 68 55 67 56 23 58 55 59 35 60 54 61 36 62 39 63 53 64 72 65
REMARK SMILES IDX 37 66 38 67 52 69 73 70 40 71 24 72 25 73 33 74 26 75 32 76
REMARK SMILES IDX 34 77 31 78 27 79 28 80 29 81 30 82 56 83 57 84 65 85 58 86
REMARK SMILES IDX 64 87 66 88 63 89 59 90 60 91 61 92 62 93 41 94 42 95 50 96
REMARK SMILES IDX 43 97 49 98 51 99 48 100 44 101 45 102 46 103 47 104
REMARK H PARENT 5 6 12 38 71 57 39 68
REMARK Flexibility Score: inf
ROOT
ATOM      1  C   UNL     1       4.195   0.301   1.536  1.00  0.00     0.021 C 
ENDROOT
BRANCH   1   2
ATOM      2  C   UNL     1       3.357  -0.953   1.793  1.00  0.00     0.116 C 
BRANCH   2   3
ATOM      3  N   UNL     1       2.238  -0.657   2.666  1.00  0.00    -0.354 N 
ATOM      4  C   UNL     1       0.907  -0.542   2.392  1.00  0.00     0.242 C 
ATOM      5  O   UNL     1       0.158  -0.295   3.343  1.00  0.00    -0.273 OA
ATOM      6  H   UNL     1       2.478  -0.517   3.610  1.00  0.00     0.163 HD
BRANCH   4   7
ATOM      7  C   UNL     1       0.367  -0.778   0.963  1.00  0.00     0.178 C 
ATOM      8  C   UNL     1       0.913   0.149  -0.123  1.00  0.00     0.042 C 
BRANCH   7   9
ATOM      9  N   UNL     1      -1.118  -0.808   1.012  1.00  0.00    -0.281 N 
ATOM     10  C   UNL     1      -1.731  -2.054   1.077  1.00  0.00     0.266 C 
ATOM     11  C   UNL     1      -1.955   0.286   1.116  1.00  0.00     0.149 C 
ATOM     12  O   UNL     1      -1.145  -3.126   1.071  1.00  0.00    -0.268 OA
ATOM     13  C   UNL     1      -3.219  -1.909   1.136  1.00  0.00     0.081 C 
ATOM     14  S   UNL     1      -3.636  -0.240   1.085  1.00  0.00    -0.054 SA
ATOM     15  S   UNL     1      -1.595   1.912   1.240  1.00  0.00    -0.052 S 
ATOM     16  C   UNL     1      -4.153  -2.868   1.226  1.00  0.00     0.029 C 
BRANCH  16  17
ATOM     17  C   UNL     1      -3.881  -4.298   1.349  1.00  0.00    -0.024 A 
ATOM     18  C   UNL     1      -4.057  -5.147   0.255  1.00  0.00     0.012 A 
ATOM     19  C   UNL     1      -3.408  -4.819   2.559  1.00  0.00     0.012 A 
ATOM     20  C   UNL     1      -3.661  -6.482   0.345  1.00  0.00     0.047 A 
ATOM     21  C   UNL     1      -3.021  -6.157   2.649  1.00  0.00     0.047 A 
ATOM     22  C   UNL     1      -3.079  -6.970   1.518  1.00  0.00     0.119 A 
BRANCH  22  23
ATOM     23  O   UNL     1      -2.502  -8.201   1.389  1.00  0.00    -0.489 OA
BRANCH  23  24
ATOM     24  C   UNL     1      -1.483  -8.597   2.319  1.00  0.00     0.267 C 
BRANCH  24  25
ATOM     25  C   UNL     1      -0.102  -7.967   2.170  1.00  0.00     0.008 A 
ATOM     26  C   UNL     1       0.085  -6.676   1.639  1.00  0.00     0.009 A 
ATOM     27  C   UNL     1       1.043  -8.626   2.658  1.00  0.00     0.047 A 
ATOM     28  C   UNL     1       1.339  -6.058   1.622  1.00  0.00     0.001 A 
ATOM     29  C   UNL     1       2.306  -8.017   2.614  1.00  0.00     0.021 A 
ATOM     30  Cl  UNL     1       0.964 -10.206   3.360  1.00  0.00    -0.084 Cl
ATOM     31  C   UNL     1       2.451  -6.729   2.107  1.00  0.00     0.002 A 
ENDBRANCH  24  25
ENDBRANCH  23  24
ENDBRANCH  22  23
ENDBRANCH  16  17
ENDBRANCH   7   9
ENDBRANCH   4   7
ENDBRANCH   2   3
ENDBRANCH   1   2
BRANCH   1  32
ATOM     32  C   UNL     1       4.971   0.792   2.767  1.00  0.00     0.002 C 
BRANCH  32  33
ATOM     33  C   UNL     1       5.964  -0.217   3.356  1.00  0.00     0.002 C 
BRANCH  33  34
ATOM     34  C   UNL     1       7.006  -0.750   2.369  1.00  0.00     0.021 C 
BRANCH  34  35
ATOM     35  C   UNL     1       7.907   0.320   1.760  1.00  0.00     0.116 C 
BRANCH  35  36
ATOM     36  N   UNL     1       8.739   0.965   2.763  1.00  0.00    -0.352 N 
ATOM     37  C   UNL     1      10.108   1.072   2.819  1.00  0.00     0.251 C 
ATOM     38  H   UNL     1       8.252   1.385   3.509  1.00  0.00     0.163 HD
ATOM     39  O   UNL     1      10.650   1.458   3.850  1.00  0.00    -0.269 OA
BRANCH  37  40
ATOM     40  C   UNL     1      10.921   0.696   1.641  1.00  0.00     0.039 A 
ATOM     41  C   UNL     1      12.051  -0.104   1.823  1.00  0.00     0.014 A 
ATOM     42  C   UNL     1      10.559   1.121   0.360  1.00  0.00     0.014 A 
ATOM     43  C   UNL     1      12.774  -0.541   0.711  1.00  0.00     0.010 A 
ATOM     44  C   UNL     1      11.238   0.626  -0.751  1.00  0.00     0.010 A 
ATOM     45  C   UNL     1      12.348  -0.218  -0.588  1.00  0.00    -0.014 A 
BRANCH  45  46
ATOM     46  C   UNL     1      13.031  -0.771  -1.788  1.00  0.00     0.031 A 
ATOM     47  C   UNL     1      13.704   0.151  -2.768  1.00  0.00     0.074 A 
ATOM     48  C   UNL     1      12.974  -2.096  -2.032  1.00  0.00     0.049 A 
ATOM     49  N   UNL     1      14.260  -0.129  -3.918  1.00  0.00    -0.248 NA
ATOM     50  C   UNL     1      13.730   1.580  -2.420  1.00  0.00     0.031 C 
ATOM     51  C   UNL     1      12.320  -3.086  -1.172  1.00  0.00     0.029 A 
ATOM     52  N   UNL     1      13.455  -2.841  -3.081  1.00  0.00    -0.354 N 
ATOM     53  C   UNL     1      14.687   1.088  -4.440  1.00  0.00     0.074 A 
ATOM     54  C   UNL     1      14.281   2.112  -3.501  1.00  0.00     0.031 C 
ATOM     55  C   UNL     1      12.456  -4.304  -1.718  1.00  0.00     0.029 A 
ATOM     56  C   UNL     1      13.152  -4.181  -2.995  1.00  0.00     0.049 A 
ATOM     57  H   UNL     1      13.970  -2.453  -3.825  1.00  0.00     0.167 HD
ATOM     58  C   UNL     1      15.366   1.323  -5.590  1.00  0.00     0.034 A 
ATOM     59  C   UNL     1      13.381  -5.193  -3.858  1.00  0.00     0.034 A 
ATOM     60  C   UNL     1      15.775   0.286  -6.505  1.00  0.00     0.049 A 
ATOM     61  C   UNL     1      14.102  -4.896  -5.150  1.00  0.00     0.074 A 
ATOM     62  C   UNL     1      16.537   0.406  -7.655  1.00  0.00     0.029 A 
ATOM     63  N   UNL     1      15.443  -1.058  -6.390  1.00  0.00    -0.354 N 
ATOM     64  N   UNL     1      14.563  -3.748  -5.593  1.00  0.00    -0.248 NA
ATOM     65  C   UNL     1      14.340  -6.028  -6.056  1.00  0.00     0.031 C 
ATOM     66  C   UNL     1      16.589  -0.843  -8.279  1.00  0.00     0.029 A 
ATOM     67  C   UNL     1      15.939  -1.765  -7.474  1.00  0.00     0.049 A 
ATOM     68  H   UNL     1      14.930  -1.451  -5.647  1.00  0.00     0.167 HD
ATOM     69  C   UNL     1      15.168  -4.029  -6.815  1.00  0.00     0.074 A 
ATOM     70  C   UNL     1      15.031  -5.455  -7.029  1.00  0.00     0.031 C 
ATOM     71  C   UNL     1      15.785  -3.186  -7.681  1.00  0.00     0.034 A 
BRANCH  58  72
ATOM     72  C   UNL     1      15.679   2.757  -5.943  1.00  0.00     0.023 A 
ATOM     73  C   UNL     1      16.518   3.555  -5.145  1.00  0.00     0.031 A 
ATOM     74  C   UNL     1      15.133   3.335  -7.103  1.00  0.00     0.131 A 
ATOM     75  C   UNL     1      16.735   4.899  -5.483  1.00  0.00     0.055 A 
ATOM     76  C   UNL     1      15.417   4.649  -7.477  1.00  0.00     0.041 A 
ATOM     77  F   UNL     1      14.307   2.631  -7.893  1.00  0.00    -0.206 F 
ATOM     78  C   UNL     1      16.213   5.444  -6.658  1.00  0.00     0.022 A 
BRANCH  75  79
ATOM     79  S   UNL     1      17.599   5.963  -4.295  1.00  0.00     0.124 S 
ATOM     80  O   UNL     1      16.749   5.838  -3.114  1.00  0.00    -0.237 OA
ATOM     81  O   UNL     1      18.912   5.335  -4.207  1.00  0.00    -0.237 OA
ATOM     82  O   UNL     1      17.577   7.278  -4.933  1.00  0.00    -0.744 OA
ENDBRANCH  75  79
ENDBRANCH  58  72
BRANCH  59  83
ATOM     83  C   UNL     1      12.894  -6.572  -3.559  1.00  0.00     0.023 A 
ATOM     84  C   UNL     1      13.790  -7.645  -3.429  1.00  0.00     0.031 A 
ATOM     85  C   UNL     1      11.518  -6.851  -3.463  1.00  0.00     0.131 A 
ATOM     86  C   UNL     1      13.300  -8.951  -3.269  1.00  0.00     0.055 A 
ATOM     87  C   UNL     1      11.038  -8.142  -3.238  1.00  0.00     0.041 A 
ATOM     88  F   UNL     1      10.614  -5.864  -3.582  1.00  0.00    -0.206 F 
ATOM     89  C   UNL     1      11.931  -9.205  -3.156  1.00  0.00     0.022 A 
BRANCH  86  90
ATOM     90  S   UNL     1      14.476 -10.331  -3.328  1.00  0.00     0.124 S 
ATOM     91  O   UNL     1      15.113 -10.122  -4.623  1.00  0.00    -0.237 OA
ATOM     92  O   UNL     1      15.305 -10.072  -2.155  1.00  0.00    -0.237 OA
ATOM     93  O   UNL     1      13.620 -11.511  -3.235  1.00  0.00    -0.744 OA
ENDBRANCH  86  90
ENDBRANCH  59  83
BRANCH  71  94
ATOM     94  C   UNL     1      16.393  -3.793  -8.923  1.00  0.00     0.023 A 
ATOM     95  C   UNL     1      15.600  -4.365  -9.932  1.00  0.00     0.031 A 
ATOM     96  C   UNL     1      17.789  -3.787  -9.101  1.00  0.00     0.131 A 
ATOM     97  C   UNL     1      16.210  -4.948 -11.053  1.00  0.00     0.055 A 
ATOM     98  C   UNL     1      18.386  -4.311 -10.248  1.00  0.00     0.041 A 
ATOM     99  F   UNL     1      18.595  -3.258  -8.167  1.00  0.00    -0.206 F 
ATOM    100  C   UNL     1      17.596  -4.906 -11.228  1.00  0.00     0.022 A 
BRANCH  97 101
ATOM    101  S   UNL     1      15.173  -5.835 -12.247  1.00  0.00     0.124 S 
ATOM    102  O   UNL     1      14.578  -6.878 -11.416  1.00  0.00    -0.237 OA
ATOM    103  O   UNL     1      14.263  -4.792 -12.709  1.00  0.00    -0.237 OA
ATOM    104  O   UNL     1      16.128  -6.309 -13.247  1.00  0.00    -0.744 OA
ENDBRANCH  97 101
ENDBRANCH  71  94
ENDBRANCH  45  46
ENDBRANCH  37  40
ENDBRANCH  35  36
ENDBRANCH  34  35
ENDBRANCH  33  34
ENDBRANCH  32  33
ENDBRANCH   1  32
TORSDOF 21
