REMARK SMILES Cc1c(C[NH2+]Cc2cccc(F)c2)c(C(=O)NCCCCCCNC(=O)c2ccc(-c3c4nc(c(-c5cc(S(=O)(=O)[O-])ccc5F)c5ccc([nH]5)c(-c5cc(S(=O)(=O)[O-])ccc5F)c5nc(c(-c6cc(S(=O)(=O)[O-])ccc6F)c6ccc3[nH]6)C=C5)C=C4)cc2)c(C)n1Cc1c(F)cccc1Cl
REMARK SMILES IDX 20 1 19 2 18 3 17 4 15 5 16 6 14 8 1 9 2 10 3 11 92 12 90 13
REMARK SMILES IDX 91 14 4 15 5 16 6 19 7 20 8 21 13 22 9 23 11 24 10 25 12 26
REMARK SMILES IDX 93 27 94 28 95 29 100 30 96 31 97 32 99 33 101 34 98 35
REMARK SMILES IDX 21 36 22 37 23 38 24 39 25 40 26 42 27 43 28 44 89 45 29 46
REMARK SMILES IDX 88 47 30 48 31 49 32 50 82 51 33 52 87 53 81 54 83 55 34 56
REMARK SMILES IDX 86 57 80 58 79 59 35 61 67 62 47 63 66 64 48 65 51 66 65 67
REMARK SMILES IDX 84 68 49 69 50 70 64 72 85 73 52 74 36 75 37 76 45 77 38 78
REMARK SMILES IDX 44 79 46 80 43 81 39 82 40 83 41 84 42 85 68 86 69 87 77 88
REMARK SMILES IDX 70 89 76 90 78 91 75 92 71 93 72 94 73 95 74 96 53 97 54 98
REMARK SMILES IDX 62 99 55 100 61 101 63 102 60 103 56 104 57 105 58 106
REMARK SMILES IDX 59 107
REMARK H PARENT 17 7 5 17 5 18 24 41 83 60 51 71
REMARK Flexibility Score: inf
ROOT
ATOM      1  C   UNL     1       0.575   5.484  -7.466  1.00  0.00     0.002 C 
ENDROOT
BRANCH   1   2
ATOM      2  C   UNL     1       1.080   4.620  -6.311  1.00  0.00     0.021 C 
BRANCH   2   3
ATOM      3  C   UNL     1       0.051   4.121  -5.312  1.00  0.00     0.116 C 
BRANCH   3   4
ATOM      4  N   UNL     1      -0.607   2.887  -5.668  1.00  0.00    -0.352 N 
ATOM      5  C   UNL     1      -0.845   1.770  -4.897  1.00  0.00     0.253 C 
ATOM      6  O   UNL     1      -1.371   0.817  -5.485  1.00  0.00    -0.269 OA
ATOM      7  H   UNL     1      -0.932   2.836  -6.596  1.00  0.00     0.163 HD
BRANCH   5   8
ATOM      8  C   UNL     1      -0.393   1.694  -3.492  1.00  0.00     0.069 A 
ATOM      9  C   UNL     1       0.902   0.026  -0.383  1.00  0.00     0.065 C 
ATOM     10  C   UNL     1       0.453   0.865  -1.531  1.00  0.00     0.025 A 
ATOM     11  C   UNL     1      -0.091   0.482  -2.758  1.00  0.00     0.040 A 
ATOM     12  N   UNL     1       0.523   2.250  -1.533  1.00  0.00    -0.343 N 
ATOM     13  C   UNL     1      -0.353   2.693  -2.513  1.00  0.00     0.028 A 
ATOM     14  C   UNL     1      -1.094   3.985  -2.416  1.00  0.00     0.065 C 
BRANCH  11  15
ATOM     15  C   UNL     1      -0.359  -0.927  -3.233  1.00  0.00     0.300 C 
BRANCH  15  16
ATOM     16  N   UNL     1      -1.805  -1.126  -3.240  1.00  0.00    -0.339 N 
ATOM     17  H   UNL     1      -2.212  -0.481  -3.918  1.00  0.00     0.346 HD
ATOM     18  H   UNL     1      -2.126  -0.957  -2.287  1.00  0.00     0.346 HD
BRANCH  16  19
ATOM     19  C   UNL     1      -2.226  -2.474  -3.586  1.00  0.00     0.297 C 
BRANCH  19  20
ATOM     20  C   UNL     1      -2.156  -3.508  -2.478  1.00  0.00     0.009 A 
ATOM     21  C   UNL     1      -1.942  -3.184  -1.128  1.00  0.00     0.010 A 
ATOM     22  C   UNL     1      -2.362  -4.858  -2.808  1.00  0.00     0.048 A 
ATOM     23  C   UNL     1      -1.890  -4.177  -0.145  1.00  0.00     0.004 A 
ATOM     24  C   UNL     1      -2.318  -5.840  -1.821  1.00  0.00     0.123 A 
ATOM     25  C   UNL     1      -2.075  -5.511  -0.494  1.00  0.00     0.039 A 
ATOM     26  F   UNL     1      -2.514  -7.122  -2.155  1.00  0.00    -0.207 F 
ENDBRANCH  19  20
ENDBRANCH  16  19
ENDBRANCH  15  16
ENDBRANCH  11  15
BRANCH  12  27
ATOM     27  C   UNL     1       1.210   3.094  -0.536  1.00  0.00     0.162 C 
BRANCH  27  28
ATOM     28  C   UNL     1       2.553   3.632  -0.992  1.00  0.00     0.026 A 
ATOM     29  C   UNL     1       2.610   4.672  -1.933  1.00  0.00     0.129 A 
ATOM     30  C   UNL     1       3.785   3.209  -0.464  1.00  0.00     0.048 A 
ATOM     31  F   UNL     1       1.484   5.234  -2.381  1.00  0.00    -0.207 F 
ATOM     32  C   UNL     1       3.809   5.217  -2.394  1.00  0.00     0.040 A 
ATOM     33  C   UNL     1       4.999   3.765  -0.908  1.00  0.00     0.021 A 
ATOM     34  Cl  UNL     1       3.892   2.042   0.807  1.00  0.00    -0.084 Cl
ATOM     35  C   UNL     1       5.013   4.756  -1.887  1.00  0.00     0.005 A 
ENDBRANCH  27  28
ENDBRANCH  12  27
ENDBRANCH   5   8
ENDBRANCH   3   4
ENDBRANCH   2   3
ENDBRANCH   1   2
BRANCH   1  36
ATOM     36  C   UNL     1      -0.200   6.765  -7.130  1.00  0.00     0.002 C 
BRANCH  36  37
ATOM     37  C   UNL     1       0.296   7.679  -5.992  1.00  0.00     0.021 C 
BRANCH  37  38
ATOM     38  C   UNL     1       1.807   7.908  -5.776  1.00  0.00     0.116 C 
BRANCH  38  39
ATOM     39  N   UNL     1       2.380   9.044  -6.450  1.00  0.00    -0.352 N 
ATOM     40  C   UNL     1       3.555   9.718  -6.145  1.00  0.00     0.251 C 
ATOM     41  H   UNL     1       1.875   9.386  -7.224  1.00  0.00     0.163 HD
ATOM     42  O   UNL     1       3.825  10.698  -6.839  1.00  0.00    -0.269 OA
BRANCH  40  43
ATOM     43  C   UNL     1       4.422   9.384  -4.939  1.00  0.00     0.039 A 
ATOM     44  C   UNL     1       4.371  10.254  -3.863  1.00  0.00     0.014 A 
ATOM     45  C   UNL     1       5.451   8.421  -4.881  1.00  0.00     0.014 A 
ATOM     46  C   UNL     1       5.270  10.120  -2.753  1.00  0.00     0.010 A 
ATOM     47  C   UNL     1       6.439   8.355  -3.780  1.00  0.00     0.010 A 
ATOM     48  C   UNL     1       6.401   9.217  -2.663  1.00  0.00    -0.014 A 
BRANCH  48  49
ATOM     49  C   UNL     1       7.633   9.700  -1.643  1.00  0.00     0.031 A 
ATOM     50  C   UNL     1       7.672  11.162  -1.952  1.00  0.00     0.074 A 
ATOM     51  C   UNL     1       8.687   9.296  -0.792  1.00  0.00     0.049 A 
ATOM     52  N   UNL     1       7.808  11.519  -3.200  1.00  0.00    -0.248 NA
ATOM     53  C   UNL     1       7.137  12.211  -1.083  1.00  0.00     0.031 C 
ATOM     54  C   UNL     1       9.200   7.935  -0.543  1.00  0.00     0.029 A 
ATOM     55  N   UNL     1       9.600  10.024   0.074  1.00  0.00    -0.354 N 
ATOM     56  C   UNL     1       7.727  12.882  -3.233  1.00  0.00     0.074 A 
ATOM     57  C   UNL     1       7.070  13.214  -1.971  1.00  0.00     0.031 C 
ATOM     58  C   UNL     1      10.138   7.898   0.459  1.00  0.00     0.029 A 
ATOM     59  C   UNL     1      10.434   9.235   0.987  1.00  0.00     0.049 A 
ATOM     60  H   UNL     1       9.657  11.007   0.048  1.00  0.00     0.167 HD
ATOM     61  C   UNL     1       8.799  13.491  -3.820  1.00  0.00     0.034 A 
ATOM     62  C   UNL     1      11.356   9.613   1.990  1.00  0.00     0.034 A 
ATOM     63  C   UNL     1       9.752  13.934  -2.836  1.00  0.00     0.049 A 
ATOM     64  C   UNL     1      11.977  10.826   1.462  1.00  0.00     0.074 A 
ATOM     65  C   UNL     1       9.616  14.556  -1.611  1.00  0.00     0.029 A 
ATOM     66  N   UNL     1      10.980  13.308  -2.832  1.00  0.00    -0.354 N 
ATOM     67  N   UNL     1      12.849  10.785   0.503  1.00  0.00    -0.248 NA
ATOM     68  C   UNL     1      11.739  12.132   2.063  1.00  0.00     0.031 C 
ATOM     69  C   UNL     1      10.483  13.839  -0.762  1.00  0.00     0.029 A 
ATOM     70  C   UNL     1      11.407  13.143  -1.534  1.00  0.00     0.049 A 
ATOM     71  H   UNL     1      11.476  13.024  -3.634  1.00  0.00     0.167 HD
ATOM     72  C   UNL     1      12.829  12.065   0.045  1.00  0.00     0.074 A 
ATOM     73  C   UNL     1      12.402  12.873   1.175  1.00  0.00     0.031 C 
ATOM     74  C   UNL     1      12.488  12.219  -1.259  1.00  0.00     0.034 A 
BRANCH  61  75
ATOM     75  C   UNL     1       9.204  12.902  -5.151  1.00  0.00     0.023 A 
ATOM     76  C   UNL     1       9.082  13.685  -6.302  1.00  0.00     0.031 A 
ATOM     77  C   UNL     1       9.658  11.570  -5.312  1.00  0.00     0.131 A 
ATOM     78  C   UNL     1       9.340  13.119  -7.562  1.00  0.00     0.055 A 
ATOM     79  C   UNL     1       9.841  10.992  -6.565  1.00  0.00     0.041 A 
ATOM     80  F   UNL     1       9.972  10.812  -4.249  1.00  0.00    -0.206 F 
ATOM     81  C   UNL     1       9.674  11.767  -7.704  1.00  0.00     0.022 A 
BRANCH  78  82
ATOM     82  S   UNL     1       9.314  14.185  -9.026  1.00  0.00     0.124 S 
ATOM     83  O   UNL     1       7.895  14.555  -9.115  1.00  0.00    -0.237 OA
ATOM     84  O   UNL     1      10.211  15.278  -8.624  1.00  0.00    -0.237 OA
ATOM     85  O   UNL     1       9.807  13.344 -10.089  1.00  0.00    -0.744 OA
ENDBRANCH  78  82
ENDBRANCH  61  75
BRANCH  62  86
ATOM     86  C   UNL     1      12.203   9.199   3.280  1.00  0.00     0.023 A 
ATOM     87  C   UNL     1      13.406   9.928   3.702  1.00  0.00     0.031 A 
ATOM     88  C   UNL     1      11.665   8.401   4.297  1.00  0.00     0.131 A 
ATOM     89  C   UNL     1      13.935   9.893   5.032  1.00  0.00     0.055 A 
ATOM     90  C   UNL     1      12.209   8.353   5.615  1.00  0.00     0.041 A 
ATOM     91  F   UNL     1      10.535   7.712   4.087  1.00  0.00    -0.206 F 
ATOM     92  C   UNL     1      13.319   9.110   5.994  1.00  0.00     0.022 A 
BRANCH  89  93
ATOM     93  S   UNL     1      15.289  11.019   5.617  1.00  0.00     0.124 S 
ATOM     94  O   UNL     1      16.496  10.254   5.330  1.00  0.00    -0.237 OA
ATOM     95  O   UNL     1      15.083  12.230   4.830  1.00  0.00    -0.237 OA
ATOM     96  O   UNL     1      14.998  11.180   7.045  1.00  0.00    -0.744 OA
ENDBRANCH  89  93
ENDBRANCH  62  86
BRANCH  74  97
ATOM     97  C   UNL     1      13.146  11.295  -2.276  1.00  0.00     0.023 A 
ATOM     98  C   UNL     1      13.272   9.883  -2.191  1.00  0.00     0.031 A 
ATOM     99  C   UNL     1      13.747  11.909  -3.388  1.00  0.00     0.131 A 
ATOM    100  C   UNL     1      13.982   9.159  -3.175  1.00  0.00     0.055 A 
ATOM    101  C   UNL     1      14.415  11.192  -4.379  1.00  0.00     0.041 A 
ATOM    102  F   UNL     1      13.691  13.244  -3.529  1.00  0.00    -0.206 F 
ATOM    103  C   UNL     1      14.545   9.813  -4.272  1.00  0.00     0.022 A 
BRANCH 100 104
ATOM    104  S   UNL     1      14.220   7.354  -3.016  1.00  0.00     0.124 S 
ATOM    105  O   UNL     1      14.852   7.214  -1.709  1.00  0.00    -0.237 OA
ATOM    106  O   UNL     1      12.858   6.836  -3.123  1.00  0.00    -0.237 OA
ATOM    107  O   UNL     1      15.088   7.021  -4.147  1.00  0.00    -0.744 OA
ENDBRANCH 100 104
ENDBRANCH  74  97
ENDBRANCH  48  49
ENDBRANCH  40  43
ENDBRANCH  38  39
ENDBRANCH  37  38
ENDBRANCH  36  37
ENDBRANCH   1  36
TORSDOF 22
