REMARK SMILES O=C(NCCCCCCNC(=O)c1cc(=O)[nH]c2c(Br)cccc12)c1ccc(-c2c3nc(c(-c4cc(S(=O)(=O)[O-])ccc4F)c4ccc([nH]4)c(-c4cc(S(=O)(=O)[O-])ccc4F)c4nc(c(-c5cc(S(=O)(=O)[O-])ccc5F)c5ccc2[nH]5)C=C4)C=C3)cc1
REMARK SMILES IDX 5 1 4 2 3 3 1 4 2 5 25 7 26 8 87 9 27 10 86 11 28 12 29 13
REMARK SMILES IDX 30 14 80 15 31 16 85 17 79 18 81 19 32 20 84 21 78 22 77 23
REMARK SMILES IDX 33 25 65 26 45 27 64 28 46 29 49 30 63 31 82 32 47 33 48 34
REMARK SMILES IDX 62 36 83 37 50 38 34 39 35 40 43 41 36 42 42 43 44 44 41 45
REMARK SMILES IDX 37 46 38 47 39 48 40 49 66 50 67 51 75 52 68 53 74 54 76 55
REMARK SMILES IDX 73 56 69 57 70 58 71 59 72 60 51 61 52 62 60 63 53 64 59 65
REMARK SMILES IDX 61 66 58 67 54 68 55 69 56 70 57 71 6 72 7 73 8 74 9 75
REMARK SMILES IDX 10 76 11 77 12 79 13 80 14 81 24 82 15 83 18 84 23 85 16 86
REMARK SMILES IDX 17 87 19 88 22 89 20 91 21 92
REMARK H PARENT 3 6 81 24 49 35 10 78 17 90
REMARK Flexibility Score: inf
ROOT
ATOM      1  C   UNL     1       4.707  -1.798  -1.900  1.00  0.00     0.021 C 
ENDROOT
BRANCH   1   2
ATOM      2  C   UNL     1       4.438  -0.462  -1.220  1.00  0.00     0.116 C 
BRANCH   2   3
ATOM      3  N   UNL     1       3.019  -0.173  -1.125  1.00  0.00    -0.352 N 
ATOM      4  O   UNL     1       1.036   0.129  -0.114  1.00  0.00    -0.269 OA
ATOM      5  C   UNL     1       2.261   0.116  -0.019  1.00  0.00     0.251 C 
ATOM      6  H   UNL     1       2.529  -0.186  -1.979  1.00  0.00     0.163 HD
BRANCH   5   7
ATOM      7  C   UNL     1       2.909   0.411   1.279  1.00  0.00     0.039 A 
ATOM      8  C   UNL     1       2.311  -0.058   2.452  1.00  0.00     0.014 A 
ATOM      9  C   UNL     1       4.064   1.196   1.352  1.00  0.00     0.014 A 
ATOM     10  C   UNL     1       2.872   0.260   3.691  1.00  0.00     0.010 A 
ATOM     11  C   UNL     1       4.674   1.430   2.582  1.00  0.00     0.010 A 
ATOM     12  C   UNL     1       4.058   1.007   3.767  1.00  0.00    -0.014 A 
BRANCH  12  13
ATOM     13  C   UNL     1       4.609   1.438   5.079  1.00  0.00     0.031 A 
ATOM     14  C   UNL     1       4.669   2.907   5.415  1.00  0.00     0.074 A 
ATOM     15  C   UNL     1       5.053   0.523   5.963  1.00  0.00     0.049 A 
ATOM     16  N   UNL     1       5.109   3.487   6.501  1.00  0.00    -0.248 NA
ATOM     17  C   UNL     1       4.193   3.852   4.388  1.00  0.00     0.031 C 
ATOM     18  C   UNL     1       5.069  -0.922   5.737  1.00  0.00     0.029 A 
ATOM     19  N   UNL     1       5.564   0.668   7.229  1.00  0.00    -0.354 N 
ATOM     20  C   UNL     1       4.972   4.854   6.283  1.00  0.00     0.074 A 
ATOM     21  C   UNL     1       4.479   5.023   4.937  1.00  0.00     0.031 C 
ATOM     22  C   UNL     1       5.517  -1.533   6.845  1.00  0.00     0.029 A 
ATOM     23  C   UNL     1       5.864  -0.525   7.846  1.00  0.00     0.049 A 
ATOM     24  H   UNL     1       5.703   1.544   7.656  1.00  0.00     0.167 HD
ATOM     25  C   UNL     1       5.198   5.875   7.143  1.00  0.00     0.034 A 
ATOM     26  C   UNL     1       6.350  -0.779   9.080  1.00  0.00     0.034 A 
ATOM     27  C   UNL     1       5.646   5.690   8.498  1.00  0.00     0.049 A 
ATOM     28  C   UNL     1       6.601   0.379  10.016  1.00  0.00     0.074 A 
ATOM     29  C   UNL     1       5.859   6.658   9.463  1.00  0.00     0.029 A 
ATOM     30  N   UNL     1       5.935   4.468   9.085  1.00  0.00    -0.354 N 
ATOM     31  N   UNL     1       6.396   1.661   9.819  1.00  0.00    -0.248 NA
ATOM     32  C   UNL     1       7.132   0.060  11.349  1.00  0.00     0.031 C 
ATOM     33  C   UNL     1       6.346   6.030  10.607  1.00  0.00     0.029 A 
ATOM     34  C   UNL     1       6.347   4.661  10.393  1.00  0.00     0.049 A 
ATOM     35  H   UNL     1       5.859   3.593   8.639  1.00  0.00     0.167 HD
ATOM     36  C   UNL     1       6.728   2.292  11.016  1.00  0.00     0.074 A 
ATOM     37  C   UNL     1       7.128   1.250  11.936  1.00  0.00     0.031 C 
ATOM     38  C   UNL     1       6.706   3.615  11.321  1.00  0.00     0.034 A 
BRANCH  25  39
ATOM     39  C   UNL     1       4.934   7.288   6.684  1.00  0.00     0.023 A 
ATOM     40  C   UNL     1       5.980   8.230   6.681  1.00  0.00     0.031 A 
ATOM     41  C   UNL     1       3.632   7.742   6.408  1.00  0.00     0.131 A 
ATOM     42  C   UNL     1       5.697   9.584   6.466  1.00  0.00     0.055 A 
ATOM     43  C   UNL     1       3.364   9.084   6.138  1.00  0.00     0.041 A 
ATOM     44  F   UNL     1       2.598   6.884   6.397  1.00  0.00    -0.206 F 
ATOM     45  C   UNL     1       4.397  10.015   6.185  1.00  0.00     0.022 A 
BRANCH  42  46
ATOM     46  S   UNL     1       6.989  10.846   6.627  1.00  0.00     0.124 S 
ATOM     47  O   UNL     1       6.932  11.503   5.323  1.00  0.00    -0.237 OA
ATOM     48  O   UNL     1       6.499  11.640   7.749  1.00  0.00    -0.237 OA
ATOM     49  O   UNL     1       8.203  10.076   6.878  1.00  0.00    -0.744 OA
ENDBRANCH  42  46
ENDBRANCH  25  39
BRANCH  26  50
ATOM     50  C   UNL     1       6.540  -2.195   9.520  1.00  0.00     0.023 A 
ATOM     51  C   UNL     1       7.420  -3.059   8.844  1.00  0.00     0.031 A 
ATOM     52  C   UNL     1       5.777  -2.727  10.574  1.00  0.00     0.131 A 
ATOM     53  C   UNL     1       7.469  -4.416   9.189  1.00  0.00     0.055 A 
ATOM     54  C   UNL     1       5.886  -4.062  10.966  1.00  0.00     0.041 A 
ATOM     55  F   UNL     1       4.910  -1.949  11.241  1.00  0.00    -0.206 F 
ATOM     56  C   UNL     1       6.724  -4.919  10.260  1.00  0.00     0.022 A 
BRANCH  53  57
ATOM     57  S   UNL     1       8.401  -5.600   8.178  1.00  0.00     0.124 S 
ATOM     58  O   UNL     1       9.352  -6.143   9.143  1.00  0.00    -0.237 OA
ATOM     59  O   UNL     1       7.348  -6.516   7.746  1.00  0.00    -0.237 OA
ATOM     60  O   UNL     1       8.975  -4.774   7.122  1.00  0.00    -0.744 OA
ENDBRANCH  53  57
ENDBRANCH  26  50
BRANCH  38  61
ATOM     61  C   UNL     1       7.082   4.052  12.719  1.00  0.00     0.023 A 
ATOM     62  C   UNL     1       6.149   4.765  13.500  1.00  0.00     0.031 A 
ATOM     63  C   UNL     1       8.392   3.920  13.210  1.00  0.00     0.131 A 
ATOM     64  C   UNL     1       6.552   5.358  14.703  1.00  0.00     0.055 A 
ATOM     65  C   UNL     1       8.772   4.460  14.439  1.00  0.00     0.041 A 
ATOM     66  F   UNL     1       9.325   3.269  12.497  1.00  0.00    -0.206 F 
ATOM     67  C   UNL     1       7.855   5.198  15.183  1.00  0.00     0.022 A 
BRANCH  64  68
ATOM     68  S   UNL     1       5.436   6.450  15.627  1.00  0.00     0.124 S 
ATOM     69  O   UNL     1       5.297   5.736  16.894  1.00  0.00    -0.237 OA
ATOM     70  O   UNL     1       6.206   7.690  15.693  1.00  0.00    -0.237 OA
ATOM     71  O   UNL     1       4.232   6.502  14.807  1.00  0.00    -0.744 OA
ENDBRANCH  64  68
ENDBRANCH  38  61
ENDBRANCH  12  13
ENDBRANCH   5   7
ENDBRANCH   2   3
ENDBRANCH   1   2
BRANCH   1  72
ATOM     72  C   UNL     1       4.223  -1.891  -3.348  1.00  0.00     0.002 C 
BRANCH  72  73
ATOM     73  C   UNL     1       4.759  -0.807  -4.288  1.00  0.00     0.002 C 
BRANCH  73  74
ATOM     74  C   UNL     1       6.284  -0.666  -4.327  1.00  0.00     0.021 C 
BRANCH  74  75
ATOM     75  C   UNL     1       7.043  -1.955  -4.628  1.00  0.00     0.116 C 
BRANCH  75  76
ATOM     76  N   UNL     1       6.694  -2.501  -5.930  1.00  0.00    -0.352 N 
ATOM     77  C   UNL     1       7.505  -2.832  -6.974  1.00  0.00     0.252 C 
ATOM     78  H   UNL     1       5.733  -2.653  -6.079  1.00  0.00     0.163 HD
ATOM     79  O   UNL     1       7.021  -3.186  -8.046  1.00  0.00    -0.269 OA
BRANCH  77  80
ATOM     80  C   UNL     1       8.974  -2.727  -6.793  1.00  0.00     0.054 A 
ATOM     81  C   UNL     1       9.517  -3.531  -5.864  1.00  0.00     0.086 A 
ATOM     82  C   UNL     1       9.829  -1.861  -7.623  1.00  0.00     0.012 A 
ATOM     83  C   UNL     1      10.961  -3.492  -5.576  1.00  0.00     0.249 A 
ATOM     84  C   UNL     1      11.212  -1.850  -7.371  1.00  0.00     0.063 A 
ATOM     85  C   UNL     1       9.321  -1.047  -8.645  1.00  0.00     0.011 A 
ATOM     86  O   UNL     1      11.437  -4.183  -4.681  1.00  0.00    -0.270 OA
ATOM     87  N   UNL     1      11.720  -2.658  -6.340  1.00  0.00    -0.321 N 
ATOM     88  C   UNL     1      12.065  -1.045  -8.138  1.00  0.00     0.042 A 
ATOM     89  C   UNL     1      10.174  -0.246  -9.408  1.00  0.00     0.002 A 
ATOM     90  H   UNL     1      12.687  -2.619  -6.159  1.00  0.00     0.170 HD
ATOM     91  Br  UNL     1      13.939  -1.018  -7.838  1.00  0.00    -0.049 Br
ATOM     92  C   UNL     1      11.546  -0.246  -9.157  1.00  0.00     0.018 A 
ENDBRANCH  77  80
ENDBRANCH  75  76
ENDBRANCH  74  75
ENDBRANCH  73  74
ENDBRANCH  72  73
ENDBRANCH   1  72
TORSDOF 16
