REMARK SMILES O=C(NCCCCCCNC(=O)c1cccc(Nc2ccc([N+](=O)[O-])cc2)c1)c1ccc(-c2c3nc(c(-c4cc(S(=O)(=O)[O-])ccc4F)c4ccc([nH]4)c(-c4cc(S(=O)(=O)[O-])ccc4F)c4nc(c(-c5cc(S(=O)(=O)[O-])ccc5F)c5ccc2[nH]5)C=C4)C=C3)cc1
REMARK SMILES IDX 6 1 5 2 4 3 3 4 1 5 2 6 29 8 30 9 91 10 31 11 90 12 32 13
REMARK SMILES IDX 33 14 34 15 84 16 35 17 89 18 83 19 85 20 36 21 88 22 82 23
REMARK SMILES IDX 81 24 37 26 69 27 49 28 68 29 50 30 53 31 67 32 86 33 51 34
REMARK SMILES IDX 52 35 66 37 87 38 54 39 38 40 39 41 47 42 40 43 46 44 48 45
REMARK SMILES IDX 45 46 41 47 42 48 43 49 44 50 70 51 71 52 79 53 72 54 78 55
REMARK SMILES IDX 80 56 77 57 73 58 74 59 75 60 76 61 55 62 56 63 64 64 57 65
REMARK SMILES IDX 63 66 65 67 62 68 58 69 59 70 60 71 61 72 7 73 8 74 9 75
REMARK SMILES IDX 10 76 11 77 12 79 13 80 14 81 28 82 15 83 17 84 16 85 18 86
REMARK SMILES IDX 19 88 20 89 27 90 21 91 26 92 22 93 23 94 24 95 25 96
REMARK H PARENT 3 7 85 25 53 36 10 78 18 87
REMARK Flexibility Score: inf
ROOT
ATOM      1  C   UNL     1       4.121  -3.242   2.110  1.00  0.00     0.002 C 
ENDROOT
BRANCH   1   2
ATOM      2  C   UNL     1       4.588  -1.791   1.987  1.00  0.00     0.021 C 
BRANCH   2   3
ATOM      3  C   UNL     1       4.348  -1.144   0.628  1.00  0.00     0.116 C 
BRANCH   3   4
ATOM      4  N   UNL     1       2.936  -1.046   0.297  1.00  0.00    -0.352 N 
ATOM      5  O   UNL     1       0.992  -0.013  -0.193  1.00  0.00    -0.269 OA
ATOM      6  C   UNL     1       2.215   0.055  -0.100  1.00  0.00     0.251 C 
ATOM      7  H   UNL     1       2.425  -1.884   0.366  1.00  0.00     0.163 HD
BRANCH   6   8
ATOM      8  C   UNL     1       2.914   1.325  -0.394  1.00  0.00     0.039 A 
ATOM      9  C   UNL     1       4.072   1.340  -1.177  1.00  0.00     0.014 A 
ATOM     10  C   UNL     1       2.399   2.519   0.118  1.00  0.00     0.014 A 
ATOM     11  C   UNL     1       4.782   2.525  -1.342  1.00  0.00     0.010 A 
ATOM     12  C   UNL     1       3.073   3.722  -0.113  1.00  0.00     0.010 A 
ATOM     13  C   UNL     1       4.284   3.731  -0.823  1.00  0.00    -0.014 A 
BRANCH  13  14
ATOM     14  C   UNL     1       5.019   4.998  -1.077  1.00  0.00     0.031 A 
ATOM     15  C   UNL     1       5.638   5.774   0.053  1.00  0.00     0.074 A 
ATOM     16  C   UNL     1       5.133   5.439  -2.345  1.00  0.00     0.049 A 
ATOM     17  N   UNL     1       6.293   6.906   0.016  1.00  0.00    -0.248 NA
ATOM     18  C   UNL     1       5.493   5.208   1.401  1.00  0.00     0.031 C 
ATOM     19  C   UNL     1       4.571   4.769  -3.520  1.00  0.00     0.029 A 
ATOM     20  N   UNL     1       5.761   6.543  -2.861  1.00  0.00    -0.354 N 
ATOM     21  C   UNL     1       6.629   7.199   1.333  1.00  0.00     0.074 A 
ATOM     22  C   UNL     1       6.070   6.139   2.148  1.00  0.00     0.031 C 
ATOM     23  C   UNL     1       4.907   5.457  -4.621  1.00  0.00     0.029 A 
ATOM     24  C   UNL     1       5.647   6.650  -4.228  1.00  0.00     0.049 A 
ATOM     25  H   UNL     1       6.246   7.196  -2.307  1.00  0.00     0.167 HD
ATOM     26  C   UNL     1       7.343   8.249   1.814  1.00  0.00     0.034 A 
ATOM     27  C   UNL     1       6.067   7.612  -5.070  1.00  0.00     0.034 A 
ATOM     28  C   UNL     1       7.887   9.299   0.983  1.00  0.00     0.049 A 
ATOM     29  C   UNL     1       6.812   8.792  -4.508  1.00  0.00     0.074 A 
ATOM     30  C   UNL     1       8.646  10.393   1.361  1.00  0.00     0.029 A 
ATOM     31  N   UNL     1       7.719   9.394  -0.394  1.00  0.00    -0.354 N 
ATOM     32  N   UNL     1       7.133   9.047  -3.261  1.00  0.00    -0.248 NA
ATOM     33  C   UNL     1       7.254   9.811  -5.467  1.00  0.00     0.031 C 
ATOM     34  C   UNL     1       8.879  11.182   0.228  1.00  0.00     0.029 A 
ATOM     35  C   UNL     1       8.332  10.543  -0.873  1.00  0.00     0.049 A 
ATOM     36  H   UNL     1       7.235   8.741  -0.949  1.00  0.00     0.167 HD
ATOM     37  C   UNL     1       7.834  10.248  -3.289  1.00  0.00     0.074 A 
ATOM     38  C   UNL     1       7.903  10.655  -4.678  1.00  0.00     0.031 C 
ATOM     39  C   UNL     1       8.376  10.948  -2.260  1.00  0.00     0.034 A 
BRANCH  26  40
ATOM     40  C   UNL     1       7.531   8.334   3.311  1.00  0.00     0.023 A 
ATOM     41  C   UNL     1       8.248   7.357   4.026  1.00  0.00     0.031 A 
ATOM     42  C   UNL     1       6.962   9.394   4.041  1.00  0.00     0.131 A 
ATOM     43  C   UNL     1       8.313   7.419   5.427  1.00  0.00     0.055 A 
ATOM     44  C   UNL     1       7.099   9.493   5.427  1.00  0.00     0.041 A 
ATOM     45  F   UNL     1       6.250  10.346   3.418  1.00  0.00    -0.206 F 
ATOM     46  C   UNL     1       7.765   8.494   6.130  1.00  0.00     0.022 A 
BRANCH  43  47
ATOM     47  S   UNL     1       8.998   6.000   6.326  1.00  0.00     0.124 S 
ATOM     48  O   UNL     1       8.147   4.909   5.855  1.00  0.00    -0.237 OA
ATOM     49  O   UNL     1      10.382   5.971   5.867  1.00  0.00    -0.237 OA
ATOM     50  O   UNL     1       8.813   6.360   7.731  1.00  0.00    -0.744 OA
ENDBRANCH  43  47
ENDBRANCH  26  40
BRANCH  27  51
ATOM     51  C   UNL     1       5.761   7.516  -6.524  1.00  0.00     0.023 A 
ATOM     52  C   UNL     1       6.782   7.366  -7.473  1.00  0.00     0.031 A 
ATOM     53  C   UNL     1       4.433   7.584  -6.986  1.00  0.00     0.131 A 
ATOM     54  C   UNL     1       6.464   7.322  -8.839  1.00  0.00     0.055 A 
ATOM     55  C   UNL     1       4.118   7.488  -8.341  1.00  0.00     0.041 A 
ATOM     56  F   UNL     1       3.419   7.720  -6.117  1.00  0.00    -0.206 F 
ATOM     57  C   UNL     1       5.138   7.368  -9.278  1.00  0.00     0.022 A 
BRANCH  54  58
ATOM     58  S   UNL     1       7.818   7.271 -10.045  1.00  0.00     0.124 S 
ATOM     59  O   UNL     1       8.550   8.491  -9.722  1.00  0.00    -0.237 OA
ATOM     60  O   UNL     1       8.479   6.016  -9.704  1.00  0.00    -0.237 OA
ATOM     61  O   UNL     1       7.127   7.280 -11.332  1.00  0.00    -0.744 OA
ENDBRANCH  54  58
ENDBRANCH  27  51
BRANCH  39  62
ATOM     62  C   UNL     1       9.124  12.209  -2.616  1.00  0.00     0.023 A 
ATOM     63  C   UNL     1       8.465  13.339  -3.133  1.00  0.00     0.031 A 
ATOM     64  C   UNL     1      10.520  12.270  -2.459  1.00  0.00     0.131 A 
ATOM     65  C   UNL     1       9.210  14.461  -3.528  1.00  0.00     0.055 A 
ATOM     66  C   UNL     1      11.248  13.410  -2.798  1.00  0.00     0.041 A 
ATOM     67  F   UNL     1      11.199  11.218  -1.974  1.00  0.00    -0.206 F 
ATOM     68  C   UNL     1      10.595  14.510  -3.349  1.00  0.00     0.022 A 
BRANCH  65  69
ATOM     69  S   UNL     1       8.355  15.824  -4.365  1.00  0.00     0.124 S 
ATOM     70  O   UNL     1       7.785  15.155  -5.530  1.00  0.00    -0.237 OA
ATOM     71  O   UNL     1       7.401  16.264  -3.352  1.00  0.00    -0.237 OA
ATOM     72  O   UNL     1       9.427  16.773  -4.658  1.00  0.00    -0.744 OA
ENDBRANCH  65  69
ENDBRANCH  39  62
ENDBRANCH  13  14
ENDBRANCH   6   8
ENDBRANCH   3   4
ENDBRANCH   2   3
ENDBRANCH   1   2
BRANCH   1  73
ATOM     73  C   UNL     1       4.675  -4.205   1.057  1.00  0.00     0.002 C 
BRANCH  73  74
ATOM     74  C   UNL     1       6.200  -4.233   0.917  1.00  0.00     0.021 C 
BRANCH  74  75
ATOM     75  C   UNL     1       6.969  -4.509   2.208  1.00  0.00     0.116 C 
BRANCH  75  76
ATOM     76  N   UNL     1       6.634  -5.806   2.771  1.00  0.00    -0.352 N 
ATOM     77  C   UNL     1       7.460  -6.852   3.089  1.00  0.00     0.251 C 
ATOM     78  H   UNL     1       5.678  -5.955   2.950  1.00  0.00     0.163 HD
ATOM     79  O   UNL     1       6.991  -7.947   3.382  1.00  0.00    -0.269 OA
BRANCH  77  80
ATOM     80  C   UNL     1       8.925  -6.667   3.071  1.00  0.00     0.041 A 
ATOM     81  C   UNL     1       9.706  -7.597   2.386  1.00  0.00     0.014 A 
ATOM     82  C   UNL     1       9.524  -5.614   3.776  1.00  0.00     0.039 A 
ATOM     83  C   UNL     1      11.088  -7.446   2.369  1.00  0.00     0.003 A 
ATOM     84  C   UNL     1      10.914  -5.451   3.769  1.00  0.00     0.039 A 
ATOM     85  C   UNL     1      11.682  -6.377   3.048  1.00  0.00     0.026 A 
BRANCH  84  86
ATOM     86  N   UNL     1      11.476  -4.363   4.463  1.00  0.00    -0.356 N 
ATOM     87  H   UNL     1      10.845  -3.866   5.032  1.00  0.00     0.167 HD
BRANCH  86  88
ATOM     88  C   UNL     1      12.792  -3.874   4.473  1.00  0.00     0.039 A 
ATOM     89  C   UNL     1      13.408  -3.616   5.706  1.00  0.00     0.033 A 
ATOM     90  C   UNL     1      13.545  -3.728   3.301  1.00  0.00     0.033 A 
ATOM     91  C   UNL     1      14.758  -3.262   5.775  1.00  0.00     0.088 A 
ATOM     92  C   UNL     1      14.893  -3.363   3.351  1.00  0.00     0.088 A 
ATOM     93  C   UNL     1      15.501  -3.152   4.594  1.00  0.00     0.269 A 
BRANCH  93  94
ATOM     94  N   UNL     1      16.937  -2.857   4.663  1.00  0.00     0.062 N 
ATOM     95  O   UNL     1      17.447  -2.731   5.786  1.00  0.00    -0.258 OA
ATOM     96  O   UNL     1      17.565  -2.788   3.596  1.00  0.00    -0.258 OA
ENDBRANCH  93  94
ENDBRANCH  86  88
ENDBRANCH  84  86
ENDBRANCH  77  80
ENDBRANCH  75  76
ENDBRANCH  74  75
ENDBRANCH  73  74
ENDBRANCH   1  73
TORSDOF 19
