REMARK SMILES CCN(C(=O)N(CCOC)CC(=O)NCCCCCCNC(=O)c1ccc(-c2c3nc(c(-c4cc(S(=O)(=O)[O-])ccc4F)c4ccc([nH]4)c(-c4cc(S(=O)(=O)[O-])ccc4F)c4nc(c(-c5cc(S(=O)(=O)[O-])ccc5F)c5ccc2[nH]5)C=C4)C=C3)cc1)C1CCCC1
REMARK SMILES IDX 17 1 16 2 15 3 14 4 12 5 13 6 11 8 6 9 4 10 5 11 3 12 2 13
REMARK SMILES IDX 1 14 87 15 88 16 91 17 89 18 90 19 7 20 8 21 9 22 10 23
REMARK SMILES IDX 18 24 19 25 20 26 21 27 22 28 23 30 24 31 25 32 86 33 26 34
REMARK SMILES IDX 85 35 27 36 28 37 29 38 79 39 30 40 84 41 78 42 80 43 31 44
REMARK SMILES IDX 83 45 77 46 76 47 32 49 64 50 44 51 63 52 45 53 48 54 62 55
REMARK SMILES IDX 81 56 46 57 47 58 61 60 82 61 49 62 33 63 34 64 42 65 35 66
REMARK SMILES IDX 41 67 43 68 40 69 36 70 37 71 38 72 39 73 65 74 66 75 74 76
REMARK SMILES IDX 67 77 73 78 75 79 72 80 68 81 69 82 70 83 71 84 50 85 51 86
REMARK SMILES IDX 59 87 52 88 58 89 60 90 57 91 53 92 54 93 55 94 56 95
REMARK H PARENT 14 7 21 29 80 48 48 59
REMARK Flexibility Score: inf
ROOT
ATOM      1  C   UNL     1      -1.113   7.344  -0.922  1.00  0.00     0.002 C 
ENDROOT
BRANCH   1   2
ATOM      2  C   UNL     1      -0.816   5.846  -0.901  1.00  0.00     0.021 C 
BRANCH   2   3
ATOM      3  C   UNL     1      -1.776   4.979  -1.702  1.00  0.00     0.116 C 
BRANCH   3   4
ATOM      4  N   UNL     1      -1.613   5.058  -3.133  1.00  0.00    -0.355 N 
ATOM      5  C   UNL     1      -1.754   4.075  -4.075  1.00  0.00     0.239 C 
ATOM      6  O   UNL     1      -1.902   4.452  -5.245  1.00  0.00    -0.273 OA
ATOM      7  H   UNL     1      -1.364   5.944  -3.482  1.00  0.00     0.163 HD
BRANCH   5   8
ATOM      8  C   UNL     1      -1.946   2.580  -3.713  1.00  0.00     0.221 C 
BRANCH   8   9
ATOM      9  N   UNL     1      -1.240   2.037  -2.541  1.00  0.00    -0.313 N 
BRANCH   9  10
ATOM     10  C   UNL     1       0.140   2.079  -2.683  1.00  0.00     0.320 C 
ATOM     11  O   UNL     1       0.600   2.396  -3.787  1.00  0.00    -0.248 OA
BRANCH  10  12
ATOM     12  N   UNL     1       1.003   1.849  -1.625  1.00  0.00    -0.322 N 
BRANCH  12  13
ATOM     13  C   UNL     1       0.668   1.593  -0.222  1.00  0.00     0.118 C 
ATOM     14  C   UNL     1       0.927   0.134   0.151  1.00  0.00     0.027 C 
ENDBRANCH  12  13
BRANCH  12  15
ATOM     15  C   UNL     1       2.456   1.935  -1.890  1.00  0.00     0.087 C 
ATOM     16  C   UNL     1       2.996   0.910  -2.890  1.00  0.00     0.025 C 
ATOM     17  C   UNL     1       2.977   3.292  -2.389  1.00  0.00     0.025 C 
ATOM     18  C   UNL     1       4.373   1.456  -3.234  1.00  0.00     0.002 C 
ATOM     19  C   UNL     1       4.224   2.975  -3.217  1.00  0.00     0.002 C 
ENDBRANCH  12  15
ENDBRANCH  10  12
ENDBRANCH   9  10
BRANCH   9  20
ATOM     20  C   UNL     1      -2.028   1.097  -1.717  1.00  0.00     0.150 C 
BRANCH  20  21
ATOM     21  C   UNL     1      -3.113   1.728  -0.816  1.00  0.00     0.181 C 
BRANCH  21  22
ATOM     22  O   UNL     1      -4.368   1.791  -1.500  1.00  0.00    -0.383 OA
ATOM     23  C   UNL     1      -4.872   3.105  -1.690  1.00  0.00     0.194 C 
ENDBRANCH  21  22
ENDBRANCH  20  21
ENDBRANCH   9  20
ENDBRANCH   8   9
ENDBRANCH   5   8
ENDBRANCH   3   4
ENDBRANCH   2   3
ENDBRANCH   1   2
BRANCH   1  24
ATOM     24  C   UNL     1      -2.528   7.758  -0.503  1.00  0.00     0.002 C 
BRANCH  24  25
ATOM     25  C   UNL     1      -3.021   7.243   0.854  1.00  0.00     0.021 C 
BRANCH  25  26
ATOM     26  C   UNL     1      -2.127   7.545   2.055  1.00  0.00     0.116 C 
BRANCH  26  27
ATOM     27  N   UNL     1      -1.824   8.957   2.189  1.00  0.00    -0.352 N 
ATOM     28  C   UNL     1      -1.862   9.778   3.287  1.00  0.00     0.251 C 
ATOM     29  H   UNL     1      -1.546   9.398   1.355  1.00  0.00     0.163 HD
ATOM     30  O   UNL     1      -1.700  10.985   3.125  1.00  0.00    -0.269 OA
BRANCH  28  31
ATOM     31  C   UNL     1      -2.115   9.243   4.647  1.00  0.00     0.039 A 
ATOM     32  C   UNL     1      -2.886  10.011   5.526  1.00  0.00     0.014 A 
ATOM     33  C   UNL     1      -1.560   8.038   5.089  1.00  0.00     0.014 A 
ATOM     34  C   UNL     1      -3.130   9.558   6.825  1.00  0.00     0.010 A 
ATOM     35  C   UNL     1      -1.863   7.553   6.364  1.00  0.00     0.010 A 
ATOM     36  C   UNL     1      -2.639   8.314   7.251  1.00  0.00    -0.014 A 
BRANCH  36  37
ATOM     37  C   UNL     1      -2.912   7.822   8.629  1.00  0.00     0.031 A 
ATOM     38  C   UNL     1      -1.782   7.635   9.608  1.00  0.00     0.074 A 
ATOM     39  C   UNL     1      -4.175   7.522   8.992  1.00  0.00     0.049 A 
ATOM     40  N   UNL     1      -1.818   7.205  10.844  1.00  0.00    -0.248 NA
ATOM     41  C   UNL     1      -0.430   7.946   9.121  1.00  0.00     0.031 C 
ATOM     42  C   UNL     1      -5.349   7.622   8.122  1.00  0.00     0.029 A 
ATOM     43  N   UNL     1      -4.686   7.075  10.185  1.00  0.00    -0.354 N 
ATOM     44  C   UNL     1      -0.497   7.187  11.280  1.00  0.00     0.074 A 
ATOM     45  C   UNL     1       0.319   7.584  10.152  1.00  0.00     0.031 C 
ATOM     46  C   UNL     1      -6.444   7.279   8.819  1.00  0.00     0.029 A 
ATOM     47  C   UNL     1      -6.050   6.896  10.171  1.00  0.00     0.049 A 
ATOM     48  H   UNL     1      -4.128   6.898  10.977  1.00  0.00     0.167 HD
ATOM     49  C   UNL     1      -0.011   6.892  12.513  1.00  0.00     0.034 A 
ATOM     50  C   UNL     1      -6.889   6.472  11.137  1.00  0.00     0.034 A 
ATOM     51  C   UNL     1      -0.840   6.509  13.631  1.00  0.00     0.049 A 
ATOM     52  C   UNL     1      -6.325   6.142  12.497  1.00  0.00     0.074 A 
ATOM     53  C   UNL     1      -0.459   6.234  14.934  1.00  0.00     0.029 A 
ATOM     54  N   UNL     1      -2.218   6.341  13.581  1.00  0.00    -0.354 N 
ATOM     55  N   UNL     1      -5.078   6.180  12.907  1.00  0.00    -0.248 NA
ATOM     56  C   UNL     1      -7.287   5.731  13.527  1.00  0.00     0.031 C 
ATOM     57  C   UNL     1      -1.594   5.835  15.650  1.00  0.00     0.029 A 
ATOM     58  C   UNL     1      -2.697   5.939  14.819  1.00  0.00     0.049 A 
ATOM     59  H   UNL     1      -2.775   6.486  12.781  1.00  0.00     0.167 HD
ATOM     60  C   UNL     1      -5.112   5.829  14.254  1.00  0.00     0.074 A 
ATOM     61  C   UNL     1      -6.504   5.605  14.588  1.00  0.00     0.031 C 
ATOM     62  C   UNL     1      -4.087   5.704  15.136  1.00  0.00     0.034 A 
BRANCH  49  63
ATOM     63  C   UNL     1       1.489   6.950  12.701  1.00  0.00     0.023 A 
ATOM     64  C   UNL     1       2.210   8.146  12.530  1.00  0.00     0.031 A 
ATOM     65  C   UNL     1       2.214   5.790  13.027  1.00  0.00     0.131 A 
ATOM     66  C   UNL     1       3.611   8.138  12.602  1.00  0.00     0.055 A 
ATOM     67  C   UNL     1       3.602   5.807  13.184  1.00  0.00     0.041 A 
ATOM     68  F   UNL     1       1.587   4.613  13.183  1.00  0.00    -0.206 F 
ATOM     69  C   UNL     1       4.311   6.982  12.954  1.00  0.00     0.022 A 
BRANCH  66  70
ATOM     70  S   UNL     1       4.514   9.621  12.076  1.00  0.00     0.124 S 
ATOM     71  O   UNL     1       4.056   9.769  10.696  1.00  0.00    -0.237 OA
ATOM     72  O   UNL     1       4.043  10.628  13.018  1.00  0.00    -0.237 OA
ATOM     73  O   UNL     1       5.917   9.237  12.220  1.00  0.00    -0.744 OA
ENDBRANCH  66  70
ENDBRANCH  49  63
BRANCH  50  74
ATOM     74  C   UNL     1      -8.349   6.334  10.864  1.00  0.00     0.023 A 
ATOM     75  C   UNL     1      -9.291   7.126  11.541  1.00  0.00     0.031 A 
ATOM     76  C   UNL     1      -8.827   5.375   9.955  1.00  0.00     0.131 A 
ATOM     77  C   UNL     1     -10.663   6.910  11.336  1.00  0.00     0.055 A 
ATOM     78  C   UNL     1     -10.191   5.202   9.713  1.00  0.00     0.041 A 
ATOM     79  F   UNL     1      -7.970   4.595   9.276  1.00  0.00    -0.206 F 
ATOM     80  C   UNL     1     -11.119   5.963  10.417  1.00  0.00     0.022 A 
BRANCH  77  81
ATOM     81  S   UNL     1     -11.848   7.829  12.358  1.00  0.00     0.124 S 
ATOM     82  O   UNL     1     -11.440   7.444  13.704  1.00  0.00    -0.237 OA
ATOM     83  O   UNL     1     -11.572   9.209  11.973  1.00  0.00    -0.237 OA
ATOM     84  O   UNL     1     -13.143   7.310  11.924  1.00  0.00    -0.744 OA
ENDBRANCH  77  81
ENDBRANCH  50  74
BRANCH  62  85
ATOM     85  C   UNL     1      -4.451   5.349  16.559  1.00  0.00     0.023 A 
ATOM     86  C   UNL     1      -5.037   4.114  16.888  1.00  0.00     0.031 A 
ATOM     87  C   UNL     1      -4.240   6.276  17.596  1.00  0.00     0.131 A 
ATOM     88  C   UNL     1      -5.460   3.868  18.203  1.00  0.00     0.055 A 
ATOM     89  C   UNL     1      -4.599   5.997  18.916  1.00  0.00     0.041 A 
ATOM     90  F   UNL     1      -3.686   7.472  17.342  1.00  0.00    -0.206 F 
ATOM     91  C   UNL     1      -5.229   4.795  19.223  1.00  0.00     0.022 A 
BRANCH  88  92
ATOM     92  S   UNL     1      -6.424   2.369  18.540  1.00  0.00     0.124 S 
ATOM     93  O   UNL     1      -7.538   2.509  17.608  1.00  0.00    -0.237 OA
ATOM     94  O   UNL     1      -5.468   1.309  18.236  1.00  0.00    -0.237 OA
ATOM     95  O   UNL     1      -6.777   2.498  19.953  1.00  0.00    -0.744 OA
ENDBRANCH  88  92
ENDBRANCH  62  85
ENDBRANCH  36  37
ENDBRANCH  28  31
ENDBRANCH  26  27
ENDBRANCH  25  26
ENDBRANCH  24  25
ENDBRANCH   1  24
TORSDOF 24
