REMARK SMILES O=C(NCCCCCCNC(=O)[C@@H]1CC2(CCN(C(=O)C3(c4ccccc4F)CC3)CC2)C[NH2+]1)c1ccc(-c2c3nc(c(-c4cc(S(=O)(=O)[O-])ccc4F)c4ccc([nH]4)c(-c4cc(S(=O)(=O)[O-])ccc4F)c4nc(c(-c5cc(S(=O)(=O)[O-])ccc5F)c5ccc2[nH]5)C=C4)C=C3)cc1
REMARK SMILES IDX 6 1 5 2 4 3 3 4 1 5 2 6 35 8 36 9 97 10 37 11 96 12 38 13
REMARK SMILES IDX 39 14 40 15 90 16 41 17 95 18 89 19 91 20 42 21 94 22 88 23
REMARK SMILES IDX 87 24 43 26 75 27 55 28 74 29 56 30 59 31 73 32 92 33 57 34
REMARK SMILES IDX 58 35 72 37 93 38 60 39 44 40 45 41 53 42 46 43 52 44 54 45
REMARK SMILES IDX 51 46 47 47 48 48 49 49 50 50 76 51 77 52 85 53 78 54 84 55
REMARK SMILES IDX 86 56 83 57 79 58 80 59 81 60 82 61 61 62 62 63 70 64 63 65
REMARK SMILES IDX 69 66 71 67 68 68 64 69 65 70 66 71 67 72 7 73 8 74 9 75
REMARK SMILES IDX 10 76 11 77 12 79 13 80 14 81 34 82 15 83 33 84 16 87 32 88
REMARK SMILES IDX 17 89 31 90 18 91 19 92 20 93 21 94 29 95 30 96 22 97 23 98
REMARK SMILES IDX 27 99 24 100 26 101 28 102 25 103
REMARK H PARENT 3 7 91 25 59 36 10 78 34 85 34 86
REMARK Flexibility Score: inf
ROOT
ATOM      1  C   UNL     1       3.849  -3.053  -2.372  1.00  0.00     0.002 C 
ENDROOT
BRANCH   1   2
ATOM      2  C   UNL     1       4.353  -2.461  -1.056  1.00  0.00     0.021 C 
BRANCH   2   3
ATOM      3  C   UNL     1       4.195  -0.955  -0.905  1.00  0.00     0.116 C 
BRANCH   3   4
ATOM      4  N   UNL     1       2.808  -0.523  -0.915  1.00  0.00    -0.352 N 
ATOM      5  O   UNL     1       0.944   0.467  -0.116  1.00  0.00    -0.269 OA
ATOM      6  C   UNL     1       2.157   0.298  -0.025  1.00  0.00     0.251 C 
ATOM      7  H   UNL     1       2.261  -0.864  -1.659  1.00  0.00     0.163 HD
BRANCH   6   8
ATOM      8  C   UNL     1       2.922   0.949   1.062  1.00  0.00     0.039 A 
ATOM      9  C   UNL     1       4.137   1.585   0.796  1.00  0.00     0.014 A 
ATOM     10  C   UNL     1       2.425   0.903   2.368  1.00  0.00     0.014 A 
ATOM     11  C   UNL     1       4.921   2.040   1.850  1.00  0.00     0.010 A 
ATOM     12  C   UNL     1       3.178   1.441   3.417  1.00  0.00     0.010 A 
ATOM     13  C   UNL     1       4.448   1.984   3.172  1.00  0.00    -0.014 A 
BRANCH  13  14
ATOM     14  C   UNL     1       5.288   2.538   4.267  1.00  0.00     0.031 A 
ATOM     15  C   UNL     1       5.842   1.648   5.347  1.00  0.00     0.074 A 
ATOM     16  C   UNL     1       5.597   3.850   4.245  1.00  0.00     0.049 A 
ATOM     17  N   UNL     1       6.606   1.968   6.361  1.00  0.00    -0.248 NA
ATOM     18  C   UNL     1       5.494   0.220   5.289  1.00  0.00     0.031 C 
ATOM     19  C   UNL     1       5.121   4.808   3.242  1.00  0.00     0.029 A 
ATOM     20  N   UNL     1       6.402   4.602   5.061  1.00  0.00    -0.354 N 
ATOM     21  C   UNL     1       6.818   0.790   7.069  1.00  0.00     0.074 A 
ATOM     22  C   UNL     1       6.082  -0.250   6.382  1.00  0.00     0.031 C 
ATOM     23  C   UNL     1       5.693   5.999   3.464  1.00  0.00     0.029 A 
ATOM     24  C   UNL     1       6.518   5.914   4.664  1.00  0.00     0.049 A 
ATOM     25  H   UNL     1       6.855   4.238   5.856  1.00  0.00     0.167 HD
ATOM     26  C   UNL     1       7.565   0.596   8.183  1.00  0.00     0.034 A 
ATOM     27  C   UNL     1       7.195   6.943   5.210  1.00  0.00     0.034 A 
ATOM     28  C   UNL     1       8.312   1.636   8.845  1.00  0.00     0.049 A 
ATOM     29  C   UNL     1       7.981   6.707   6.468  1.00  0.00     0.074 A 
ATOM     30  C   UNL     1       9.124   1.532   9.962  1.00  0.00     0.029 A 
ATOM     31  N   UNL     1       8.343   2.966   8.454  1.00  0.00    -0.354 N 
ATOM     32  N   UNL     1       8.149   5.588   7.133  1.00  0.00    -0.248 NA
ATOM     33  C   UNL     1       8.655   7.870   7.059  1.00  0.00     0.031 C 
ATOM     34  C   UNL     1       9.601   2.807  10.277  1.00  0.00     0.029 A 
ATOM     35  C   UNL     1       9.136   3.697   9.323  1.00  0.00     0.049 A 
ATOM     36  H   UNL     1       7.870   3.337   7.673  1.00  0.00     0.167 HD
ATOM     37  C   UNL     1       8.950   5.913   8.221  1.00  0.00     0.074 A 
ATOM     38  C   UNL     1       9.245   7.327   8.116  1.00  0.00     0.031 C 
ATOM     39  C   UNL     1       9.400   5.111   9.216  1.00  0.00     0.034 A 
BRANCH  26  40
ATOM     40  C   UNL     1       7.596  -0.785   8.781  1.00  0.00     0.023 A 
ATOM     41  C   UNL     1       8.284  -1.840   8.161  1.00  0.00     0.031 A 
ATOM     42  C   UNL     1       6.973  -1.033  10.017  1.00  0.00     0.131 A 
ATOM     43  C   UNL     1       8.308  -3.107   8.765  1.00  0.00     0.055 A 
ATOM     44  C   UNL     1       7.046  -2.280  10.639  1.00  0.00     0.041 A 
ATOM     45  F   UNL     1       6.292  -0.061  10.644  1.00  0.00    -0.206 F 
ATOM     46  C   UNL     1       7.714  -3.327  10.011  1.00  0.00     0.022 A 
BRANCH  43  47
ATOM     47  S   UNL     1       9.087  -4.482   7.876  1.00  0.00     0.124 S 
ATOM     48  O   UNL     1       8.191  -4.637   6.733  1.00  0.00    -0.237 OA
ATOM     49  O   UNL     1      10.415  -3.958   7.577  1.00  0.00    -0.237 OA
ATOM     50  O   UNL     1       9.053  -5.578   8.843  1.00  0.00    -0.744 OA
ENDBRANCH  43  47
ENDBRANCH  26  40
BRANCH  27  51
ATOM     51  C   UNL     1       7.119   8.292   4.588  1.00  0.00     0.023 A 
ATOM     52  C   UNL     1       8.239   8.872   3.974  1.00  0.00     0.031 A 
ATOM     53  C   UNL     1       5.912   9.015   4.588  1.00  0.00     0.131 A 
ATOM     54  C   UNL     1       8.133  10.147   3.397  1.00  0.00     0.055 A 
ATOM     55  C   UNL     1       5.802  10.264   3.978  1.00  0.00     0.041 A 
ATOM     56  F   UNL     1       4.811   8.497   5.156  1.00  0.00    -0.206 F 
ATOM     57  C   UNL     1       6.919  10.840   3.382  1.00  0.00     0.022 A 
BRANCH  54  58
ATOM     58  S   UNL     1       9.617  10.907   2.684  1.00  0.00     0.124 S 
ATOM     59  O   UNL     1      10.472  11.045   3.858  1.00  0.00    -0.237 OA
ATOM     60  O   UNL     1      10.030   9.909   1.703  1.00  0.00    -0.237 OA
ATOM     61  O   UNL     1       9.121  12.160   2.121  1.00  0.00    -0.744 OA
ENDBRANCH  54  58
ENDBRANCH  27  51
BRANCH  39  62
ATOM     62  C   UNL     1      10.268   5.741  10.268  1.00  0.00     0.023 A 
ATOM     63  C   UNL     1       9.723   6.575  11.258  1.00  0.00     0.031 A 
ATOM     64  C   UNL     1      11.646   5.465  10.308  1.00  0.00     0.131 A 
ATOM     65  C   UNL     1      10.559   7.126  12.239  1.00  0.00     0.055 A 
ATOM     66  C   UNL     1      12.465   5.982  11.311  1.00  0.00     0.041 A 
ATOM     67  F   UNL     1      12.209   4.670   9.385  1.00  0.00    -0.206 F 
ATOM     68  C   UNL     1      11.923   6.821  12.282  1.00  0.00     0.022 A 
BRANCH  65  69
ATOM     69  S   UNL     1       9.845   8.261  13.459  1.00  0.00     0.124 S 
ATOM     70  O   UNL     1       9.505   9.415  12.633  1.00  0.00    -0.237 OA
ATOM     71  O   UNL     1       8.716   7.497  13.982  1.00  0.00    -0.237 OA
ATOM     72  O   UNL     1      10.937   8.475  14.408  1.00  0.00    -0.744 OA
ENDBRANCH  65  69
ENDBRANCH  39  62
ENDBRANCH  13  14
ENDBRANCH   6   8
ENDBRANCH   3   4
ENDBRANCH   2   3
ENDBRANCH   1   2
BRANCH   1  73
ATOM     73  C   UNL     1       4.378  -2.403  -3.654  1.00  0.00     0.002 C 
BRANCH  73  74
ATOM     74  C   UNL     1       5.889  -2.171  -3.724  1.00  0.00     0.021 C 
BRANCH  74  75
ATOM     75  C   UNL     1       6.750  -3.405  -3.491  1.00  0.00     0.116 C 
BRANCH  75  76
ATOM     76  N   UNL     1       6.700  -4.318  -4.611  1.00  0.00    -0.351 N 
ATOM     77  C   UNL     1       7.638  -4.996  -5.315  1.00  0.00     0.278 C 
ATOM     78  H   UNL     1       5.784  -4.484  -4.932  1.00  0.00     0.163 HD
ATOM     79  O   UNL     1       7.184  -5.719  -6.217  1.00  0.00    -0.268 OA
BRANCH  77  80
ATOM     80  C   UNL     1       9.169  -4.917  -5.122  1.00  0.00     0.273 C 
ATOM     81  C   UNL     1       9.754  -6.329  -5.048  1.00  0.00     0.088 C 
ATOM     82  N   UNL     1       9.719  -4.384  -3.879  1.00  0.00    -0.336 N 
ATOM     83  C   UNL     1       9.657  -6.712  -3.546  1.00  0.00     0.029 C 
ATOM     84  C   UNL     1       9.472  -5.362  -2.833  1.00  0.00     0.268 C 
ATOM     85  H   UNL     1       9.262  -3.502  -3.646  1.00  0.00     0.346 HD
ATOM     86  H   UNL     1      10.720  -4.209  -3.976  1.00  0.00     0.346 HD
ATOM     87  C   UNL     1      10.941  -7.397  -3.052  1.00  0.00     0.034 C 
ATOM     88  C   UNL     1       8.464  -7.649  -3.265  1.00  0.00     0.034 C 
ATOM     89  C   UNL     1      11.112  -8.801  -3.619  1.00  0.00     0.120 C 
ATOM     90  C   UNL     1       8.683  -9.045  -3.844  1.00  0.00     0.120 C 
ATOM     91  N   UNL     1       9.942  -9.630  -3.369  1.00  0.00    -0.342 N 
ATOM     92  C   UNL     1       9.868 -10.904  -2.793  1.00  0.00     0.233 C 
ATOM     93  O   UNL     1       8.759 -11.435  -2.672  1.00  0.00    -0.274 OA
BRANCH  92  94
ATOM     94  C   UNL     1      11.056 -11.727  -2.283  1.00  0.00     0.077 C 
ATOM     95  C   UNL     1      12.557 -11.448  -2.328  1.00  0.00     0.023 C 
ATOM     96  C   UNL     1      11.795 -11.104  -1.093  1.00  0.00     0.023 C 
BRANCH  94  97
ATOM     97  C   UNL     1      10.762 -13.244  -2.281  1.00  0.00     0.003 A 
ATOM     98  C   UNL     1      11.167 -14.057  -3.358  1.00  0.00     0.008 A 
ATOM     99  C   UNL     1      10.020 -13.859  -1.261  1.00  0.00     0.127 A 
ATOM    100  C   UNL     1      10.840 -15.414  -3.410  1.00  0.00     0.001 A 
ATOM    101  C   UNL     1       9.677 -15.209  -1.310  1.00  0.00     0.039 A 
ATOM    102  F   UNL     1       9.612 -13.137  -0.207  1.00  0.00    -0.207 F 
ATOM    103  C   UNL     1      10.086 -15.988  -2.389  1.00  0.00     0.003 A 
ENDBRANCH  94  97
ENDBRANCH  92  94
ENDBRANCH  77  80
ENDBRANCH  75  76
ENDBRANCH  74  75
ENDBRANCH  73  74
ENDBRANCH   1  73
TORSDOF 18
