REMARK SMILES CCCCCCNC(=O)Oc1cccc(-c2ccc(CC(=O)NCCCCCCNC(=O)c3ccc(-c4c5nc(c(-c6cc(S(=O)(=O)[O-])ccc6F)c6ccc([nH]6)c(-c6cc(S(=O)(=O)[O-])ccc6F)c6nc(c(-c7cc(S(=O)(=O)[O-])ccc7F)c7ccc4[nH]7)C=C6)C=C5)cc3)cc2F)c1
REMARK SMILES IDX 21 1 22 2 23 3 20 5 19 6 16 7 17 8 97 9 18 10 96 11 98 12
REMARK SMILES IDX 15 13 11 14 12 15 99 16 13 17 14 18 10 19 8 20 7 21 9 23
REMARK SMILES IDX 6 24 5 25 4 26 3 27 2 28 1 29 24 30 25 31 26 32 27 33 28 34
REMARK SMILES IDX 29 35 30 36 31 37 32 39 33 40 34 41 95 42 35 43 94 44 36 45
REMARK SMILES IDX 37 46 38 47 88 48 39 49 93 50 87 51 89 52 40 53 92 54 86 55
REMARK SMILES IDX 85 56 41 58 73 59 53 60 72 61 54 62 57 63 71 64 90 65 55 66
REMARK SMILES IDX 56 67 70 69 91 70 58 71 42 72 43 73 51 74 44 75 50 76 52 77
REMARK SMILES IDX 49 78 45 79 46 80 47 81 48 82 74 83 75 84 83 85 76 86 82 87
REMARK SMILES IDX 84 88 81 89 77 90 78 91 79 92 80 93 59 94 60 95 68 96 61 97
REMARK SMILES IDX 67 98 69 99 66 100 62 101 63 102 64 103 65 104
REMARK H PARENT 23 4 7 22 30 38 89 57 57 68
REMARK Flexibility Score: inf
ROOT
ATOM      1  C   UNL     1      -5.412  11.307  -9.121  1.00  0.00     0.224 C 
ATOM      2  O   UNL     1      -5.263  12.513  -9.327  1.00  0.00    -0.275 OA
ATOM      3  N   UNL     1      -6.624  10.743  -9.397  1.00  0.00    -0.356 N 
ATOM      4  H   UNL     1      -7.275  11.334  -9.839  1.00  0.00     0.163 HD
ENDROOT
BRANCH   1   5
ATOM      5  C   UNL     1      -4.264  10.443  -8.632  1.00  0.00     0.135 C 
BRANCH   5   6
ATOM      6  C   UNL     1      -4.441   9.885  -7.242  1.00  0.00    -0.036 A 
ATOM      7  C   UNL     1      -4.823   8.790  -4.652  1.00  0.00     0.018 A 
ATOM      8  C   UNL     1      -4.869  10.178  -4.865  1.00  0.00     0.012 A 
ATOM      9  C   UNL     1      -4.567   7.973  -5.762  1.00  0.00     0.131 A 
ATOM     10  C   UNL     1      -4.678  10.720  -6.143  1.00  0.00     0.005 A 
ATOM     11  C   UNL     1      -4.363   8.504  -7.031  1.00  0.00     0.044 A 
ATOM     12  F   UNL     1      -4.523   6.639  -5.629  1.00  0.00    -0.206 F 
BRANCH   7  13
ATOM     13  C   UNL     1      -5.003   8.212  -3.313  1.00  0.00    -0.012 A 
ATOM     14  C   UNL     1      -4.214   6.760  -1.531  1.00  0.00     0.133 A 
ATOM     15  C   UNL     1      -5.347   7.032  -0.772  1.00  0.00     0.047 A 
ATOM     16  C   UNL     1      -4.047   7.324  -2.795  1.00  0.00     0.056 A 
ATOM     17  C   UNL     1      -6.306   7.911  -1.270  1.00  0.00     0.004 A 
ATOM     18  C   UNL     1      -6.132   8.501  -2.528  1.00  0.00     0.009 A 
BRANCH  14  19
ATOM     19  O   UNL     1      -3.312   5.806  -1.032  1.00  0.00    -0.410 OA
BRANCH  19  20
ATOM     20  C   UNL     1      -1.960   6.108  -1.063  1.00  0.00     0.412 C 
ATOM     21  N   UNL     1      -1.161   5.061  -0.700  1.00  0.00    -0.321 N 
ATOM     22  H   UNL     1      -0.191   5.229  -0.696  1.00  0.00     0.167 HD
ATOM     23  O   UNL     1      -1.464   7.192  -1.365  1.00  0.00    -0.224 OA
BRANCH  21  24
ATOM     24  C   UNL     1      -1.591   3.730  -0.321  1.00  0.00     0.119 C 
BRANCH  24  25
ATOM     25  C   UNL     1      -0.967   2.652  -1.208  1.00  0.00     0.021 C 
BRANCH  25  26
ATOM     26  C   UNL     1       0.564   2.566  -1.146  1.00  0.00     0.002 C 
BRANCH  26  27
ATOM     27  C   UNL     1       1.156   2.311   0.244  1.00  0.00    -0.000 C 
BRANCH  27  28
ATOM     28  C   UNL     1       0.685   1.028   0.934  1.00  0.00    -0.003 C 
ATOM     29  C   UNL     1       1.070  -0.236   0.181  1.00  0.00     0.004 C 
ENDBRANCH  27  28
ENDBRANCH  26  27
ENDBRANCH  25  26
ENDBRANCH  24  25
ENDBRANCH  21  24
ENDBRANCH  19  20
ENDBRANCH  14  19
ENDBRANCH   7  13
ENDBRANCH   5   6
ENDBRANCH   1   5
BRANCH   3  30
ATOM     30  C   UNL     1      -7.088   9.394  -9.129  1.00  0.00     0.116 C 
BRANCH  30  31
ATOM     31  C   UNL     1      -8.051   9.368  -7.940  1.00  0.00     0.021 C 
BRANCH  31  32
ATOM     32  C   UNL     1      -9.407  10.028  -8.227  1.00  0.00     0.002 C 
BRANCH  32  33
ATOM     33  C   UNL     1     -10.188   9.424  -9.399  1.00  0.00     0.002 C 
BRANCH  33  34
ATOM     34  C   UNL     1     -10.455   7.920  -9.293  1.00  0.00     0.021 C 
BRANCH  34  35
ATOM     35  C   UNL     1     -11.286   7.507  -8.082  1.00  0.00     0.116 C 
BRANCH  35  36
ATOM     36  N   UNL     1     -12.628   8.066  -8.128  1.00  0.00    -0.352 N 
ATOM     37  C   UNL     1     -13.840   7.428  -8.037  1.00  0.00     0.251 C 
ATOM     38  H   UNL     1     -12.673   9.043  -8.241  1.00  0.00     0.163 HD
ATOM     39  O   UNL     1     -14.869   8.038  -8.312  1.00  0.00    -0.269 OA
BRANCH  37  40
ATOM     40  C   UNL     1     -13.900   6.007  -7.630  1.00  0.00     0.039 A 
ATOM     41  C   UNL     1     -14.750   5.140  -8.320  1.00  0.00     0.014 A 
ATOM     42  C   UNL     1     -13.129   5.532  -6.564  1.00  0.00     0.014 A 
ATOM     43  C   UNL     1     -14.784   3.785  -7.980  1.00  0.00     0.010 A 
ATOM     44  C   UNL     1     -13.110   4.169  -6.275  1.00  0.00     0.010 A 
ATOM     45  C   UNL     1     -13.940   3.282  -6.977  1.00  0.00    -0.014 A 
BRANCH  45  46
ATOM     46  C   UNL     1     -13.919   1.833  -6.645  1.00  0.00     0.031 A 
ATOM     47  C   UNL     1     -14.350   1.363  -5.282  1.00  0.00     0.074 A 
ATOM     48  C   UNL     1     -13.460   0.948  -7.551  1.00  0.00     0.049 A 
ATOM     49  N   UNL     1     -14.348   0.153  -4.783  1.00  0.00    -0.248 NA
ATOM     50  C   UNL     1     -14.814   2.398  -4.346  1.00  0.00     0.031 C 
ATOM     51  C   UNL     1     -12.976   1.287  -8.891  1.00  0.00     0.029 A 
ATOM     52  N   UNL     1     -13.319  -0.415  -7.484  1.00  0.00    -0.354 N 
ATOM     53  C   UNL     1     -14.800   0.282  -3.473  1.00  0.00     0.074 A 
ATOM     54  C   UNL     1     -14.997   1.697  -3.239  1.00  0.00     0.031 C 
ATOM     55  C   UNL     1     -12.620   0.160  -9.528  1.00  0.00     0.029 A 
ATOM     56  C   UNL     1     -12.805  -0.976  -8.630  1.00  0.00     0.049 A 
ATOM     57  H   UNL     1     -13.563  -0.943  -6.689  1.00  0.00     0.167 HD
ATOM     58  C   UNL     1     -15.050  -0.691  -2.561  1.00  0.00     0.034 A 
ATOM     59  C   UNL     1     -12.507  -2.258  -8.922  1.00  0.00     0.034 A 
ATOM     60  C   UNL     1     -14.852  -2.098  -2.816  1.00  0.00     0.049 A 
ATOM     61  C   UNL     1     -12.764  -3.320  -7.884  1.00  0.00     0.074 A 
ATOM     62  C   UNL     1     -15.124  -3.172  -1.986  1.00  0.00     0.029 A 
ATOM     63  N   UNL     1     -14.322  -2.628  -3.986  1.00  0.00    -0.354 N 
ATOM     64  N   UNL     1     -13.243  -3.188  -6.668  1.00  0.00    -0.248 NA
ATOM     65  C   UNL     1     -12.452  -4.703  -8.262  1.00  0.00     0.031 C 
ATOM     66  C   UNL     1     -14.693  -4.341  -2.624  1.00  0.00     0.029 A 
ATOM     67  C   UNL     1     -14.226  -4.009  -3.885  1.00  0.00     0.049 A 
ATOM     68  H   UNL     1     -14.053  -2.101  -4.772  1.00  0.00     0.167 HD
ATOM     69  C   UNL     1     -13.316  -4.478  -6.148  1.00  0.00     0.074 A 
ATOM     70  C   UNL     1     -12.846  -5.371  -7.188  1.00  0.00     0.031 C 
ATOM     71  C   UNL     1     -13.739  -4.888  -4.924  1.00  0.00     0.034 A 
BRANCH  58  72
ATOM     72  C   UNL     1     -15.538  -0.253  -1.198  1.00  0.00     0.023 A 
ATOM     73  C   UNL     1     -16.745   0.451  -1.036  1.00  0.00     0.031 A 
ATOM     74  C   UNL     1     -14.768  -0.503  -0.049  1.00  0.00     0.131 A 
ATOM     75  C   UNL     1     -17.099   0.959   0.223  1.00  0.00     0.055 A 
ATOM     76  C   UNL     1     -15.172  -0.074   1.218  1.00  0.00     0.041 A 
ATOM     77  F   UNL     1     -13.596  -1.153  -0.138  1.00  0.00    -0.206 F 
ATOM     78  C   UNL     1     -16.334   0.679   1.356  1.00  0.00     0.022 A 
BRANCH  75  79
ATOM     79  S   UNL     1     -18.480   2.131   0.324  1.00  0.00     0.124 S 
ATOM     80  O   UNL     1     -18.042   3.182  -0.591  1.00  0.00    -0.237 OA
ATOM     81  O   UNL     1     -19.611   1.325  -0.121  1.00  0.00    -0.237 OA
ATOM     82  O   UNL     1     -18.501   2.514   1.735  1.00  0.00    -0.744 OA
ENDBRANCH  75  79
ENDBRANCH  58  72
BRANCH  59  83
ATOM     83  C   UNL     1     -11.932  -2.612 -10.251  1.00  0.00     0.023 A 
ATOM     84  C   UNL     1     -12.646  -3.411 -11.157  1.00  0.00     0.031 A 
ATOM     85  C   UNL     1     -10.646  -2.180 -10.622  1.00  0.00     0.131 A 
ATOM     86  C   UNL     1     -12.055  -3.788 -12.373  1.00  0.00     0.055 A 
ATOM     87  C   UNL     1     -10.083  -2.515 -11.855  1.00  0.00     0.041 A 
ATOM     88  F   UNL     1      -9.923  -1.409  -9.794  1.00  0.00    -0.206 F 
ATOM     89  C   UNL     1     -10.784  -3.334 -12.734  1.00  0.00     0.022 A 
BRANCH  86  90
ATOM     90  S   UNL     1     -12.946  -4.944 -13.451  1.00  0.00     0.124 S 
ATOM     91  O   UNL     1     -13.099  -6.103 -12.580  1.00  0.00    -0.237 OA
ATOM     92  O   UNL     1     -14.165  -4.200 -13.750  1.00  0.00    -0.237 OA
ATOM     93  O   UNL     1     -12.036  -5.125 -14.580  1.00  0.00    -0.744 OA
ENDBRANCH  86  90
ENDBRANCH  59  83
BRANCH  71  94
ATOM     94  C   UNL     1     -13.750  -6.375  -4.665  1.00  0.00     0.023 A 
ATOM     95  C   UNL     1     -12.562  -7.125  -4.598  1.00  0.00     0.031 A 
ATOM     96  C   UNL     1     -14.970  -7.054  -4.497  1.00  0.00     0.131 A 
ATOM     97  C   UNL     1     -12.623  -8.516  -4.424  1.00  0.00     0.055 A 
ATOM     98  C   UNL     1     -15.021  -8.428  -4.261  1.00  0.00     0.041 A 
ATOM     99  F   UNL     1     -16.136  -6.389  -4.555  1.00  0.00    -0.206 F 
ATOM    100  C   UNL     1     -13.844  -9.170  -4.238  1.00  0.00     0.022 A 
BRANCH  97 101
ATOM    101  S   UNL     1     -11.088  -9.476  -4.539  1.00  0.00     0.124 S 
ATOM    102  O   UNL     1     -10.620  -9.140  -5.880  1.00  0.00    -0.237 OA
ATOM    103  O   UNL     1     -10.300  -8.939  -3.435  1.00  0.00    -0.237 OA
ATOM    104  O   UNL     1     -11.534 -10.858  -4.366  1.00  0.00    -0.744 OA
ENDBRANCH  97 101
ENDBRANCH  71  94
ENDBRANCH  45  46
ENDBRANCH  37  40
ENDBRANCH  35  36
ENDBRANCH  34  35
ENDBRANCH  33  34
ENDBRANCH  32  33
ENDBRANCH  31  32
ENDBRANCH  30  31
ENDBRANCH   3  30
TORSDOF 25
