REMARK SMILES O=C(CC[N@H+]1CCC[C@@H](C(=O)NCCCCCCNC(=O)c2ccc(-c3c4nc(c(-c5cc(S(=O)(=O)[O-])ccc5F)c5ccc([nH]5)c(-c5cc(S(=O)(=O)[O-])ccc5F)c5nc(c(-c6cc(S(=O)(=O)[O-])ccc6F)c6ccc3[nH]6)C=C5)C=C4)cc2)C1)Nc1cccc(F)c1
REMARK SMILES IDX 15 1 14 2 13 3 12 4 10 5 11 6 9 8 5 9 6 10 85 11 7 13 8 14
REMARK SMILES IDX 4 15 3 16 2 17 1 18 86 19 87 21 88 22 93 23 89 24 91 25
REMARK SMILES IDX 90 26 92 27 16 28 17 29 18 30 19 31 20 32 21 34 22 35 23 36
REMARK SMILES IDX 84 37 24 38 83 39 25 40 26 41 27 42 77 43 28 44 82 45 76 46
REMARK SMILES IDX 78 47 29 48 81 49 75 50 74 51 30 53 62 54 42 55 61 56 43 57
REMARK SMILES IDX 46 58 60 59 79 60 44 61 45 62 59 64 80 65 47 66 31 67 32 68
REMARK SMILES IDX 40 69 33 70 39 71 41 72 38 73 34 74 35 75 36 76 37 77 63 78
REMARK SMILES IDX 64 79 72 80 65 81 71 82 73 83 70 84 66 85 67 86 68 87 69 88
REMARK SMILES IDX 48 89 49 90 57 91 50 92 56 93 58 94 55 95 51 96 52 97 53 98
REMARK SMILES IDX 54 99
REMARK H PARENT 12 7 5 12 86 20 19 33 78 52 46 63
REMARK Flexibility Score: inf
ROOT
ATOM      1  C   UNL     1       8.839   6.344   3.461  1.00  0.00     0.002 C 
ENDROOT
BRANCH   1   2
ATOM      2  C   UNL     1       7.559   5.495   3.432  1.00  0.00     0.021 C 
BRANCH   2   3
ATOM      3  C   UNL     1       7.023   5.165   2.037  1.00  0.00     0.116 C 
BRANCH   3   4
ATOM      4  N   UNL     1       8.034   4.542   1.205  1.00  0.00    -0.356 N 
ATOM      5  C   UNL     1       8.198   3.249   0.823  1.00  0.00     0.228 C 
ATOM      6  O   UNL     1       9.208   2.974   0.172  1.00  0.00    -0.275 OA
ATOM      7  H   UNL     1       8.716   5.161   0.858  1.00  0.00     0.163 HD
BRANCH   5   8
ATOM      8  C   UNL     1       7.125   2.210   1.132  1.00  0.00     0.133 C 
ATOM      9  N   UNL     1       5.047   1.205   0.087  1.00  0.00    -0.334 N 
ATOM     10  C   UNL     1       5.745  -0.088  -0.041  1.00  0.00     0.262 C 
ATOM     11  C   UNL     1       6.044   2.308   0.041  1.00  0.00     0.275 C 
ATOM     12  H   UNL     1       4.548   1.194   0.977  1.00  0.00     0.348 HD
ATOM     13  C   UNL     1       6.697  -0.283   1.137  1.00  0.00     0.062 C 
ATOM     14  C   UNL     1       7.755   0.809   1.166  1.00  0.00     0.025 C 
BRANCH   9  15
ATOM     15  C   UNL     1       4.051   1.420  -0.994  1.00  0.00     0.272 C 
BRANCH  15  16
ATOM     16  C   UNL     1       3.004   0.323  -1.202  1.00  0.00     0.161 C 
BRANCH  16  17
ATOM     17  C   UNL     1       2.084  -0.012  -0.038  1.00  0.00     0.230 C 
ATOM     18  O   UNL     1       0.972  -0.484  -0.270  1.00  0.00    -0.275 OA
ATOM     19  N   UNL     1       2.636   0.166   1.212  1.00  0.00    -0.326 N 
ATOM     20  H   UNL     1       3.498   0.642   1.243  1.00  0.00     0.169 HD
BRANCH  19  21
ATOM     21  C   UNL     1       2.112  -0.254   2.450  1.00  0.00     0.044 A 
ATOM     22  C   UNL     1       2.768   0.187   3.608  1.00  0.00     0.026 A 
ATOM     23  C   UNL     1       1.012  -1.102   2.578  1.00  0.00     0.065 A 
ATOM     24  C   UNL     1       2.318  -0.197   4.876  1.00  0.00     0.005 A 
ATOM     25  C   UNL     1       0.581  -1.492   3.844  1.00  0.00     0.125 A 
ATOM     26  C   UNL     1       1.220  -1.043   4.993  1.00  0.00     0.039 A 
ATOM     27  F   UNL     1      -0.462  -2.325   3.957  1.00  0.00    -0.207 F 
ENDBRANCH  19  21
ENDBRANCH  16  17
ENDBRANCH  15  16
ENDBRANCH   9  15
ENDBRANCH   5   8
ENDBRANCH   3   4
ENDBRANCH   2   3
ENDBRANCH   1   2
BRANCH   1  28
ATOM     28  C   UNL     1       8.786   7.670   2.695  1.00  0.00     0.002 C 
BRANCH  28  29
ATOM     29  C   UNL     1       7.690   8.643   3.131  1.00  0.00     0.021 C 
BRANCH  29  30
ATOM     30  C   UNL     1       7.751   9.083   4.590  1.00  0.00     0.116 C 
BRANCH  30  31
ATOM     31  N   UNL     1       8.940   9.864   4.897  1.00  0.00    -0.352 N 
ATOM     32  C   UNL     1       9.041  11.054   5.582  1.00  0.00     0.251 C 
ATOM     33  H   UNL     1       9.789   9.489   4.571  1.00  0.00     0.163 HD
ATOM     34  O   UNL     1      10.118  11.644   5.625  1.00  0.00    -0.269 OA
BRANCH  32  35
ATOM     35  C   UNL     1       7.843  11.637   6.228  1.00  0.00     0.039 A 
ATOM     36  C   UNL     1       7.556  12.991   6.033  1.00  0.00     0.014 A 
ATOM     37  C   UNL     1       6.992  10.844   7.002  1.00  0.00     0.014 A 
ATOM     38  C   UNL     1       6.371  13.529   6.544  1.00  0.00     0.010 A 
ATOM     39  C   UNL     1       5.781  11.365   7.451  1.00  0.00     0.010 A 
ATOM     40  C   UNL     1       5.452  12.710   7.219  1.00  0.00    -0.014 A 
BRANCH  40  41
ATOM     41  C   UNL     1       4.139  13.229   7.686  1.00  0.00     0.031 A 
ATOM     42  C   UNL     1       3.818  13.256   9.155  1.00  0.00     0.074 A 
ATOM     43  C   UNL     1       3.204  13.593   6.787  1.00  0.00     0.049 A 
ATOM     44  N   UNL     1       2.694  13.552   9.755  1.00  0.00    -0.248 NA
ATOM     45  C   UNL     1       4.903  12.862  10.063  1.00  0.00     0.031 C 
ATOM     46  C   UNL     1       3.380  13.588   5.333  1.00  0.00     0.029 A 
ATOM     47  N   UNL     1       1.914  14.027   6.963  1.00  0.00    -0.354 N 
ATOM     48  C   UNL     1       2.930  13.368  11.113  1.00  0.00     0.074 A 
ATOM     49  C   UNL     1       4.284  12.865  11.233  1.00  0.00     0.031 C 
ATOM     50  C   UNL     1       2.251  14.026   4.753  1.00  0.00     0.029 A 
ATOM     51  C   UNL     1       1.255  14.294   5.785  1.00  0.00     0.049 A 
ATOM     52  H   UNL     1       1.499  14.138   7.849  1.00  0.00     0.167 HD
ATOM     53  C   UNL     1       2.107  13.618  12.164  1.00  0.00     0.034 A 
ATOM     54  C   UNL     1      -0.011  14.697   5.562  1.00  0.00     0.034 A 
ATOM     55  C   UNL     1       0.759  14.119  12.026  1.00  0.00     0.049 A 
ATOM     56  C   UNL     1      -0.930  14.914   6.736  1.00  0.00     0.074 A 
ATOM     57  C   UNL     1      -0.148  14.445  13.019  1.00  0.00     0.029 A 
ATOM     58  N   UNL     1       0.119  14.358  10.815  1.00  0.00    -0.354 N 
ATOM     59  N   UNL     1      -0.685  14.763   8.017  1.00  0.00    -0.248 NA
ATOM     60  C   UNL     1      -2.295  15.359   6.431  1.00  0.00     0.031 C 
ATOM     61  C   UNL     1      -1.353  14.819  12.411  1.00  0.00     0.029 A 
ATOM     62  C   UNL     1      -1.178  14.797  11.037  1.00  0.00     0.049 A 
ATOM     63  H   UNL     1       0.528  14.233   9.928  1.00  0.00     0.167 HD
ATOM     64  C   UNL     1      -1.857  15.129   8.672  1.00  0.00     0.074 A 
ATOM     65  C   UNL     1      -2.805  15.511   7.644  1.00  0.00     0.031 C 
ATOM     66  C   UNL     1      -2.121  15.159  10.004  1.00  0.00     0.034 A 
BRANCH  53  67
ATOM     67  C   UNL     1       2.647  13.315  13.543  1.00  0.00     0.023 A 
ATOM     68  C   UNL     1       3.797  13.957  14.038  1.00  0.00     0.031 A 
ATOM     69  C   UNL     1       2.055  12.324  14.345  1.00  0.00     0.131 A 
ATOM     70  C   UNL     1       4.381  13.525  15.238  1.00  0.00     0.055 A 
ATOM     71  C   UNL     1       2.585  11.967  15.588  1.00  0.00     0.041 A 
ATOM     72  F   UNL     1       0.966  11.662  13.924  1.00  0.00    -0.206 F 
ATOM     73  C   UNL     1       3.769  12.552  16.029  1.00  0.00     0.022 A 
BRANCH  70  74
ATOM     74  S   UNL     1       6.050  14.110  15.641  1.00  0.00     0.124 S 
ATOM     75  O   UNL     1       6.799  13.706  14.453  1.00  0.00    -0.237 OA
ATOM     76  O   UNL     1       5.848  15.543  15.814  1.00  0.00    -0.237 OA
ATOM     77  O   UNL     1       6.386  13.373  16.858  1.00  0.00    -0.744 OA
ENDBRANCH  70  74
ENDBRANCH  53  67
BRANCH  54  78
ATOM     78  C   UNL     1      -0.490  14.928   4.171  1.00  0.00     0.023 A 
ATOM     79  C   UNL     1      -0.806  16.223   3.731  1.00  0.00     0.031 A 
ATOM     80  C   UNL     1      -0.660  13.862   3.271  1.00  0.00     0.131 A 
ATOM     81  C   UNL     1      -1.309  16.417   2.436  1.00  0.00     0.055 A 
ATOM     82  C   UNL     1      -1.120  14.065   1.969  1.00  0.00     0.041 A 
ATOM     83  F   UNL     1      -0.363  12.606   3.642  1.00  0.00    -0.206 F 
ATOM     84  C   UNL     1      -1.457  15.349   1.548  1.00  0.00     0.022 A 
BRANCH  81  85
ATOM     85  S   UNL     1      -1.818  18.087   1.944  1.00  0.00     0.124 S 
ATOM     86  O   UNL     1      -2.878  18.369   2.905  1.00  0.00    -0.237 OA
ATOM     87  O   UNL     1      -0.581  18.842   2.112  1.00  0.00    -0.237 OA
ATOM     88  O   UNL     1      -2.256  17.914   0.561  1.00  0.00    -0.744 OA
ENDBRANCH  81  85
ENDBRANCH  54  78
BRANCH  66  89
ATOM     89  C   UNL     1      -3.479  15.670  10.419  1.00  0.00     0.023 A 
ATOM     90  C   UNL     1      -4.658  14.956  10.144  1.00  0.00     0.031 A 
ATOM     91  C   UNL     1      -3.593  16.904  11.085  1.00  0.00     0.131 A 
ATOM     92  C   UNL     1      -5.904  15.505  10.486  1.00  0.00     0.055 A 
ATOM     93  C   UNL     1      -4.830  17.419  11.473  1.00  0.00     0.041 A 
ATOM     94  F   UNL     1      -2.499  17.629  11.370  1.00  0.00    -0.206 F 
ATOM     95  C   UNL     1      -5.996  16.724  11.162  1.00  0.00     0.022 A 
BRANCH  92  96
ATOM     96  S   UNL     1      -7.412  14.645   9.959  1.00  0.00     0.124 S 
ATOM     97  O   UNL     1      -7.253  14.615   8.508  1.00  0.00    -0.237 OA
ATOM     98  O   UNL     1      -7.293  13.360  10.640  1.00  0.00    -0.237 OA
ATOM     99  O   UNL     1      -8.487  15.507  10.447  1.00  0.00    -0.744 OA
ENDBRANCH  92  96
ENDBRANCH  66  89
ENDBRANCH  40  41
ENDBRANCH  32  35
ENDBRANCH  30  31
ENDBRANCH  29  30
ENDBRANCH  28  29
ENDBRANCH   1  28
TORSDOF 20
