REMARK SMILES Cc1cc(C(=O)NCCCCCCNC(=O)c2ccc(-c3c4nc(c(-c5cc(S(=O)(=O)[O-])ccc5F)c5ccc([nH]5)c(-c5cc(S(=O)(=O)[O-])ccc5F)c5nc(c(-c6cc(S(=O)(=O)[O-])ccc6F)c6ccc3[nH]6)C=C5)C=C4)cc2)nc(N2CCN(c3ccccc3Cl)CC2)n1
REMARK SMILES IDX 11 1 10 2 9 3 8 4 7 5 5 6 6 7 4 9 1 10 2 11 3 12 95 13 81 14
REMARK SMILES IDX 80 15 82 16 83 17 94 18 84 19 93 20 85 21 86 22 87 23 91 24
REMARK SMILES IDX 88 25 90 26 92 27 89 28 12 29 13 30 14 31 15 32 16 34 17 35
REMARK SMILES IDX 18 36 79 37 19 38 78 39 20 40 21 41 22 42 72 43 23 44 77 45
REMARK SMILES IDX 71 46 73 47 24 48 76 49 70 50 69 51 25 53 57 54 37 55 56 56
REMARK SMILES IDX 38 57 41 58 55 59 74 60 39 61 40 62 54 64 75 65 42 66 26 67
REMARK SMILES IDX 27 68 35 69 28 70 34 71 36 72 33 73 29 74 30 75 31 76 32 77
REMARK SMILES IDX 58 78 59 79 67 80 60 81 66 82 68 83 65 84 61 85 62 86 63 87
REMARK SMILES IDX 64 88 43 89 44 90 52 91 45 92 51 93 53 94 50 95 46 96 47 97
REMARK SMILES IDX 48 98 49 99
REMARK H PARENT 7 8 14 33 73 52 41 63
REMARK Flexibility Score: inf
ROOT
ATOM      1  C   UNL     1      -0.127  -7.078  -0.019  1.00  0.00     0.002 C 
ENDROOT
BRANCH   1   2
ATOM      2  C   UNL     1       0.253  -6.077  -1.118  1.00  0.00     0.002 C 
BRANCH   2   3
ATOM      3  C   UNL     1      -0.367  -4.684  -0.943  1.00  0.00     0.021 C 
BRANCH   3   4
ATOM      4  C   UNL     1       0.080  -4.008   0.353  1.00  0.00     0.116 C 
BRANCH   4   5
ATOM      5  N   UNL     1       1.395  -3.447   0.159  1.00  0.00    -0.351 N 
ATOM      6  C   UNL     1       1.831  -2.192  -0.177  1.00  0.00     0.270 C 
ATOM      7  O   UNL     1       3.036  -2.092  -0.426  1.00  0.00    -0.268 OA
ATOM      8  H   UNL     1       2.124  -4.094   0.295  1.00  0.00     0.163 HD
BRANCH   6   9
ATOM      9  C   UNL     1       0.962  -0.967  -0.180  1.00  0.00     0.133 A 
ATOM     10  C   UNL     1      -2.487   0.447  -0.078  1.00  0.00     0.067 C 
ATOM     11  C   UNL     1      -0.993   0.306  -0.076  1.00  0.00     0.044 A 
ATOM     12  C   UNL     1      -0.405  -0.924  -0.298  1.00  0.00     0.058 A 
ATOM     13  N   UNL     1      -0.273   1.431   0.119  1.00  0.00    -0.218 NA
ATOM     14  C   UNL     1       1.058   1.320   0.061  1.00  0.00     0.226 A 
ATOM     15  N   UNL     1       1.687   0.153  -0.040  1.00  0.00    -0.208 NA
BRANCH  14  16
ATOM     16  N   UNL     1       1.866   2.423   0.046  1.00  0.00    -0.337 N 
ATOM     17  C   UNL     1       1.431   3.684   0.631  1.00  0.00     0.141 C 
ATOM     18  C   UNL     1       2.699   2.518  -1.163  1.00  0.00     0.141 C 
ATOM     19  C   UNL     1       2.679   4.560   0.926  1.00  0.00     0.138 C 
ATOM     20  C   UNL     1       3.923   3.411  -0.905  1.00  0.00     0.138 C 
ATOM     21  N   UNL     1       3.507   4.675  -0.282  1.00  0.00    -0.367 N 
BRANCH  21  22
ATOM     22  C   UNL     1       4.033   5.877  -0.699  1.00  0.00     0.056 A 
ATOM     23  C   UNL     1       4.842   6.620   0.173  1.00  0.00     0.027 A 
ATOM     24  C   UNL     1       3.787   6.418  -1.979  1.00  0.00     0.064 A 
ATOM     25  C   UNL     1       5.388   7.850  -0.209  1.00  0.00     0.002 A 
ATOM     26  C   UNL     1       4.325   7.651  -2.359  1.00  0.00     0.023 A 
ATOM     27  Cl  UNL     1       2.746   5.635  -3.123  1.00  0.00    -0.082 Cl
ATOM     28  C   UNL     1       5.126   8.367  -1.474  1.00  0.00     0.002 A 
ENDBRANCH  21  22
ENDBRANCH  14  16
ENDBRANCH   6   9
ENDBRANCH   4   5
ENDBRANCH   3   4
ENDBRANCH   2   3
ENDBRANCH   1   2
BRANCH   1  29
ATOM     29  C   UNL     1      -1.634  -7.226   0.210  1.00  0.00     0.021 C 
BRANCH  29  30
ATOM     30  C   UNL     1      -2.394  -7.728  -1.013  1.00  0.00     0.116 C 
BRANCH  30  31
ATOM     31  N   UNL     1      -1.979  -9.073  -1.373  1.00  0.00    -0.352 N 
ATOM     32  C   UNL     1      -2.734 -10.216  -1.458  1.00  0.00     0.251 C 
ATOM     33  H   UNL     1      -1.024  -9.180  -1.586  1.00  0.00     0.163 HD
ATOM     34  O   UNL     1      -2.183 -11.310  -1.497  1.00  0.00    -0.269 OA
BRANCH  32  35
ATOM     35  C   UNL     1      -4.209 -10.113  -1.488  1.00  0.00     0.039 A 
ATOM     36  C   UNL     1      -4.967 -11.002  -0.725  1.00  0.00     0.014 A 
ATOM     37  C   UNL     1      -4.838  -9.147  -2.280  1.00  0.00     0.014 A 
ATOM     38  C   UNL     1      -6.359 -10.888  -0.716  1.00  0.00     0.010 A 
ATOM     39  C   UNL     1      -6.219  -8.989  -2.212  1.00  0.00     0.010 A 
ATOM     40  C   UNL     1      -6.995  -9.862  -1.435  1.00  0.00    -0.014 A 
BRANCH  40  41
ATOM     41  C   UNL     1      -8.470  -9.695  -1.396  1.00  0.00     0.031 A 
ATOM     42  C   UNL     1      -9.281  -9.864  -2.652  1.00  0.00     0.074 A 
ATOM     43  C   UNL     1      -9.069  -9.336  -0.242  1.00  0.00     0.049 A 
ATOM     44  N   UNL     1     -10.564  -9.691  -2.839  1.00  0.00    -0.248 NA
ATOM     45  C   UNL     1      -8.545 -10.253  -3.866  1.00  0.00     0.031 C 
ATOM     46  C   UNL     1      -8.381  -9.111   1.031  1.00  0.00     0.029 A 
ATOM     47  N   UNL     1     -10.387  -9.091   0.047  1.00  0.00    -0.354 N 
ATOM     48  C   UNL     1     -10.788  -9.935  -4.190  1.00  0.00     0.074 A 
ATOM     49  C   UNL     1      -9.497 -10.210  -4.785  1.00  0.00     0.031 C 
ATOM     50  C   UNL     1      -9.286  -8.790   1.969  1.00  0.00     0.029 A 
ATOM     51  C   UNL     1     -10.610  -8.734   1.358  1.00  0.00     0.049 A 
ATOM     52  H   UNL     1     -11.107  -9.163  -0.620  1.00  0.00     0.167 HD
ATOM     53  C   UNL     1     -11.964  -9.950  -4.865  1.00  0.00     0.034 A 
ATOM     54  C   UNL     1     -11.749  -8.389   1.990  1.00  0.00     0.034 A 
ATOM     55  C   UNL     1     -13.242  -9.689  -4.250  1.00  0.00     0.049 A 
ATOM     56  C   UNL     1     -13.040  -8.382   1.209  1.00  0.00     0.074 A 
ATOM     57  C   UNL     1     -14.500  -9.735  -4.826  1.00  0.00     0.029 A 
ATOM     58  N   UNL     1     -13.428  -9.324  -2.922  1.00  0.00    -0.354 N 
ATOM     59  N   UNL     1     -13.241  -8.667  -0.058  1.00  0.00    -0.248 NA
ATOM     60  C   UNL     1     -14.257  -8.018   1.944  1.00  0.00     0.031 C 
ATOM     61  C   UNL     1     -15.436  -9.325  -3.871  1.00  0.00     0.029 A 
ATOM     62  C   UNL     1     -14.775  -9.106  -2.673  1.00  0.00     0.049 A 
ATOM     63  H   UNL     1     -12.709  -9.233  -2.256  1.00  0.00     0.167 HD
ATOM     64  C   UNL     1     -14.614  -8.552  -0.258  1.00  0.00     0.074 A 
ATOM     65  C   UNL     1     -15.190  -8.187   1.019  1.00  0.00     0.031 C 
ATOM     66  C   UNL     1     -15.335  -8.736  -1.394  1.00  0.00     0.034 A 
BRANCH  53  67
ATOM     67  C   UNL     1     -11.916 -10.231  -6.348  1.00  0.00     0.023 A 
ATOM     68  C   UNL     1     -11.454 -11.458  -6.857  1.00  0.00     0.031 A 
ATOM     69  C   UNL     1     -12.330  -9.253  -7.271  1.00  0.00     0.131 A 
ATOM     70  C   UNL     1     -11.352 -11.649  -8.243  1.00  0.00     0.055 A 
ATOM     71  C   UNL     1     -12.304  -9.480  -8.648  1.00  0.00     0.041 A 
ATOM     72  F   UNL     1     -12.759  -8.053  -6.848  1.00  0.00    -0.206 F 
ATOM     73  C   UNL     1     -11.799 -10.679  -9.142  1.00  0.00     0.022 A 
BRANCH  70  74
ATOM     74  S   UNL     1     -10.498 -13.128  -8.853  1.00  0.00     0.124 S 
ATOM     75  O   UNL     1      -9.176 -12.975  -8.249  1.00  0.00    -0.237 OA
ATOM     76  O   UNL     1     -11.321 -14.209  -8.324  1.00  0.00    -0.237 OA
ATOM     77  O   UNL     1     -10.533 -12.970 -10.306  1.00  0.00    -0.744 OA
ENDBRANCH  70  74
ENDBRANCH  53  67
BRANCH  54  78
ATOM     78  C   UNL     1     -11.733  -8.009   3.433  1.00  0.00     0.023 A 
ATOM     79  C   UNL     1     -12.439  -8.761   4.385  1.00  0.00     0.031 A 
ATOM     80  C   UNL     1     -11.060  -6.856   3.875  1.00  0.00     0.131 A 
ATOM     81  C   UNL     1     -12.506  -8.322   5.716  1.00  0.00     0.055 A 
ATOM     82  C   UNL     1     -11.078  -6.456   5.212  1.00  0.00     0.041 A 
ATOM     83  F   UNL     1     -10.366  -6.100   3.009  1.00  0.00    -0.206 F 
ATOM     84  C   UNL     1     -11.819  -7.182   6.139  1.00  0.00     0.022 A 
BRANCH  81  85
ATOM     85  S   UNL     1     -13.597  -9.204   6.867  1.00  0.00     0.124 S 
ATOM     86  O   UNL     1     -14.883  -9.108   6.186  1.00  0.00    -0.237 OA
ATOM     87  O   UNL     1     -12.987 -10.529   6.905  1.00  0.00    -0.237 OA
ATOM     88  O   UNL     1     -13.483  -8.431   8.102  1.00  0.00    -0.744 OA
ENDBRANCH  81  85
ENDBRANCH  54  78
BRANCH  66  89
ATOM     89  C   UNL     1     -16.834  -8.595  -1.286  1.00  0.00     0.023 A 
ATOM     90  C   UNL     1     -17.445  -7.364  -0.990  1.00  0.00     0.031 A 
ATOM     91  C   UNL     1     -17.663  -9.716  -1.474  1.00  0.00     0.131 A 
ATOM     92  C   UNL     1     -18.838  -7.296  -0.831  1.00  0.00     0.055 A 
ATOM     93  C   UNL     1     -19.052  -9.628  -1.381  1.00  0.00     0.041 A 
ATOM     94  F   UNL     1     -17.134 -10.918  -1.756  1.00  0.00    -0.206 F 
ATOM     95  C   UNL     1     -19.646  -8.415  -1.043  1.00  0.00     0.022 A 
BRANCH  92  96
ATOM     96  S   UNL     1     -19.572  -5.744  -0.245  1.00  0.00     0.124 S 
ATOM     97  O   UNL     1     -18.888  -5.547   1.029  1.00  0.00    -0.237 OA
ATOM     98  O   UNL     1     -19.217  -4.810  -1.309  1.00  0.00    -0.237 OA
ATOM     99  O   UNL     1     -20.996  -6.055  -0.144  1.00  0.00    -0.744 OA
ENDBRANCH  92  96
ENDBRANCH  66  89
ENDBRANCH  40  41
ENDBRANCH  32  35
ENDBRANCH  30  31
ENDBRANCH  29  30
ENDBRANCH   1  29
TORSDOF 18
