REMARK SMILES CC(=O)/C=C(/C)NCC(=O)NCCCCCCNC(=O)c1ccc(-c2c3nc(c(-c4cc(S(=O)(=O)[O-])ccc4F)c4ccc([nH]4)c(-c4cc(S(=O)(=O)[O-])ccc4F)c4nc(c(-c5cc(S(=O)(=O)[O-])ccc5F)c5ccc2[nH]5)C=C4)C=C3)cc1
REMARK SMILES IDX 14 1 13 2 12 3 11 4 9 5 10 6 8 8 7 9 5 11 4 12 6 13 2 14
REMARK SMILES IDX 1 15 3 16 15 17 16 18 17 19 18 20 19 21 20 23 21 24 22 25
REMARK SMILES IDX 83 26 23 27 82 28 24 29 25 30 26 31 76 32 27 33 81 34 75 35
REMARK SMILES IDX 77 36 28 37 80 38 74 39 73 40 29 42 61 43 41 44 60 45 42 46
REMARK SMILES IDX 45 47 59 48 78 49 43 50 44 51 58 53 79 54 46 55 30 56 31 57
REMARK SMILES IDX 39 58 32 59 38 60 40 61 37 62 33 63 34 64 35 65 36 66 62 67
REMARK SMILES IDX 63 68 71 69 64 70 70 71 72 72 69 73 65 74 66 75 67 76 68 77
REMARK SMILES IDX 47 78 48 79 56 80 49 81 55 82 57 83 54 84 50 85 51 86 52 87
REMARK SMILES IDX 53 88
REMARK H PARENT 11 7 7 10 18 22 77 41 45 52
REMARK Flexibility Score: inf
ROOT
ATOM      1  C   UNL     1       6.187  -1.823   0.396  1.00  0.00     0.002 C 
ENDROOT
BRANCH   1   2
ATOM      2  C   UNL     1       4.844  -1.975  -0.328  1.00  0.00     0.021 C 
BRANCH   2   3
ATOM      3  C   UNL     1       3.735  -1.139   0.306  1.00  0.00     0.116 C 
BRANCH   3   4
ATOM      4  N   UNL     1       3.908   0.270   0.019  1.00  0.00    -0.355 N 
ATOM      5  C   UNL     1       3.326   1.067  -0.918  1.00  0.00     0.239 C 
ATOM      6  O   UNL     1       3.729   2.236  -0.977  1.00  0.00    -0.273 OA
ATOM      7  H   UNL     1       4.557   0.729   0.601  1.00  0.00     0.163 HD
BRANCH   5   8
ATOM      8  C   UNL     1       2.160   0.618  -1.813  1.00  0.00     0.213 C 
BRANCH   8   9
ATOM      9  N   UNL     1       2.210  -0.752  -2.285  1.00  0.00    -0.380 N 
ATOM     10  H   UNL     1       2.991  -0.939  -2.854  1.00  0.00     0.160 HD
BRANCH   9  11
ATOM     11  C   UNL     1       1.389  -1.852  -2.103  1.00  0.00     0.011 C 
ATOM     12  C   UNL     1       0.466  -2.181  -1.174  1.00  0.00     0.067 C 
ATOM     13  C   UNL     1       1.690  -2.948  -3.129  1.00  0.00     0.064 C 
BRANCH  12  14
ATOM     14  C   UNL     1      -0.133  -1.632   0.081  1.00  0.00     0.154 C 
ATOM     15  C   UNL     1       0.054  -0.218   0.531  1.00  0.00     0.093 C 
ATOM     16  O   UNL     1      -0.825  -2.398   0.758  1.00  0.00    -0.295 OA
ENDBRANCH  12  14
ENDBRANCH   9  11
ENDBRANCH   8   9
ENDBRANCH   5   8
ENDBRANCH   3   4
ENDBRANCH   2   3
ENDBRANCH   1   2
BRANCH   1  17
ATOM     17  C   UNL     1       6.172  -2.261   1.866  1.00  0.00     0.002 C 
BRANCH  17  18
ATOM     18  C   UNL     1       5.741  -3.712   2.100  1.00  0.00     0.021 C 
BRANCH  18  19
ATOM     19  C   UNL     1       6.616  -4.747   1.401  1.00  0.00     0.116 C 
BRANCH  19  20
ATOM     20  N   UNL     1       7.997  -4.678   1.852  1.00  0.00    -0.352 N 
ATOM     21  C   UNL     1       8.792  -5.667   2.377  1.00  0.00     0.251 C 
ATOM     22  H   UNL     1       8.423  -3.795   1.770  1.00  0.00     0.163 HD
ATOM     23  O   UNL     1       9.851  -5.374   2.917  1.00  0.00    -0.269 OA
BRANCH  21  24
ATOM     24  C   UNL     1       8.352  -7.077   2.301  1.00  0.00     0.039 A 
ATOM     25  C   UNL     1       8.501  -7.894   3.423  1.00  0.00     0.014 A 
ATOM     26  C   UNL     1       7.797  -7.591   1.125  1.00  0.00     0.014 A 
ATOM     27  C   UNL     1       8.039  -9.211   3.383  1.00  0.00     0.010 A 
ATOM     28  C   UNL     1       7.269  -8.878   1.113  1.00  0.00     0.010 A 
ATOM     29  C   UNL     1       7.387  -9.704   2.241  1.00  0.00    -0.014 A 
BRANCH  29  30
ATOM     30  C   UNL     1       6.828 -11.081   2.208  1.00  0.00     0.031 A 
ATOM     31  C   UNL     1       7.367 -12.092   1.232  1.00  0.00     0.074 A 
ATOM     32  C   UNL     1       5.802 -11.403   3.022  1.00  0.00     0.049 A 
ATOM     33  N   UNL     1       6.968 -13.317   1.005  1.00  0.00    -0.248 NA
ATOM     34  C   UNL     1       8.486 -11.658   0.382  1.00  0.00     0.031 C 
ATOM     35  C   UNL     1       5.174 -10.498   3.987  1.00  0.00     0.029 A 
ATOM     36  N   UNL     1       5.102 -12.575   3.166  1.00  0.00    -0.354 N 
ATOM     37  C   UNL     1       7.780 -13.798  -0.017  1.00  0.00     0.074 A 
ATOM     38  C   UNL     1       8.649 -12.708  -0.408  1.00  0.00     0.031 C 
ATOM     39  C   UNL     1       4.205 -11.156   4.642  1.00  0.00     0.029 A 
ATOM     40  C   UNL     1       4.102 -12.511   4.109  1.00  0.00     0.049 A 
ATOM     41  H   UNL     1       5.298 -13.386   2.643  1.00  0.00     0.167 HD
ATOM     42  C   UNL     1       7.815 -15.040  -0.560  1.00  0.00     0.034 A 
ATOM     43  C   UNL     1       3.195 -13.433   4.490  1.00  0.00     0.034 A 
ATOM     44  C   UNL     1       6.945 -16.116  -0.153  1.00  0.00     0.049 A 
ATOM     45  C   UNL     1       3.223 -14.792   3.835  1.00  0.00     0.074 A 
ATOM     46  C   UNL     1       6.925 -17.425  -0.605  1.00  0.00     0.029 A 
ATOM     47  N   UNL     1       5.933 -16.010   0.794  1.00  0.00    -0.354 N 
ATOM     48  N   UNL     1       4.030 -15.245   2.903  1.00  0.00    -0.248 NA
ATOM     49  C   UNL     1       2.224 -15.767   4.291  1.00  0.00     0.031 C 
ATOM     50  C   UNL     1       5.855 -18.085   0.008  1.00  0.00     0.029 A 
ATOM     51  C   UNL     1       5.261 -17.218   0.911  1.00  0.00     0.049 A 
ATOM     52  H   UNL     1       5.724 -15.196   1.306  1.00  0.00     0.167 HD
ATOM     53  C   UNL     1       3.656 -16.569   2.689  1.00  0.00     0.074 A 
ATOM     54  C   UNL     1       2.565 -16.845   3.601  1.00  0.00     0.031 C 
ATOM     55  C   UNL     1       4.168 -17.477   1.819  1.00  0.00     0.034 A 
BRANCH  42  56
ATOM     56  C   UNL     1       8.809 -15.289  -1.669  1.00  0.00     0.023 A 
ATOM     57  C   UNL     1      10.196 -15.186  -1.456  1.00  0.00     0.031 A 
ATOM     58  C   UNL     1       8.367 -15.624  -2.962  1.00  0.00     0.131 A 
ATOM     59  C   UNL     1      11.084 -15.343  -2.531  1.00  0.00     0.055 A 
ATOM     60  C   UNL     1       9.261 -15.865  -4.007  1.00  0.00     0.041 A 
ATOM     61  F   UNL     1       7.056 -15.716  -3.234  1.00  0.00    -0.206 F 
ATOM     62  C   UNL     1      10.628 -15.710  -3.799  1.00  0.00     0.022 A 
BRANCH  59  63
ATOM     63  S   UNL     1      12.830 -14.920  -2.280  1.00  0.00     0.124 S 
ATOM     64  O   UNL     1      12.738 -13.520  -1.872  1.00  0.00    -0.237 OA
ATOM     65  O   UNL     1      13.237 -15.862  -1.244  1.00  0.00    -0.237 OA
ATOM     66  O   UNL     1      13.428 -15.140  -3.595  1.00  0.00    -0.744 OA
ENDBRANCH  59  63
ENDBRANCH  42  56
BRANCH  43  67
ATOM     67  C   UNL     1       2.171 -13.110   5.527  1.00  0.00     0.023 A 
ATOM     68  C   UNL     1       2.117 -13.820   6.737  1.00  0.00     0.031 A 
ATOM     69  C   UNL     1       1.190 -12.128   5.297  1.00  0.00     0.131 A 
ATOM     70  C   UNL     1       1.072 -13.581   7.643  1.00  0.00     0.055 A 
ATOM     71  C   UNL     1       0.191 -11.849   6.231  1.00  0.00     0.041 A 
ATOM     72  F   UNL     1       1.192 -11.418   4.157  1.00  0.00    -0.206 F 
ATOM     73  C   UNL     1       0.118 -12.590   7.406  1.00  0.00     0.022 A 
BRANCH  70  74
ATOM     74  S   UNL     1       0.913 -14.668   9.088  1.00  0.00     0.124 S 
ATOM     75  O   UNL     1       0.813 -15.980   8.460  1.00  0.00    -0.237 OA
ATOM     76  O   UNL     1       2.151 -14.394   9.810  1.00  0.00    -0.237 OA
ATOM     77  O   UNL     1      -0.305 -14.191   9.739  1.00  0.00    -0.744 OA
ENDBRANCH  70  74
ENDBRANCH  43  67
BRANCH  55  78
ATOM     78  C   UNL     1       3.583 -18.870   1.853  1.00  0.00     0.023 A 
ATOM     79  C   UNL     1       2.250 -19.124   1.488  1.00  0.00     0.031 A 
ATOM     80  C   UNL     1       4.373 -19.957   2.268  1.00  0.00     0.131 A 
ATOM     81  C   UNL     1       1.728 -20.422   1.604  1.00  0.00     0.055 A 
ATOM     82  C   UNL     1       3.869 -21.258   2.314  1.00  0.00     0.041 A 
ATOM     83  F   UNL     1       5.652 -19.774   2.633  1.00  0.00    -0.206 F 
ATOM     84  C   UNL     1       2.535 -21.493   1.995  1.00  0.00     0.022 A 
BRANCH  81  85
ATOM     85  S   UNL     1      -0.047 -20.673   1.335  1.00  0.00     0.124 S 
ATOM     86  O   UNL     1      -0.634 -19.779   2.328  1.00  0.00    -0.237 OA
ATOM     87  O   UNL     1      -0.212 -20.274  -0.059  1.00  0.00    -0.237 OA
ATOM     88  O   UNL     1      -0.235 -22.099   1.596  1.00  0.00    -0.744 OA
ENDBRANCH  81  85
ENDBRANCH  55  78
ENDBRANCH  29  30
ENDBRANCH  21  24
ENDBRANCH  19  20
ENDBRANCH  18  19
ENDBRANCH  17  18
ENDBRANCH   1  17
TORSDOF 19
