REMARK SMILES C[NH+](C)CCCNC(=O)[C@@H]1[C@@H](C(=O)NCCCCCCNC(=O)c2ccc(-c3c4nc(c(-c5cc(S(=O)(=O)[O-])ccc5F)c5ccc([nH]5)c(-c5cc(S(=O)(=O)[O-])ccc5F)c5nc(c(-c6cc(S(=O)(=O)[O-])ccc6F)c6ccc3[nH]6)C=C5)C=C4)cc2)C1(C)C
REMARK SMILES IDX 16 1 15 2 14 3 12 4 13 5 11 7 10 8 87 9 88 10 89 11 8 12
REMARK SMILES IDX 7 13 9 15 6 16 5 17 4 18 2 19 1 20 3 21 17 23 18 24 19 25
REMARK SMILES IDX 20 26 21 27 22 28 23 30 24 31 25 32 86 33 26 34 85 35 27 36
REMARK SMILES IDX 28 37 29 38 79 39 30 40 84 41 78 42 80 43 31 44 83 45 77 46
REMARK SMILES IDX 76 47 32 49 64 50 44 51 63 52 45 53 48 54 62 55 81 56 46 57
REMARK SMILES IDX 47 58 61 60 82 61 49 62 33 63 34 64 42 65 35 66 41 67 43 68
REMARK SMILES IDX 40 69 36 70 37 71 38 72 39 73 65 74 66 75 74 76 67 77 73 78
REMARK SMILES IDX 75 79 72 80 68 81 69 82 70 83 71 84 50 85 51 86 59 87 52 88
REMARK SMILES IDX 58 89 60 90 57 91 53 92 54 93 55 94 56 95
REMARK H PARENT 14 6 7 14 2 22 21 29 80 48 48 59
REMARK Flexibility Score: inf
ROOT
ATOM      1  C   UNL     1       1.661   2.165   1.664  1.00  0.00     0.021 C 
ENDROOT
BRANCH   1   2
ATOM      2  C   UNL     1       1.973   2.165   0.167  1.00  0.00     0.116 C 
BRANCH   2   3
ATOM      3  N   UNL     1       0.766   2.355  -0.606  1.00  0.00    -0.356 N 
ATOM      4  C   UNL     1       0.305   3.351  -1.415  1.00  0.00     0.224 C 
ATOM      5  O   UNL     1      -0.879   3.276  -1.748  1.00  0.00    -0.275 OA
ATOM      6  H   UNL     1       0.140   1.600  -0.531  1.00  0.00     0.163 HD
BRANCH   4   7
ATOM      7  C   UNL     1       1.105   4.452  -2.001  1.00  0.00     0.098 C 
ATOM      8  C   UNL     1       2.602   4.516  -2.140  1.00  0.00     0.098 C 
ATOM      9  C   UNL     1       1.864   5.553  -1.278  1.00  0.00    -0.011 C 
ATOM     10  C   UNL     1       2.110   5.505   0.211  1.00  0.00     0.013 C 
ATOM     11  C   UNL     1       1.685   6.965  -1.790  1.00  0.00     0.013 C 
BRANCH   8  12
ATOM     12  C   UNL     1       3.144   4.759  -3.502  1.00  0.00     0.224 C 
ATOM     13  N   UNL     1       3.478   3.657  -4.246  1.00  0.00    -0.356 N 
ATOM     14  H   UNL     1       3.804   3.833  -5.158  1.00  0.00     0.163 HD
ATOM     15  O   UNL     1       3.298   5.885  -3.954  1.00  0.00    -0.275 OA
BRANCH  13  16
ATOM     16  C   UNL     1       3.408   2.263  -3.849  1.00  0.00     0.121 C 
BRANCH  16  17
ATOM     17  C   UNL     1       3.139   1.321  -5.016  1.00  0.00     0.083 C 
BRANCH  17  18
ATOM     18  C   UNL     1       4.167   1.315  -6.158  1.00  0.00     0.263 C 
BRANCH  18  19
ATOM     19  N   UNL     1       5.500   0.752  -5.940  1.00  0.00    -0.340 N 
ATOM     20  C   UNL     1       6.404   1.581  -5.155  1.00  0.00     0.332 C 
ATOM     21  C   UNL     1       5.490  -0.628  -5.471  1.00  0.00     0.332 C 
ATOM     22  H   UNL     1       5.893   0.743  -6.881  1.00  0.00     0.347 HD
ENDBRANCH  18  19
ENDBRANCH  17  18
ENDBRANCH  16  17
ENDBRANCH  13  16
ENDBRANCH   8  12
ENDBRANCH   4   7
ENDBRANCH   2   3
ENDBRANCH   1   2
BRANCH   1  23
ATOM     23  C   UNL     1       1.000   0.881   2.171  1.00  0.00     0.002 C 
BRANCH  23  24
ATOM     24  C   UNL     1       1.810  -0.398   1.943  1.00  0.00     0.002 C 
BRANCH  24  25
ATOM     25  C   UNL     1       3.262  -0.338   2.422  1.00  0.00     0.021 C 
BRANCH  25  26
ATOM     26  C   UNL     1       3.430   0.028   3.893  1.00  0.00     0.116 C 
BRANCH  26  27
ATOM     27  N   UNL     1       2.808  -0.952   4.767  1.00  0.00    -0.352 N 
ATOM     28  C   UNL     1       3.376  -1.709   5.761  1.00  0.00     0.251 C 
ATOM     29  H   UNL     1       1.844  -1.092   4.626  1.00  0.00     0.163 HD
ATOM     30  O   UNL     1       2.756  -2.658   6.233  1.00  0.00    -0.269 OA
BRANCH  28  31
ATOM     31  C   UNL     1       4.738  -1.389   6.237  1.00  0.00     0.039 A 
ATOM     32  C   UNL     1       5.647  -2.428   6.444  1.00  0.00     0.014 A 
ATOM     33  C   UNL     1       5.117  -0.064   6.476  1.00  0.00     0.014 A 
ATOM     34  C   UNL     1       6.954  -2.134   6.837  1.00  0.00     0.010 A 
ATOM     35  C   UNL     1       6.441   0.232   6.785  1.00  0.00     0.010 A 
ATOM     36  C   UNL     1       7.372  -0.800   6.977  1.00  0.00    -0.014 A 
BRANCH  36  37
ATOM     37  C   UNL     1       8.776  -0.467   7.332  1.00  0.00     0.031 A 
ATOM     38  C   UNL     1       9.082   0.251   8.618  1.00  0.00     0.074 A 
ATOM     39  C   UNL     1       9.770  -0.766   6.473  1.00  0.00     0.049 A 
ATOM     40  N   UNL     1      10.231   0.671   9.081  1.00  0.00    -0.248 NA
ATOM     41  C   UNL     1       7.934   0.567   9.480  1.00  0.00     0.031 C 
ATOM     42  C   UNL     1       9.596  -1.432   5.181  1.00  0.00     0.029 A 
ATOM     43  N   UNL     1      11.123  -0.550   6.555  1.00  0.00    -0.354 N 
ATOM     44  C   UNL     1       9.945   1.307  10.284  1.00  0.00     0.074 A 
ATOM     45  C   UNL     1       8.505   1.286  10.433  1.00  0.00     0.031 C 
ATOM     46  C   UNL     1      10.799  -1.608   4.613  1.00  0.00     0.029 A 
ATOM     47  C   UNL     1      11.824  -1.020   5.470  1.00  0.00     0.049 A 
ATOM     48  H   UNL     1      11.551  -0.100   7.319  1.00  0.00     0.167 HD
ATOM     49  C   UNL     1      10.804   1.835  11.193  1.00  0.00     0.034 A 
ATOM     50  C   UNL     1      13.142  -0.976   5.192  1.00  0.00     0.034 A 
ATOM     51  C   UNL     1      12.238   1.852  11.021  1.00  0.00     0.049 A 
ATOM     52  C   UNL     1      14.075  -0.332   6.184  1.00  0.00     0.074 A 
ATOM     53  C   UNL     1      13.206   2.318  11.893  1.00  0.00     0.029 A 
ATOM     54  N   UNL     1      12.910   1.398   9.891  1.00  0.00    -0.354 N 
ATOM     55  N   UNL     1      13.796   0.222   7.342  1.00  0.00    -0.248 NA
ATOM     56  C   UNL     1      15.500  -0.315   5.835  1.00  0.00     0.031 C 
ATOM     57  C   UNL     1      14.450   2.228  11.257  1.00  0.00     0.029 A 
ATOM     58  C   UNL     1      14.274   1.615  10.027  1.00  0.00     0.049 A 
ATOM     59  H   UNL     1      12.481   0.983   9.108  1.00  0.00     0.167 HD
ATOM     60  C   UNL     1      15.019   0.623   7.875  1.00  0.00     0.074 A 
ATOM     61  C   UNL     1      16.034   0.236   6.915  1.00  0.00     0.031 C 
ATOM     62  C   UNL     1      15.279   1.244   9.054  1.00  0.00     0.034 A 
BRANCH  49  63
ATOM     63  C   UNL     1      10.200   2.466  12.428  1.00  0.00     0.023 A 
ATOM     64  C   UNL     1       9.387   1.731  13.311  1.00  0.00     0.031 A 
ATOM     65  C   UNL     1      10.381   3.834  12.695  1.00  0.00     0.131 A 
ATOM     66  C   UNL     1       8.700   2.385  14.344  1.00  0.00     0.055 A 
ATOM     67  C   UNL     1       9.777   4.459  13.790  1.00  0.00     0.041 A 
ATOM     68  F   UNL     1      11.126   4.599  11.882  1.00  0.00    -0.206 F 
ATOM     69  C   UNL     1       8.912   3.739  14.608  1.00  0.00     0.022 A 
BRANCH  66  70
ATOM     70  S   UNL     1       7.375   1.488  15.199  1.00  0.00     0.124 S 
ATOM     71  O   UNL     1       6.518   1.094  14.083  1.00  0.00    -0.237 OA
ATOM     72  O   UNL     1       8.100   0.410  15.861  1.00  0.00    -0.237 OA
ATOM     73  O   UNL     1       6.799   2.494  16.089  1.00  0.00    -0.744 OA
ENDBRANCH  66  70
ENDBRANCH  49  63
BRANCH  50  74
ATOM     74  C   UNL     1      13.659  -1.565   3.924  1.00  0.00     0.023 A 
ATOM     75  C   UNL     1      14.514  -2.678   3.943  1.00  0.00     0.031 A 
ATOM     76  C   UNL     1      13.317  -1.017   2.675  1.00  0.00     0.131 A 
ATOM     77  C   UNL     1      15.027  -3.187   2.740  1.00  0.00     0.055 A 
ATOM     78  C   UNL     1      13.788  -1.560   1.478  1.00  0.00     0.041 A 
ATOM     79  F   UNL     1      12.498   0.044   2.599  1.00  0.00    -0.206 F 
ATOM     80  C   UNL     1      14.657  -2.646   1.507  1.00  0.00     0.022 A 
BRANCH  77  81
ATOM     81  S   UNL     1      16.243  -4.530   2.813  1.00  0.00     0.124 S 
ATOM     82  O   UNL     1      17.319  -3.915   3.582  1.00  0.00    -0.237 OA
ATOM     83  O   UNL     1      15.491  -5.583   3.488  1.00  0.00    -0.237 OA
ATOM     84  O   UNL     1      16.548  -4.789   1.408  1.00  0.00    -0.744 OA
ENDBRANCH  77  81
ENDBRANCH  50  74
BRANCH  62  85
ATOM     85  C   UNL     1      16.729   1.504   9.391  1.00  0.00     0.023 A 
ATOM     86  C   UNL     1      17.524   2.381   8.633  1.00  0.00     0.031 A 
ATOM     87  C   UNL     1      17.327   0.853  10.486  1.00  0.00     0.131 A 
ATOM     88  C   UNL     1      18.885   2.536   8.941  1.00  0.00     0.055 A 
ATOM     89  C   UNL     1      18.662   1.067  10.831  1.00  0.00     0.041 A 
ATOM     90  F   UNL     1      16.620  -0.002  11.243  1.00  0.00    -0.206 F 
ATOM     91  C   UNL     1      19.453   1.901  10.049  1.00  0.00     0.022 A 
BRANCH  88  92
ATOM     92  S   UNL     1      19.931   3.495   7.811  1.00  0.00     0.124 S 
ATOM     93  O   UNL     1      19.746   2.782   6.551  1.00  0.00    -0.237 OA
ATOM     94  O   UNL     1      19.335   4.824   7.885  1.00  0.00    -0.237 OA
ATOM     95  O   UNL     1      21.265   3.380   8.397  1.00  0.00    -0.744 OA
ENDBRANCH  88  92
ENDBRANCH  62  85
ENDBRANCH  36  37
ENDBRANCH  28  31
ENDBRANCH  26  27
ENDBRANCH  25  26
ENDBRANCH  24  25
ENDBRANCH  23  24
ENDBRANCH   1  23
TORSDOF 21
