REMARK SMILES O=C(CCC(=O)N1CCCn2nc(-c3ccccc3)cc21)NCCCCCCNC(=O)c1ccc(-c2c3nc(c(-c4cc(S(=O)(=O)[O-])ccc4F)c4ccc([nH]4)c(-c4cc(S(=O)(=O)[O-])ccc4F)c4nc(c(-c5cc(S(=O)(=O)[O-])ccc5F)c5ccc2[nH]5)C=C4)C=C3)cc1
REMARK SMILES IDX 25 1 24 2 23 3 22 4 1 5 2 6 3 8 4 9 5 10 6 11 7 12 8 13
REMARK SMILES IDX 21 14 9 15 11 16 20 17 10 18 12 19 13 20 14 21 15 22 19 23
REMARK SMILES IDX 16 24 18 25 17 26 26 27 27 28 28 29 29 30 30 31 31 33 32 34
REMARK SMILES IDX 33 35 94 36 34 37 93 38 35 39 36 40 37 41 87 42 38 43 92 44
REMARK SMILES IDX 86 45 88 46 39 47 91 48 85 49 84 50 40 52 72 53 52 54 71 55
REMARK SMILES IDX 53 56 56 57 70 58 89 59 54 60 55 61 69 63 90 64 57 65 41 66
REMARK SMILES IDX 42 67 50 68 43 69 49 70 51 71 48 72 44 73 45 74 46 75 47 76
REMARK SMILES IDX 73 77 74 78 82 79 75 80 81 81 83 82 80 83 76 84 77 85 78 86
REMARK SMILES IDX 79 87 58 88 59 89 67 90 60 91 66 92 68 93 65 94 61 95 62 96
REMARK SMILES IDX 63 97 64 98
REMARK H PARENT 22 7 29 32 88 51 56 62
REMARK Flexibility Score: inf
ROOT
ATOM      1  C   UNL     1       4.034  -3.638   0.225  1.00  0.00     0.002 C 
ENDROOT
BRANCH   1   2
ATOM      2  C   UNL     1       2.505  -3.783   0.128  1.00  0.00     0.021 C 
BRANCH   2   3
ATOM      3  C   UNL     1       1.694  -2.489  -0.098  1.00  0.00     0.116 C 
BRANCH   3   4
ATOM      4  N   UNL     1       2.400  -1.448  -0.837  1.00  0.00    -0.356 N 
ATOM      5  O   UNL     1       1.163   0.300  -0.018  1.00  0.00    -0.275 OA
ATOM      6  C   UNL     1       2.148  -0.110  -0.625  1.00  0.00     0.220 C 
ATOM      7  H   UNL     1       3.075  -1.708  -1.505  1.00  0.00     0.163 HD
BRANCH   6   8
ATOM      8  C   UNL     1       3.304   0.811  -0.980  1.00  0.00     0.110 C 
BRANCH   8   9
ATOM      9  C   UNL     1       3.595   1.796   0.166  1.00  0.00     0.110 C 
BRANCH   9  10
ATOM     10  C   UNL     1       4.682   1.390   1.156  1.00  0.00     0.228 C 
ATOM     11  O   UNL     1       5.860   1.713   0.988  1.00  0.00    -0.274 OA
BRANCH  10  12
ATOM     12  N   UNL     1       4.317   0.647   2.350  1.00  0.00    -0.297 N 
ATOM     13  C   UNL     1       3.064  -0.134   2.372  1.00  0.00     0.129 C 
ATOM     14  C   UNL     1       5.099   0.619   3.511  1.00  0.00     0.134 A 
ATOM     15  C   UNL     1       3.129  -1.329   3.305  1.00  0.00     0.046 C 
ATOM     16  N   UNL     1       4.754  -0.138   4.598  1.00  0.00    -0.249 N 
ATOM     17  C   UNL     1       6.232   1.300   3.902  1.00  0.00     0.077 A 
ATOM     18  C   UNL     1       3.548  -0.926   4.693  1.00  0.00     0.148 C 
ATOM     19  N   UNL     1       5.577  -0.051   5.629  1.00  0.00    -0.171 NA
ATOM     20  C   UNL     1       6.466   0.876   5.249  1.00  0.00     0.095 A 
BRANCH  20  21
ATOM     21  C   UNL     1       7.399   1.356   6.253  1.00  0.00     0.002 A 
ATOM     22  C   UNL     1       8.267   0.454   6.884  1.00  0.00     0.010 A 
ATOM     23  C   UNL     1       7.256   2.651   6.760  1.00  0.00     0.010 A 
ATOM     24  C   UNL     1       8.967   0.839   8.027  1.00  0.00     0.001 A 
ATOM     25  C   UNL     1       7.949   3.029   7.911  1.00  0.00     0.001 A 
ATOM     26  C   UNL     1       8.797   2.121   8.547  1.00  0.00     0.000 A 
ENDBRANCH  20  21
ENDBRANCH  10  12
ENDBRANCH   9  10
ENDBRANCH   8   9
ENDBRANCH   6   8
ENDBRANCH   3   4
ENDBRANCH   2   3
ENDBRANCH   1   2
BRANCH   1  27
ATOM     27  C   UNL     1       4.835  -4.054   1.474  1.00  0.00     0.002 C 
BRANCH  27  28
ATOM     28  C   UNL     1       4.137  -4.593   2.724  1.00  0.00     0.021 C 
BRANCH  28  29
ATOM     29  C   UNL     1       4.278  -6.100   2.895  1.00  0.00     0.116 C 
BRANCH  29  30
ATOM     30  N   UNL     1       5.655  -6.490   3.166  1.00  0.00    -0.352 N 
ATOM     31  C   UNL     1       6.145  -7.473   3.992  1.00  0.00     0.251 C 
ATOM     32  H   UNL     1       6.339  -5.970   2.684  1.00  0.00     0.163 HD
ATOM     33  O   UNL     1       7.356  -7.537   4.188  1.00  0.00    -0.269 OA
BRANCH  31  34
ATOM     34  C   UNL     1       5.225  -8.418   4.665  1.00  0.00     0.039 A 
ATOM     35  C   UNL     1       5.520  -8.838   5.967  1.00  0.00     0.014 A 
ATOM     36  C   UNL     1       4.090  -8.911   4.019  1.00  0.00     0.014 A 
ATOM     37  C   UNL     1       4.655  -9.713   6.630  1.00  0.00     0.010 A 
ATOM     38  C   UNL     1       3.183  -9.706   4.710  1.00  0.00     0.010 A 
ATOM     39  C   UNL     1       3.467 -10.136   6.014  1.00  0.00    -0.014 A 
BRANCH  39  40
ATOM     40  C   UNL     1       2.541 -11.091   6.676  1.00  0.00     0.031 A 
ATOM     41  C   UNL     1       2.298 -12.436   6.042  1.00  0.00     0.074 A 
ATOM     42  C   UNL     1       1.882 -10.729   7.794  1.00  0.00     0.049 A 
ATOM     43  N   UNL     1       1.434 -13.363   6.365  1.00  0.00    -0.248 NA
ATOM     44  C   UNL     1       3.109 -12.761   4.857  1.00  0.00     0.031 C 
ATOM     45  C   UNL     1       2.011  -9.437   8.473  1.00  0.00     0.029 A 
ATOM     46  N   UNL     1       0.963 -11.409   8.552  1.00  0.00    -0.354 N 
ATOM     47  C   UNL     1       1.587 -14.369   5.415  1.00  0.00     0.074 A 
ATOM     48  C   UNL     1       2.567 -13.901   4.460  1.00  0.00     0.031 C 
ATOM     49  C   UNL     1       1.217  -9.428   9.556  1.00  0.00     0.029 A 
ATOM     50  C   UNL     1       0.490 -10.691   9.627  1.00  0.00     0.049 A 
ATOM     51  H   UNL     1       0.668 -12.325   8.346  1.00  0.00     0.167 HD
ATOM     52  C   UNL     1       0.993 -15.587   5.365  1.00  0.00     0.034 A 
ATOM     53  C   UNL     1      -0.431 -11.016  10.556  1.00  0.00     0.034 A 
ATOM     54  C   UNL     1       0.043 -16.047   6.347  1.00  0.00     0.049 A 
ATOM     55  C   UNL     1      -1.069 -12.383  10.486  1.00  0.00     0.074 A 
ATOM     56  C   UNL     1      -0.617 -17.261   6.411  1.00  0.00     0.029 A 
ATOM     57  N   UNL     1      -0.367 -15.312   7.452  1.00  0.00    -0.354 N 
ATOM     58  N   UNL     1      -0.901 -13.328   9.588  1.00  0.00    -0.248 NA
ATOM     59  C   UNL     1      -2.000 -12.737  11.565  1.00  0.00     0.031 C 
ATOM     60  C   UNL     1      -1.458 -17.244   7.529  1.00  0.00     0.029 A 
ATOM     61  C   UNL     1      -1.270 -16.047   8.202  1.00  0.00     0.049 A 
ATOM     62  H   UNL     1      -0.061 -14.402   7.671  1.00  0.00     0.167 HD
ATOM     63  C   UNL     1      -1.673 -14.403  10.022  1.00  0.00     0.074 A 
ATOM     64  C   UNL     1      -2.291 -13.994  11.266  1.00  0.00     0.031 C 
ATOM     65  C   UNL     1      -1.857 -15.620   9.448  1.00  0.00     0.034 A 
BRANCH  52  66
ATOM     66  C   UNL     1       1.359 -16.493   4.214  1.00  0.00     0.023 A 
ATOM     67  C   UNL     1       2.676 -16.956   4.037  1.00  0.00     0.031 A 
ATOM     68  C   UNL     1       0.396 -16.878   3.266  1.00  0.00     0.131 A 
ATOM     69  C   UNL     1       3.009 -17.705   2.900  1.00  0.00     0.055 A 
ATOM     70  C   UNL     1       0.716 -17.699   2.182  1.00  0.00     0.041 A 
ATOM     71  F   UNL     1      -0.872 -16.449   3.367  1.00  0.00    -0.206 F 
ATOM     72  C   UNL     1       2.033 -18.106   1.986  1.00  0.00     0.022 A 
BRANCH  69  73
ATOM     73  S   UNL     1       4.761 -18.027   2.561  1.00  0.00     0.124 S 
ATOM     74  O   UNL     1       5.277 -16.671   2.385  1.00  0.00    -0.237 OA
ATOM     75  O   UNL     1       5.195 -18.724   3.766  1.00  0.00    -0.237 OA
ATOM     76  O   UNL     1       4.732 -18.837   1.345  1.00  0.00    -0.744 OA
ENDBRANCH  69  73
ENDBRANCH  52  66
BRANCH  53  77
ATOM     77  C   UNL     1      -0.811 -10.051  11.629  1.00  0.00     0.023 A 
ATOM     78  C   UNL     1      -0.590 -10.350  12.982  1.00  0.00     0.031 A 
ATOM     79  C   UNL     1      -1.462  -8.842  11.322  1.00  0.00     0.131 A 
ATOM     80  C   UNL     1      -1.079  -9.492  13.980  1.00  0.00     0.055 A 
ATOM     81  C   UNL     1      -1.890  -7.960  12.317  1.00  0.00     0.041 A 
ATOM     82  F   UNL     1      -1.691  -8.498  10.045  1.00  0.00    -0.206 F 
ATOM     83  C   UNL     1      -1.717  -8.293  13.656  1.00  0.00     0.022 A 
BRANCH  80  84
ATOM     84  S   UNL     1      -0.977 -10.028  15.710  1.00  0.00     0.124 S 
ATOM     85  O   UNL     1      -1.628 -11.332  15.654  1.00  0.00    -0.237 OA
ATOM     86  O   UNL     1       0.464 -10.038  15.936  1.00  0.00    -0.237 OA
ATOM     87  O   UNL     1      -1.714  -8.991  16.429  1.00  0.00    -0.744 OA
ENDBRANCH  80  84
ENDBRANCH  53  77
BRANCH  65  88
ATOM     88  C   UNL     1      -2.704 -16.611  10.205  1.00  0.00     0.023 A 
ATOM     89  C   UNL     1      -4.080 -16.410  10.403  1.00  0.00     0.031 A 
ATOM     90  C   UNL     1      -2.116 -17.767  10.748  1.00  0.00     0.131 A 
ATOM     91  C   UNL     1      -4.812 -17.320  11.181  1.00  0.00     0.055 A 
ATOM     92  C   UNL     1      -2.862 -18.701  11.467  1.00  0.00     0.041 A 
ATOM     93  F   UNL     1      -0.805 -18.008  10.586  1.00  0.00    -0.206 F 
ATOM     94  C   UNL     1      -4.215 -18.471  11.701  1.00  0.00     0.022 A 
BRANCH  91  95
ATOM     95  S   UNL     1      -6.533 -16.922  11.588  1.00  0.00     0.124 S 
ATOM     96  O   UNL     1      -6.398 -15.627  12.246  1.00  0.00    -0.237 OA
ATOM     97  O   UNL     1      -7.167 -16.904  10.273  1.00  0.00    -0.237 OA
ATOM     98  O   UNL     1      -6.942 -18.022  12.459  1.00  0.00    -0.744 OA
ENDBRANCH  91  95
ENDBRANCH  65  88
ENDBRANCH  39  40
ENDBRANCH  31  34
ENDBRANCH  29  30
ENDBRANCH  28  29
ENDBRANCH  27  28
ENDBRANCH   1  27
TORSDOF 20
