REMARK SMILES O=C(NCCCCCCNC(=O)c1nnn(-c2cccc(OC(F)(F)F)c2)c1-c1ccncc1)c1ccc(-c2c3nc(c(-c4cc(S(=O)(=O)[O-])ccc4F)c4ccc([nH]4)c(-c4cc(S(=O)(=O)[O-])ccc4F)c4nc(c(-c5cc(S(=O)(=O)[O-])ccc5F)c5ccc2[nH]5)C=C4)C=C3)cc1
REMARK SMILES IDX 6 1 5 2 4 3 3 4 1 5 2 6 35 8 36 9 97 10 37 11 96 12 38 13
REMARK SMILES IDX 39 14 40 15 90 16 41 17 95 18 89 19 91 20 42 21 94 22 88 23
REMARK SMILES IDX 87 24 43 26 75 27 55 28 74 29 56 30 59 31 73 32 92 33 57 34
REMARK SMILES IDX 58 35 72 37 93 38 60 39 44 40 45 41 53 42 46 43 52 44 54 45
REMARK SMILES IDX 51 46 47 47 48 48 49 49 50 50 76 51 77 52 85 53 78 54 84 55
REMARK SMILES IDX 86 56 83 57 79 58 80 59 81 60 82 61 61 62 62 63 70 64 63 65
REMARK SMILES IDX 69 66 71 67 68 68 64 69 65 70 66 71 67 72 7 73 8 74 9 75
REMARK SMILES IDX 10 76 11 77 12 79 13 80 14 81 28 82 15 83 16 84 29 85 30 86
REMARK SMILES IDX 34 87 31 88 33 89 32 90 17 91 18 92 27 93 19 94 21 95 20 96
REMARK SMILES IDX 22 97 23 98 24 99 25 100 26 101
REMARK H PARENT 3 7 91 25 59 36 10 78
REMARK Flexibility Score: inf
ROOT
ATOM      1  C   UNL     1       4.163   3.310   1.231  1.00  0.00     0.002 C 
ENDROOT
BRANCH   1   2
ATOM      2  C   UNL     1       4.723   2.285   0.234  1.00  0.00     0.021 C 
BRANCH   2   3
ATOM      3  C   UNL     1       4.539   0.823   0.632  1.00  0.00     0.116 C 
BRANCH   3   4
ATOM      4  N   UNL     1       3.160   0.418   0.803  1.00  0.00    -0.352 N 
ATOM      5  O   UNL     1       1.117  -0.359   0.511  1.00  0.00    -0.269 OA
ATOM      6  C   UNL     1       2.162   0.006  -0.036  1.00  0.00     0.251 C 
ATOM      7  H   UNL     1       2.873   0.446   1.745  1.00  0.00     0.163 HD
BRANCH   6   8
ATOM      8  C   UNL     1       2.229   0.009  -1.524  1.00  0.00     0.039 A 
ATOM      9  C   UNL     1       3.394   0.051  -2.291  1.00  0.00     0.014 A 
ATOM     10  C   UNL     1       0.992  -0.059  -2.193  1.00  0.00     0.014 A 
ATOM     11  C   UNL     1       3.322   0.081  -3.685  1.00  0.00     0.010 A 
ATOM     12  C   UNL     1       0.916  -0.044  -3.585  1.00  0.00     0.010 A 
ATOM     13  C   UNL     1       2.084   0.046  -4.335  1.00  0.00    -0.014 A 
BRANCH  13  14
ATOM     14  C   UNL     1       2.069  -0.076  -5.797  1.00  0.00     0.031 A 
ATOM     15  C   UNL     1       2.675  -1.334  -6.333  1.00  0.00     0.074 A 
ATOM     16  C   UNL     1       1.424   0.768  -6.629  1.00  0.00     0.049 A 
ATOM     17  N   UNL     1       3.650  -1.469  -7.172  1.00  0.00    -0.248 NA
ATOM     18  C   UNL     1       2.178  -2.611  -5.795  1.00  0.00     0.031 C 
ATOM     19  C   UNL     1       0.539   1.879  -6.275  1.00  0.00     0.029 A 
ATOM     20  N   UNL     1       1.348   0.738  -7.994  1.00  0.00    -0.354 N 
ATOM     21  C   UNL     1       3.777  -2.837  -7.414  1.00  0.00     0.074 A 
ATOM     22  C   UNL     1       2.937  -3.493  -6.447  1.00  0.00     0.031 C 
ATOM     23  C   UNL     1      -0.144   2.275  -7.373  1.00  0.00     0.029 A 
ATOM     24  C   UNL     1       0.345   1.540  -8.530  1.00  0.00     0.049 A 
ATOM     25  H   UNL     1       1.951   0.194  -8.550  1.00  0.00     0.167 HD
ATOM     26  C   UNL     1       4.440  -3.328  -8.500  1.00  0.00     0.034 A 
ATOM     27  C   UNL     1      -0.096   1.566  -9.817  1.00  0.00     0.034 A 
ATOM     28  C   UNL     1       5.343  -2.349  -9.052  1.00  0.00     0.049 A 
ATOM     29  C   UNL     1       0.981   1.004 -10.665  1.00  0.00     0.074 A 
ATOM     30  C   UNL     1       6.434  -1.659  -8.559  1.00  0.00     0.029 A 
ATOM     31  N   UNL     1       4.971  -1.672 -10.190  1.00  0.00    -0.354 N 
ATOM     32  N   UNL     1       2.139   1.580 -10.835  1.00  0.00    -0.248 NA
ATOM     33  C   UNL     1       0.948  -0.418 -10.968  1.00  0.00     0.031 C 
ATOM     34  C   UNL     1       6.312  -0.346  -9.104  1.00  0.00     0.029 A 
ATOM     35  C   UNL     1       5.199  -0.338  -9.947  1.00  0.00     0.049 A 
ATOM     36  H   UNL     1       4.612  -2.066 -11.017  1.00  0.00     0.167 HD
ATOM     37  C   UNL     1       3.058   0.544 -10.837  1.00  0.00     0.074 A 
ATOM     38  C   UNL     1       2.260  -0.666 -11.021  1.00  0.00     0.031 C 
ATOM     39  C   UNL     1       4.345   0.735 -10.420  1.00  0.00     0.034 A 
BRANCH  26  40
ATOM     40  C   UNL     1       4.082  -4.604  -9.229  1.00  0.00     0.023 A 
ATOM     41  C   UNL     1       4.907  -5.024 -10.293  1.00  0.00     0.031 A 
ATOM     42  C   UNL     1       2.843  -5.275  -9.114  1.00  0.00     0.131 A 
ATOM     43  C   UNL     1       4.471  -6.003 -11.207  1.00  0.00     0.055 A 
ATOM     44  C   UNL     1       2.443  -6.294  -9.984  1.00  0.00     0.041 A 
ATOM     45  F   UNL     1       1.914  -4.920  -8.219  1.00  0.00    -0.206 F 
ATOM     46  C   UNL     1       3.246  -6.646 -11.054  1.00  0.00     0.022 A 
BRANCH  43  47
ATOM     47  S   UNL     1       5.456  -6.305 -12.700  1.00  0.00     0.124 S 
ATOM     48  O   UNL     1       5.604  -4.957 -13.238  1.00  0.00    -0.237 OA
ATOM     49  O   UNL     1       6.662  -6.914 -12.147  1.00  0.00    -0.237 OA
ATOM     50  O   UNL     1       4.612  -7.200 -13.488  1.00  0.00    -0.744 OA
ENDBRANCH  43  47
ENDBRANCH  26  40
BRANCH  27  51
ATOM     51  C   UNL     1      -1.498   1.739 -10.289  1.00  0.00     0.023 A 
ATOM     52  C   UNL     1      -1.829   2.129 -11.606  1.00  0.00     0.031 A 
ATOM     53  C   UNL     1      -2.561   1.271  -9.483  1.00  0.00     0.131 A 
ATOM     54  C   UNL     1      -3.168   2.047 -12.058  1.00  0.00     0.055 A 
ATOM     55  C   UNL     1      -3.880   1.198  -9.932  1.00  0.00     0.041 A 
ATOM     56  F   UNL     1      -2.335   0.783  -8.253  1.00  0.00    -0.206 F 
ATOM     57  C   UNL     1      -4.189   1.579 -11.227  1.00  0.00     0.022 A 
BRANCH  54  58
ATOM     58  S   UNL     1      -3.594   2.463 -13.783  1.00  0.00     0.124 S 
ATOM     59  O   UNL     1      -3.382   3.905 -13.817  1.00  0.00    -0.237 OA
ATOM     60  O   UNL     1      -2.654   1.649 -14.544  1.00  0.00    -0.237 OA
ATOM     61  O   UNL     1      -4.993   2.046 -13.899  1.00  0.00    -0.744 OA
ENDBRANCH  54  58
ENDBRANCH  27  51
BRANCH  39  62
ATOM     62  C   UNL     1       4.836   2.155 -10.210  1.00  0.00     0.023 A 
ATOM     63  C   UNL     1       4.221   3.103  -9.358  1.00  0.00     0.031 A 
ATOM     64  C   UNL     1       6.053   2.521 -10.813  1.00  0.00     0.131 A 
ATOM     65  C   UNL     1       4.818   4.363  -9.152  1.00  0.00     0.055 A 
ATOM     66  C   UNL     1       6.653   3.760 -10.588  1.00  0.00     0.041 A 
ATOM     67  F   UNL     1       6.704   1.659 -11.611  1.00  0.00    -0.206 F 
ATOM     68  C   UNL     1       6.034   4.689  -9.761  1.00  0.00     0.022 A 
BRANCH  65  69
ATOM     69  S   UNL     1       4.013   5.610  -8.094  1.00  0.00     0.124 S 
ATOM     70  O   UNL     1       2.640   5.638  -8.583  1.00  0.00    -0.237 OA
ATOM     71  O   UNL     1       4.207   5.060  -6.755  1.00  0.00    -0.237 OA
ATOM     72  O   UNL     1       4.779   6.829  -8.364  1.00  0.00    -0.744 OA
ENDBRANCH  65  69
ENDBRANCH  39  62
ENDBRANCH  13  14
ENDBRANCH   6   8
ENDBRANCH   3   4
ENDBRANCH   2   3
ENDBRANCH   1   2
BRANCH   1  73
ATOM     73  C   UNL     1       4.589   3.145   2.696  1.00  0.00     0.002 C 
BRANCH  73  74
ATOM     74  C   UNL     1       6.094   3.047   2.956  1.00  0.00     0.021 C 
BRANCH  74  75
ATOM     75  C   UNL     1       6.901   4.258   2.510  1.00  0.00     0.116 C 
BRANCH  75  76
ATOM     76  N   UNL     1       6.705   5.418   3.360  1.00  0.00    -0.351 N 
ATOM     77  C   UNL     1       7.657   6.279   3.858  1.00  0.00     0.274 C 
ATOM     78  H   UNL     1       5.774   5.615   3.612  1.00  0.00     0.163 HD
ATOM     79  O   UNL     1       7.311   7.176   4.627  1.00  0.00    -0.267 OA
BRANCH  77  80
ATOM     80  C   UNL     1       9.045   6.100   3.460  1.00  0.00     0.178 A 
ATOM     81  N   UNL     1      10.034   5.799   4.366  1.00  0.00    -0.124 NA
ATOM     82  C   UNL     1       9.584   6.111   2.179  1.00  0.00     0.108 A 
ATOM     83  N   UNL     1      11.149   5.544   3.695  1.00  0.00    -0.061 NA
ATOM     84  N   UNL     1      10.930   5.846   2.397  1.00  0.00    -0.212 N 
BRANCH  82  85
ATOM     85  C   UNL     1       8.940   6.150   0.865  1.00  0.00     0.006 A 
ATOM     86  C   UNL     1       8.141   7.224   0.480  1.00  0.00     0.030 A 
ATOM     87  C   UNL     1       9.080   5.060  -0.008  1.00  0.00     0.030 A 
ATOM     88  C   UNL     1       7.522   7.162  -0.757  1.00  0.00     0.111 A 
ATOM     89  C   UNL     1       8.417   5.090  -1.219  1.00  0.00     0.111 A 
ATOM     90  N   UNL     1       7.641   6.118  -1.602  1.00  0.00    -0.265 NA
ENDBRANCH  82  85
BRANCH  84  91
ATOM     91  C   UNL     1      11.957   5.793   1.429  1.00  0.00     0.071 A 
ATOM     92  C   UNL     1      12.867   4.735   1.438  1.00  0.00     0.029 A 
ATOM     93  C   UNL     1      11.973   6.750   0.401  1.00  0.00     0.075 A 
ATOM     94  C   UNL     1      13.730   4.585   0.353  1.00  0.00     0.006 A 
ATOM     95  C   UNL     1      12.855   6.617  -0.665  1.00  0.00     0.131 A 
ATOM     96  C   UNL     1      13.714   5.514  -0.694  1.00  0.00     0.047 A 
BRANCH  95  97
ATOM     97  O   UNL     1      12.958   7.465  -1.731  1.00  0.00    -0.406 OA
BRANCH  97  98
ATOM     98  C   UNL     1      12.175   8.652  -1.705  1.00  0.00     0.573 C 
ATOM     99  F   UNL     1      10.857   8.372  -1.691  1.00  0.00    -0.132 F 
ATOM    100  F   UNL     1      12.481   9.402  -0.622  1.00  0.00    -0.132 F 
ATOM    101  F   UNL     1      12.449   9.383  -2.806  1.00  0.00    -0.132 F 
ENDBRANCH  97  98
ENDBRANCH  95  97
ENDBRANCH  84  91
ENDBRANCH  77  80
ENDBRANCH  75  76
ENDBRANCH  74  75
ENDBRANCH  73  74
ENDBRANCH   1  73
TORSDOF 20
