REMARK SMILES CC(C)[C@H](NS(=O)(=O)CCC(=O)NCCCCCCNC(=O)c1ccc(-c2c3nc(c(-c4cc(S(=O)(=O)[O-])ccc4F)c4ccc([nH]4)c(-c4cc(S(=O)(=O)[O-])ccc4F)c4nc(c(-c5cc(S(=O)(=O)[O-])ccc5F)c5ccc2[nH]5)C=C4)C=C3)cc1)c1ccccc1
REMARK SMILES IDX 15 1 14 2 13 3 11 4 12 5 10 7 9 8 6 9 7 10 8 11 5 12 4 14
REMARK SMILES IDX 2 15 1 16 3 17 86 18 87 19 91 20 88 21 90 22 89 23 16 24
REMARK SMILES IDX 17 25 18 26 19 27 20 28 21 29 22 31 23 32 24 33 85 34 25 35
REMARK SMILES IDX 84 36 26 37 27 38 28 39 78 40 29 41 83 42 77 43 79 44 30 45
REMARK SMILES IDX 82 46 76 47 75 48 31 50 63 51 43 52 62 53 44 54 47 55 61 56
REMARK SMILES IDX 80 57 45 58 46 59 60 61 81 62 48 63 32 64 33 65 41 66 34 67
REMARK SMILES IDX 40 68 42 69 39 70 35 71 36 72 37 73 38 74 64 75 65 76 73 77
REMARK SMILES IDX 66 78 72 79 74 80 71 81 67 82 68 83 69 84 70 85 49 86 50 87
REMARK SMILES IDX 58 88 51 89 57 90 59 91 56 92 52 93 53 94 54 95 55 96
REMARK H PARENT 13 6 5 13 20 30 79 49 47 60
REMARK Flexibility Score: inf
ROOT
ATOM      1  C   UNL     1       1.438   2.756   0.067  1.00  0.00     0.021 C 
ENDROOT
BRANCH   1   2
ATOM      2  C   UNL     1       0.568   3.431   1.154  1.00  0.00     0.116 C 
BRANCH   2   3
ATOM      3  N   UNL     1       0.376   2.563   2.292  1.00  0.00    -0.356 N 
ATOM      4  C   UNL     1       0.166   2.865   3.603  1.00  0.00     0.221 C 
ATOM      5  O   UNL     1      -0.732   3.576   4.030  1.00  0.00    -0.275 OA
ATOM      6  H   UNL     1       0.400   1.601   2.087  1.00  0.00     0.163 HD
BRANCH   4   7
ATOM      7  C   UNL     1       1.189   2.244   4.518  1.00  0.00     0.117 C 
BRANCH   7   8
ATOM      8  C   UNL     1       1.246   0.735   4.592  1.00  0.00     0.164 C 
BRANCH   8   9
ATOM      9  S   UNL     1       1.208  -0.247   3.096  1.00  0.00     0.212 S 
ATOM     10  O   UNL     1       1.735  -1.543   3.483  1.00  0.00    -0.212 OA
ATOM     11  O   UNL     1       1.828   0.428   1.989  1.00  0.00    -0.212 OA
BRANCH   9  12
ATOM     12  N   UNL     1      -0.392  -0.632   2.779  1.00  0.00    -0.207 NA
ATOM     13  H   UNL     1      -0.344  -1.629   2.566  1.00  0.00     0.141 HD
BRANCH  12  14
ATOM     14  C   UNL     1      -1.452  -0.138   1.813  1.00  0.00     0.102 C 
BRANCH  14  15
ATOM     15  C   UNL     1      -2.253  -1.420   1.377  1.00  0.00     0.005 C 
ATOM     16  C   UNL     1      -3.570  -1.154   0.640  1.00  0.00     0.009 C 
ATOM     17  C   UNL     1      -1.398  -2.326   0.467  1.00  0.00     0.009 C 
ENDBRANCH  14  15
BRANCH  14  18
ATOM     18  C   UNL     1      -2.383   0.943   2.377  1.00  0.00    -0.030 A 
ATOM     19  C   UNL     1      -2.605   2.148   1.673  1.00  0.00     0.005 A 
ATOM     20  C   UNL     1      -3.046   0.788   3.599  1.00  0.00     0.005 A 
ATOM     21  C   UNL     1      -3.299   3.220   2.249  1.00  0.00     0.000 A 
ATOM     22  C   UNL     1      -3.786   1.842   4.156  1.00  0.00     0.000 A 
ATOM     23  C   UNL     1      -3.869   3.073   3.506  1.00  0.00     0.000 A 
ENDBRANCH  14  18
ENDBRANCH  12  14
ENDBRANCH   9  12
ENDBRANCH   8   9
ENDBRANCH   7   8
ENDBRANCH   4   7
ENDBRANCH   2   3
ENDBRANCH   1   2
BRANCH   1  24
ATOM     24  C   UNL     1       0.922   1.480  -0.641  1.00  0.00     0.002 C 
BRANCH  24  25
ATOM     25  C   UNL     1      -0.146   1.643  -1.724  1.00  0.00     0.002 C 
BRANCH  25  26
ATOM     26  C   UNL     1       0.258   2.571  -2.864  1.00  0.00     0.021 C 
BRANCH  26  27
ATOM     27  C   UNL     1       1.596   2.236  -3.509  1.00  0.00     0.116 C 
BRANCH  27  28
ATOM     28  N   UNL     1       1.535   1.094  -4.405  1.00  0.00    -0.352 N 
ATOM     29  C   UNL     1       2.216   0.953  -5.610  1.00  0.00     0.251 C 
ATOM     30  H   UNL     1       0.955   0.347  -4.133  1.00  0.00     0.163 HD
ATOM     31  O   UNL     1       2.013   0.038  -6.353  1.00  0.00    -0.269 OA
BRANCH  29  32
ATOM     32  C   UNL     1       3.189   2.029  -5.936  1.00  0.00     0.039 A 
ATOM     33  C   UNL     1       2.962   2.837  -7.051  1.00  0.00     0.014 A 
ATOM     34  C   UNL     1       4.219   2.317  -5.037  1.00  0.00     0.014 A 
ATOM     35  C   UNL     1       3.739   3.984  -7.230  1.00  0.00     0.010 A 
ATOM     36  C   UNL     1       4.937   3.498  -5.179  1.00  0.00     0.010 A 
ATOM     37  C   UNL     1       4.707   4.345  -6.277  1.00  0.00    -0.014 A 
BRANCH  37  38
ATOM     38  C   UNL     1       5.516   5.586  -6.415  1.00  0.00     0.031 A 
ATOM     39  C   UNL     1       7.011   5.473  -6.564  1.00  0.00     0.074 A 
ATOM     40  C   UNL     1       4.929   6.798  -6.330  1.00  0.00     0.049 A 
ATOM     41  N   UNL     1       7.915   6.417  -6.578  1.00  0.00    -0.248 NA
ATOM     42  C   UNL     1       7.562   4.113  -6.677  1.00  0.00     0.031 C 
ATOM     43  C   UNL     1       3.494   7.036  -6.155  1.00  0.00     0.029 A 
ATOM     44  N   UNL     1       5.467   8.063  -6.366  1.00  0.00    -0.354 N 
ATOM     45  C   UNL     1       9.140   5.765  -6.670  1.00  0.00     0.074 A 
ATOM     46  C   UNL     1       8.866   4.345  -6.658  1.00  0.00     0.031 C 
ATOM     47  C   UNL     1       3.266   8.360  -6.120  1.00  0.00     0.029 A 
ATOM     48  C   UNL     1       4.538   9.070  -6.217  1.00  0.00     0.049 A 
ATOM     49  H   UNL     1       6.429   8.233  -6.487  1.00  0.00     0.167 HD
ATOM     50  C   UNL     1      10.379   6.303  -6.773  1.00  0.00     0.034 A 
ATOM     51  C   UNL     1       4.698  10.408  -6.147  1.00  0.00     0.034 A 
ATOM     52  C   UNL     1      10.633   7.720  -6.825  1.00  0.00     0.049 A 
ATOM     53  C   UNL     1       6.096  10.978  -6.252  1.00  0.00     0.074 A 
ATOM     54  C   UNL     1      11.840   8.369  -7.011  1.00  0.00     0.029 A 
ATOM     55  N   UNL     1       9.666   8.706  -6.687  1.00  0.00    -0.354 N 
ATOM     56  N   UNL     1       7.237  10.345  -6.404  1.00  0.00    -0.248 NA
ATOM     57  C   UNL     1       6.227  12.440  -6.186  1.00  0.00     0.031 C 
ATOM     58  C   UNL     1      11.616   9.745  -6.910  1.00  0.00     0.029 A 
ATOM     59  C   UNL     1      10.257   9.958  -6.749  1.00  0.00     0.049 A 
ATOM     60  H   UNL     1       8.704   8.541  -6.564  1.00  0.00     0.167 HD
ATOM     61  C   UNL     1       8.210  11.338  -6.500  1.00  0.00     0.074 A 
ATOM     62  C   UNL     1       7.524  12.607  -6.399  1.00  0.00     0.031 C 
ATOM     63  C   UNL     1       9.552  11.213  -6.664  1.00  0.00     0.034 A 
BRANCH  50  64
ATOM     64  C   UNL     1      11.557   5.361  -6.812  1.00  0.00     0.023 A 
ATOM     65  C   UNL     1      11.757   4.464  -7.875  1.00  0.00     0.031 A 
ATOM     66  C   UNL     1      12.504   5.376  -5.773  1.00  0.00     0.131 A 
ATOM     67  C   UNL     1      12.848   3.582  -7.848  1.00  0.00     0.055 A 
ATOM     68  C   UNL     1      13.628   4.548  -5.789  1.00  0.00     0.041 A 
ATOM     69  F   UNL     1      12.352   6.197  -4.721  1.00  0.00    -0.206 F 
ATOM     70  C   UNL     1      13.800   3.637  -6.827  1.00  0.00     0.022 A 
BRANCH  67  71
ATOM     71  S   UNL     1      12.949   2.288  -9.114  1.00  0.00     0.124 S 
ATOM     72  O   UNL     1      11.724   1.532  -8.861  1.00  0.00    -0.237 OA
ATOM     73  O   UNL     1      12.980   3.058 -10.352  1.00  0.00    -0.237 OA
ATOM     74  O   UNL     1      14.187   1.583  -8.786  1.00  0.00    -0.744 OA
ENDBRANCH  67  71
ENDBRANCH  50  64
BRANCH  51  75
ATOM     75  C   UNL     1       3.530  11.320  -5.951  1.00  0.00     0.023 A 
ATOM     76  C   UNL     1       3.219  12.308  -6.900  1.00  0.00     0.031 A 
ATOM     77  C   UNL     1       2.767  11.285  -4.770  1.00  0.00     0.131 A 
ATOM     78  C   UNL     1       2.231  13.266  -6.620  1.00  0.00     0.055 A 
ATOM     79  C   UNL     1       1.737  12.197  -4.527  1.00  0.00     0.041 A 
ATOM     80  F   UNL     1       3.016  10.364  -3.826  1.00  0.00    -0.206 F 
ATOM     81  C   UNL     1       1.479  13.210  -5.445  1.00  0.00     0.022 A 
BRANCH  78  82
ATOM     82  S   UNL     1       2.045  14.674  -7.750  1.00  0.00     0.124 S 
ATOM     83  O   UNL     1       3.402  15.208  -7.782  1.00  0.00    -0.237 OA
ATOM     84  O   UNL     1       1.582  14.022  -8.970  1.00  0.00    -0.237 OA
ATOM     85  O   UNL     1       1.057  15.518  -7.081  1.00  0.00    -0.744 OA
ENDBRANCH  78  82
ENDBRANCH  51  75
BRANCH  63  86
ATOM     86  C   UNL     1      10.353  12.482  -6.823  1.00  0.00     0.023 A 
ATOM     87  C   UNL     1      10.512  13.400  -5.772  1.00  0.00     0.031 A 
ATOM     88  C   UNL     1      10.982  12.762  -8.050  1.00  0.00     0.131 A 
ATOM     89  C   UNL     1      11.243  14.580  -5.982  1.00  0.00     0.055 A 
ATOM     90  C   UNL     1      11.759  13.906  -8.233  1.00  0.00     0.041 A 
ATOM     91  F   UNL     1      10.862  11.919  -9.088  1.00  0.00    -0.206 F 
ATOM     92  C   UNL     1      11.883  14.828  -7.199  1.00  0.00     0.022 A 
BRANCH  89  93
ATOM     93  S   UNL     1      11.284  15.826  -4.665  1.00  0.00     0.124 S 
ATOM     94  O   UNL     1       9.868  16.138  -4.498  1.00  0.00    -0.237 OA
ATOM     95  O   UNL     1      11.910  15.099  -3.565  1.00  0.00    -0.237 OA
ATOM     96  O   UNL     1      12.093  16.901  -5.235  1.00  0.00    -0.744 OA
ENDBRANCH  89  93
ENDBRANCH  63  86
ENDBRANCH  37  38
ENDBRANCH  29  32
ENDBRANCH  27  28
ENDBRANCH  26  27
ENDBRANCH  25  26
ENDBRANCH  24  25
ENDBRANCH   1  24
TORSDOF 22
