REMARK SMILES O=C(NCCCCCCNC(=O)c1ccc(-n2cc(CSc3nc4ccccc4c(=O)n3-c3ccccc3)nn2)cc1)c1ccc(-c2c3nc(c(-c4cc(S(=O)(=O)[O-])ccc4F)c4ccc([nH]4)c(-c4cc(S(=O)(=O)[O-])ccc4F)c4nc(c(-c5cc(S(=O)(=O)[O-])ccc5F)c5ccc2[nH]5)C=C4)C=C3)cc1
REMARK SMILES IDX 7 1 6 2 5 3 4 4 3 5 1 6 2 7 43 9 44 10 105 11 45 12 104 13
REMARK SMILES IDX 46 14 47 15 48 16 98 17 49 18 103 19 97 20 99 21 50 22
REMARK SMILES IDX 102 23 96 24 95 25 51 27 83 28 63 29 82 30 64 31 67 32 81 33
REMARK SMILES IDX 100 34 65 35 66 36 80 38 101 39 68 40 52 41 53 42 61 43
REMARK SMILES IDX 54 44 60 45 62 46 59 47 55 48 56 49 57 50 58 51 84 52 85 53
REMARK SMILES IDX 93 54 86 55 92 56 94 57 91 58 87 59 88 60 89 61 90 62 69 63
REMARK SMILES IDX 70 64 78 65 71 66 77 67 79 68 76 69 72 70 73 71 74 72 75 73
REMARK SMILES IDX 8 74 9 75 10 76 11 77 12 79 13 80 14 81 42 82 15 83 41 84
REMARK SMILES IDX 16 85 17 86 18 87 40 88 19 89 39 90 20 91 21 92 22 93 23 94
REMARK SMILES IDX 32 95 24 96 30 97 25 98 29 99 31 100 26 101 28 102 27 103
REMARK SMILES IDX 33 104 34 105 38 106 35 107 37 108 36 109
REMARK H PARENT 3 8 99 26 67 37 10 78
REMARK Flexibility Score: inf
ROOT
ATOM      1  C   UNL     1       4.787   3.200  -2.581  1.00  0.00     0.002 C 
ENDROOT
BRANCH   1   2
ATOM      2  C   UNL     1       4.247   1.818  -2.967  1.00  0.00     0.002 C 
BRANCH   2   3
ATOM      3  C   UNL     1       4.760   0.638  -2.132  1.00  0.00     0.021 C 
BRANCH   3   4
ATOM      4  C   UNL     1       4.561   0.777  -0.624  1.00  0.00     0.116 C 
BRANCH   4   5
ATOM      5  N   UNL     1       3.181   0.932  -0.219  1.00  0.00    -0.352 N 
ATOM      6  O   UNL     1       1.162   0.587   0.591  1.00  0.00    -0.269 OA
ATOM      7  C   UNL     1       2.168   0.070   0.095  1.00  0.00     0.251 C 
ATOM      8  H   UNL     1       2.909   1.876  -0.155  1.00  0.00     0.163 HD
BRANCH   7   9
ATOM      9  C   UNL     1       2.166  -1.397  -0.172  1.00  0.00     0.039 A 
ATOM     10  C   UNL     1       3.254  -2.160  -0.598  1.00  0.00     0.014 A 
ATOM     11  C   UNL     1       0.920  -2.038  -0.019  1.00  0.00     0.014 A 
ATOM     12  C   UNL     1       3.083  -3.500  -0.947  1.00  0.00     0.010 A 
ATOM     13  C   UNL     1       0.746  -3.376  -0.360  1.00  0.00     0.010 A 
ATOM     14  C   UNL     1       1.822  -4.098  -0.861  1.00  0.00    -0.014 A 
BRANCH  14  15
ATOM     15  C   UNL     1       1.708  -5.534  -1.122  1.00  0.00     0.031 A 
ATOM     16  C   UNL     1       2.446  -6.381  -0.140  1.00  0.00     0.074 A 
ATOM     17  C   UNL     1       0.892  -6.077  -2.052  1.00  0.00     0.049 A 
ATOM     18  N   UNL     1       3.435  -7.183  -0.358  1.00  0.00    -0.248 NA
ATOM     19  C   UNL     1       2.139  -6.198   1.289  1.00  0.00     0.031 C 
ATOM     20  C   UNL     1      -0.086  -5.391  -2.897  1.00  0.00     0.029 A 
ATOM     21  N   UNL     1       0.695  -7.391  -2.370  1.00  0.00    -0.354 N 
ATOM     22  C   UNL     1       3.728  -7.780   0.868  1.00  0.00     0.074 A 
ATOM     23  C   UNL     1       3.036  -7.003   1.858  1.00  0.00     0.031 C 
ATOM     24  C   UNL     1      -0.919  -6.302  -3.452  1.00  0.00     0.029 A 
ATOM     25  C   UNL     1      -0.462  -7.640  -3.110  1.00  0.00     0.049 A 
ATOM     26  H   UNL     1       1.317  -8.104  -2.100  1.00  0.00     0.167 HD
ATOM     27  C   UNL     1       4.332  -9.000   0.937  1.00  0.00     0.034 A 
ATOM     28  C   UNL     1      -1.038  -8.849  -3.374  1.00  0.00     0.034 A 
ATOM     29  C   UNL     1       5.002  -9.313  -0.306  1.00  0.00     0.049 A 
ATOM     30  C   UNL     1       0.019  -9.875  -3.203  1.00  0.00     0.074 A 
ATOM     31  C   UNL     1       6.003  -8.709  -1.044  1.00  0.00     0.029 A 
ATOM     32  N   UNL     1       4.403 -10.204  -1.170  1.00  0.00    -0.354 N 
ATOM     33  N   UNL     1       1.067  -9.957  -3.977  1.00  0.00    -0.248 NA
ATOM     34  C   UNL     1       0.169 -10.487  -1.891  1.00  0.00     0.031 C 
ATOM     35  C   UNL     1       5.601  -8.871  -2.403  1.00  0.00     0.029 A 
ATOM     36  C   UNL     1       4.434  -9.636  -2.419  1.00  0.00     0.049 A 
ATOM     37  H   UNL     1       4.024 -11.082  -0.936  1.00  0.00     0.167 HD
ATOM     38  C   UNL     1       2.124 -10.220  -3.120  1.00  0.00     0.074 A 
ATOM     39  C   UNL     1       1.498 -10.624  -1.861  1.00  0.00     0.031 C 
ATOM     40  C   UNL     1       3.396  -9.818  -3.415  1.00  0.00     0.034 A 
BRANCH  27  41
ATOM     41  C   UNL     1       3.983 -10.075   1.954  1.00  0.00     0.023 A 
ATOM     42  C   UNL     1       4.582 -11.337   1.770  1.00  0.00     0.031 A 
ATOM     43  C   UNL     1       2.900 -10.046   2.861  1.00  0.00     0.131 A 
ATOM     44  C   UNL     1       4.011 -12.498   2.315  1.00  0.00     0.055 A 
ATOM     45  C   UNL     1       2.376 -11.198   3.457  1.00  0.00     0.041 A 
ATOM     46  F   UNL     1       2.232  -8.929   3.167  1.00  0.00    -0.206 F 
ATOM     47  C   UNL     1       2.901 -12.440   3.150  1.00  0.00     0.022 A 
BRANCH  44  48
ATOM     48  S   UNL     1       4.617 -14.100   1.727  1.00  0.00     0.124 S 
ATOM     49  O   UNL     1       4.520 -13.931   0.281  1.00  0.00    -0.237 OA
ATOM     50  O   UNL     1       5.966 -14.130   2.283  1.00  0.00    -0.237 OA
ATOM     51  O   UNL     1       3.677 -15.053   2.312  1.00  0.00    -0.744 OA
ENDBRANCH  44  48
ENDBRANCH  27  41
BRANCH  28  52
ATOM     52  C   UNL     1      -2.499  -9.174  -3.406  1.00  0.00     0.023 A 
ATOM     53  C   UNL     1      -3.037 -10.333  -4.016  1.00  0.00     0.031 A 
ATOM     54  C   UNL     1      -3.383  -8.429  -2.592  1.00  0.00     0.131 A 
ATOM     55  C   UNL     1      -4.396 -10.690  -3.807  1.00  0.00     0.055 A 
ATOM     56  C   UNL     1      -4.718  -8.785  -2.389  1.00  0.00     0.041 A 
ATOM     57  F   UNL     1      -2.953  -7.368  -1.891  1.00  0.00    -0.206 F 
ATOM     58  C   UNL     1      -5.229  -9.922  -2.990  1.00  0.00     0.022 A 
BRANCH  55  59
ATOM     59  S   UNL     1      -5.098 -12.211  -4.535  1.00  0.00     0.124 S 
ATOM     60  O   UNL     1      -5.075 -11.915  -5.963  1.00  0.00    -0.237 OA
ATOM     61  O   UNL     1      -4.175 -13.240  -4.070  1.00  0.00    -0.237 OA
ATOM     62  O   UNL     1      -6.438 -12.286  -3.949  1.00  0.00    -0.744 OA
ENDBRANCH  55  59
ENDBRANCH  28  52
BRANCH  40  63
ATOM     63  C   UNL     1       3.702  -9.335  -4.817  1.00  0.00     0.023 A 
ATOM     64  C   UNL     1       3.066  -8.247  -5.460  1.00  0.00     0.031 A 
ATOM     65  C   UNL     1       4.790  -9.935  -5.475  1.00  0.00     0.131 A 
ATOM     66  C   UNL     1       3.526  -7.808  -6.718  1.00  0.00     0.055 A 
ATOM     67  C   UNL     1       5.253  -9.485  -6.709  1.00  0.00     0.041 A 
ATOM     68  F   UNL     1       5.454 -10.954  -4.903  1.00  0.00    -0.206 F 
ATOM     69  C   UNL     1       4.619  -8.422  -7.338  1.00  0.00     0.022 A 
BRANCH  66  70
ATOM     70  S   UNL     1       2.708  -6.427  -7.584  1.00  0.00     0.124 S 
ATOM     71  O   UNL     1       1.293  -6.775  -7.523  1.00  0.00    -0.237 OA
ATOM     72  O   UNL     1       3.119  -5.269  -6.793  1.00  0.00    -0.237 OA
ATOM     73  O   UNL     1       3.289  -6.476  -8.927  1.00  0.00    -0.744 OA
ENDBRANCH  66  70
ENDBRANCH  40  63
ENDBRANCH  14  15
ENDBRANCH   7   9
ENDBRANCH   4   5
ENDBRANCH   3   4
ENDBRANCH   2   3
ENDBRANCH   1   2
BRANCH   1  74
ATOM     74  C   UNL     1       6.312   3.327  -2.544  1.00  0.00     0.021 C 
BRANCH  74  75
ATOM     75  C   UNL     1       7.014   3.007  -3.861  1.00  0.00     0.116 C 
BRANCH  75  76
ATOM     76  N   UNL     1       6.723   3.988  -4.896  1.00  0.00    -0.352 N 
ATOM     77  C   UNL     1       7.567   4.877  -5.508  1.00  0.00     0.251 C 
ATOM     78  H   UNL     1       5.787   4.017  -5.200  1.00  0.00     0.163 HD
ATOM     79  O   UNL     1       7.135   5.744  -6.268  1.00  0.00    -0.269 OA
BRANCH  77  80
ATOM     80  C   UNL     1       9.012   4.820  -5.221  1.00  0.00     0.039 A 
ATOM     81  C   UNL     1       9.645   5.968  -4.731  1.00  0.00     0.016 A 
ATOM     82  C   UNL     1       9.733   3.640  -5.431  1.00  0.00     0.016 A 
ATOM     83  C   UNL     1      10.986   5.918  -4.351  1.00  0.00     0.029 A 
ATOM     84  C   UNL     1      11.083   3.596  -5.092  1.00  0.00     0.029 A 
ATOM     85  C   UNL     1      11.699   4.733  -4.538  1.00  0.00     0.066 A 
BRANCH  85  86
ATOM     86  N   UNL     1      13.080   4.712  -4.280  1.00  0.00    -0.220 N 
ATOM     87  C   UNL     1      14.014   4.112  -5.071  1.00  0.00     0.141 A 
ATOM     88  N   UNL     1      13.688   5.302  -3.230  1.00  0.00    -0.062 NA
ATOM     89  C   UNL     1      15.224   4.322  -4.463  1.00  0.00     0.093 A 
ATOM     90  N   UNL     1      14.988   5.007  -3.294  1.00  0.00    -0.134 NA
BRANCH  89  91
ATOM     91  C   UNL     1      16.534   3.712  -4.781  1.00  0.00     0.138 C 
BRANCH  91  92
ATOM     92  S   UNL     1      17.683   4.389  -5.976  1.00  0.00    -0.081 SA
BRANCH  92  93
ATOM     93  C   UNL     1      16.958   5.341  -7.247  1.00  0.00     0.176 A 
ATOM     94  N   UNL     1      17.752   6.299  -7.635  1.00  0.00    -0.223 NA
ATOM     95  N   UNL     1      15.709   5.165  -7.822  1.00  0.00    -0.255 N 
ATOM     96  C   UNL     1      17.276   7.228  -8.567  1.00  0.00     0.079 A 
ATOM     97  C   UNL     1      15.059   6.366  -8.139  1.00  0.00     0.266 A 
ATOM     98  C   UNL     1      18.146   8.059  -9.272  1.00  0.00     0.029 A 
ATOM     99  C   UNL     1      15.911   7.410  -8.724  1.00  0.00     0.066 A 
ATOM    100  O   UNL     1      13.870   6.621  -7.960  1.00  0.00    -0.268 OA
ATOM    101  C   UNL     1      17.642   9.093 -10.071  1.00  0.00     0.002 A 
ATOM    102  C   UNL     1      15.389   8.471  -9.469  1.00  0.00     0.016 A 
ATOM    103  C   UNL     1      16.266   9.322 -10.140  1.00  0.00     0.001 A 
BRANCH  95 104
ATOM    104  C   UNL     1      15.021   3.919  -8.095  1.00  0.00     0.051 A 
ATOM    105  C   UNL     1      13.793   3.925  -8.793  1.00  0.00     0.027 A 
ATOM    106  C   UNL     1      15.484   2.660  -7.697  1.00  0.00     0.027 A 
ATOM    107  C   UNL     1      12.968   2.799  -8.860  1.00  0.00     0.002 A 
ATOM    108  C   UNL     1      14.636   1.541  -7.699  1.00  0.00     0.002 A 
ATOM    109  C   UNL     1      13.362   1.621  -8.247  1.00  0.00     0.000 A 
ENDBRANCH  95 104
ENDBRANCH  92  93
ENDBRANCH  91  92
ENDBRANCH  89  91
ENDBRANCH  85  86
ENDBRANCH  77  80
ENDBRANCH  75  76
ENDBRANCH  74  75
ENDBRANCH   1  74
TORSDOF 21
