REMARK SMILES Cc1ccc(Cl)cc1NC(=O)N[C@@](C)(C(=O)NCCCCCCNC(=O)c1ccc(-c2c3nc(c(-c4cc(S(=O)(=O)[O-])ccc4F)c4ccc([nH]4)c(-c4cc(S(=O)(=O)[O-])ccc4F)c4nc(c(-c5cc(S(=O)(=O)[O-])ccc5F)c5ccc2[nH]5)C=C4)C=C3)cc1)C(F)(F)F
REMARK SMILES IDX 21 1 20 2 19 3 18 4 17 5 15 6 16 7 13 9 14 10 12 11 9 12
REMARK SMILES IDX 10 13 11 15 8 17 1 18 2 19 3 20 4 21 7 22 5 23 6 24 90 25
REMARK SMILES IDX 91 26 92 27 93 28 22 29 23 30 24 31 25 32 26 34 27 35 28 36
REMARK SMILES IDX 89 37 29 38 88 39 30 40 31 41 32 42 82 43 33 44 87 45 81 46
REMARK SMILES IDX 83 47 34 48 86 49 80 50 79 51 35 53 67 54 47 55 66 56 48 57
REMARK SMILES IDX 51 58 65 59 84 60 49 61 50 62 64 64 85 65 52 66 36 67 37 68
REMARK SMILES IDX 45 69 38 70 44 71 46 72 43 73 39 74 40 75 41 76 42 77 68 78
REMARK SMILES IDX 69 79 77 80 70 81 76 82 78 83 75 84 71 85 72 86 73 87 74 88
REMARK SMILES IDX 53 89 54 90 62 91 55 92 61 93 63 94 60 95 56 96 57 97 58 98
REMARK SMILES IDX 59 99
REMARK H PARENT 17 8 9 14 12 16 24 33 83 52 51 63
REMARK Flexibility Score: inf
ROOT
ATOM      1  C   UNL     1      -5.387   6.011  -1.988  1.00  0.00     0.002 C 
ENDROOT
BRANCH   1   2
ATOM      2  C   UNL     1      -3.931   6.211  -2.426  1.00  0.00     0.002 C 
BRANCH   2   3
ATOM      3  C   UNL     1      -2.892   6.225  -1.291  1.00  0.00     0.021 C 
BRANCH   3   4
ATOM      4  C   UNL     1      -2.986   5.038  -0.330  1.00  0.00     0.116 C 
BRANCH   4   5
ATOM      5  N   UNL     1      -2.995   3.793  -1.068  1.00  0.00    -0.354 N 
ATOM      6  C   UNL     1      -1.825   3.273  -1.554  1.00  0.00     0.255 C 
ATOM      7  O   UNL     1      -1.504   3.591  -2.698  1.00  0.00    -0.272 OA
ATOM      8  H   UNL     1      -3.844   3.318  -1.220  1.00  0.00     0.163 HD
BRANCH   6   9
ATOM      9  C   UNL     1      -0.948   2.412  -0.598  1.00  0.00     0.213 C 
ATOM     10  C   UNL     1      -1.835   1.901   0.554  1.00  0.00     0.056 C 
BRANCH   9  11
ATOM     11  N   UNL     1       0.154   3.253  -0.030  1.00  0.00    -0.316 N 
ATOM     12  N   UNL     1       1.909   1.947   0.992  1.00  0.00    -0.308 N 
ATOM     13  C   UNL     1       1.295   3.093   0.650  1.00  0.00     0.320 C 
ATOM     14  H   UNL     1       2.830   2.108   1.301  1.00  0.00     0.171 HD
ATOM     15  O   UNL     1       1.914   4.137   0.896  1.00  0.00    -0.248 OA
ATOM     16  H   UNL     1      -0.010   4.206  -0.211  1.00  0.00     0.166 HD
BRANCH  12  17
ATOM     17  C   UNL     1       1.585   0.584   1.025  1.00  0.00     0.047 A 
ATOM     18  C   UNL     1       3.863  -0.034   0.009  1.00  0.00     0.046 C 
ATOM     19  C   UNL     1       2.463  -0.359   0.453  1.00  0.00    -0.027 A 
ATOM     20  C   UNL     1       2.019  -1.685   0.276  1.00  0.00     0.007 A 
ATOM     21  C   UNL     1       0.755  -2.081   0.709  1.00  0.00     0.021 A 
ATOM     22  C   UNL     1       0.421   0.123   1.636  1.00  0.00     0.047 A 
ATOM     23  C   UNL     1      -0.019  -1.186   1.433  1.00  0.00     0.043 A 
ATOM     24  Cl  UNL     1      -1.559  -1.675   2.026  1.00  0.00    -0.084 Cl
ENDBRANCH  12  17
ENDBRANCH   9  11
BRANCH   9  25
ATOM     25  C   UNL     1      -0.522   1.326  -1.621  1.00  0.00     0.420 C 
ATOM     26  F   UNL     1       0.296   1.805  -2.589  1.00  0.00    -0.168 F 
ATOM     27  F   UNL     1       0.129   0.288  -1.079  1.00  0.00    -0.168 F 
ATOM     28  F   UNL     1      -1.606   0.774  -2.231  1.00  0.00    -0.168 F 
ENDBRANCH   9  25
ENDBRANCH   6   9
ENDBRANCH   4   5
ENDBRANCH   3   4
ENDBRANCH   2   3
ENDBRANCH   1   2
BRANCH   1  29
ATOM     29  C   UNL     1      -5.869   6.978  -0.911  1.00  0.00     0.021 C 
BRANCH  29  30
ATOM     30  C   UNL     1      -5.634   8.443  -1.242  1.00  0.00     0.116 C 
BRANCH  30  31
ATOM     31  N   UNL     1      -6.369   8.857  -2.422  1.00  0.00    -0.352 N 
ATOM     32  C   UNL     1      -7.190   9.949  -2.569  1.00  0.00     0.251 C 
ATOM     33  H   UNL     1      -6.267   8.285  -3.217  1.00  0.00     0.163 HD
ATOM     34  O   UNL     1      -7.904  10.058  -3.556  1.00  0.00    -0.269 OA
BRANCH  32  35
ATOM     35  C   UNL     1      -7.213  10.966  -1.497  1.00  0.00     0.039 A 
ATOM     36  C   UNL     1      -8.444  11.408  -1.012  1.00  0.00     0.014 A 
ATOM     37  C   UNL     1      -6.019  11.446  -0.947  1.00  0.00     0.014 A 
ATOM     38  C   UNL     1      -8.477  12.299   0.062  1.00  0.00     0.010 A 
ATOM     39  C   UNL     1      -6.057  12.265   0.176  1.00  0.00     0.010 A 
ATOM     40  C   UNL     1      -7.286  12.711   0.684  1.00  0.00    -0.014 A 
BRANCH  40  41
ATOM     41  C   UNL     1      -7.311  13.624   1.856  1.00  0.00     0.031 A 
ATOM     42  C   UNL     1      -6.676  14.986   1.755  1.00  0.00     0.074 A 
ATOM     43  C   UNL     1      -7.854  13.206   3.017  1.00  0.00     0.049 A 
ATOM     44  N   UNL     1      -6.544  15.905   2.676  1.00  0.00    -0.248 NA
ATOM     45  C   UNL     1      -6.088  15.352   0.456  1.00  0.00     0.031 C 
ATOM     46  C   UNL     1      -8.454  11.888   3.244  1.00  0.00     0.029 A 
ATOM     47  N   UNL     1      -7.983  13.838   4.229  1.00  0.00    -0.354 N 
ATOM     48  C   UNL     1      -5.841  16.945   2.077  1.00  0.00     0.074 A 
ATOM     49  C   UNL     1      -5.532  16.523   0.729  1.00  0.00     0.031 C 
ATOM     50  C   UNL     1      -8.903  11.819   4.507  1.00  0.00     0.029 A 
ATOM     51  C   UNL     1      -8.582  13.064   5.198  1.00  0.00     0.049 A 
ATOM     52  H   UNL     1      -7.676  14.759   4.391  1.00  0.00     0.167 HD
ATOM     53  C   UNL     1      -5.502  18.147   2.601  1.00  0.00     0.034 A 
ATOM     54  C   UNL     1      -8.828  13.322   6.499  1.00  0.00     0.034 A 
ATOM     55  C   UNL     1      -5.846  18.561   3.938  1.00  0.00     0.049 A 
ATOM     56  C   UNL     1      -8.439  14.671   7.054  1.00  0.00     0.074 A 
ATOM     57  C   UNL     1      -5.628  19.788   4.540  1.00  0.00     0.029 A 
ATOM     58  N   UNL     1      -6.469  17.758   4.886  1.00  0.00    -0.354 N 
ATOM     59  N   UNL     1      -7.846  15.674   6.447  1.00  0.00    -0.248 NA
ATOM     60  C   UNL     1      -8.767  14.931   8.462  1.00  0.00     0.031 C 
ATOM     61  C   UNL     1      -6.041  19.701   5.872  1.00  0.00     0.029 A 
ATOM     62  C   UNL     1      -6.604  18.451   6.079  1.00  0.00     0.049 A 
ATOM     63  H   UNL     1      -6.770  16.834   4.732  1.00  0.00     0.167 HD
ATOM     64  C   UNL     1      -7.763  16.694   7.392  1.00  0.00     0.074 A 
ATOM     65  C   UNL     1      -8.385  16.191   8.599  1.00  0.00     0.031 C 
ATOM     66  C   UNL     1      -7.225  17.934   7.275  1.00  0.00     0.034 A 
BRANCH  53  67
ATOM     67  C   UNL     1      -4.695  19.092   1.744  1.00  0.00     0.023 A 
ATOM     68  C   UNL     1      -5.206  19.648   0.558  1.00  0.00     0.031 A 
ATOM     69  C   UNL     1      -3.394  19.458   2.135  1.00  0.00     0.131 A 
ATOM     70  C   UNL     1      -4.404  20.499  -0.218  1.00  0.00     0.055 A 
ATOM     71  C   UNL     1      -2.630  20.363   1.398  1.00  0.00     0.041 A 
ATOM     72  F   UNL     1      -2.844  18.940   3.245  1.00  0.00    -0.206 F 
ATOM     73  C   UNL     1      -3.130  20.883   0.208  1.00  0.00     0.022 A 
BRANCH  70  74
ATOM     74  S   UNL     1      -5.008  21.015  -1.849  1.00  0.00     0.124 S 
ATOM     75  O   UNL     1      -5.163  19.729  -2.525  1.00  0.00    -0.237 OA
ATOM     76  O   UNL     1      -6.242  21.718  -1.521  1.00  0.00    -0.237 OA
ATOM     77  O   UNL     1      -3.928  21.855  -2.363  1.00  0.00    -0.744 OA
ENDBRANCH  70  74
ENDBRANCH  53  67
BRANCH  54  78
ATOM     78  C   UNL     1      -9.443  12.285   7.381  1.00  0.00     0.023 A 
ATOM     79  C   UNL     1     -10.674  12.507   8.018  1.00  0.00     0.031 A 
ATOM     80  C   UNL     1      -8.769  11.081   7.658  1.00  0.00     0.131 A 
ATOM     81  C   UNL     1     -11.158  11.577   8.952  1.00  0.00     0.055 A 
ATOM     82  C   UNL     1      -9.288  10.128   8.536  1.00  0.00     0.041 A 
ATOM     83  F   UNL     1      -7.589  10.812   7.076  1.00  0.00    -0.206 F 
ATOM     84  C   UNL     1     -10.481  10.382   9.204  1.00  0.00     0.022 A 
BRANCH  81  85
ATOM     85  S   UNL     1     -12.623  12.012   9.931  1.00  0.00     0.124 S 
ATOM     86  O   UNL     1     -12.219  13.284  10.518  1.00  0.00    -0.237 OA
ATOM     87  O   UNL     1     -13.660  12.077   8.908  1.00  0.00    -0.237 OA
ATOM     88  O   UNL     1     -12.745  10.900  10.871  1.00  0.00    -0.744 OA
ENDBRANCH  81  85
ENDBRANCH  54  78
BRANCH  66  89
ATOM     89  C   UNL     1      -7.339  18.851   8.468  1.00  0.00     0.023 A 
ATOM     90  C   UNL     1      -6.678  18.581   9.679  1.00  0.00     0.031 A 
ATOM     91  C   UNL     1      -8.126  20.015   8.390  1.00  0.00     0.131 A 
ATOM     92  C   UNL     1      -6.864  19.429  10.781  1.00  0.00     0.055 A 
ATOM     93  C   UNL     1      -8.252  20.891   9.468  1.00  0.00     0.041 A 
ATOM     94  F   UNL     1      -8.782  20.322   7.260  1.00  0.00    -0.206 F 
ATOM     95  C   UNL     1      -7.630  20.593  10.677  1.00  0.00     0.022 A 
BRANCH  92  96
ATOM     96  S   UNL     1      -6.172  18.939  12.383  1.00  0.00     0.124 S 
ATOM     97  O   UNL     1      -6.804  17.642  12.603  1.00  0.00    -0.237 OA
ATOM     98  O   UNL     1      -4.739  18.911  12.110  1.00  0.00    -0.237 OA
ATOM     99  O   UNL     1      -6.609  20.002  13.286  1.00  0.00    -0.744 OA
ENDBRANCH  92  96
ENDBRANCH  66  89
ENDBRANCH  40  41
ENDBRANCH  32  35
ENDBRANCH  30  31
ENDBRANCH  29  30
ENDBRANCH   1  29
TORSDOF 19
