REMARK SMILES [NH3+][C@]1(C(=O)NCCCCCCNC(=O)c2ccc(-c3c4nc(c(-c5cc(S(=O)(=O)[O-])ccc5F)c5ccc([nH]5)c(-c5cc(S(=O)(=O)[O-])ccc5F)c5nc(c(-c6cc(S(=O)(=O)[O-])ccc6F)c6ccc3[nH]6)C=C5)C=C4)cc2)CCC[C@@H]1CCn1cc(I)cn1
REMARK SMILES IDX 8 1 7 2 6 3 5 4 3 5 4 6 2 8 78 9 81 10 79 11 80 12 1 13
REMARK SMILES IDX 82 17 83 18 84 19 85 20 89 21 86 22 88 23 87 24 9 25 10 26
REMARK SMILES IDX 11 27 12 28 13 29 14 31 15 32 16 33 77 34 17 35 76 36 18 37
REMARK SMILES IDX 19 38 20 39 70 40 21 41 75 42 69 43 71 44 22 45 74 46 68 47
REMARK SMILES IDX 67 48 23 50 55 51 35 52 54 53 36 54 39 55 53 56 72 57 37 58
REMARK SMILES IDX 38 59 52 61 73 62 40 63 24 64 25 65 33 66 26 67 32 68 34 69
REMARK SMILES IDX 31 70 27 71 28 72 29 73 30 74 56 75 57 76 65 77 58 78 64 79
REMARK SMILES IDX 66 80 63 81 59 82 60 83 61 84 62 85 41 86 42 87 50 88 43 89
REMARK SMILES IDX 49 90 51 91 48 92 44 93 45 94 46 95 47 96
REMARK H PARENT 5 7 1 14 1 15 1 16 12 30 71 49 39 60
REMARK Flexibility Score: inf
ROOT
ATOM      1  C   UNL     1       3.660   1.019   3.480  1.00  0.00     0.002 C 
ENDROOT
BRANCH   1   2
ATOM      2  C   UNL     1       2.850   1.753   2.408  1.00  0.00     0.021 C 
BRANCH   2   3
ATOM      3  C   UNL     1       3.069   1.192   1.004  1.00  0.00     0.116 C 
BRANCH   3   4
ATOM      4  N   UNL     1       2.177   0.084   0.752  1.00  0.00    -0.351 N 
ATOM      5  C   UNL     1       0.901   0.028   0.296  1.00  0.00     0.281 C 
ATOM      6  O   UNL     1       0.258  -0.946   0.719  1.00  0.00    -0.268 OA
ATOM      7  H   UNL     1       2.570  -0.797   0.948  1.00  0.00     0.163 HD
BRANCH   5   8
ATOM      8  C   UNL     1       0.286   0.966  -0.807  1.00  0.00     0.176 C 
ATOM      9  C   UNL     1      -1.132   1.345  -0.299  1.00  0.00     0.079 C 
ATOM     10  C   UNL     1       0.871   2.376  -1.108  1.00  0.00     0.062 C 
ATOM     11  C   UNL     1      -1.579   2.498  -1.181  1.00  0.00     0.008 C 
ATOM     12  C   UNL     1      -0.323   3.327  -1.357  1.00  0.00     0.011 C 
BRANCH   8  13
ATOM     13  N   UNL     1       0.091   0.117  -1.990  1.00  0.00    -0.345 N 
ATOM     14  H   UNL     1      -0.309   0.674  -2.746  1.00  0.00     0.345 HD
ATOM     15  H   UNL     1      -0.543  -0.648  -1.760  1.00  0.00     0.345 HD
ATOM     16  H   UNL     1       0.989  -0.264  -2.288  1.00  0.00     0.345 HD
ENDBRANCH   8  13
BRANCH  10  17
ATOM     17  C   UNL     1       2.036   2.589  -2.115  1.00  0.00     0.034 C 
BRANCH  17  18
ATOM     18  C   UNL     1       2.027   1.994  -3.528  1.00  0.00     0.145 C 
BRANCH  18  19
ATOM     19  N   UNL     1       0.857   2.255  -4.332  1.00  0.00    -0.272 N 
ATOM     20  C   UNL     1       0.388   3.465  -4.755  1.00  0.00     0.123 A 
ATOM     21  N   UNL     1       0.078   1.219  -4.711  1.00  0.00    -0.180 NA
ATOM     22  C   UNL     1      -0.824   3.196  -5.337  1.00  0.00     0.051 A 
ATOM     23  C   UNL     1      -0.959   1.805  -5.316  1.00  0.00     0.149 A 
ATOM     24  I   UNL     1      -2.142   4.549  -6.018  1.00  0.00    -0.041 I 
ENDBRANCH  18  19
ENDBRANCH  17  18
ENDBRANCH  10  17
ENDBRANCH   5   8
ENDBRANCH   3   4
ENDBRANCH   2   3
ENDBRANCH   1   2
BRANCH   1  25
ATOM     25  C   UNL     1       5.179   1.059   3.270  1.00  0.00     0.002 C 
BRANCH  25  26
ATOM     26  C   UNL     1       5.769   2.458   3.058  1.00  0.00     0.021 C 
BRANCH  26  27
ATOM     27  C   UNL     1       5.505   3.434   4.203  1.00  0.00     0.116 C 
BRANCH  27  28
ATOM     28  N   UNL     1       6.053   2.939   5.453  1.00  0.00    -0.352 N 
ATOM     29  C   UNL     1       6.992   3.502   6.274  1.00  0.00     0.251 C 
ATOM     30  H   UNL     1       5.697   2.072   5.755  1.00  0.00     0.163 HD
ATOM     31  O   UNL     1       7.543   2.807   7.128  1.00  0.00    -0.269 OA
BRANCH  29  32
ATOM     32  C   UNL     1       7.344   4.931   6.136  1.00  0.00     0.039 A 
ATOM     33  C   UNL     1       8.682   5.311   6.261  1.00  0.00     0.014 A 
ATOM     34  C   UNL     1       6.354   5.899   5.936  1.00  0.00     0.014 A 
ATOM     35  C   UNL     1       9.033   6.657   6.148  1.00  0.00     0.010 A 
ATOM     36  C   UNL     1       6.713   7.234   5.759  1.00  0.00     0.010 A 
ATOM     37  C   UNL     1       8.054   7.627   5.875  1.00  0.00    -0.014 A 
BRANCH  37  38
ATOM     38  C   UNL     1       8.427   9.055   5.718  1.00  0.00     0.031 A 
ATOM     39  C   UNL     1       7.959  10.075   6.720  1.00  0.00     0.074 A 
ATOM     40  C   UNL     1       9.154   9.431   4.649  1.00  0.00     0.049 A 
ATOM     41  N   UNL     1       8.169  11.367   6.743  1.00  0.00    -0.248 NA
ATOM     42  C   UNL     1       7.123   9.582   7.824  1.00  0.00     0.031 C 
ATOM     43  C   UNL     1       9.619   8.534   3.588  1.00  0.00     0.029 A 
ATOM     44  N   UNL     1       9.629  10.662   4.274  1.00  0.00    -0.354 N 
ATOM     45  C   UNL     1       7.486  11.842   7.858  1.00  0.00     0.074 A 
ATOM     46  C   UNL     1       6.806  10.708   8.446  1.00  0.00     0.031 C 
ATOM     47  C   UNL     1      10.334   9.240   2.698  1.00  0.00     0.029 A 
ATOM     48  C   UNL     1      10.350  10.642   3.103  1.00  0.00     0.049 A 
ATOM     49  H   UNL     1       9.469  11.482   4.794  1.00  0.00     0.167 HD
ATOM     50  C   UNL     1       7.450  13.104   8.356  1.00  0.00     0.034 A 
ATOM     51  C   UNL     1      10.953  11.641   2.430  1.00  0.00     0.034 A 
ATOM     52  C   UNL     1       8.145  14.220   7.759  1.00  0.00     0.049 A 
ATOM     53  C   UNL     1      10.898  13.034   3.002  1.00  0.00     0.074 A 
ATOM     54  C   UNL     1       8.229  15.526   8.210  1.00  0.00     0.029 A 
ATOM     55  N   UNL     1       8.869  14.163   6.574  1.00  0.00    -0.354 N 
ATOM     56  N   UNL     1      10.300  13.457   4.093  1.00  0.00    -0.248 NA
ATOM     57  C   UNL     1      11.611  14.080   2.260  1.00  0.00     0.031 C 
ATOM     58  C   UNL     1       8.948  16.271   7.267  1.00  0.00     0.029 A 
ATOM     59  C   UNL     1       9.375  15.417   6.263  1.00  0.00     0.049 A 
ATOM     60  H   UNL     1       9.003  13.351   6.034  1.00  0.00     0.167 HD
ATOM     61  C   UNL     1      10.587  14.816   4.179  1.00  0.00     0.074 A 
ATOM     62  C   UNL     1      11.428  15.134   3.042  1.00  0.00     0.031 C 
ATOM     63  C   UNL     1      10.193  15.720   5.112  1.00  0.00     0.034 A 
BRANCH  50  64
ATOM     64  C   UNL     1       6.612  13.341   9.591  1.00  0.00     0.023 A 
ATOM     65  C   UNL     1       6.906  12.714  10.815  1.00  0.00     0.031 A 
ATOM     66  C   UNL     1       5.488  14.184   9.540  1.00  0.00     0.131 A 
ATOM     67  C   UNL     1       6.047  12.878  11.912  1.00  0.00     0.055 A 
ATOM     68  C   UNL     1       4.682  14.407  10.658  1.00  0.00     0.041 A 
ATOM     69  F   UNL     1       5.144  14.795   8.395  1.00  0.00    -0.206 F 
ATOM     70  C   UNL     1       4.950  13.740  11.850  1.00  0.00     0.022 A 
BRANCH  67  71
ATOM     71  S   UNL     1       6.302  11.838  13.377  1.00  0.00     0.124 S 
ATOM     72  O   UNL     1       6.173  10.497  12.811  1.00  0.00    -0.237 OA
ATOM     73  O   UNL     1       7.640  12.224  13.808  1.00  0.00    -0.237 OA
ATOM     74  O   UNL     1       5.218  12.235  14.273  1.00  0.00    -0.744 OA
ENDBRANCH  67  71
ENDBRANCH  50  64
BRANCH  51  75
ATOM     75  C   UNL     1      11.659  11.367   1.147  1.00  0.00     0.023 A 
ATOM     76  C   UNL     1      13.049  11.529   1.037  1.00  0.00     0.031 A 
ATOM     77  C   UNL     1      10.947  10.967   0.002  1.00  0.00     0.131 A 
ATOM     78  C   UNL     1      13.678  11.335  -0.202  1.00  0.00     0.055 A 
ATOM     79  C   UNL     1      11.585  10.728  -1.216  1.00  0.00     0.041 A 
ATOM     80  F   UNL     1       9.617  10.789   0.057  1.00  0.00    -0.206 F 
ATOM     81  C   UNL     1      12.958  10.925  -1.326  1.00  0.00     0.022 A 
BRANCH  78  82
ATOM     82  S   UNL     1      15.449  11.703  -0.343  1.00  0.00     0.124 S 
ATOM     83  O   UNL     1      15.496  13.101   0.070  1.00  0.00    -0.237 OA
ATOM     84  O   UNL     1      16.032  10.739   0.584  1.00  0.00    -0.237 OA
ATOM     85  O   UNL     1      15.735  11.458  -1.755  1.00  0.00    -0.744 OA
ENDBRANCH  78  82
ENDBRANCH  51  75
BRANCH  63  86
ATOM     86  C   UNL     1      10.699  17.132   4.943  1.00  0.00     0.023 A 
ATOM     87  C   UNL     1      10.294  17.934   3.861  1.00  0.00     0.031 A 
ATOM     88  C   UNL     1      11.619  17.670   5.859  1.00  0.00     0.131 A 
ATOM     89  C   UNL     1      10.857  19.207   3.687  1.00  0.00     0.055 A 
ATOM     90  C   UNL     1      12.128  18.961   5.715  1.00  0.00     0.041 A 
ATOM     91  F   UNL     1      12.041  16.948   6.909  1.00  0.00    -0.206 F 
ATOM     92  C   UNL     1      11.759  19.732   4.615  1.00  0.00     0.022 A 
BRANCH  89  93
ATOM     93  S   UNL     1      10.471  20.127   2.172  1.00  0.00     0.124 S 
ATOM     94  O   UNL     1      10.917  19.203   1.134  1.00  0.00    -0.237 OA
ATOM     95  O   UNL     1       9.028  20.316   2.281  1.00  0.00    -0.237 OA
ATOM     96  O   UNL     1      11.267  21.347   2.300  1.00  0.00    -0.744 OA
ENDBRANCH  89  93
ENDBRANCH  63  86
ENDBRANCH  37  38
ENDBRANCH  29  32
ENDBRANCH  27  28
ENDBRANCH  26  27
ENDBRANCH  25  26
ENDBRANCH   1  25
TORSDOF 20
