REMARK SMILES C=CCN(CC(=O)NCCCCCCNC(=O)c1ccc(-c2c3nc(c(-c4cc(S(=O)(=O)[O-])ccc4F)c4ccc([nH]4)c(-c4cc(S(=O)(=O)[O-])ccc4F)c4nc(c(-c5cc(S(=O)(=O)[O-])ccc5F)c5ccc2[nH]5)C=C4)C=C3)cc1)C(=O)N1CC[C@@H]([NH+]2CCCCC2)C1
REMARK SMILES IDX 11 1 10 2 9 3 8 4 6 5 7 6 5 8 4 9 3 10 2 11 1 12 81 13 82 14
REMARK SMILES IDX 83 15 84 16 93 17 85 18 86 19 87 20 88 21 92 22 89 24 91 25
REMARK SMILES IDX 90 26 12 27 13 28 14 29 15 30 16 31 17 33 18 34 19 35 80 36
REMARK SMILES IDX 20 37 79 38 21 39 22 40 23 41 73 42 24 43 78 44 72 45 74 46
REMARK SMILES IDX 25 47 77 48 71 49 70 50 26 52 58 53 38 54 57 55 39 56 42 57
REMARK SMILES IDX 56 58 75 59 40 60 41 61 55 63 76 64 43 65 27 66 28 67 36 68
REMARK SMILES IDX 29 69 35 70 37 71 34 72 30 73 31 74 32 75 33 76 59 77 60 78
REMARK SMILES IDX 68 79 61 80 67 81 69 82 66 83 62 84 63 85 64 86 65 87 44 88
REMARK SMILES IDX 45 89 53 90 46 91 52 92 54 93 51 94 47 95 48 96 49 97 50 98
REMARK H PARENT 8 7 87 23 15 32 74 51 42 62
REMARK Flexibility Score: inf
ROOT
ATOM      1  C   UNL     1      -5.567  -1.359   0.124  1.00  0.00     0.002 C 
ENDROOT
BRANCH   1   2
ATOM      2  C   UNL     1      -4.191  -0.677   0.141  1.00  0.00     0.021 C 
BRANCH   2   3
ATOM      3  C   UNL     1      -4.190   0.788   0.579  1.00  0.00     0.116 C 
BRANCH   3   4
ATOM      4  N   UNL     1      -4.439   0.988   1.985  1.00  0.00    -0.355 N 
ATOM      5  C   UNL     1      -3.583   1.329   2.989  1.00  0.00     0.239 C 
ATOM      6  O   UNL     1      -4.102   1.748   4.033  1.00  0.00    -0.273 OA
ATOM      7  H   UNL     1      -5.374   0.857   2.263  1.00  0.00     0.163 HD
BRANCH   5   8
ATOM      8  C   UNL     1      -2.039   1.278   2.864  1.00  0.00     0.221 C 
BRANCH   8   9
ATOM      9  N   UNL     1      -1.337   0.206   2.122  1.00  0.00    -0.312 N 
BRANCH   9  10
ATOM     10  C   UNL     1      -0.818   0.559   0.805  1.00  0.00     0.149 C 
BRANCH  10  11
ATOM     11  C   UNL     1       0.659   0.804   0.819  1.00  0.00    -0.013 C 
ATOM     12  C   UNL     1       1.494   0.212  -0.047  1.00  0.00     0.006 C 
ENDBRANCH  10  11
ENDBRANCH   9  10
BRANCH   9  13
ATOM     13  C   UNL     1      -0.904  -1.002   2.686  1.00  0.00     0.320 C 
ATOM     14  O   UNL     1      -0.000  -1.683   2.204  1.00  0.00    -0.248 OA
BRANCH  13  15
ATOM     15  N   UNL     1      -1.497  -1.400   3.850  1.00  0.00    -0.318 N 
ATOM     16  C   UNL     1      -2.903  -1.440   4.077  1.00  0.00     0.128 C 
ATOM     17  C   UNL     1      -0.871  -2.222   4.889  1.00  0.00     0.186 C 
ATOM     18  C   UNL     1      -2.954  -1.183   5.558  1.00  0.00     0.088 C 
ATOM     19  C   UNL     1      -1.892  -2.162   6.095  1.00  0.00     0.205 C 
BRANCH  19  20
ATOM     20  N   UNL     1      -2.392  -3.457   6.611  1.00  0.00    -0.331 N 
ATOM     21  C   UNL     1      -3.226  -4.283   5.734  1.00  0.00     0.262 C 
ATOM     22  C   UNL     1      -3.005  -3.376   7.945  1.00  0.00     0.262 C 
ATOM     23  H   UNL     1      -1.505  -3.959   6.666  1.00  0.00     0.348 HD
ATOM     24  C   UNL     1      -4.700  -3.867   5.626  1.00  0.00     0.062 C 
ATOM     25  C   UNL     1      -4.441  -2.853   7.975  1.00  0.00     0.062 C 
ATOM     26  C   UNL     1      -5.356  -3.544   6.965  1.00  0.00     0.012 C 
ENDBRANCH  19  20
ENDBRANCH  13  15
ENDBRANCH   9  13
ENDBRANCH   8   9
ENDBRANCH   5   8
ENDBRANCH   3   4
ENDBRANCH   2   3
ENDBRANCH   1   2
BRANCH   1  27
ATOM     27  C   UNL     1      -6.685  -0.602  -0.603  1.00  0.00     0.002 C 
BRANCH  27  28
ATOM     28  C   UNL     1      -6.360  -0.144  -2.027  1.00  0.00     0.021 C 
BRANCH  28  29
ATOM     29  C   UNL     1      -6.075  -1.270  -3.014  1.00  0.00     0.116 C 
BRANCH  29  30
ATOM     30  N   UNL     1      -7.258  -2.073  -3.283  1.00  0.00    -0.352 N 
ATOM     31  C   UNL     1      -7.884  -2.320  -4.481  1.00  0.00     0.251 C 
ATOM     32  H   UNL     1      -7.667  -2.500  -2.496  1.00  0.00     0.163 HD
ATOM     33  O   UNL     1      -8.995  -2.847  -4.493  1.00  0.00    -0.269 OA
BRANCH  31  34
ATOM     34  C   UNL     1      -7.229  -1.926  -5.747  1.00  0.00     0.039 A 
ATOM     35  C   UNL     1      -7.974  -1.265  -6.727  1.00  0.00     0.014 A 
ATOM     36  C   UNL     1      -5.874  -2.196  -5.961  1.00  0.00     0.014 A 
ATOM     37  C   UNL     1      -7.343  -0.808  -7.888  1.00  0.00     0.010 A 
ATOM     38  C   UNL     1      -5.232  -1.674  -7.080  1.00  0.00     0.010 A 
ATOM     39  C   UNL     1      -5.958  -0.971  -8.055  1.00  0.00    -0.014 A 
BRANCH  39  40
ATOM     40  C   UNL     1      -5.242  -0.429  -9.242  1.00  0.00     0.031 A 
ATOM     41  C   UNL     1      -4.540  -1.370 -10.184  1.00  0.00     0.074 A 
ATOM     42  C   UNL     1      -5.158   0.904  -9.430  1.00  0.00     0.049 A 
ATOM     43  N   UNL     1      -3.745  -1.099 -11.187  1.00  0.00    -0.248 NA
ATOM     44  C   UNL     1      -4.740  -2.807  -9.945  1.00  0.00     0.031 C 
ATOM     45  C   UNL     1      -5.783   1.919  -8.580  1.00  0.00     0.029 A 
ATOM     46  N   UNL     1      -4.501   1.636 -10.389  1.00  0.00    -0.354 N 
ATOM     47  C   UNL     1      -3.346  -2.330 -11.696  1.00  0.00     0.074 A 
ATOM     48  C   UNL     1      -3.930  -3.345 -10.845  1.00  0.00     0.031 C 
ATOM     49  C   UNL     1      -5.492   3.138  -9.064  1.00  0.00     0.029 A 
ATOM     50  C   UNL     1      -4.612   2.998 -10.220  1.00  0.00     0.049 A 
ATOM     51  H   UNL     1      -3.996   1.225 -11.128  1.00  0.00     0.167 HD
ATOM     52  C   UNL     1      -2.585  -2.591 -12.788  1.00  0.00     0.034 A 
ATOM     53  C   UNL     1      -4.048   4.017 -10.901  1.00  0.00     0.034 A 
ATOM     54  C   UNL     1      -2.009  -1.570 -13.627  1.00  0.00     0.049 A 
ATOM     55  C   UNL     1      -3.140   3.701 -12.067  1.00  0.00     0.074 A 
ATOM     56  C   UNL     1      -1.238  -1.724 -14.766  1.00  0.00     0.029 A 
ATOM     57  N   UNL     1      -2.135  -0.203 -13.416  1.00  0.00    -0.354 N 
ATOM     58  N   UNL     1      -2.791   2.530 -12.548  1.00  0.00    -0.248 NA
ATOM     59  C   UNL     1      -2.556   4.842 -12.784  1.00  0.00     0.031 C 
ATOM     60  C   UNL     1      -0.839  -0.456 -15.201  1.00  0.00     0.029 A 
ATOM     61  C   UNL     1      -1.434   0.495 -14.388  1.00  0.00     0.049 A 
ATOM     62  H   UNL     1      -2.648   0.211 -12.684  1.00  0.00     0.167 HD
ATOM     63  C   UNL     1      -1.984   2.799 -13.652  1.00  0.00     0.074 A 
ATOM     64  C   UNL     1      -1.905   4.239 -13.768  1.00  0.00     0.031 C 
ATOM     65  C   UNL     1      -1.370   1.933 -14.497  1.00  0.00     0.034 A 
BRANCH  52  66
ATOM     66  C   UNL     1      -2.321  -4.041 -13.120  1.00  0.00     0.023 A 
ATOM     67  C   UNL     1      -3.368  -4.920 -13.447  1.00  0.00     0.031 A 
ATOM     68  C   UNL     1      -1.014  -4.558 -13.092  1.00  0.00     0.131 A 
ATOM     69  C   UNL     1      -3.102  -6.281 -13.656  1.00  0.00     0.055 A 
ATOM     70  C   UNL     1      -0.745  -5.895 -13.390  1.00  0.00     0.041 A 
ATOM     71  F   UNL     1       0.025  -3.773 -12.766  1.00  0.00    -0.206 F 
ATOM     72  C   UNL     1      -1.794  -6.769 -13.658  1.00  0.00     0.022 A 
BRANCH  69  73
ATOM     73  S   UNL     1      -4.503  -7.426 -13.777  1.00  0.00     0.124 S 
ATOM     74  O   UNL     1      -5.167  -7.213 -12.493  1.00  0.00    -0.237 OA
ATOM     75  O   UNL     1      -5.212  -6.935 -14.953  1.00  0.00    -0.237 OA
ATOM     76  O   UNL     1      -3.865  -8.732 -13.931  1.00  0.00    -0.744 OA
ENDBRANCH  69  73
ENDBRANCH  52  66
BRANCH  53  77
ATOM     77  C   UNL     1      -4.292   5.434 -10.496  1.00  0.00     0.023 A 
ATOM     78  C   UNL     1      -4.895   6.343 -11.380  1.00  0.00     0.031 A 
ATOM     79  C   UNL     1      -3.856   5.922  -9.251  1.00  0.00     0.131 A 
ATOM     80  C   UNL     1      -4.984   7.701 -11.037  1.00  0.00     0.055 A 
ATOM     81  C   UNL     1      -4.010   7.261  -8.886  1.00  0.00     0.041 A 
ATOM     82  F   UNL     1      -3.270   5.100  -8.365  1.00  0.00    -0.206 F 
ATOM     83  C   UNL     1      -4.561   8.164  -9.790  1.00  0.00     0.022 A 
BRANCH  80  84
ATOM     84  S   UNL     1      -5.544   8.877 -12.300  1.00  0.00     0.124 S 
ATOM     85  O   UNL     1      -4.596   8.623 -13.379  1.00  0.00    -0.237 OA
ATOM     86  O   UNL     1      -6.916   8.441 -12.533  1.00  0.00    -0.237 OA
ATOM     87  O   UNL     1      -5.407  10.174 -11.640  1.00  0.00    -0.744 OA
ENDBRANCH  80  84
ENDBRANCH  53  77
BRANCH  65  88
ATOM     88  C   UNL     1      -0.618   2.519 -15.667  1.00  0.00     0.023 A 
ATOM     89  C   UNL     1       0.554   3.276 -15.498  1.00  0.00     0.031 A 
ATOM     90  C   UNL     1      -1.079   2.299 -16.978  1.00  0.00     0.131 A 
ATOM     91  C   UNL     1       1.200   3.823 -16.619  1.00  0.00     0.055 A 
ATOM     92  C   UNL     1      -0.399   2.792 -18.091  1.00  0.00     0.041 A 
ATOM     93  F   UNL     1      -2.196   1.587 -17.198  1.00  0.00    -0.206 F 
ATOM     94  C   UNL     1       0.743   3.568 -17.914  1.00  0.00     0.022 A 
BRANCH  91  95
ATOM     95  S   UNL     1       2.607   4.938 -16.358  1.00  0.00     0.124 S 
ATOM     96  O   UNL     1       2.007   6.003 -15.562  1.00  0.00    -0.237 OA
ATOM     97  O   UNL     1       3.560   4.081 -15.661  1.00  0.00    -0.237 OA
ATOM     98  O   UNL     1       2.997   5.321 -17.714  1.00  0.00    -0.744 OA
ENDBRANCH  91  95
ENDBRANCH  65  88
ENDBRANCH  39  40
ENDBRANCH  31  34
ENDBRANCH  29  30
ENDBRANCH  28  29
ENDBRANCH  27  28
ENDBRANCH   1  27
TORSDOF 22
