REMARK SMILES O=C(NCCCCCCNC(=O)[C@@H]1CC=CC[C@@H]1C(=O)Nc1sc2c(c1C(=O)N1CCCCC1)CCCC2)c1ccc(-c2c3nc(c(-c4cc(S(=O)(=O)[O-])ccc4F)c4ccc([nH]4)c(-c4cc(S(=O)(=O)[O-])ccc4F)c4nc(c(-c5cc(S(=O)(=O)[O-])ccc5F)c5ccc2[nH]5)C=C4)C=C3)cc1
REMARK SMILES IDX 6 1 5 2 4 3 3 4 1 5 2 6 39 8 40 9 101 10 41 11 100 12 42 13
REMARK SMILES IDX 43 14 44 15 94 16 45 17 99 18 93 19 95 20 46 21 98 22 92 23
REMARK SMILES IDX 91 24 47 26 79 27 59 28 78 29 60 30 63 31 77 32 96 33 61 34
REMARK SMILES IDX 62 35 76 37 97 38 64 39 48 40 49 41 57 42 50 43 56 44 58 45
REMARK SMILES IDX 55 46 51 47 52 48 53 49 54 50 80 51 81 52 89 53 82 54 88 55
REMARK SMILES IDX 90 56 87 57 83 58 84 59 85 60 86 61 65 62 66 63 74 64 67 65
REMARK SMILES IDX 73 66 75 67 72 68 68 69 69 70 70 71 71 72 7 73 8 74 9 75
REMARK SMILES IDX 10 76 11 77 12 79 13 80 14 81 18 82 15 83 17 84 16 85 19 86
REMARK SMILES IDX 20 87 21 88 22 90 23 91 26 92 24 93 25 94 38 95 35 96 37 97
REMARK SMILES IDX 36 98 27 99 28 100 29 101 30 102 34 103 31 104 33 105 32 106
REMARK H PARENT 3 7 95 25 63 36 10 78 21 89
REMARK Flexibility Score: inf
ROOT
ATOM      1  C   UNL     1       6.657  -0.536  -1.829  1.00  0.00     0.002 C 
ENDROOT
BRANCH   1   2
ATOM      2  C   UNL     1       5.287  -1.016  -1.354  1.00  0.00     0.021 C 
BRANCH   2   3
ATOM      3  C   UNL     1       5.234  -1.407   0.116  1.00  0.00     0.116 C 
BRANCH   3   4
ATOM      4  N   UNL     1       5.459  -0.276   1.003  1.00  0.00    -0.352 N 
ATOM      5  O   UNL     1       4.933   1.181   2.649  1.00  0.00    -0.269 OA
ATOM      6  C   UNL     1       4.712   0.113   2.089  1.00  0.00     0.251 C 
ATOM      7  H   UNL     1       6.246   0.280   0.799  1.00  0.00     0.163 HD
BRANCH   6   8
ATOM      8  C   UNL     1       3.619  -0.769   2.552  1.00  0.00     0.039 A 
ATOM      9  C   UNL     1       3.843  -2.139   2.705  1.00  0.00     0.014 A 
ATOM     10  C   UNL     1       2.352  -0.229   2.784  1.00  0.00     0.014 A 
ATOM     11  C   UNL     1       2.770  -2.988   2.939  1.00  0.00     0.010 A 
ATOM     12  C   UNL     1       1.292  -1.078   3.117  1.00  0.00     0.010 A 
ATOM     13  C   UNL     1       1.484  -2.468   3.164  1.00  0.00    -0.014 A 
BRANCH  13  14
ATOM     14  C   UNL     1       0.376  -3.403   3.493  1.00  0.00     0.031 A 
ATOM     15  C   UNL     1      -0.815  -3.553   2.587  1.00  0.00     0.074 A 
ATOM     16  C   UNL     1       0.479  -4.150   4.610  1.00  0.00     0.049 A 
ATOM     17  N   UNL     1      -1.851  -4.343   2.712  1.00  0.00    -0.248 NA
ATOM     18  C   UNL     1      -0.855  -2.697   1.393  1.00  0.00     0.031 C 
ATOM     19  C   UNL     1       1.590  -4.085   5.564  1.00  0.00     0.029 A 
ATOM     20  N   UNL     1      -0.337  -5.125   5.121  1.00  0.00    -0.354 N 
ATOM     21  C   UNL     1      -2.679  -4.066   1.628  1.00  0.00     0.074 A 
ATOM     22  C   UNL     1      -2.035  -3.009   0.876  1.00  0.00     0.031 C 
ATOM     23  C   UNL     1       1.419  -5.023   6.504  1.00  0.00     0.029 A 
ATOM     24  C   UNL     1       0.151  -5.702   6.271  1.00  0.00     0.049 A 
ATOM     25  H   UNL     1      -1.190  -5.387   4.706  1.00  0.00     0.167 HD
ATOM     26  C   UNL     1      -3.861  -4.646   1.293  1.00  0.00     0.034 A 
ATOM     27  C   UNL     1      -0.371  -6.658   7.061  1.00  0.00     0.034 A 
ATOM     28  C   UNL     1      -4.481  -5.705   2.058  1.00  0.00     0.049 A 
ATOM     29  C   UNL     1      -1.700  -7.254   6.688  1.00  0.00     0.074 A 
ATOM     30  C   UNL     1      -5.653  -6.391   1.789  1.00  0.00     0.029 A 
ATOM     31  N   UNL     1      -3.987  -6.225   3.250  1.00  0.00    -0.354 N 
ATOM     32  N   UNL     1      -2.459  -6.996   5.648  1.00  0.00    -0.248 NA
ATOM     33  C   UNL     1      -2.241  -8.271   7.596  1.00  0.00     0.031 C 
ATOM     34  C   UNL     1      -5.906  -7.267   2.851  1.00  0.00     0.029 A 
ATOM     35  C   UNL     1      -4.850  -7.193   3.745  1.00  0.00     0.049 A 
ATOM     36  H   UNL     1      -3.147  -5.946   3.680  1.00  0.00     0.167 HD
ATOM     37  C   UNL     1      -3.558  -7.841   5.765  1.00  0.00     0.074 A 
ATOM     38  C   UNL     1      -3.349  -8.628   6.964  1.00  0.00     0.031 C 
ATOM     39  C   UNL     1      -4.641  -7.957   4.954  1.00  0.00     0.034 A 
BRANCH  26  40
ATOM     40  C   UNL     1      -4.582  -4.107   0.078  1.00  0.00     0.023 A 
ATOM     41  C   UNL     1      -4.029  -4.180  -1.213  1.00  0.00     0.031 A 
ATOM     42  C   UNL     1      -5.837  -3.485   0.217  1.00  0.00     0.131 A 
ATOM     43  C   UNL     1      -4.686  -3.572  -2.295  1.00  0.00     0.055 A 
ATOM     44  C   UNL     1      -6.526  -2.956  -0.877  1.00  0.00     0.041 A 
ATOM     45  F   UNL     1      -6.410  -3.365   1.425  1.00  0.00    -0.206 F 
ATOM     46  C   UNL     1      -5.943  -2.983  -2.140  1.00  0.00     0.022 A 
BRANCH  43  47
ATOM     47  S   UNL     1      -3.805  -3.425  -3.874  1.00  0.00     0.124 S 
ATOM     48  O   UNL     1      -2.590  -2.720  -3.472  1.00  0.00    -0.237 OA
ATOM     49  O   UNL     1      -3.632  -4.818  -4.270  1.00  0.00    -0.237 OA
ATOM     50  O   UNL     1      -4.719  -2.647  -4.707  1.00  0.00    -0.744 OA
ENDBRANCH  43  47
ENDBRANCH  26  40
BRANCH  27  51
ATOM     51  C   UNL     1       0.352  -7.095   8.288  1.00  0.00     0.023 A 
ATOM     52  C   UNL     1       0.818  -8.412   8.421  1.00  0.00     0.031 A 
ATOM     53  C   UNL     1       0.568  -6.207   9.357  1.00  0.00     0.131 A 
ATOM     54  C   UNL     1       1.440  -8.815   9.612  1.00  0.00     0.055 A 
ATOM     55  C   UNL     1       1.238  -6.597  10.517  1.00  0.00     0.041 A 
ATOM     56  F   UNL     1       0.147  -4.934   9.279  1.00  0.00    -0.206 F 
ATOM     57  C   UNL     1       1.667  -7.913  10.654  1.00  0.00     0.022 A 
BRANCH  54  58
ATOM     58  S   UNL     1       1.877 -10.563   9.812  1.00  0.00     0.124 S 
ATOM     59  O   UNL     1       0.583 -11.214   9.642  1.00  0.00    -0.237 OA
ATOM     60  O   UNL     1       2.841 -10.759   8.735  1.00  0.00    -0.237 OA
ATOM     61  O   UNL     1       2.433 -10.622  11.162  1.00  0.00    -0.744 OA
ENDBRANCH  54  58
ENDBRANCH  27  51
BRANCH  39  62
ATOM     62  C   UNL     1      -5.655  -9.011   5.327  1.00  0.00     0.023 A 
ATOM     63  C   UNL     1      -6.415  -8.922   6.507  1.00  0.00     0.031 A 
ATOM     64  C   UNL     1      -5.832 -10.143   4.511  1.00  0.00     0.131 A 
ATOM     65  C   UNL     1      -7.264  -9.978   6.873  1.00  0.00     0.055 A 
ATOM     66  C   UNL     1      -6.728 -11.158   4.847  1.00  0.00     0.041 A 
ATOM     67  F   UNL     1      -5.130 -10.283   3.376  1.00  0.00    -0.206 F 
ATOM     68  C   UNL     1      -7.438 -11.088   6.042  1.00  0.00     0.022 A 
BRANCH  65  69
ATOM     69  S   UNL     1      -8.050  -9.936   8.508  1.00  0.00     0.124 S 
ATOM     70  O   UNL     1      -6.897  -9.834   9.396  1.00  0.00    -0.237 OA
ATOM     71  O   UNL     1      -8.893  -8.748   8.418  1.00  0.00    -0.237 OA
ATOM     72  O   UNL     1      -8.774 -11.205   8.573  1.00  0.00    -0.744 OA
ENDBRANCH  65  69
ENDBRANCH  39  62
ENDBRANCH  13  14
ENDBRANCH   6   8
ENDBRANCH   3   4
ENDBRANCH   2   3
ENDBRANCH   1   2
BRANCH   1  73
ATOM     73  C   UNL     1       7.807  -1.508  -1.544  1.00  0.00     0.002 C 
BRANCH  73  74
ATOM     74  C   UNL     1       7.585  -2.941  -2.053  1.00  0.00     0.021 C 
BRANCH  74  75
ATOM     75  C   UNL     1       7.370  -3.031  -3.563  1.00  0.00     0.116 C 
BRANCH  75  76
ATOM     76  N   UNL     1       8.576  -2.593  -4.235  1.00  0.00    -0.356 N 
ATOM     77  C   UNL     1       9.563  -3.369  -4.763  1.00  0.00     0.224 C 
ATOM     78  H   UNL     1       8.697  -1.619  -4.320  1.00  0.00     0.163 HD
ATOM     79  O   UNL     1      10.716  -2.946  -4.714  1.00  0.00    -0.275 OA
BRANCH  77  80
ATOM     80  C   UNL     1       9.184  -4.696  -5.399  1.00  0.00     0.095 C 
ATOM     81  C   UNL     1       9.677  -5.796  -4.454  1.00  0.00     0.041 C 
ATOM     82  C   UNL     1       9.647  -4.850  -6.868  1.00  0.00     0.095 C 
ATOM     83  C   UNL     1       9.545  -7.167  -5.030  1.00  0.00    -0.030 C 
ATOM     84  C   UNL     1       9.473  -6.305  -7.380  1.00  0.00     0.041 C 
ATOM     85  C   UNL     1       9.447  -7.390  -6.345  1.00  0.00    -0.030 C 
BRANCH  82  86
ATOM     86  C   UNL     1      11.048  -4.317  -7.189  1.00  0.00     0.229 C 
ATOM     87  O   UNL     1      12.018  -5.085  -7.105  1.00  0.00    -0.274 OA
ATOM     88  N   UNL     1      11.322  -3.038  -7.603  1.00  0.00    -0.317 N 
ATOM     89  H   UNL     1      12.254  -2.934  -7.903  1.00  0.00     0.170 HD
BRANCH  88  90
ATOM     90  C   UNL     1      10.600  -1.853  -7.702  1.00  0.00     0.108 A 
ATOM     91  S   UNL     1       8.925  -1.800  -7.467  1.00  0.00    -0.122 S 
ATOM     92  C   UNL     1      11.105  -0.584  -8.030  1.00  0.00     0.078 A 
ATOM     93  C   UNL     1       8.928  -0.133  -7.274  1.00  0.00     0.011 A 
ATOM     94  C   UNL     1      10.097   0.440  -7.735  1.00  0.00    -0.019 A 
ATOM     95  C   UNL     1       7.754   0.590  -6.699  1.00  0.00     0.047 C 
ATOM     96  C   UNL     1      10.192   1.935  -7.848  1.00  0.00     0.037 C 
ATOM     97  C   UNL     1       7.694   2.007  -7.264  1.00  0.00     0.006 C 
ATOM     98  C   UNL     1       9.054   2.697  -7.145  1.00  0.00     0.005 C 
BRANCH  92  99
ATOM     99  C   UNL     1      12.477  -0.430  -8.566  1.00  0.00     0.257 C 
ATOM    100  O   UNL     1      13.297  -1.354  -8.541  1.00  0.00    -0.269 OA
ATOM    101  N   UNL     1      12.743   0.724  -9.291  1.00  0.00    -0.339 N 
ATOM    102  C   UNL     1      13.002   0.588 -10.718  1.00  0.00     0.120 C 
ATOM    103  C   UNL     1      13.280   1.906  -8.629  1.00  0.00     0.120 C 
ATOM    104  C   UNL     1      14.458   0.869 -11.086  1.00  0.00     0.022 C 
ATOM    105  C   UNL     1      14.730   2.202  -8.998  1.00  0.00     0.022 C 
ATOM    106  C   UNL     1      14.916   2.206 -10.511  1.00  0.00     0.004 C 
ENDBRANCH  92  99
ENDBRANCH  88  90
ENDBRANCH  82  86
ENDBRANCH  77  80
ENDBRANCH  75  76
ENDBRANCH  74  75
ENDBRANCH  73  74
ENDBRANCH   1  73
TORSDOF 19
