REMARK SMILES CCOC(=O)c1c(NC(=O)/C=C/C(=O)NCCCCCCNC(=O)c2ccc(-c3c4nc(c(-c5cc(S(=O)(=O)[O-])ccc5F)c5ccc([nH]5)c(-c5cc(S(=O)(=O)[O-])ccc5F)c5nc(c(-c6cc(S(=O)(=O)[O-])ccc6F)c6ccc3[nH]6)C=C5)C=C4)cc2)sc(C)c1-c1ccc(C)c(C)c1
REMARK SMILES IDX 17 1 16 2 15 3 13 4 14 5 12 7 11 8 9 9 8 10 10 12 7 13 6 14
REMARK SMILES IDX 91 15 88 16 89 17 90 18 4 19 5 20 3 21 2 22 1 23 92 24 93 25
REMARK SMILES IDX 99 26 94 27 97 28 95 29 98 30 96 31 18 32 19 33 20 34 21 35
REMARK SMILES IDX 22 36 23 37 24 39 25 40 26 41 87 42 27 43 86 44 28 45 29 46
REMARK SMILES IDX 30 47 80 48 31 49 85 50 79 51 81 52 32 53 84 54 78 55 77 56
REMARK SMILES IDX 33 58 65 59 45 60 64 61 46 62 49 63 63 64 82 65 47 66 48 67
REMARK SMILES IDX 62 69 83 70 50 71 34 72 35 73 43 74 36 75 42 76 44 77 41 78
REMARK SMILES IDX 37 79 38 80 39 81 40 82 66 83 67 84 75 85 68 86 74 87 76 88
REMARK SMILES IDX 73 89 69 90 70 91 71 92 72 93 51 94 52 95 60 96 53 97 59 98
REMARK SMILES IDX 61 99 58 100 54 101 55 102 56 103 57 104
REMARK H PARENT 15 6 8 11 22 38 81 57 49 68
REMARK Flexibility Score: inf
ROOT
ATOM      1  C   UNL     1       7.627   8.284  -3.423  1.00  0.00     0.021 C 
ENDROOT
BRANCH   1   2
ATOM      2  C   UNL     1       7.918   7.463  -2.171  1.00  0.00     0.116 C 
BRANCH   2   3
ATOM      3  N   UNL     1       7.101   7.937  -1.072  1.00  0.00    -0.353 N 
ATOM      4  C   UNL     1       5.842   7.531  -0.761  1.00  0.00     0.244 C 
ATOM      5  O   UNL     1       5.095   8.241  -0.095  1.00  0.00    -0.270 OA
ATOM      6  H   UNL     1       7.499   8.625  -0.491  1.00  0.00     0.163 HD
BRANCH   4   7
ATOM      7  C   UNL     1       5.394   6.204  -1.226  1.00  0.00     0.077 C 
ATOM      8  C   UNL     1       6.111   5.141  -0.830  1.00  0.00     0.077 C 
BRANCH   8   9
ATOM      9  C   UNL     1       5.585   3.780  -0.976  1.00  0.00     0.249 C 
ATOM     10  N   UNL     1       4.644   3.288  -0.117  1.00  0.00    -0.313 N 
ATOM     11  H   UNL     1       4.415   2.344  -0.275  1.00  0.00     0.171 HD
ATOM     12  O   UNL     1       6.021   3.076  -1.885  1.00  0.00    -0.270 OA
BRANCH  10  13
ATOM     13  C   UNL     1       3.949   3.866   0.936  1.00  0.00     0.111 A 
ATOM     14  C   UNL     1       2.832   3.346   1.572  1.00  0.00     0.102 A 
ATOM     15  C   UNL     1       2.219   4.341   2.432  1.00  0.00     0.012 A 
ATOM     16  S   UNL     1       4.430   5.316   1.660  1.00  0.00    -0.122 S 
ATOM     17  C   UNL     1       2.950   5.517   2.468  1.00  0.00     0.012 A 
ATOM     18  C   UNL     1       2.676   6.839   3.109  1.00  0.00     0.057 C 
BRANCH  14  19
ATOM     19  C   UNL     1       2.374   1.986   1.321  1.00  0.00     0.341 C 
ATOM     20  O   UNL     1       3.156   1.059   1.134  1.00  0.00    -0.246 OA
BRANCH  19  21
ATOM     21  O   UNL     1       1.019   1.864   1.284  1.00  0.00    -0.462 OA
BRANCH  21  22
ATOM     22  C   UNL     1       0.514   0.526   1.169  1.00  0.00     0.230 C 
ATOM     23  C   UNL     1       0.707  -0.056  -0.222  1.00  0.00     0.049 C 
ENDBRANCH  21  22
ENDBRANCH  19  21
ENDBRANCH  14  19
BRANCH  15  24
ATOM     24  C   UNL     1       1.025   4.176   3.245  1.00  0.00    -0.016 A 
ATOM     25  C   UNL     1       1.047   3.273   4.307  1.00  0.00     0.009 A 
ATOM     26  C   UNL     1      -0.134   4.913   2.980  1.00  0.00     0.012 A 
ATOM     27  C   UNL     1      -0.087   3.105   5.097  1.00  0.00     0.004 A 
ATOM     28  C   UNL     1      -1.279   4.764   3.780  1.00  0.00    -0.048 A 
ATOM     29  C   UNL     1      -1.255   3.845   4.848  1.00  0.00    -0.048 A 
ATOM     30  C   UNL     1      -2.492   5.595   3.467  1.00  0.00     0.044 C 
ATOM     31  C   UNL     1      -2.439   3.586   5.738  1.00  0.00     0.044 C 
ENDBRANCH  15  24
ENDBRANCH  10  13
ENDBRANCH   8   9
ENDBRANCH   4   7
ENDBRANCH   2   3
ENDBRANCH   1   2
BRANCH   1  32
ATOM     32  C   UNL     1       8.120   9.733  -3.336  1.00  0.00     0.002 C 
BRANCH  32  33
ATOM     33  C   UNL     1       9.614   9.893  -3.033  1.00  0.00     0.002 C 
BRANCH  33  34
ATOM     34  C   UNL     1      10.547   9.044  -3.899  1.00  0.00     0.021 C 
BRANCH  34  35
ATOM     35  C   UNL     1      10.366   9.229  -5.401  1.00  0.00     0.116 C 
BRANCH  35  36
ATOM     36  N   UNL     1      10.706  10.575  -5.828  1.00  0.00    -0.352 N 
ATOM     37  C   UNL     1      11.641  10.972  -6.752  1.00  0.00     0.251 C 
ATOM     38  H   UNL     1      10.198  11.300  -5.397  1.00  0.00     0.163 HD
ATOM     39  O   UNL     1      11.944  12.156  -6.853  1.00  0.00    -0.269 OA
BRANCH  37  40
ATOM     40  C   UNL     1      12.298   9.953  -7.597  1.00  0.00     0.039 A 
ATOM     41  C   UNL     1      13.692   9.935  -7.676  1.00  0.00     0.014 A 
ATOM     42  C   UNL     1      11.537   8.996  -8.278  1.00  0.00     0.014 A 
ATOM     43  C   UNL     1      14.329   8.910  -8.378  1.00  0.00     0.010 A 
ATOM     44  C   UNL     1      12.176   7.942  -8.927  1.00  0.00     0.010 A 
ATOM     45  C   UNL     1      13.577   7.882  -8.972  1.00  0.00    -0.014 A 
BRANCH  45  46
ATOM     46  C   UNL     1      14.238   6.716  -9.612  1.00  0.00     0.031 A 
ATOM     47  C   UNL     1      14.102   6.487 -11.091  1.00  0.00     0.074 A 
ATOM     48  C   UNL     1      14.898   5.826  -8.843  1.00  0.00     0.049 A 
ATOM     49  N   UNL     1      14.516   5.478 -11.813  1.00  0.00    -0.248 NA
ATOM     50  C   UNL     1      13.387   7.521 -11.854  1.00  0.00     0.031 C 
ATOM     51  C   UNL     1      15.070   5.928  -7.392  1.00  0.00     0.029 A 
ATOM     52  N   UNL     1      15.532   4.653  -9.168  1.00  0.00    -0.354 N 
ATOM     53  C   UNL     1      14.111   5.751 -13.114  1.00  0.00     0.074 A 
ATOM     54  C   UNL     1      13.373   6.996 -13.071  1.00  0.00     0.031 C 
ATOM     55  C   UNL     1      15.772   4.870  -6.956  1.00  0.00     0.029 A 
ATOM     56  C   UNL     1      16.057   3.989  -8.083  1.00  0.00     0.049 A 
ATOM     57  H   UNL     1      15.605   4.318 -10.091  1.00  0.00     0.167 HD
ATOM     58  C   UNL     1      14.350   5.037 -14.242  1.00  0.00     0.034 A 
ATOM     59  C   UNL     1      16.676   2.794  -8.002  1.00  0.00     0.034 A 
ATOM     60  C   UNL     1      15.090   3.800 -14.269  1.00  0.00     0.049 A 
ATOM     61  C   UNL     1      16.876   1.993  -9.264  1.00  0.00     0.074 A 
ATOM     62  C   UNL     1      15.438   3.027 -15.363  1.00  0.00     0.029 A 
ATOM     63  N   UNL     1      15.588   3.147 -13.149  1.00  0.00    -0.354 N 
ATOM     64  N   UNL     1      16.529   2.290 -10.495  1.00  0.00    -0.248 NA
ATOM     65  C   UNL     1      17.554   0.697  -9.126  1.00  0.00     0.031 C 
ATOM     66  C   UNL     1      16.088   1.877 -14.901  1.00  0.00     0.029 A 
ATOM     67  C   UNL     1      16.206   1.963 -13.523  1.00  0.00     0.049 A 
ATOM     68  H   UNL     1      15.514   3.476 -12.224  1.00  0.00     0.167 HD
ATOM     69  C   UNL     1      16.964   1.226 -11.278  1.00  0.00     0.074 A 
ATOM     70  C   UNL     1      17.619   0.292 -10.385  1.00  0.00     0.031 C 
ATOM     71  C   UNL     1      16.836   1.034 -12.616  1.00  0.00     0.034 A 
BRANCH  58  72
ATOM     72  C   UNL     1      13.785   5.569 -15.536  1.00  0.00     0.023 A 
ATOM     73  C   UNL     1      14.232   6.782 -16.090  1.00  0.00     0.031 A 
ATOM     74  C   UNL     1      12.789   4.857 -16.225  1.00  0.00     0.131 A 
ATOM     75  C   UNL     1      13.644   7.273 -17.265  1.00  0.00     0.055 A 
ATOM     76  C   UNL     1      12.257   5.316 -17.432  1.00  0.00     0.041 A 
ATOM     77  F   UNL     1      12.310   3.703 -15.734  1.00  0.00    -0.206 F 
ATOM     78  C   UNL     1      12.677   6.537 -17.953  1.00  0.00     0.022 A 
BRANCH  75  79
ATOM     79  S   UNL     1      14.085   8.941 -17.825  1.00  0.00     0.124 S 
ATOM     80  O   UNL     1      13.650   9.756 -16.693  1.00  0.00    -0.237 OA
ATOM     81  O   UNL     1      15.527   8.838 -18.021  1.00  0.00    -0.237 OA
ATOM     82  O   UNL     1      13.300   9.112 -19.045  1.00  0.00    -0.744 OA
ENDBRANCH  75  79
ENDBRANCH  58  72
BRANCH  59  83
ATOM     83  C   UNL     1      17.120   2.254  -6.685  1.00  0.00     0.023 A 
ATOM     84  C   UNL     1      18.479   2.022  -6.421  1.00  0.00     0.031 A 
ATOM     85  C   UNL     1      16.187   1.901  -5.693  1.00  0.00     0.131 A 
ATOM     86  C   UNL     1      18.864   1.406  -5.221  1.00  0.00     0.055 A 
ATOM     87  C   UNL     1      16.580   1.338  -4.477  1.00  0.00     0.041 A 
ATOM     88  F   UNL     1      14.875   2.102  -5.892  1.00  0.00    -0.206 F 
ATOM     89  C   UNL     1      17.925   1.073  -4.242  1.00  0.00     0.022 A 
BRANCH  86  90
ATOM     90  S   UNL     1      20.606   0.949  -5.000  1.00  0.00     0.124 S 
ATOM     91  O   UNL     1      20.846   0.116  -6.173  1.00  0.00    -0.237 OA
ATOM     92  O   UNL     1      21.261   2.253  -4.994  1.00  0.00    -0.237 OA
ATOM     93  O   UNL     1      20.613   0.244  -3.720  1.00  0.00    -0.744 OA
ENDBRANCH  86  90
ENDBRANCH  59  83
BRANCH  71  94
ATOM     94  C   UNL     1      17.441  -0.224 -13.183  1.00  0.00     0.023 A 
ATOM     95  C   UNL     1      16.907  -1.492 -12.891  1.00  0.00     0.031 A 
ATOM     96  C   UNL     1      18.574  -0.157 -14.012  1.00  0.00     0.131 A 
ATOM     97  C   UNL     1      17.537  -2.644 -13.382  1.00  0.00     0.055 A 
ATOM     98  C   UNL     1      19.163  -1.304 -14.544  1.00  0.00     0.041 A 
ATOM     99  F   UNL     1      19.125   1.028 -14.321  1.00  0.00    -0.206 F 
ATOM    100  C   UNL     1      18.652  -2.558 -14.220  1.00  0.00     0.022 A 
BRANCH  97 101
ATOM    101  S   UNL     1      16.924  -4.266 -12.848  1.00  0.00     0.124 S 
ATOM    102  O   UNL     1      17.121  -4.204 -11.404  1.00  0.00    -0.237 OA
ATOM    103  O   UNL     1      15.538  -4.243 -13.305  1.00  0.00    -0.237 OA
ATOM    104  O   UNL     1      17.791  -5.209 -13.553  1.00  0.00    -0.744 OA
ENDBRANCH  97 101
ENDBRANCH  71  94
ENDBRANCH  45  46
ENDBRANCH  37  40
ENDBRANCH  35  36
ENDBRANCH  34  35
ENDBRANCH  33  34
ENDBRANCH  32  33
ENDBRANCH   1  32
TORSDOF 22
