REMARK SMILES CN1C(=O)c2ccc(NC(=O)C[C@@](C)(C(=O)NCCCCCCNC(=O)c3ccc(-c4c5nc(c(-c6cc(S(=O)(=O)[O-])ccc6F)c6ccc([nH]6)c(-c6cc(S(=O)(=O)[O-])ccc6F)c6nc(c(-c7cc(S(=O)(=O)[O-])ccc7F)c7ccc4[nH]7)C=C6)C=C5)cc3)c3ccccc3)cc2C1=O
REMARK SMILES IDX 20 1 19 2 18 3 17 4 15 5 16 6 13 8 14 9 12 10 10 11 9 12
REMARK SMILES IDX 11 14 8 15 1 16 2 17 3 18 98 19 4 20 5 21 97 22 99 23 6 24
REMARK SMILES IDX 96 25 7 26 90 27 91 28 95 29 92 30 94 31 93 32 21 33 22 34
REMARK SMILES IDX 23 35 24 36 25 37 26 39 27 40 28 41 89 42 29 43 88 44 30 45
REMARK SMILES IDX 31 46 32 47 82 48 33 49 87 50 81 51 83 52 34 53 86 54 80 55
REMARK SMILES IDX 79 56 35 58 67 59 47 60 66 61 48 62 51 63 65 64 84 65 49 66
REMARK SMILES IDX 50 67 64 69 85 70 52 71 36 72 37 73 45 74 38 75 44 76 46 77
REMARK SMILES IDX 43 78 39 79 40 80 41 81 42 82 68 83 69 84 77 85 70 86 76 87
REMARK SMILES IDX 78 88 75 89 71 90 72 91 73 92 74 93 53 94 54 95 62 96 55 97
REMARK SMILES IDX 61 98 63 99 60 100 56 101 57 102 58 103 59 104
REMARK H PARENT 17 7 9 13 24 38 83 57 51 68
REMARK Flexibility Score: inf
ROOT
ATOM      1  C   UNL     1       1.626   5.051  -2.552  1.00  0.00     0.002 C 
ENDROOT
BRANCH   1   2
ATOM      2  C   UNL     1       0.106   4.882  -2.541  1.00  0.00     0.021 C 
BRANCH   2   3
ATOM      3  C   UNL     1      -0.503   4.098  -1.378  1.00  0.00     0.116 C 
BRANCH   3   4
ATOM      4  N   UNL     1      -0.500   4.798  -0.104  1.00  0.00    -0.355 N 
ATOM      5  C   UNL     1      -1.077   4.616   1.119  1.00  0.00     0.230 C 
ATOM      6  O   UNL     1      -0.554   5.330   1.991  1.00  0.00    -0.274 OA
ATOM      7  H   UNL     1       0.060   5.608  -0.130  1.00  0.00     0.163 HD
BRANCH   5   8
ATOM      8  C   UNL     1      -2.184   3.546   1.514  1.00  0.00     0.080 C 
ATOM      9  C   UNL     1      -1.327   2.349   1.986  1.00  0.00     0.027 C 
BRANCH   8  10
ATOM     10  C   UNL     1      -3.180   3.253   0.362  1.00  0.00     0.121 C 
BRANCH  10  11
ATOM     11  C   UNL     1      -4.188   2.116   0.455  1.00  0.00     0.225 C 
ATOM     12  N   UNL     1      -3.932   0.813   0.129  1.00  0.00    -0.326 N 
ATOM     13  H   UNL     1      -4.747   0.261   0.141  1.00  0.00     0.169 HD
ATOM     14  O   UNL     1      -5.349   2.364   0.805  1.00  0.00    -0.275 OA
BRANCH  12  15
ATOM     15  C   UNL     1      -2.789   0.066  -0.219  1.00  0.00     0.042 A 
ATOM     16  C   UNL     1       3.095  -1.018  -0.018  1.00  0.00     0.157 C 
ATOM     17  N   UNL     1       1.669  -0.979  -0.233  1.00  0.00    -0.277 N 
ATOM     18  C   UNL     1       0.840  -2.066  -0.115  1.00  0.00     0.261 C 
ATOM     19  C   UNL     1       0.968   0.168  -0.442  1.00  0.00     0.261 C 
ATOM     20  O   UNL     1       1.118  -3.213   0.150  1.00  0.00    -0.269 OA
ATOM     21  C   UNL     1      -0.528  -1.560  -0.280  1.00  0.00     0.053 A 
ATOM     22  C   UNL     1      -0.442  -0.204  -0.490  1.00  0.00     0.055 A 
ATOM     23  O   UNL     1       1.368   1.317  -0.495  1.00  0.00    -0.269 OA
ATOM     24  C   UNL     1      -1.754  -2.173  -0.142  1.00  0.00     0.017 A 
ATOM     25  C   UNL     1      -1.555   0.616  -0.527  1.00  0.00     0.040 A 
ATOM     26  C   UNL     1      -2.891  -1.344  -0.112  1.00  0.00     0.027 A 
ENDBRANCH  12  15
ENDBRANCH  10  11
ENDBRANCH   8  10
BRANCH   8  27
ATOM     27  C   UNL     1      -3.029   3.993   2.758  1.00  0.00    -0.032 A 
ATOM     28  C   UNL     1      -3.147   5.337   3.148  1.00  0.00     0.005 A 
ATOM     29  C   UNL     1      -3.695   3.037   3.558  1.00  0.00     0.005 A 
ATOM     30  C   UNL     1      -3.806   5.699   4.329  1.00  0.00     0.000 A 
ATOM     31  C   UNL     1      -4.372   3.400   4.726  1.00  0.00     0.000 A 
ATOM     32  C   UNL     1      -4.409   4.730   5.124  1.00  0.00     0.000 A 
ENDBRANCH   8  27
ENDBRANCH   5   8
ENDBRANCH   3   4
ENDBRANCH   2   3
ENDBRANCH   1   2
BRANCH   1  33
ATOM     33  C   UNL     1       2.478   3.780  -2.505  1.00  0.00     0.002 C 
BRANCH  33  34
ATOM     34  C   UNL     1       2.124   2.658  -3.483  1.00  0.00     0.021 C 
BRANCH  34  35
ATOM     35  C   UNL     1       2.045   3.039  -4.958  1.00  0.00     0.116 C 
BRANCH  35  36
ATOM     36  N   UNL     1       3.282   3.587  -5.486  1.00  0.00    -0.352 N 
ATOM     37  C   UNL     1       3.905   3.324  -6.684  1.00  0.00     0.251 C 
ATOM     38  H   UNL     1       3.739   4.238  -4.905  1.00  0.00     0.163 HD
ATOM     39  O   UNL     1       5.002   3.820  -6.924  1.00  0.00    -0.269 OA
BRANCH  37  40
ATOM     40  C   UNL     1       3.270   2.410  -7.662  1.00  0.00     0.039 A 
ATOM     41  C   UNL     1       4.039   1.390  -8.232  1.00  0.00     0.014 A 
ATOM     42  C   UNL     1       1.923   2.546  -8.006  1.00  0.00     0.014 A 
ATOM     43  C   UNL     1       3.438   0.460  -9.088  1.00  0.00     0.010 A 
ATOM     44  C   UNL     1       1.314   1.584  -8.809  1.00  0.00     0.010 A 
ATOM     45  C   UNL     1       2.062   0.526  -9.353  1.00  0.00    -0.014 A 
BRANCH  45  46
ATOM     46  C   UNL     1       1.373  -0.475 -10.211  1.00  0.00     0.031 A 
ATOM     47  C   UNL     1       0.735  -0.029 -11.499  1.00  0.00     0.074 A 
ATOM     48  C   UNL     1       1.242  -1.752  -9.798  1.00  0.00     0.049 A 
ATOM     49  N   UNL     1      -0.085  -0.674 -12.287  1.00  0.00    -0.248 NA
ATOM     50  C   UNL     1       1.040   1.342 -11.936  1.00  0.00     0.031 C 
ATOM     51  C   UNL     1       1.810  -2.308  -8.569  1.00  0.00     0.029 A 
ATOM     52  N   UNL     1       0.565  -2.810 -10.355  1.00  0.00    -0.354 N 
ATOM     53  C   UNL     1      -0.408   0.216 -13.306  1.00  0.00     0.074 A 
ATOM     54  C   UNL     1       0.263   1.463 -13.002  1.00  0.00     0.031 C 
ATOM     55  C   UNL     1       1.456  -3.599  -8.464  1.00  0.00     0.029 A 
ATOM     56  C   UNL     1       0.590  -3.952  -9.585  1.00  0.00     0.049 A 
ATOM     57  H   UNL     1       0.104  -2.757 -11.224  1.00  0.00     0.167 HD
ATOM     58  C   UNL     1      -1.176   0.007 -14.404  1.00  0.00     0.034 A 
ATOM     59  C   UNL     1      -0.038  -5.135  -9.748  1.00  0.00     0.034 A 
ATOM     60  C   UNL     1      -1.827  -1.245 -14.700  1.00  0.00     0.049 A 
ATOM     61  C   UNL     1      -0.921  -5.333 -10.958  1.00  0.00     0.074 A 
ATOM     62  C   UNL     1      -2.627  -1.567 -15.783  1.00  0.00     0.029 A 
ATOM     63  N   UNL     1      -1.747  -2.386 -13.914  1.00  0.00    -0.354 N 
ATOM     64  N   UNL     1      -1.220  -4.479 -11.909  1.00  0.00    -0.248 NA
ATOM     65  C   UNL     1      -1.543  -6.655 -11.124  1.00  0.00     0.031 C 
ATOM     66  C   UNL     1      -3.068  -2.885 -15.628  1.00  0.00     0.029 A 
ATOM     67  C   UNL     1      -2.487  -3.409 -14.484  1.00  0.00     0.049 A 
ATOM     68  H   UNL     1      -1.238  -2.458 -13.074  1.00  0.00     0.167 HD
ATOM     69  C   UNL     1      -2.025  -5.176 -12.807  1.00  0.00     0.074 A 
ATOM     70  C   UNL     1      -2.164  -6.519 -12.286  1.00  0.00     0.031 C 
ATOM     71  C   UNL     1      -2.594  -4.748 -13.961  1.00  0.00     0.034 A 
BRANCH  58  72
ATOM     72  C   UNL     1      -1.363   1.166 -15.350  1.00  0.00     0.023 A 
ATOM     73  C   UNL     1      -0.280   1.716 -16.057  1.00  0.00     0.031 A 
ATOM     74  C   UNL     1      -2.632   1.743 -15.536  1.00  0.00     0.131 A 
ATOM     75  C   UNL     1      -0.471   2.850 -16.860  1.00  0.00     0.055 A 
ATOM     76  C   UNL     1      -2.831   2.821 -16.401  1.00  0.00     0.041 A 
ATOM     77  F   UNL     1      -3.700   1.273 -14.872  1.00  0.00    -0.206 F 
ATOM     78  C   UNL     1      -1.744   3.390 -17.058  1.00  0.00     0.022 A 
BRANCH  75  79
ATOM     79  S   UNL     1       0.989   3.685 -17.536  1.00  0.00     0.124 S 
ATOM     80  O   UNL     1       1.690   4.081 -16.317  1.00  0.00    -0.237 OA
ATOM     81  O   UNL     1       1.621   2.632 -18.323  1.00  0.00    -0.237 OA
ATOM     82  O   UNL     1       0.424   4.789 -18.309  1.00  0.00    -0.744 OA
ENDBRANCH  75  79
ENDBRANCH  58  72
BRANCH  59  83
ATOM     83  C   UNL     1       0.105  -6.221  -8.733  1.00  0.00     0.023 A 
ATOM     84  C   UNL     1       0.673  -7.458  -9.074  1.00  0.00     0.031 A 
ATOM     85  C   UNL     1      -0.392  -6.065  -7.426  1.00  0.00     0.131 A 
ATOM     86  C   UNL     1       0.669  -8.512  -8.146  1.00  0.00     0.055 A 
ATOM     87  C   UNL     1      -0.336  -7.095  -6.486  1.00  0.00     0.041 A 
ATOM     88  F   UNL     1      -0.944  -4.902  -7.043  1.00  0.00    -0.206 F 
ATOM     89  C   UNL     1       0.181  -8.335  -6.850  1.00  0.00     0.022 A 
BRANCH  86  90
ATOM     90  S   UNL     1       1.197 -10.157  -8.700  1.00  0.00     0.124 S 
ATOM     91  O   UNL     1       0.330 -10.372  -9.853  1.00  0.00    -0.237 OA
ATOM     92  O   UNL     1       2.610  -9.937  -8.991  1.00  0.00    -0.237 OA
ATOM     93  O   UNL     1       0.923 -11.008  -7.545  1.00  0.00    -0.744 OA
ENDBRANCH  86  90
ENDBRANCH  59  83
BRANCH  71  94
ATOM     94  C   UNL     1      -3.345  -5.765 -14.783  1.00  0.00     0.023 A 
ATOM     95  C   UNL     1      -4.576  -6.298 -14.368  1.00  0.00     0.031 A 
ATOM     96  C   UNL     1      -2.820  -6.185 -16.019  1.00  0.00     0.131 A 
ATOM     97  C   UNL     1      -5.226  -7.252 -15.166  1.00  0.00     0.055 A 
ATOM     98  C   UNL     1      -3.495  -7.096 -16.831  1.00  0.00     0.041 A 
ATOM     99  F   UNL     1      -1.647  -5.705 -16.461  1.00  0.00    -0.206 F 
ATOM    100  C   UNL     1      -4.702  -7.641 -16.402  1.00  0.00     0.022 A 
BRANCH  97 101
ATOM    101  S   UNL     1      -6.748  -8.019 -14.546  1.00  0.00     0.124 S 
ATOM    102  O   UNL     1      -6.283  -8.676 -13.329  1.00  0.00    -0.237 OA
ATOM    103  O   UNL     1      -7.624  -6.867 -14.352  1.00  0.00    -0.237 OA
ATOM    104  O   UNL     1      -7.144  -8.921 -15.626  1.00  0.00    -0.744 OA
ENDBRANCH  97 101
ENDBRANCH  71  94
ENDBRANCH  45  46
ENDBRANCH  37  40
ENDBRANCH  35  36
ENDBRANCH  34  35
ENDBRANCH  33  34
ENDBRANCH   1  33
TORSDOF 20
