REMARK SMILES CC[C@@H]1CC[C@](O)([C@H](F)C(=O)NCCCCCCNC(=O)c2ccc(-c3c4nc(c(-c5cc(S(=O)(=O)[O-])ccc5F)c5ccc([nH]5)c(-c5cc(S(=O)(=O)[O-])ccc5F)c5nc(c(-c6cc(S(=O)(=O)[O-])ccc6F)c6ccc3[nH]6)C=C5)C=C4)cc2)C1
REMARK SMILES IDX 16 1 15 2 14 3 13 4 12 5 10 6 11 7 8 9 9 10 6 11 3 12 4 13
REMARK SMILES IDX 85 14 5 15 2 16 1 17 7 18 17 20 18 21 19 22 20 23 21 25
REMARK SMILES IDX 22 26 23 27 84 28 24 29 83 30 25 31 26 32 27 33 77 34 28 35
REMARK SMILES IDX 82 36 76 37 78 38 29 39 81 40 75 41 74 42 30 44 62 45 42 46
REMARK SMILES IDX 61 47 43 48 46 49 60 50 79 51 44 52 45 53 59 55 80 56 47 57
REMARK SMILES IDX 31 58 32 59 40 60 33 61 39 62 41 63 38 64 34 65 35 66 36 67
REMARK SMILES IDX 37 68 63 69 64 70 72 71 65 72 71 73 73 74 70 75 66 76 67 77
REMARK SMILES IDX 68 78 69 79 48 80 49 81 57 82 50 83 56 84 58 85 55 86 51 87
REMARK SMILES IDX 52 88 53 89 54 90
REMARK H PARENT 12 8 7 19 19 24 78 43 46 54
REMARK Flexibility Score: inf
ROOT
ATOM      1  C   UNL     1      -3.489  -1.266   0.255  1.00  0.00     0.002 C 
ENDROOT
BRANCH   1   2
ATOM      2  C   UNL     1      -3.037   0.139  -0.151  1.00  0.00     0.002 C 
BRANCH   2   3
ATOM      3  C   UNL     1      -1.749   0.218  -0.971  1.00  0.00     0.021 C 
BRANCH   3   4
ATOM      4  C   UNL     1      -1.724  -0.620  -2.241  1.00  0.00     0.116 C 
BRANCH   4   5
ATOM      5  N   UNL     1      -2.725  -0.256  -3.213  1.00  0.00    -0.353 N 
ATOM      6  C   UNL     1      -2.646  -0.320  -4.574  1.00  0.00     0.257 C 
ATOM      7  O   UNL     1      -3.665  -0.025  -5.211  1.00  0.00    -0.272 OA
ATOM      8  H   UNL     1      -3.575   0.082  -2.847  1.00  0.00     0.163 HD
BRANCH   6   9
ATOM      9  C   UNL     1      -1.342  -0.677  -5.298  1.00  0.00     0.286 C 
ATOM     10  F   UNL     1      -0.311   0.148  -4.932  1.00  0.00    -0.234 F 
BRANCH   9  11
ATOM     11  C   UNL     1      -0.866  -2.150  -5.250  1.00  0.00     0.105 C 
ATOM     12  C   UNL     1       0.969  -3.655  -4.561  1.00  0.00    -0.008 C 
ATOM     13  C   UNL     1       0.825  -3.692  -6.085  1.00  0.00     0.007 C 
ATOM     14  C   UNL     1       0.076  -2.495  -4.089  1.00  0.00     0.042 C 
ATOM     15  C   UNL     1       0.025  -2.451  -6.465  1.00  0.00     0.039 C 
BRANCH  12  16
ATOM     16  C   UNL     1       2.425  -3.485  -4.103  1.00  0.00     0.000 C 
ATOM     17  C   UNL     1       2.576  -3.561  -2.588  1.00  0.00     0.004 C 
ENDBRANCH  12  16
BRANCH  11  18
ATOM     18  O   UNL     1      -1.979  -3.047  -5.260  1.00  0.00    -0.386 OA
ATOM     19  H   UNL     1      -1.657  -3.962  -5.229  1.00  0.00     0.211 HD
ENDBRANCH  11  18
ENDBRANCH   9  11
ENDBRANCH   6   9
ENDBRANCH   4   5
ENDBRANCH   3   4
ENDBRANCH   2   3
ENDBRANCH   1   2
BRANCH   1  20
ATOM     20  C   UNL     1      -2.460  -2.110   1.011  1.00  0.00     0.021 C 
BRANCH  20  21
ATOM     21  C   UNL     1      -1.839  -1.451   2.239  1.00  0.00     0.116 C 
BRANCH  21  22
ATOM     22  N   UNL     1      -2.832  -1.040   3.217  1.00  0.00    -0.352 N 
ATOM     23  C   UNL     1      -2.893  -1.288   4.564  1.00  0.00     0.251 C 
ATOM     24  H   UNL     1      -3.573  -0.501   2.857  1.00  0.00     0.163 HD
ATOM     25  O   UNL     1      -3.909  -0.985   5.188  1.00  0.00    -0.269 OA
BRANCH  23  26
ATOM     26  C   UNL     1      -1.763  -1.944   5.260  1.00  0.00     0.039 A 
ATOM     27  C   UNL     1      -2.042  -2.941   6.197  1.00  0.00     0.014 A 
ATOM     28  C   UNL     1      -0.438  -1.578   5.004  1.00  0.00     0.014 A 
ATOM     29  C   UNL     1      -0.994  -3.611   6.831  1.00  0.00     0.010 A 
ATOM     30  C   UNL     1       0.607  -2.300   5.579  1.00  0.00     0.010 A 
ATOM     31  C   UNL     1       0.341  -3.325   6.500  1.00  0.00    -0.014 A 
BRANCH  31  32
ATOM     32  C   UNL     1       1.457  -4.104   7.099  1.00  0.00     0.031 A 
ATOM     33  C   UNL     1       2.482  -3.428   7.969  1.00  0.00     0.074 A 
ATOM     34  C   UNL     1       1.576  -5.415   6.813  1.00  0.00     0.049 A 
ATOM     35  N   UNL     1       3.538  -3.937   8.552  1.00  0.00    -0.248 NA
ATOM     36  C   UNL     1       2.315  -1.984   8.181  1.00  0.00     0.031 C 
ATOM     37  C   UNL     1       0.679  -6.168   5.933  1.00  0.00     0.029 A 
ATOM     38  N   UNL     1       2.498  -6.346   7.220  1.00  0.00    -0.354 N 
ATOM     39  C   UNL     1       4.168  -2.874   9.192  1.00  0.00     0.074 A 
ATOM     40  C   UNL     1       3.410  -1.685   8.864  1.00  0.00     0.031 C 
ATOM     41  C   UNL     1       1.083  -7.447   5.884  1.00  0.00     0.029 A 
ATOM     42  C   UNL     1       2.291  -7.598   6.688  1.00  0.00     0.049 A 
ATOM     43  H   UNL     1       3.239  -6.138   7.835  1.00  0.00     0.167 HD
ATOM     44  C   UNL     1       5.262  -2.894   9.995  1.00  0.00     0.034 A 
ATOM     45  C   UNL     1       3.001  -8.736   6.816  1.00  0.00     0.034 A 
ATOM     46  C   UNL     1       6.004  -4.094  10.307  1.00  0.00     0.049 A 
ATOM     47  C   UNL     1       4.219  -8.738   7.701  1.00  0.00     0.074 A 
ATOM     48  C   UNL     1       7.078  -4.245  11.166  1.00  0.00     0.029 A 
ATOM     49  N   UNL     1       5.764  -5.347   9.754  1.00  0.00    -0.354 N 
ATOM     50  N   UNL     1       4.755  -7.742   8.370  1.00  0.00    -0.248 NA
ATOM     51  C   UNL     1       4.917 -10.018   7.862  1.00  0.00     0.031 C 
ATOM     52  C   UNL     1       7.542  -5.562  11.065  1.00  0.00     0.029 A 
ATOM     53  C   UNL     1       6.700  -6.263  10.216  1.00  0.00     0.049 A 
ATOM     54  H   UNL     1       5.035  -5.555   9.126  1.00  0.00     0.167 HD
ATOM     55  C   UNL     1       5.846  -8.281   9.046  1.00  0.00     0.074 A 
ATOM     56  C   UNL     1       5.872  -9.694   8.722  1.00  0.00     0.031 C 
ATOM     57  C   UNL     1       6.741  -7.665   9.861  1.00  0.00     0.034 A 
BRANCH  44  58
ATOM     58  C   UNL     1       5.738  -1.569  10.552  1.00  0.00     0.023 A 
ATOM     59  C   UNL     1       4.916  -0.766  11.364  1.00  0.00     0.031 A 
ATOM     60  C   UNL     1       7.014  -1.075  10.226  1.00  0.00     0.131 A 
ATOM     61  C   UNL     1       5.335   0.522  11.733  1.00  0.00     0.055 A 
ATOM     62  C   UNL     1       7.463   0.168  10.679  1.00  0.00     0.041 A 
ATOM     63  F   UNL     1       7.841  -1.781   9.439  1.00  0.00    -0.206 F 
ATOM     64  C   UNL     1       6.614   0.984  11.419  1.00  0.00     0.022 A 
BRANCH  61  65
ATOM     65  S   UNL     1       4.114   1.651  12.461  1.00  0.00     0.124 S 
ATOM     66  O   UNL     1       3.061   1.640  11.448  1.00  0.00    -0.237 OA
ATOM     67  O   UNL     1       3.794   0.998  13.724  1.00  0.00    -0.237 OA
ATOM     68  O   UNL     1       4.842   2.914  12.575  1.00  0.00    -0.744 OA
ENDBRANCH  61  65
ENDBRANCH  44  58
BRANCH  45  69
ATOM     69  C   UNL     1       2.588  -9.957   6.065  1.00  0.00     0.023 A 
ATOM     70  C   UNL     1       2.132 -11.108   6.726  1.00  0.00     0.031 A 
ATOM     71  C   UNL     1       2.650  -9.984   4.659  1.00  0.00     0.131 A 
ATOM     72  C   UNL     1       1.782 -12.247   5.983  1.00  0.00     0.055 A 
ATOM     73  C   UNL     1       2.252 -11.101   3.923  1.00  0.00     0.041 A 
ATOM     74  F   UNL     1       3.074  -8.908   3.977  1.00  0.00    -0.206 F 
ATOM     75  C   UNL     1       1.823 -12.245   4.587  1.00  0.00     0.022 A 
BRANCH  72  76
ATOM     76  S   UNL     1       1.326 -13.762   6.871  1.00  0.00     0.124 S 
ATOM     77  O   UNL     1       2.533 -14.027   7.646  1.00  0.00    -0.237 OA
ATOM     78  O   UNL     1       0.158 -13.329   7.630  1.00  0.00    -0.237 OA
ATOM     79  O   UNL     1       1.051 -14.715   5.798  1.00  0.00    -0.744 OA
ENDBRANCH  72  76
ENDBRANCH  45  69
BRANCH  57  80
ATOM     80  C   UNL     1       7.815  -8.533  10.477  1.00  0.00     0.023 A 
ATOM     81  C   UNL     1       8.786  -9.180   9.691  1.00  0.00     0.031 A 
ATOM     82  C   UNL     1       7.854  -8.736  11.868  1.00  0.00     0.131 A 
ATOM     83  C   UNL     1       9.707 -10.051  10.292  1.00  0.00     0.055 A 
ATOM     84  C   UNL     1       8.819  -9.546  12.468  1.00  0.00     0.041 A 
ATOM     85  F   UNL     1       6.950  -8.151  12.671  1.00  0.00    -0.206 F 
ATOM     86  C   UNL     1       9.743 -10.222  11.678  1.00  0.00     0.022 A 
BRANCH  83  87
ATOM     87  S   UNL     1      10.780 -11.053   9.226  1.00  0.00     0.124 S 
ATOM     88  O   UNL     1       9.808 -11.765   8.403  1.00  0.00    -0.237 OA
ATOM     89  O   UNL     1      11.575 -10.039   8.541  1.00  0.00    -0.237 OA
ATOM     90  O   UNL     1      11.521 -11.886  10.171  1.00  0.00    -0.744 OA
ENDBRANCH  83  87
ENDBRANCH  57  80
ENDBRANCH  31  32
ENDBRANCH  23  26
ENDBRANCH  21  22
ENDBRANCH  20  21
ENDBRANCH   1  20
TORSDOF 19
