REMARK SMILES [NH3+]Cc1c(-c2ccccc2)c(C(=O)NCCCCCCNC(=O)c2ccc(-c3c4nc(c(-c5cc(S(=O)(=O)[O-])ccc5F)c5ccc([nH]5)c(-c5cc(S(=O)(=O)[O-])ccc5F)c5nc(c(-c6cc(S(=O)(=O)[O-])ccc6F)c6ccc3[nH]6)C=C5)C=C4)cc2)c2ccccn12
REMARK SMILES IDX 18 1 17 2 16 3 15 4 14 5 12 6 13 7 11 9 3 10 4 11 92 12
REMARK SMILES IDX 87 13 91 14 88 15 90 16 89 17 2 18 1 19 5 23 6 24 10 25 7 26
REMARK SMILES IDX 9 27 8 28 19 29 20 30 21 31 22 32 23 34 24 35 25 36 86 37
REMARK SMILES IDX 26 38 85 39 27 40 28 41 29 42 79 43 30 44 84 45 78 46 80 47
REMARK SMILES IDX 31 48 83 49 77 50 76 51 32 53 64 54 44 55 63 56 45 57 48 58
REMARK SMILES IDX 62 59 81 60 46 61 47 62 61 64 82 65 49 66 33 67 34 68 42 69
REMARK SMILES IDX 35 70 41 71 43 72 40 73 36 74 37 75 38 76 39 77 65 78 66 79
REMARK SMILES IDX 74 80 67 81 73 82 75 83 72 84 68 85 69 86 70 87 71 88 50 89
REMARK SMILES IDX 51 90 59 91 52 92 58 93 60 94 57 95 53 96 54 97 55 98 56 99
REMARK H PARENT 14 8 1 20 1 21 1 22 21 33 80 52 48 63
REMARK Flexibility Score: inf
ROOT
ATOM      1  C   UNL     1       3.020   4.875  -8.555  1.00  0.00     0.002 C 
ENDROOT
BRANCH   1   2
ATOM      2  C   UNL     1       4.214   4.317  -7.777  1.00  0.00     0.002 C 
BRANCH   2   3
ATOM      3  C   UNL     1       4.186   4.424  -6.248  1.00  0.00     0.021 C 
BRANCH   3   4
ATOM      4  C   UNL     1       2.914   3.967  -5.536  1.00  0.00     0.116 C 
BRANCH   4   5
ATOM      5  N   UNL     1       2.542   2.593  -5.775  1.00  0.00    -0.352 N 
ATOM      6  C   UNL     1       1.834   1.695  -4.999  1.00  0.00     0.254 C 
ATOM      7  O   UNL     1       1.622   0.591  -5.505  1.00  0.00    -0.269 OA
ATOM      8  H   UNL     1       2.843   2.233  -6.641  1.00  0.00     0.163 HD
BRANCH   6   9
ATOM      9  C   UNL     1       1.420   2.005  -3.624  1.00  0.00     0.073 A 
ATOM     10  C   UNL     1       0.972   1.714  -1.369  1.00  0.00     0.086 A 
ATOM     11  C   UNL     1       1.347   1.052  -2.540  1.00  0.00     0.022 A 
ATOM     12  N   UNL     1       0.787   3.048  -1.718  1.00  0.00    -0.314 N 
ATOM     13  C   UNL     1       0.886   3.176  -3.105  1.00  0.00     0.059 A 
ATOM     14  C   UNL     1       0.514   4.145  -0.886  1.00  0.00     0.092 A 
ATOM     15  C   UNL     1       0.450   4.421  -3.659  1.00  0.00     0.027 A 
ATOM     16  C   UNL     1       0.267   5.352  -1.419  1.00  0.00     0.018 A 
ATOM     17  C   UNL     1       0.188   5.470  -2.859  1.00  0.00     0.004 A 
BRANCH  10  18
ATOM     18  C   UNL     1       0.689   1.254   0.033  1.00  0.00     0.315 C 
BRANCH  18  19
ATOM     19  N   UNL     1       1.388   0.042   0.432  1.00  0.00    -0.353 N 
ATOM     20  H   UNL     1       1.137  -0.195   1.392  1.00  0.00     0.344 HD
ATOM     21  H   UNL     1       2.394   0.194   0.371  1.00  0.00     0.344 HD
ATOM     22  H   UNL     1       1.121  -0.724  -0.188  1.00  0.00     0.344 HD
ENDBRANCH  18  19
ENDBRANCH  10  18
BRANCH  11  23
ATOM     23  C   UNL     1       1.577  -0.384  -2.608  1.00  0.00    -0.016 A 
ATOM     24  C   UNL     1       2.876  -0.893  -2.695  1.00  0.00     0.009 A 
ATOM     25  C   UNL     1       0.487  -1.266  -2.579  1.00  0.00     0.009 A 
ATOM     26  C   UNL     1       3.083  -2.274  -2.733  1.00  0.00     0.001 A 
ATOM     27  C   UNL     1       0.698  -2.645  -2.610  1.00  0.00     0.001 A 
ATOM     28  C   UNL     1       1.996  -3.148  -2.685  1.00  0.00     0.000 A 
ENDBRANCH  11  23
ENDBRANCH   6   9
ENDBRANCH   4   5
ENDBRANCH   3   4
ENDBRANCH   2   3
ENDBRANCH   1   2
BRANCH   1  29
ATOM     29  C   UNL     1       2.598   6.318  -8.270  1.00  0.00     0.021 C 
BRANCH  29  30
ATOM     30  C   UNL     1       3.687   7.385  -8.328  1.00  0.00     0.116 C 
BRANCH  30  31
ATOM     31  N   UNL     1       4.373   7.444  -9.604  1.00  0.00    -0.352 N 
ATOM     32  C   UNL     1       4.691   8.521 -10.396  1.00  0.00     0.251 C 
ATOM     33  H   UNL     1       4.656   6.571  -9.960  1.00  0.00     0.163 HD
ATOM     34  O   UNL     1       5.198   8.314 -11.497  1.00  0.00    -0.269 OA
BRANCH  32  35
ATOM     35  C   UNL     1       4.402   9.913  -9.968  1.00  0.00     0.039 A 
ATOM     36  C   UNL     1       3.932  10.814 -10.930  1.00  0.00     0.014 A 
ATOM     37  C   UNL     1       4.619  10.357  -8.660  1.00  0.00     0.014 A 
ATOM     38  C   UNL     1       3.624  12.130 -10.571  1.00  0.00     0.010 A 
ATOM     39  C   UNL     1       4.251  11.653  -8.287  1.00  0.00     0.010 A 
ATOM     40  C   UNL     1       3.749  12.555  -9.238  1.00  0.00    -0.014 A 
BRANCH  40  41
ATOM     41  C   UNL     1       3.346  13.932  -8.841  1.00  0.00     0.031 A 
ATOM     42  C   UNL     1       4.368  14.922  -8.351  1.00  0.00     0.074 A 
ATOM     43  C   UNL     1       2.044  14.282  -8.893  1.00  0.00     0.049 A 
ATOM     44  N   UNL     1       4.201  16.162  -7.963  1.00  0.00    -0.248 NA
ATOM     45  C   UNL     1       5.756  14.448  -8.262  1.00  0.00     0.031 C 
ATOM     46  C   UNL     1       0.951  13.398  -9.303  1.00  0.00     0.029 A 
ATOM     47  N   UNL     1       1.418  15.468  -8.602  1.00  0.00    -0.354 N 
ATOM     48  C   UNL     1       5.459  16.615  -7.578  1.00  0.00     0.074 A 
ATOM     49  C   UNL     1       6.365  15.495  -7.724  1.00  0.00     0.031 C 
ATOM     50  C   UNL     1      -0.205  14.080  -9.265  1.00  0.00     0.029 A 
ATOM     51  C   UNL     1       0.056  15.437  -8.796  1.00  0.00     0.049 A 
ATOM     52  H   UNL     1       1.898  16.266  -8.285  1.00  0.00     0.167 HD
ATOM     53  C   UNL     1       5.828  17.854  -7.164  1.00  0.00     0.034 A 
ATOM     54  C   UNL     1      -0.879  16.392  -8.617  1.00  0.00     0.034 A 
ATOM     55  C   UNL     1       4.914  18.965  -7.032  1.00  0.00     0.049 A 
ATOM     56  C   UNL     1      -0.447  17.759  -8.154  1.00  0.00     0.074 A 
ATOM     57  C   UNL     1       5.192  20.275  -6.678  1.00  0.00     0.029 A 
ATOM     58  N   UNL     1       3.542  18.897  -7.237  1.00  0.00    -0.354 N 
ATOM     59  N   UNL     1       0.758  18.188  -7.855  1.00  0.00    -0.248 NA
ATOM     60  C   UNL     1      -1.498  18.775  -8.021  1.00  0.00     0.031 C 
ATOM     61  C   UNL     1       3.985  20.979  -6.608  1.00  0.00     0.029 A 
ATOM     62  C   UNL     1       2.958  20.131  -6.988  1.00  0.00     0.049 A 
ATOM     63  H   UNL     1       3.054  18.089  -7.519  1.00  0.00     0.167 HD
ATOM     64  C   UNL     1       0.610  19.531  -7.522  1.00  0.00     0.074 A 
ATOM     65  C   UNL     1      -0.796  19.844  -7.679  1.00  0.00     0.031 C 
ATOM     66  C   UNL     1       1.551  20.426  -7.126  1.00  0.00     0.034 A 
BRANCH  53  67
ATOM     67  C   UNL     1       7.281  18.062  -6.802  1.00  0.00     0.023 A 
ATOM     68  C   UNL     1       8.307  17.919  -7.754  1.00  0.00     0.031 A 
ATOM     69  C   UNL     1       7.650  18.383  -5.484  1.00  0.00     0.131 A 
ATOM     70  C   UNL     1       9.650  18.020  -7.359  1.00  0.00     0.055 A 
ATOM     71  C   UNL     1       8.985  18.563  -5.115  1.00  0.00     0.041 A 
ATOM     72  F   UNL     1       6.718  18.515  -4.526  1.00  0.00    -0.206 F 
ATOM     73  C   UNL     1       9.995  18.365  -6.051  1.00  0.00     0.022 A 
BRANCH  70  74
ATOM     74  S   UNL     1      10.939  17.550  -8.546  1.00  0.00     0.124 S 
ATOM     75  O   UNL     1      10.579  16.165  -8.839  1.00  0.00    -0.237 OA
ATOM     76  O   UNL     1      10.735  18.507  -9.627  1.00  0.00    -0.237 OA
ATOM     77  O   UNL     1      12.178  17.717  -7.789  1.00  0.00    -0.744 OA
ENDBRANCH  70  74
ENDBRANCH  53  67
BRANCH  54  78
ATOM     78  C   UNL     1      -2.317  16.095  -8.874  1.00  0.00     0.023 A 
ATOM     79  C   UNL     1      -3.013  16.732  -9.914  1.00  0.00     0.031 A 
ATOM     80  C   UNL     1      -3.026  15.195  -8.059  1.00  0.00     0.131 A 
ATOM     81  C   UNL     1      -4.386  16.494 -10.084  1.00  0.00     0.055 A 
ATOM     82  C   UNL     1      -4.380  14.924  -8.264  1.00  0.00     0.041 A 
ATOM     83  F   UNL     1      -2.405  14.554  -7.056  1.00  0.00    -0.206 F 
ATOM     84  C   UNL     1      -5.071  15.585  -9.274  1.00  0.00     0.022 A 
BRANCH  81  85
ATOM     85  S   UNL     1      -5.284  17.451 -11.337  1.00  0.00     0.124 S 
ATOM     86  O   UNL     1      -5.035  18.820 -10.901  1.00  0.00    -0.237 OA
ATOM     87  O   UNL     1      -4.618  17.037 -12.568  1.00  0.00    -0.237 OA
ATOM     88  O   UNL     1      -6.663  16.989 -11.192  1.00  0.00    -0.744 OA
ENDBRANCH  81  85
ENDBRANCH  54  78
BRANCH  66  89
ATOM     89  C   UNL     1       1.081  21.837  -6.866  1.00  0.00     0.023 A 
ATOM     90  C   UNL     1       0.211  22.141  -5.804  1.00  0.00     0.031 A 
ATOM     91  C   UNL     1       1.483  22.886  -7.712  1.00  0.00     0.131 A 
ATOM     92  C   UNL     1      -0.279  23.447  -5.653  1.00  0.00     0.055 A 
ATOM     93  C   UNL     1       1.041  24.196  -7.520  1.00  0.00     0.041 A 
ATOM     94  F   UNL     1       2.311  22.653  -8.743  1.00  0.00    -0.206 F 
ATOM     95  C   UNL     1       0.142  24.480  -6.495  1.00  0.00     0.022 A 
BRANCH  92  96
ATOM     96  S   UNL     1      -1.556  23.759  -4.403  1.00  0.00     0.124 S 
ATOM     97  O   UNL     1      -2.610  22.833  -4.808  1.00  0.00    -0.237 OA
ATOM     98  O   UNL     1      -0.864  23.432  -3.161  1.00  0.00    -0.237 OA
ATOM     99  O   UNL     1      -1.873  25.175  -4.581  1.00  0.00    -0.744 OA
ENDBRANCH  92  96
ENDBRANCH  66  89
ENDBRANCH  40  41
ENDBRANCH  32  35
ENDBRANCH  30  31
ENDBRANCH  29  30
ENDBRANCH   1  29
TORSDOF 19
