REMARK SMILES O=C(CCC(=O)N1c2ccccc2NC2=C(C(=O)C[C@H](c3ccco3)C2)[C@H]1c1cccs1)NCCCCCCNC(=O)c1ccc(-c2c3nc(c(-c4cc(S(=O)(=O)[O-])ccc4F)c4ccc([nH]4)c(-c4cc(S(=O)(=O)[O-])ccc4F)c4nc(c(-c5cc(S(=O)(=O)[O-])ccc5F)c5ccc2[nH]5)C=C4)C=C3)cc1
REMARK SMILES IDX 34 1 33 2 1 3 2 4 3 6 4 7 5 8 6 9 7 10 8 11 9 12 13 13 10 14
REMARK SMILES IDX 12 15 11 16 14 17 15 19 16 20 26 21 17 22 20 24 18 25 19 26
REMARK SMILES IDX 21 27 22 28 25 29 23 30 24 31 27 32 28 34 29 35 32 36 30 37
REMARK SMILES IDX 31 38 35 39 36 40 37 41 38 42 39 43 40 44 41 45 42 47 43 48
REMARK SMILES IDX 44 49 105 50 45 51 104 52 46 53 47 54 48 55 98 56 49 57
REMARK SMILES IDX 103 58 97 59 99 60 50 61 102 62 96 63 95 64 51 66 83 67
REMARK SMILES IDX 63 68 82 69 64 70 67 71 81 72 100 73 65 74 66 75 80 77
REMARK SMILES IDX 101 78 68 79 52 80 53 81 61 82 54 83 60 84 62 85 59 86 55 87
REMARK SMILES IDX 56 88 57 89 58 90 84 91 85 92 93 93 86 94 92 95 94 96 91 97
REMARK SMILES IDX 87 98 88 99 89 100 90 101 69 102 70 103 78 104 71 105 77 106
REMARK SMILES IDX 79 107 76 108 72 109 73 110 74 111 75 112
REMARK H PARENT 33 5 14 18 40 46 99 65 67 76
REMARK Flexibility Score: 80.00
ROOT
ATOM      1  C   UNL     1       1.474   2.601   1.540  1.00  0.00     0.116 C 
ENDROOT
BRANCH   1   2
ATOM      2  N   UNL     1       2.247   1.226   1.048  1.00  0.00    -0.356 N 
ATOM      3  O   UNL     1       1.002  -1.036  -0.421  1.00  0.00    -0.275 OA
ATOM      4  C   UNL     1       2.040  -0.433   0.020  1.00  0.00     0.220 C 
ATOM      5  H   UNL     1       3.163   1.246   1.409  1.00  0.00     0.163 HD
BRANCH   4   6
ATOM      6  C   UNL     1       3.338  -1.478  -0.593  1.00  0.00     0.110 C 
BRANCH   6   7
ATOM      7  C   UNL     1       4.126  -1.137  -1.872  1.00  0.00     0.110 C 
BRANCH   7   8
ATOM      8  C   UNL     1       5.112   0.043  -1.867  1.00  0.00     0.228 C 
ATOM      9  O   UNL     1       6.171  -0.007  -2.489  1.00  0.00    -0.274 OA
BRANCH   8  10
ATOM     10  N   UNL     1       4.620   1.177  -1.274  1.00  0.00    -0.298 N 
BRANCH  10  11
ATOM     11  C   UNL     1       3.596   0.968  -0.371  1.00  0.00     0.068 A 
ATOM     12  C   UNL     1       3.816  -0.036   1.163  1.00  0.00     0.028 A 
ATOM     13  C   UNL     1       1.947   1.436  -0.940  1.00  0.00     0.062 A 
ATOM     14  C   UNL     1       2.341  -0.487   2.128  1.00  0.00     0.002 A 
ATOM     15  C   UNL     1       0.473   1.006   0.035  1.00  0.00     0.028 A 
ATOM     16  C   UNL     1       0.684   0.046   1.590  1.00  0.00     0.002 A 
BRANCH  13  17
ATOM     17  N   UNL     1       1.853   2.267  -2.049  1.00  0.00    -0.357 N 
ATOM     18  H   UNL     1       1.241   2.025  -2.781  1.00  0.00     0.166 HD
BRANCH  17  19
ATOM     19  C   UNL     1       2.603   3.426  -2.149  1.00  0.00     0.025 C 
ATOM     20  C   UNL     1       3.938   3.603  -1.900  1.00  0.00     0.043 CG0
ATOM     21  C   UNL     1       1.663   4.550  -2.612  1.00  0.00     0.066 C 
ATOM     22  C   UNL     1       4.451   4.982  -2.252  1.00  0.00     0.163 C 
ATOM     23  G   UNL     1       5.100   2.562  -1.535  1.00  0.00     0.000 G0
ATOM     24  C   UNL     1       2.077   5.973  -2.299  1.00  0.00     0.069 C 
ATOM     25  O   UNL     1       5.658   5.178  -2.387  1.00  0.00    -0.294 OA
ATOM     26  C   UNL     1       3.539   6.132  -2.630  1.00  0.00     0.093 C 
BRANCH  24  27
ATOM     27  C   UNL     1       1.670   6.499  -0.952  1.00  0.00     0.107 A 
ATOM     28  C   UNL     1       1.862   7.724  -0.337  1.00  0.00     0.046 A 
ATOM     29  O   UNL     1       0.806   5.750  -0.202  1.00  0.00    -0.469 OA
ATOM     30  C   UNL     1       1.065   7.728   0.834  1.00  0.00     0.042 A 
ATOM     31  C   UNL     1       0.429   6.509   0.862  1.00  0.00     0.195 A 
ENDBRANCH  24  27
ENDBRANCH  17  19
ENDBRANCH  13  17
ENDBRANCH  10  11
BRANCH  10  32
ATOM     32  C   UNL     1       5.100   2.562  -1.535  1.00  0.00     0.167 CG0
ATOM     33  G   UNL     1       3.938   3.603  -1.900  1.00  0.00     0.000 G0
BRANCH  32  34
ATOM     34  C   UNL     1       6.139   2.869  -0.396  1.00  0.00     0.032 A 
ATOM     35  C   UNL     1       6.249   2.341   0.886  1.00  0.00     0.018 A 
ATOM     36  S   UNL     1       7.537   3.853  -0.670  1.00  0.00    -0.146 S 
ATOM     37  C   UNL     1       7.288   2.900   1.683  1.00  0.00     0.012 A 
ATOM     38  C   UNL     1       8.019   3.812   0.968  1.00  0.00     0.065 A 
ENDBRANCH  32  34
ENDBRANCH  10  32
ENDBRANCH   8  10
ENDBRANCH   7   8
ENDBRANCH   6   7
ENDBRANCH   4   6
ENDBRANCH   1   2
BRANCH   1  39
ATOM     39  C   UNL     1       2.027   3.131   2.876  1.00  0.00     0.021 C 
BRANCH  39  40
ATOM     40  C   UNL     1       3.533   3.406   2.969  1.00  0.00     0.002 C 
BRANCH  40  41
ATOM     41  C   UNL     1       4.111   4.346   1.914  1.00  0.00     0.002 C 
BRANCH  41  42
ATOM     42  C   UNL     1       3.682   5.785   2.000  1.00  0.00     0.021 C 
BRANCH  42  43
ATOM     43  C   UNL     1       4.123   6.494   3.257  1.00  0.00     0.116 C 
BRANCH  43  44
ATOM     44  N   UNL     1       5.557   6.743   3.351  1.00  0.00    -0.352 N 
ATOM     45  C   UNL     1       6.181   7.906   3.763  1.00  0.00     0.251 C 
ATOM     46  H   UNL     1       6.148   5.999   3.091  1.00  0.00     0.163 HD
ATOM     47  O   UNL     1       7.402   8.011   3.755  1.00  0.00    -0.269 OA
BRANCH  45  48
ATOM     48  C   UNL     1       5.317   9.046   4.142  1.00  0.00     0.039 A 
ATOM     49  C   UNL     1       4.224   8.816   4.975  1.00  0.00     0.014 A 
ATOM     50  C   UNL     1       5.460  10.264   3.477  1.00  0.00     0.014 A 
ATOM     51  C   UNL     1       3.137   9.671   4.894  1.00  0.00     0.010 A 
ATOM     52  C   UNL     1       4.433  11.209   3.557  1.00  0.00     0.010 A 
ATOM     53  C   UNL     1       3.228  10.892   4.204  1.00  0.00    -0.014 A 
BRANCH  53  54
ATOM     54  C   UNL     1       2.064  11.822   4.206  1.00  0.00     0.031 A 
ATOM     55  C   UNL     1       1.461  12.338   2.924  1.00  0.00     0.074 A 
ATOM     56  C   UNL     1       1.532  12.181   5.393  1.00  0.00     0.049 A 
ATOM     57  N   UNL     1       0.490  13.201   2.765  1.00  0.00    -0.248 NA
ATOM     58  C   UNL     1       2.017  11.835   1.656  1.00  0.00     0.031 C 
ATOM     59  C   UNL     1       2.023  11.732   6.698  1.00  0.00     0.029 A 
ATOM     60  N   UNL     1       0.462  12.981   5.706  1.00  0.00    -0.354 N 
ATOM     61  C   UNL     1       0.348  13.379   1.392  1.00  0.00     0.074 A 
ATOM     62  C   UNL     1       1.348  12.548   0.759  1.00  0.00     0.031 C 
ATOM     63  C   UNL     1       1.220  12.197   7.659  1.00  0.00     0.029 A 
ATOM     64  C   UNL     1       0.238  13.090   7.060  1.00  0.00     0.049 A 
ATOM     65  H   UNL     1      -0.092  13.433   5.028  1.00  0.00     0.167 HD
ATOM     66  C   UNL     1      -0.540  14.160   0.730  1.00  0.00     0.034 A 
ATOM     67  C   UNL     1      -0.623  13.855   7.759  1.00  0.00     0.034 A 
ATOM     68  C   UNL     1      -1.549  14.956   1.389  1.00  0.00     0.049 A 
ATOM     69  C   UNL     1      -1.570  14.740   7.001  1.00  0.00     0.074 A 
ATOM     70  C   UNL     1      -2.522  15.749   0.806  1.00  0.00     0.029 A 
ATOM     71  N   UNL     1      -1.723  15.060   2.762  1.00  0.00    -0.354 N 
ATOM     72  N   UNL     1      -1.710  14.869   5.702  1.00  0.00    -0.248 NA
ATOM     73  C   UNL     1      -2.476  15.580   7.790  1.00  0.00     0.031 C 
ATOM     74  C   UNL     1      -3.221  16.399   1.821  1.00  0.00     0.029 A 
ATOM     75  C   UNL     1      -2.762  15.933   3.042  1.00  0.00     0.049 A 
ATOM     76  H   UNL     1      -1.187  14.585   3.437  1.00  0.00     0.167 HD
ATOM     77  C   UNL     1      -2.736  15.788   5.519  1.00  0.00     0.074 A 
ATOM     78  C   UNL     1      -3.201  16.158   6.840  1.00  0.00     0.031 C 
ATOM     79  C   UNL     1      -3.239  16.283   4.361  1.00  0.00     0.034 A 
BRANCH  66  80
ATOM     80  C   UNL     1      -0.496  14.217  -0.782  1.00  0.00     0.023 A 
ATOM     81  C   UNL     1      -0.288  15.453  -1.428  1.00  0.00     0.031 A 
ATOM     82  C   UNL     1      -0.824  13.105  -1.577  1.00  0.00     0.131 A 
ATOM     83  C   UNL     1      -0.467  15.558  -2.814  1.00  0.00     0.055 A 
ATOM     84  C   UNL     1      -0.946  13.204  -2.965  1.00  0.00     0.041 A 
ATOM     85  F   UNL     1      -1.037  11.904  -1.016  1.00  0.00    -0.206 F 
ATOM     86  C   UNL     1      -0.785  14.438  -3.587  1.00  0.00     0.022 A 
BRANCH  83  87
ATOM     87  S   UNL     1      -0.389  17.166  -3.652  1.00  0.00     0.124 S 
ATOM     88  O   UNL     1       0.673  16.942  -4.631  1.00  0.00    -0.237 OA
ATOM     89  O   UNL     1      -1.734  17.285  -4.207  1.00  0.00    -0.237 OA
ATOM     90  O   UNL     1      -0.060  18.103  -2.583  1.00  0.00    -0.744 OA
ENDBRANCH  83  87
ENDBRANCH  66  80
BRANCH  67  91
ATOM     91  C   UNL     1      -0.612  13.777   9.250  1.00  0.00     0.023 A 
ATOM     92  C   UNL     1       0.557  14.067   9.980  1.00  0.00     0.031 A 
ATOM     93  C   UNL     1      -1.720  13.276   9.952  1.00  0.00     0.131 A 
ATOM     94  C   UNL     1       0.623  13.760  11.344  1.00  0.00     0.055 A 
ATOM     95  C   UNL     1      -1.680  13.060  11.330  1.00  0.00     0.041 A 
ATOM     96  F   UNL     1      -2.851  12.969   9.300  1.00  0.00    -0.206 F 
ATOM     97  C   UNL     1      -0.496  13.279  12.029  1.00  0.00     0.022 A 
BRANCH  94  98
ATOM     98  S   UNL     1       2.205  13.812  12.232  1.00  0.00     0.124 S 
ATOM     99  O   UNL     1       1.927  14.771  13.294  1.00  0.00    -0.237 OA
ATOM    100  O   UNL     1       2.351  12.421  12.657  1.00  0.00    -0.237 OA
ATOM    101  O   UNL     1       3.156  14.249  11.216  1.00  0.00    -0.744 OA
ENDBRANCH  94  98
ENDBRANCH  67  91
BRANCH  79 102
ATOM    102  C   UNL     1      -4.378  17.273   4.432  1.00  0.00     0.023 A 
ATOM    103  C   UNL     1      -5.605  16.967   3.810  1.00  0.00     0.031 A 
ATOM    104  C   UNL     1      -4.202  18.565   4.954  1.00  0.00     0.131 A 
ATOM    105  C   UNL     1      -6.582  17.959   3.670  1.00  0.00     0.055 A 
ATOM    106  C   UNL     1      -5.206  19.531   4.871  1.00  0.00     0.041 A 
ATOM    107  F   UNL     1      -3.048  18.910   5.546  1.00  0.00    -0.206 F 
ATOM    108  C   UNL     1      -6.394  19.235   4.209  1.00  0.00     0.022 A 
BRANCH 105 109
ATOM    109  S   UNL     1      -8.076  17.663   2.686  1.00  0.00     0.124 S 
ATOM    110  O   UNL     1      -9.134  17.891   3.667  1.00  0.00    -0.237 OA
ATOM    111  O   UNL     1      -7.962  18.679   1.643  1.00  0.00    -0.237 OA
ATOM    112  O   UNL     1      -7.935  16.282   2.236  1.00  0.00    -0.744 OA
ENDBRANCH 105 109
ENDBRANCH  79 102
ENDBRANCH  53  54
ENDBRANCH  45  48
ENDBRANCH  43  44
ENDBRANCH  42  43
ENDBRANCH  41  42
ENDBRANCH  40  41
ENDBRANCH  39  40
ENDBRANCH   1  39
TORSDOF 21
