REMARK SMILES O=C(NCCCCCCNC(=O)c1cc(F)c(F)cc1NS(=O)(=O)c1ccc2c(c1)CCC2)c1ccc(-c2c3nc(c(-c4cc(S(=O)(=O)[O-])ccc4F)c4ccc([nH]4)c(-c4cc(S(=O)(=O)[O-])ccc4F)c4nc(c(-c5cc(S(=O)(=O)[O-])ccc5F)c5ccc2[nH]5)C=C4)C=C3)cc1
REMARK SMILES IDX 6 1 5 2 4 3 3 4 1 5 2 6 34 8 35 9 96 10 36 11 95 12 37 13
REMARK SMILES IDX 38 14 39 15 89 16 40 17 94 18 88 19 90 20 41 21 93 22 87 23
REMARK SMILES IDX 86 24 42 26 74 27 54 28 73 29 55 30 58 31 72 32 91 33 56 34
REMARK SMILES IDX 57 35 71 37 92 38 59 39 43 40 44 41 52 42 45 43 51 44 53 45
REMARK SMILES IDX 50 46 46 47 47 48 48 49 49 50 75 51 76 52 84 53 77 54 83 55
REMARK SMILES IDX 85 56 82 57 78 58 79 59 80 60 81 61 60 62 61 63 69 64 62 65
REMARK SMILES IDX 68 66 70 67 67 68 63 69 64 70 65 71 66 72 7 73 8 74 9 75
REMARK SMILES IDX 10 76 11 77 12 79 13 80 14 81 20 82 15 83 19 84 16 85 17 86
REMARK SMILES IDX 18 87 21 88 22 90 23 91 24 92 25 93 26 94 30 95 27 96 29 97
REMARK SMILES IDX 28 98 31 99 33 100 32 101
REMARK H PARENT 3 7 90 25 58 36 10 78 21 89
REMARK Flexibility Score: inf
ROOT
ATOM      1  C   UNL     1       4.179   1.046  -3.933  1.00  0.00     0.002 C 
ENDROOT
BRANCH   1   2
ATOM      2  C   UNL     1       4.653   0.000  -2.923  1.00  0.00     0.021 C 
BRANCH   2   3
ATOM      3  C   UNL     1       4.459   0.371  -1.458  1.00  0.00     0.116 C 
BRANCH   3   4
ATOM      4  N   UNL     1       3.060   0.470  -1.077  1.00  0.00    -0.352 N 
ATOM      5  O   UNL     1       1.196  -0.005   0.103  1.00  0.00    -0.269 OA
ATOM      6  C   UNL     1       2.418  -0.086   0.006  1.00  0.00     0.251 C 
ATOM      7  H   UNL     1       2.494   1.009  -1.675  1.00  0.00     0.163 HD
BRANCH   6   8
ATOM      8  C   UNL     1       3.201  -0.803   1.040  1.00  0.00     0.039 A 
ATOM      9  C   UNL     1       4.395  -0.268   1.526  1.00  0.00     0.014 A 
ATOM     10  C   UNL     1       2.737  -2.030   1.526  1.00  0.00     0.014 A 
ATOM     11  C   UNL     1       5.192  -1.020   2.380  1.00  0.00     0.010 A 
ATOM     12  C   UNL     1       3.499  -2.746   2.456  1.00  0.00     0.010 A 
ATOM     13  C   UNL     1       4.750  -2.262   2.869  1.00  0.00    -0.014 A 
BRANCH  13  14
ATOM     14  C   UNL     1       5.599  -2.985   3.853  1.00  0.00     0.031 A 
ATOM     15  C   UNL     1       6.230  -4.310   3.522  1.00  0.00     0.074 A 
ATOM     16  C   UNL     1       5.851  -2.390   5.036  1.00  0.00     0.049 A 
ATOM     17  N   UNL     1       7.056  -5.029   4.240  1.00  0.00    -0.248 NA
ATOM     18  C   UNL     1       5.883  -4.910   2.227  1.00  0.00     0.031 C 
ATOM     19  C   UNL     1       5.274  -1.114   5.472  1.00  0.00     0.029 A 
ATOM     20  N   UNL     1       6.674  -2.750   6.072  1.00  0.00    -0.354 N 
ATOM     21  C   UNL     1       7.327  -6.168   3.489  1.00  0.00     0.074 A 
ATOM     22  C   UNL     1       6.543  -6.060   2.275  1.00  0.00     0.031 C 
ATOM     23  C   UNL     1       5.805  -0.772   6.654  1.00  0.00     0.029 A 
ATOM     24  C   UNL     1       6.709  -1.828   7.092  1.00  0.00     0.049 A 
ATOM     25  H   UNL     1       7.190  -3.589   6.084  1.00  0.00     0.167 HD
ATOM     26  C   UNL     1       8.161  -7.199   3.780  1.00  0.00     0.034 A 
ATOM     27  C   UNL     1       7.383  -1.833   8.257  1.00  0.00     0.034 A 
ATOM     28  C   UNL     1       8.929  -7.295   5.000  1.00  0.00     0.049 A 
ATOM     29  C   UNL     1       8.296  -2.990   8.556  1.00  0.00     0.074 A 
ATOM     30  C   UNL     1       9.800  -8.297   5.398  1.00  0.00     0.029 A 
ATOM     31  N   UNL     1       8.920  -6.355   6.024  1.00  0.00    -0.354 N 
ATOM     32  N   UNL     1       8.544  -4.054   7.827  1.00  0.00    -0.248 NA
ATOM     33  C   UNL     1       9.025  -2.943   9.828  1.00  0.00     0.031 C 
ATOM     34  C   UNL     1      10.272  -7.990   6.680  1.00  0.00     0.029 A 
ATOM     35  C   UNL     1       9.752  -6.763   7.057  1.00  0.00     0.049 A 
ATOM     36  H   UNL     1       8.398  -5.521   6.018  1.00  0.00     0.167 HD
ATOM     37  C   UNL     1       9.462  -4.803   8.554  1.00  0.00     0.074 A 
ATOM     38  C   UNL     1       9.754  -4.047   9.756  1.00  0.00     0.031 C 
ATOM     39  C   UNL     1      10.009  -6.011   8.263  1.00  0.00     0.034 A 
BRANCH  26  40
ATOM     40  C   UNL     1       8.255  -8.323   2.774  1.00  0.00     0.023 A 
ATOM     41  C   UNL     1       8.798  -8.122   1.492  1.00  0.00     0.031 A 
ATOM     42  C   UNL     1       7.791  -9.611   3.096  1.00  0.00     0.131 A 
ATOM     43  C   UNL     1       8.809  -9.174   0.562  1.00  0.00     0.055 A 
ATOM     44  C   UNL     1       7.869 -10.671   2.191  1.00  0.00     0.041 A 
ATOM     45  F   UNL     1       7.245  -9.859   4.298  1.00  0.00    -0.206 F 
ATOM     46  C   UNL     1       8.370 -10.453   0.911  1.00  0.00     0.022 A 
BRANCH  43  47
ATOM     47  S   UNL     1       9.297  -8.816  -1.148  1.00  0.00     0.124 S 
ATOM     48  O   UNL     1       8.308  -7.812  -1.534  1.00  0.00    -0.237 OA
ATOM     49  O   UNL     1      10.665  -8.336  -0.993  1.00  0.00    -0.237 OA
ATOM     50  O   UNL     1       9.160 -10.105  -1.821  1.00  0.00    -0.744 OA
ENDBRANCH  43  47
ENDBRANCH  26  40
BRANCH  27  51
ATOM     51  C   UNL     1       7.195  -0.725   9.236  1.00  0.00     0.023 A 
ATOM     52  C   UNL     1       8.254   0.123   9.592  1.00  0.00     0.031 A 
ATOM     53  C   UNL     1       5.947  -0.519   9.852  1.00  0.00     0.131 A 
ATOM     54  C   UNL     1       8.057   1.113  10.567  1.00  0.00     0.055 A 
ATOM     55  C   UNL     1       5.742   0.502  10.780  1.00  0.00     0.041 A 
ATOM     56  F   UNL     1       4.900  -1.299   9.543  1.00  0.00    -0.206 F 
ATOM     57  C   UNL     1       6.805   1.317  11.153  1.00  0.00     0.022 A 
BRANCH  54  58
ATOM     58  S   UNL     1       9.487   2.079  11.126  1.00  0.00     0.124 S 
ATOM     59  O   UNL     1      10.413   1.031  11.540  1.00  0.00    -0.237 OA
ATOM     60  O   UNL     1       9.847   2.812   9.917  1.00  0.00    -0.237 OA
ATOM     61  O   UNL     1       8.943   2.896  12.209  1.00  0.00    -0.744 OA
ENDBRANCH  54  58
ENDBRANCH  27  51
BRANCH  39  62
ATOM     62  C   UNL     1      10.985  -6.565   9.270  1.00  0.00     0.023 A 
ATOM     63  C   UNL     1      10.570  -6.946  10.559  1.00  0.00     0.031 A 
ATOM     64  C   UNL     1      12.352  -6.662   8.958  1.00  0.00     0.131 A 
ATOM     65  C   UNL     1      11.521  -7.337  11.512  1.00  0.00     0.055 A 
ATOM     66  C   UNL     1      13.286  -7.111   9.892  1.00  0.00     0.041 A 
ATOM     67  F   UNL     1      12.802  -6.310   7.743  1.00  0.00    -0.206 F 
ATOM     68  C   UNL     1      12.875  -7.435  11.183  1.00  0.00     0.022 A 
BRANCH  65  69
ATOM     69  S   UNL     1      10.978  -7.606  13.221  1.00  0.00     0.124 S 
ATOM     70  O   UNL     1      10.366  -6.323  13.551  1.00  0.00    -0.237 OA
ATOM     71  O   UNL     1      10.061  -8.733  13.083  1.00  0.00    -0.237 OA
ATOM     72  O   UNL     1      12.220  -7.902  13.933  1.00  0.00    -0.744 OA
ENDBRANCH  65  69
ENDBRANCH  39  62
ENDBRANCH  13  14
ENDBRANCH   6   8
ENDBRANCH   3   4
ENDBRANCH   2   3
ENDBRANCH   1   2
BRANCH   1  73
ATOM     73  C   UNL     1       4.788   2.445  -3.785  1.00  0.00     0.002 C 
BRANCH  73  74
ATOM     74  C   UNL     1       6.317   2.502  -3.706  1.00  0.00     0.021 C 
BRANCH  74  75
ATOM     75  C   UNL     1       7.050   1.840  -4.870  1.00  0.00     0.116 C 
BRANCH  75  76
ATOM     76  N   UNL     1       6.877   2.579  -6.115  1.00  0.00    -0.352 N 
ATOM     77  C   UNL     1       7.827   3.229  -6.866  1.00  0.00     0.253 C 
ATOM     78  H   UNL     1       5.957   2.617  -6.464  1.00  0.00     0.163 HD
ATOM     79  O   UNL     1       7.505   4.010  -7.753  1.00  0.00    -0.269 OA
BRANCH  77  80
ATOM     80  C   UNL     1       9.248   3.023  -6.534  1.00  0.00     0.067 A 
ATOM     81  C   UNL     1       9.749   1.712  -6.565  1.00  0.00     0.058 A 
ATOM     82  C   UNL     1      10.033   4.084  -6.050  1.00  0.00     0.065 A 
ATOM     83  C   UNL     1      10.994   1.451  -6.011  1.00  0.00     0.159 A 
ATOM     84  C   UNL     1      11.244   3.780  -5.422  1.00  0.00     0.070 A 
ATOM     85  F   UNL     1      11.467   0.198  -6.019  1.00  0.00    -0.204 F 
ATOM     86  C   UNL     1      11.721   2.471  -5.413  1.00  0.00     0.160 A 
ATOM     87  F   UNL     1      12.904   2.211  -4.842  1.00  0.00    -0.204 F 
BRANCH  82  88
ATOM     88  N   UNL     1       9.662   5.475  -6.187  1.00  0.00    -0.279 N 
ATOM     89  H   UNL     1       9.016   5.894  -5.574  1.00  0.00     0.180 HD
BRANCH  88  90
ATOM     90  S   UNL     1      10.394   6.373  -7.465  1.00  0.00     0.261 S 
ATOM     91  O   UNL     1      10.031   5.752  -8.720  1.00  0.00    -0.201 OA
ATOM     92  O   UNL     1      10.077   7.764  -7.213  1.00  0.00    -0.201 OA
BRANCH  90  93
ATOM     93  C   UNL     1      12.152   6.171  -7.273  1.00  0.00     0.088 A 
ATOM     94  C   UNL     1      12.754   5.010  -7.803  1.00  0.00     0.022 A 
ATOM     95  C   UNL     1      12.917   7.154  -6.635  1.00  0.00     0.026 A 
ATOM     96  C   UNL     1      14.101   4.744  -7.564  1.00  0.00     0.005 A 
ATOM     97  C   UNL     1      14.272   6.908  -6.472  1.00  0.00    -0.043 A 
ATOM     98  C   UNL     1      14.841   5.696  -6.888  1.00  0.00    -0.045 A 
ATOM     99  C   UNL     1      15.308   7.781  -5.830  1.00  0.00     0.036 C 
ATOM    100  C   UNL     1      16.270   5.603  -6.452  1.00  0.00     0.036 C 
ATOM    101  C   UNL     1      16.609   7.086  -6.268  1.00  0.00     0.010 C 
ENDBRANCH  90  93
ENDBRANCH  88  90
ENDBRANCH  82  88
ENDBRANCH  77  80
ENDBRANCH  75  76
ENDBRANCH  74  75
ENDBRANCH  73  74
ENDBRANCH   1  73
TORSDOF 19
