REMARK SMILES CCN(CC(C)C)C(=O)N[C@](C)(CC)C(=O)NCCCCCCNC(=O)c1ccc(-c2c3nc(c(-c4cc(S(=O)(=O)[O-])ccc4F)c4ccc([nH]4)c(-c4cc(S(=O)(=O)[O-])ccc4F)c4nc(c(-c5cc(S(=O)(=O)[O-])ccc5F)c5ccc2[nH]5)C=C4)C=C3)cc1
REMARK SMILES IDX 20 1 19 2 18 3 17 4 15 5 16 6 11 8 12 9 10 10 8 11 9 12 3 14
REMARK SMILES IDX 2 15 1 16 4 17 5 18 6 19 7 20 13 21 14 22 21 23 22 24 23 25
REMARK SMILES IDX 24 26 25 27 26 29 27 30 28 31 89 32 29 33 88 34 30 35 31 36
REMARK SMILES IDX 32 37 82 38 33 39 87 40 81 41 83 42 34 43 86 44 80 45 79 46
REMARK SMILES IDX 35 48 67 49 47 50 66 51 48 52 51 53 65 54 84 55 49 56 50 57
REMARK SMILES IDX 64 59 85 60 52 61 36 62 37 63 45 64 38 65 44 66 46 67 43 68
REMARK SMILES IDX 39 69 40 70 41 71 42 72 68 73 69 74 77 75 70 76 76 77 78 78
REMARK SMILES IDX 75 79 71 80 72 81 73 82 74 83 53 84 54 85 62 86 55 87 61 88
REMARK SMILES IDX 63 89 60 90 56 91 57 92 58 93 59 94
REMARK H PARENT 17 7 10 13 24 28 83 47 51 58
REMARK Flexibility Score: inf
ROOT
ATOM      1  C   UNL     1      -2.577   6.896   1.885  1.00  0.00     0.002 C 
ENDROOT
BRANCH   1   2
ATOM      2  C   UNL     1      -1.079   7.228   1.965  1.00  0.00     0.021 C 
BRANCH   2   3
ATOM      3  C   UNL     1      -0.241   6.159   2.674  1.00  0.00     0.116 C 
BRANCH   3   4
ATOM      4  N   UNL     1      -0.074   5.002   1.807  1.00  0.00    -0.354 N 
ATOM      5  C   UNL     1       1.013   4.270   1.436  1.00  0.00     0.245 C 
ATOM      6  O   UNL     1       0.812   3.457   0.526  1.00  0.00    -0.272 OA
ATOM      7  H   UNL     1      -0.917   4.685   1.409  1.00  0.00     0.163 HD
BRANCH   5   8
ATOM      8  C   UNL     1       2.457   4.558   1.959  1.00  0.00     0.117 C 
ATOM      9  C   UNL     1       3.503   3.512   1.489  1.00  0.00     0.045 C 
BRANCH   8  10
ATOM     10  N   UNL     1       2.497   4.711   3.441  1.00  0.00    -0.324 N 
ATOM     11  C   UNL     1       2.383   3.998   4.573  1.00  0.00     0.318 C 
ATOM     12  O   UNL     1       2.631   4.660   5.590  1.00  0.00    -0.249 OA
ATOM     13  H   UNL     1       2.663   5.655   3.666  1.00  0.00     0.166 HD
BRANCH  11  14
ATOM     14  N   UNL     1       2.022   2.683   4.668  1.00  0.00    -0.325 N 
BRANCH  14  15
ATOM     15  C   UNL     1       1.950   2.121   6.029  1.00  0.00     0.118 C 
ATOM     16  C   UNL     1       3.313   1.775   6.614  1.00  0.00     0.027 C 
ENDBRANCH  14  15
BRANCH  14  17
ATOM     17  C   UNL     1       1.625   1.759   3.608  1.00  0.00     0.124 C 
BRANCH  17  18
ATOM     18  C   UNL     1       0.115   1.427   3.540  1.00  0.00     0.002 C 
ATOM     19  C   UNL     1      -0.787   2.566   4.022  1.00  0.00     0.009 C 
ATOM     20  C   UNL     1      -0.256   0.947   2.128  1.00  0.00     0.009 C 
ENDBRANCH  17  18
ENDBRANCH  14  17
ENDBRANCH  11  14
ENDBRANCH   8  10
BRANCH   8  21
ATOM     21  C   UNL     1       2.892   5.925   1.319  1.00  0.00     0.035 C 
ATOM     22  C   UNL     1       2.752   6.001  -0.200  1.00  0.00     0.007 C 
ENDBRANCH   8  21
ENDBRANCH   5   8
ENDBRANCH   3   4
ENDBRANCH   2   3
ENDBRANCH   1   2
BRANCH   1  23
ATOM     23  C   UNL     1      -3.321   6.920   3.225  1.00  0.00     0.002 C 
BRANCH  23  24
ATOM     24  C   UNL     1      -3.246   8.241   3.997  1.00  0.00     0.021 C 
BRANCH  24  25
ATOM     25  C   UNL     1      -3.704   9.473   3.221  1.00  0.00     0.116 C 
BRANCH  25  26
ATOM     26  N   UNL     1      -5.109   9.413   2.854  1.00  0.00    -0.352 N 
ATOM     27  C   UNL     1      -6.043  10.418   2.884  1.00  0.00     0.251 C 
ATOM     28  H   UNL     1      -5.434   8.536   2.545  1.00  0.00     0.163 HD
ATOM     29  O   UNL     1      -7.231  10.157   2.690  1.00  0.00    -0.269 OA
BRANCH  27  30
ATOM     30  C   UNL     1      -5.622  11.805   3.178  1.00  0.00     0.039 A 
ATOM     31  C   UNL     1      -6.350  12.553   4.106  1.00  0.00     0.014 A 
ATOM     32  C   UNL     1      -4.512  12.367   2.539  1.00  0.00     0.014 A 
ATOM     33  C   UNL     1      -5.937  13.849   4.430  1.00  0.00     0.010 A 
ATOM     34  C   UNL     1      -4.066  13.634   2.910  1.00  0.00     0.010 A 
ATOM     35  C   UNL     1      -4.778  14.392   3.852  1.00  0.00    -0.014 A 
BRANCH  35  36
ATOM     36  C   UNL     1      -4.320  15.766   4.189  1.00  0.00     0.031 A 
ATOM     37  C   UNL     1      -4.321  16.833   3.126  1.00  0.00     0.074 A 
ATOM     38  C   UNL     1      -3.863  16.041   5.426  1.00  0.00     0.049 A 
ATOM     39  N   UNL     1      -3.885  18.065   3.187  1.00  0.00    -0.248 NA
ATOM     40  C   UNL     1      -4.858  16.450   1.810  1.00  0.00     0.031 C 
ATOM     41  C   UNL     1      -3.785  15.082   6.531  1.00  0.00     0.029 A 
ATOM     42  N   UNL     1      -3.368  17.203   5.964  1.00  0.00    -0.354 N 
ATOM     43  C   UNL     1      -4.084  18.601   1.918  1.00  0.00     0.074 A 
ATOM     44  C   UNL     1      -4.621  17.539   1.094  1.00  0.00     0.031 C 
ATOM     45  C   UNL     1      -3.291  15.701   7.617  1.00  0.00     0.029 A 
ATOM     46  C   UNL     1      -2.978  17.085   7.278  1.00  0.00     0.049 A 
ATOM     47  H   UNL     1      -3.299  18.044   5.455  1.00  0.00     0.167 HD
ATOM     48  C   UNL     1      -3.864  19.867   1.487  1.00  0.00     0.034 A 
ATOM     49  C   UNL     1      -2.420  17.989   8.111  1.00  0.00     0.034 A 
ATOM     50  C   UNL     1      -3.345  20.920   2.325  1.00  0.00     0.049 A 
ATOM     51  C   UNL     1      -2.171  19.388   7.602  1.00  0.00     0.074 A 
ATOM     52  C   UNL     1      -3.112  22.246   2.002  1.00  0.00     0.029 A 
ATOM     53  N   UNL     1      -2.980  20.768   3.657  1.00  0.00    -0.354 N 
ATOM     54  N   UNL     1      -2.398  19.887   6.408  1.00  0.00    -0.248 NA
ATOM     55  C   UNL     1      -1.608  20.351   8.557  1.00  0.00     0.031 C 
ATOM     56  C   UNL     1      -2.556  22.880   3.118  1.00  0.00     0.029 A 
ATOM     57  C   UNL     1      -2.508  21.970   4.162  1.00  0.00     0.049 A 
ATOM     58  H   UNL     1      -3.046  19.928   4.168  1.00  0.00     0.167 HD
ATOM     59  C   UNL     1      -2.041  21.231   6.485  1.00  0.00     0.074 A 
ATOM     60  C   UNL     1      -1.599  21.466   7.843  1.00  0.00     0.031 C 
ATOM     61  C   UNL     1      -2.077  22.187   5.522  1.00  0.00     0.034 A 
BRANCH  48  62
ATOM     62  C   UNL     1      -4.170  20.173   0.040  1.00  0.00     0.023 A 
ATOM     63  C   UNL     1      -5.478  20.089  -0.469  1.00  0.00     0.031 A 
ATOM     64  C   UNL     1      -3.141  20.536  -0.846  1.00  0.00     0.131 A 
ATOM     65  C   UNL     1      -5.712  20.295  -1.837  1.00  0.00     0.055 A 
ATOM     66  C   UNL     1      -3.393  20.819  -2.190  1.00  0.00     0.041 A 
ATOM     67  F   UNL     1      -1.869  20.613  -0.423  1.00  0.00    -0.206 F 
ATOM     68  C   UNL     1      -4.683  20.686  -2.696  1.00  0.00     0.022 A 
BRANCH  65  69
ATOM     69  S   UNL     1      -7.357  19.919  -2.500  1.00  0.00     0.124 S 
ATOM     70  O   UNL     1      -7.473  18.493  -2.205  1.00  0.00    -0.237 OA
ATOM     71  O   UNL     1      -8.220  20.804  -1.727  1.00  0.00    -0.237 OA
ATOM     72  O   UNL     1      -7.237  20.248  -3.919  1.00  0.00    -0.744 OA
ENDBRANCH  65  69
ENDBRANCH  48  62
BRANCH  49  73
ATOM     73  C   UNL     1      -2.046  17.613   9.506  1.00  0.00     0.023 A 
ATOM     74  C   UNL     1      -2.651  18.236  10.609  1.00  0.00     0.031 A 
ATOM     75  C   UNL     1      -1.028  16.676   9.757  1.00  0.00     0.131 A 
ATOM     76  C   UNL     1      -2.191  17.965  11.907  1.00  0.00     0.055 A 
ATOM     77  C   UNL     1      -0.615  16.364  11.054  1.00  0.00     0.041 A 
ATOM     78  F   UNL     1      -0.418  16.046   8.740  1.00  0.00    -0.206 F 
ATOM     79  C   UNL     1      -1.185  17.024  12.138  1.00  0.00     0.022 A 
BRANCH  76  80
ATOM     80  S   UNL     1      -2.849  18.947  13.284  1.00  0.00     0.124 S 
ATOM     81  O   UNL     1      -2.564  20.307  12.840  1.00  0.00    -0.237 OA
ATOM     82  O   UNL     1      -4.254  18.554  13.290  1.00  0.00    -0.237 OA
ATOM     83  O   UNL     1      -2.069  18.488  14.431  1.00  0.00    -0.744 OA
ENDBRANCH  76  80
ENDBRANCH  49  73
BRANCH  61  84
ATOM     84  C   UNL     1      -1.686  23.586   5.929  1.00  0.00     0.023 A 
ATOM     85  C   UNL     1      -0.371  23.911   6.303  1.00  0.00     0.031 A 
ATOM     86  C   UNL     1      -2.653  24.607   5.954  1.00  0.00     0.131 A 
ATOM     87  C   UNL     1      -0.070  25.209   6.742  1.00  0.00     0.055 A 
ATOM     88  C   UNL     1      -2.335  25.911   6.334  1.00  0.00     0.041 A 
ATOM     89  F   UNL     1      -3.925  24.352   5.607  1.00  0.00    -0.206 F 
ATOM     90  C   UNL     1      -1.040  26.215   6.744  1.00  0.00     0.022 A 
BRANCH  87  91
ATOM     91  S   UNL     1       1.587  25.544   7.398  1.00  0.00     0.124 S 
ATOM     92  O   UNL     1       1.681  24.583   8.492  1.00  0.00    -0.237 OA
ATOM     93  O   UNL     1       2.439  25.280   6.243  1.00  0.00    -0.237 OA
ATOM     94  O   UNL     1       1.518  26.945   7.807  1.00  0.00    -0.744 OA
ENDBRANCH  87  91
ENDBRANCH  61  84
ENDBRANCH  35  36
ENDBRANCH  27  30
ENDBRANCH  25  26
ENDBRANCH  24  25
ENDBRANCH  23  24
ENDBRANCH   1  23
TORSDOF 22
