REMARK SMILES CC[N@@H+](C[C@@H](C)C(=O)NCCCCCCNC(=O)c1ccc(-c2c3nc(c(-c4cc(S(=O)(=O)[O-])ccc4F)c4ccc([nH]4)c(-c4cc(S(=O)(=O)[O-])ccc4F)c4nc(c(-c5cc(S(=O)(=O)[O-])ccc5F)c5ccc2[nH]5)C=C4)C=C3)cc1)[C@@H]1CCC[C@H](S(C)(=O)=O)C1
REMARK SMILES IDX 12 1 11 2 10 3 9 4 7 5 8 6 5 8 6 9 4 10 3 11 2 13 1 14 82 15
REMARK SMILES IDX 83 16 91 17 84 18 86 19 85 20 87 21 88 22 89 23 90 24 13 25
REMARK SMILES IDX 14 26 15 27 16 28 17 29 18 31 19 32 20 33 81 34 21 35 80 36
REMARK SMILES IDX 22 37 23 38 24 39 74 40 25 41 79 42 73 43 75 44 26 45 78 46
REMARK SMILES IDX 72 47 71 48 27 50 59 51 39 52 58 53 40 54 43 55 57 56 76 57
REMARK SMILES IDX 41 58 42 59 56 61 77 62 44 63 28 64 29 65 37 66 30 67 36 68
REMARK SMILES IDX 38 69 35 70 31 71 32 72 33 73 34 74 60 75 61 76 69 77 62 78
REMARK SMILES IDX 68 79 70 80 67 81 63 82 64 83 65 84 66 85 45 86 46 87 54 88
REMARK SMILES IDX 47 89 53 90 55 91 52 92 48 93 49 94 50 95 51 96
REMARK H PARENT 9 7 3 12 16 30 75 49 43 60
REMARK Flexibility Score: inf
ROOT
ATOM      1  C   UNL     1       0.322   7.696   4.663  1.00  0.00     0.002 C 
ENDROOT
BRANCH   1   2
ATOM      2  C   UNL     1       0.583   6.567   3.666  1.00  0.00     0.021 C 
BRANCH   2   3
ATOM      3  C   UNL     1       1.204   5.344   4.328  1.00  0.00     0.116 C 
BRANCH   3   4
ATOM      4  N   UNL     1       0.184   4.522   4.959  1.00  0.00    -0.356 N 
ATOM      5  C   UNL     1      -0.099   3.197   4.810  1.00  0.00     0.228 C 
ATOM      6  O   UNL     1      -1.035   2.727   5.462  1.00  0.00    -0.275 OA
ATOM      7  H   UNL     1      -0.395   4.999   5.596  1.00  0.00     0.163 HD
BRANCH   5   8
ATOM      8  C   UNL     1       0.753   2.297   3.914  1.00  0.00     0.130 C 
ATOM      9  C   UNL     1       2.145   2.233   4.542  1.00  0.00     0.024 C 
BRANCH   8  10
ATOM     10  C   UNL     1       0.574   2.678   2.418  1.00  0.00     0.275 C 
BRANCH  10  11
ATOM     11  N   UNL     1       1.183   1.871   1.338  1.00  0.00    -0.332 N 
ATOM     12  H   UNL     1       0.971   2.426   0.509  1.00  0.00     0.348 HD
BRANCH  11  13
ATOM     13  C   UNL     1       0.510   0.582   1.158  1.00  0.00     0.259 C 
ATOM     14  C   UNL     1       0.648   0.001  -0.246  1.00  0.00     0.071 C 
ENDBRANCH  11  13
BRANCH  11  15
ATOM     15  C   UNL     1       2.651   1.917   1.106  1.00  0.00     0.185 C 
ATOM     16  C   UNL     1       3.419   0.703   1.671  1.00  0.00     0.065 C 
ATOM     17  C   UNL     1       3.271   3.291   1.444  1.00  0.00     0.084 C 
ATOM     18  C   UNL     1       4.932   0.876   1.690  1.00  0.00     0.007 C 
ATOM     19  C   UNL     1       4.789   3.389   1.653  1.00  0.00     0.114 C 
ATOM     20  C   UNL     1       5.367   2.168   2.361  1.00  0.00     0.020 C 
BRANCH  19  21
ATOM     21  S   UNL     1       5.109   4.910   2.619  1.00  0.00     0.150 S 
ATOM     22  C   UNL     1       6.876   5.034   2.743  1.00  0.00     0.158 C 
ATOM     23  O   UNL     1       4.642   6.036   1.837  1.00  0.00    -0.229 OA
ATOM     24  O   UNL     1       4.596   4.710   3.966  1.00  0.00    -0.229 OA
ENDBRANCH  19  21
ENDBRANCH  11  15
ENDBRANCH  10  11
ENDBRANCH   8  10
ENDBRANCH   5   8
ENDBRANCH   3   4
ENDBRANCH   2   3
ENDBRANCH   1   2
BRANCH   1  25
ATOM     25  C   UNL     1       1.591   8.256   5.320  1.00  0.00     0.002 C 
BRANCH  25  26
ATOM     26  C   UNL     1       2.643   8.777   4.337  1.00  0.00     0.021 C 
BRANCH  26  27
ATOM     27  C   UNL     1       2.130   9.863   3.398  1.00  0.00     0.116 C 
BRANCH  27  28
ATOM     28  N   UNL     1       1.611  11.005   4.138  1.00  0.00    -0.352 N 
ATOM     29  C   UNL     1       1.969  12.326   4.049  1.00  0.00     0.251 C 
ATOM     30  H   UNL     1       0.905  10.801   4.793  1.00  0.00     0.163 HD
ATOM     31  O   UNL     1       1.619  13.119   4.917  1.00  0.00    -0.269 OA
BRANCH  29  32
ATOM     32  C   UNL     1       2.789  12.771   2.906  1.00  0.00     0.039 A 
ATOM     33  C   UNL     1       3.882  13.608   3.135  1.00  0.00     0.014 A 
ATOM     34  C   UNL     1       2.480  12.345   1.611  1.00  0.00     0.014 A 
ATOM     35  C   UNL     1       4.704  13.969   2.067  1.00  0.00     0.010 A 
ATOM     36  C   UNL     1       3.344  12.643   0.563  1.00  0.00     0.010 A 
ATOM     37  C   UNL     1       4.463  13.460   0.780  1.00  0.00    -0.014 A 
BRANCH  37  38
ATOM     38  C   UNL     1       5.363  13.776  -0.358  1.00  0.00     0.031 A 
ATOM     39  C   UNL     1       4.834  14.541  -1.540  1.00  0.00     0.074 A 
ATOM     40  C   UNL     1       6.633  13.324  -0.351  1.00  0.00     0.049 A 
ATOM     41  N   UNL     1       5.427  14.835  -2.668  1.00  0.00    -0.248 NA
ATOM     42  C   UNL     1       3.443  15.012  -1.451  1.00  0.00     0.031 C 
ATOM     43  C   UNL     1       7.248  12.550   0.730  1.00  0.00     0.029 A 
ATOM     44  N   UNL     1       7.633  13.441  -1.283  1.00  0.00    -0.354 N 
ATOM     45  C   UNL     1       4.482  15.520  -3.424  1.00  0.00     0.074 A 
ATOM     46  C   UNL     1       3.257  15.535  -2.653  1.00  0.00     0.031 C 
ATOM     47  C   UNL     1       8.526  12.290   0.412  1.00  0.00     0.029 A 
ATOM     48  C   UNL     1       8.806  12.823  -0.917  1.00  0.00     0.049 A 
ATOM     49  H   UNL     1       7.521  13.923  -2.134  1.00  0.00     0.167 HD
ATOM     50  C   UNL     1       4.631  16.105  -4.638  1.00  0.00     0.034 A 
ATOM     51  C   UNL     1       9.969  12.685  -1.585  1.00  0.00     0.034 A 
ATOM     52  C   UNL     1       5.861  16.081  -5.391  1.00  0.00     0.049 A 
ATOM     53  C   UNL     1      10.090  13.291  -2.962  1.00  0.00     0.074 A 
ATOM     54  C   UNL     1       6.134  16.667  -6.615  1.00  0.00     0.029 A 
ATOM     55  N   UNL     1       7.023  15.429  -4.997  1.00  0.00    -0.354 N 
ATOM     56  N   UNL     1       9.198  13.968  -3.649  1.00  0.00    -0.248 NA
ATOM     57  C   UNL     1      11.376  13.122  -3.651  1.00  0.00     0.031 C 
ATOM     58  C   UNL     1       7.430  16.307  -6.995  1.00  0.00     0.029 A 
ATOM     59  C   UNL     1       8.002  15.572  -5.969  1.00  0.00     0.049 A 
ATOM     60  H   UNL     1       7.135  14.937  -4.152  1.00  0.00     0.167 HD
ATOM     61  C   UNL     1       9.832  14.339  -4.832  1.00  0.00     0.074 A 
ATOM     62  C   UNL     1      11.182  13.822  -4.759  1.00  0.00     0.031 C 
ATOM     63  C   UNL     1       9.345  15.049  -5.882  1.00  0.00     0.034 A 
BRANCH  50  64
ATOM     64  C   UNL     1       3.427  16.797  -5.231  1.00  0.00     0.023 A 
ATOM     65  C   UNL     1       2.831  17.905  -4.603  1.00  0.00     0.031 A 
ATOM     66  C   UNL     1       2.856  16.337  -6.430  1.00  0.00     0.131 A 
ATOM     67  C   UNL     1       1.662  18.469  -5.135  1.00  0.00     0.055 A 
ATOM     68  C   UNL     1       1.742  16.956  -7.001  1.00  0.00     0.041 A 
ATOM     69  F   UNL     1       3.365  15.269  -7.065  1.00  0.00    -0.206 F 
ATOM     70  C   UNL     1       1.129  18.020  -6.345  1.00  0.00     0.022 A 
BRANCH  67  71
ATOM     71  S   UNL     1       0.768  19.699  -4.147  1.00  0.00     0.124 S 
ATOM     72  O   UNL     1       0.479  18.946  -2.929  1.00  0.00    -0.237 OA
ATOM     73  O   UNL     1       1.746  20.773  -4.019  1.00  0.00    -0.237 OA
ATOM     74  O   UNL     1      -0.400  20.014  -4.968  1.00  0.00    -0.744 OA
ENDBRANCH  67  71
ENDBRANCH  50  64
BRANCH  51  75
ATOM     75  C   UNL     1      11.110  11.935  -0.983  1.00  0.00     0.023 A 
ATOM     76  C   UNL     1      12.336  12.570  -0.730  1.00  0.00     0.031 A 
ATOM     77  C   UNL     1      11.016  10.557  -0.713  1.00  0.00     0.131 A 
ATOM     78  C   UNL     1      13.435  11.819  -0.284  1.00  0.00     0.055 A 
ATOM     79  C   UNL     1      12.093   9.829  -0.205  1.00  0.00     0.041 A 
ATOM     80  F   UNL     1       9.869   9.896  -0.936  1.00  0.00    -0.206 F 
ATOM     81  C   UNL     1      13.318  10.457  -0.004  1.00  0.00     0.022 A 
BRANCH  78  82
ATOM     82  S   UNL     1      15.056  12.629  -0.189  1.00  0.00     0.124 S 
ATOM     83  O   UNL     1      15.227  13.107  -1.556  1.00  0.00    -0.237 OA
ATOM     84  O   UNL     1      14.825  13.650   0.826  1.00  0.00    -0.237 OA
ATOM     85  O   UNL     1      15.952  11.545   0.210  1.00  0.00    -0.744 OA
ENDBRANCH  78  82
ENDBRANCH  51  75
BRANCH  63  86
ATOM     86  C   UNL     1      10.301  15.357  -7.010  1.00  0.00     0.023 A 
ATOM     87  C   UNL     1      10.833  14.349  -7.832  1.00  0.00     0.031 A 
ATOM     88  C   UNL     1      10.681  16.688  -7.265  1.00  0.00     0.131 A 
ATOM     89  C   UNL     1      11.757  14.681  -8.834  1.00  0.00     0.055 A 
ATOM     90  C   UNL     1      11.549  17.018  -8.306  1.00  0.00     0.041 A 
ATOM     91  F   UNL     1      10.207  17.691  -6.508  1.00  0.00    -0.206 F 
ATOM     92  C   UNL     1      12.102  16.011  -9.090  1.00  0.00     0.022 A 
BRANCH  89  93
ATOM     93  S   UNL     1      12.576  13.342  -9.743  1.00  0.00     0.124 S 
ATOM     94  O   UNL     1      13.226  12.599  -8.668  1.00  0.00    -0.237 OA
ATOM     95  O   UNL     1      11.454  12.671 -10.391  1.00  0.00    -0.237 OA
ATOM     96  O   UNL     1      13.484  14.045 -10.648  1.00  0.00    -0.744 OA
ENDBRANCH  89  93
ENDBRANCH  63  86
ENDBRANCH  37  38
ENDBRANCH  29  32
ENDBRANCH  27  28
ENDBRANCH  26  27
ENDBRANCH  25  26
ENDBRANCH   1  25
TORSDOF 21
