REMARK SMILES Cc1ccccc1C(=O)Nc1ccc(OCC(=O)NCCCCCCNC(=O)c2ccc(-c3c4nc(c(-c5cc(S(=O)(=O)[O-])ccc5F)c5ccc([nH]5)c(-c5cc(S(=O)(=O)[O-])ccc5F)c5nc(c(-c6cc(S(=O)(=O)[O-])ccc6F)c6ccc3[nH]6)C=C5)C=C4)cc2)c(-c2nc3ccccc3s2)c1
REMARK SMILES IDX 22 1 21 2 20 3 19 4 17 5 18 6 16 8 15 9 14 10 11 11 12 12
REMARK SMILES IDX 102 13 13 14 92 15 10 16 8 17 9 18 7 20 1 21 2 22 3 23 4 24
REMARK SMILES IDX 6 25 5 26 93 27 94 28 101 29 95 30 100 31 96 32 99 33 97 34
REMARK SMILES IDX 98 35 23 36 24 37 25 38 26 39 27 40 28 42 29 43 30 44 91 45
REMARK SMILES IDX 31 46 90 47 32 48 33 49 34 50 84 51 35 52 89 53 83 54 85 55
REMARK SMILES IDX 36 56 88 57 82 58 81 59 37 61 69 62 49 63 68 64 50 65 53 66
REMARK SMILES IDX 67 67 86 68 51 69 52 70 66 72 87 73 54 74 38 75 39 76 47 77
REMARK SMILES IDX 40 78 46 79 48 80 45 81 41 82 42 83 43 84 44 85 70 86 71 87
REMARK SMILES IDX 79 88 72 89 78 90 80 91 77 92 73 93 74 94 75 95 76 96 55 97
REMARK SMILES IDX 56 98 64 99 57 100 63 101 65 102 62 103 58 104 59 105 60 106
REMARK SMILES IDX 61 107
REMARK H PARENT 19 7 10 19 26 41 85 60 53 71
REMARK Flexibility Score: inf
ROOT
ATOM      1  C   UNL     1       2.535  -4.017   3.726  1.00  0.00     0.002 C 
ENDROOT
BRANCH   1   2
ATOM      2  C   UNL     1       3.932  -3.507   3.348  1.00  0.00     0.021 C 
BRANCH   2   3
ATOM      3  C   UNL     1       4.573  -4.153   2.124  1.00  0.00     0.116 C 
BRANCH   3   4
ATOM      4  N   UNL     1       3.729  -4.053   0.956  1.00  0.00    -0.353 N 
ATOM      5  C   UNL     1       4.014  -3.697  -0.323  1.00  0.00     0.257 C 
ATOM      6  O   UNL     1       3.091  -3.778  -1.134  1.00  0.00    -0.271 OA
ATOM      7  H   UNL     1       2.784  -4.281   1.115  1.00  0.00     0.163 HD
BRANCH   5   8
ATOM      8  C   UNL     1       5.447  -3.268  -0.726  1.00  0.00     0.329 C 
BRANCH   8   9
ATOM      9  O   UNL     1       5.684  -2.179  -1.619  1.00  0.00    -0.483 OA
BRANCH   9  10
ATOM     10  C   UNL     1       4.932  -1.072  -1.323  1.00  0.00     0.130 A 
ATOM     11  C   UNL     1       3.396   1.105  -0.500  1.00  0.00     0.042 A 
ATOM     12  C   UNL     1       4.630   0.864   0.102  1.00  0.00     0.030 A 
ATOM     13  C   UNL     1       3.004   0.338  -1.601  1.00  0.00     0.041 A 
ATOM     14  C   UNL     1       5.379  -0.247  -0.283  1.00  0.00     0.049 A 
ATOM     15  C   UNL     1       3.787  -0.740  -2.072  1.00  0.00     0.055 A 
BRANCH  11  16
ATOM     16  N   UNL     1       2.592   2.110   0.054  1.00  0.00    -0.322 N 
ATOM     17  C   UNL     1       1.221   2.202   0.158  1.00  0.00     0.255 C 
ATOM     18  O   UNL     1       0.721   3.305   0.388  1.00  0.00    -0.269 OA
ATOM     19  H   UNL     1       3.087   2.873   0.430  1.00  0.00     0.170 HD
BRANCH  17  20
ATOM     20  C   UNL     1       0.321   1.011   0.080  1.00  0.00     0.043 A 
ATOM     21  C   UNL     1       1.743  -0.557   1.562  1.00  0.00     0.045 C 
ATOM     22  C   UNL     1       0.560  -0.236   0.694  1.00  0.00    -0.038 A 
ATOM     23  C   UNL     1      -0.390  -1.265   0.534  1.00  0.00     0.004 A 
ATOM     24  C   UNL     1      -1.596  -1.039  -0.126  1.00  0.00     0.000 A 
ATOM     25  C   UNL     1      -0.918   1.232  -0.553  1.00  0.00     0.014 A 
ATOM     26  C   UNL     1      -1.873   0.218  -0.647  1.00  0.00     0.001 A 
ENDBRANCH  17  20
ENDBRANCH  11  16
BRANCH  15  27
ATOM     27  C   UNL     1       3.287  -1.475  -3.261  1.00  0.00     0.128 A 
ATOM     28  N   UNL     1       2.207  -1.119  -3.939  1.00  0.00    -0.236 NA
ATOM     29  S   UNL     1       4.049  -2.880  -3.918  1.00  0.00    -0.114 S 
ATOM     30  C   UNL     1       1.757  -2.186  -4.696  1.00  0.00     0.082 A 
ATOM     31  C   UNL     1       2.584  -3.306  -4.692  1.00  0.00     0.055 A 
ATOM     32  C   UNL     1       0.544  -2.246  -5.405  1.00  0.00     0.030 A 
ATOM     33  C   UNL     1       2.199  -4.526  -5.266  1.00  0.00     0.021 A 
ATOM     34  C   UNL     1       0.151  -3.452  -5.996  1.00  0.00     0.002 A 
ATOM     35  C   UNL     1       0.956  -4.584  -5.899  1.00  0.00     0.002 A 
ENDBRANCH  15  27
ENDBRANCH   9  10
ENDBRANCH   8   9
ENDBRANCH   5   8
ENDBRANCH   3   4
ENDBRANCH   2   3
ENDBRANCH   1   2
BRANCH   1  36
ATOM     36  C   UNL     1       2.354  -5.535   3.865  1.00  0.00     0.002 C 
BRANCH  36  37
ATOM     37  C   UNL     1       3.380  -6.279   4.719  1.00  0.00     0.021 C 
BRANCH  37  38
ATOM     38  C   UNL     1       3.546  -5.740   6.133  1.00  0.00     0.116 C 
BRANCH  38  39
ATOM     39  N   UNL     1       2.965  -6.564   7.182  1.00  0.00    -0.352 N 
ATOM     40  C   UNL     1       2.983  -6.346   8.551  1.00  0.00     0.251 C 
ATOM     41  H   UNL     1       2.502  -7.380   6.882  1.00  0.00     0.163 HD
ATOM     42  O   UNL     1       2.505  -7.155   9.332  1.00  0.00    -0.269 OA
BRANCH  40  43
ATOM     43  C   UNL     1       3.477  -5.037   9.053  1.00  0.00     0.039 A 
ATOM     44  C   UNL     1       2.611  -4.295   9.864  1.00  0.00     0.014 A 
ATOM     45  C   UNL     1       4.636  -4.454   8.545  1.00  0.00     0.014 A 
ATOM     46  C   UNL     1       2.779  -2.916   9.959  1.00  0.00     0.010 A 
ATOM     47  C   UNL     1       4.750  -3.076   8.558  1.00  0.00     0.010 A 
ATOM     48  C   UNL     1       3.786  -2.303   9.211  1.00  0.00    -0.014 A 
BRANCH  48  49
ATOM     49  C   UNL     1       3.808  -0.869   8.949  1.00  0.00     0.031 A 
ATOM     50  C   UNL     1       4.753   0.019   9.652  1.00  0.00     0.074 A 
ATOM     51  C   UNL     1       2.933  -0.320   8.078  1.00  0.00     0.049 A 
ATOM     52  N   UNL     1       4.474   1.231   9.998  1.00  0.00    -0.248 NA
ATOM     53  C   UNL     1       6.091  -0.407  10.046  1.00  0.00     0.031 C 
ATOM     54  C   UNL     1       2.925   1.052   7.578  1.00  0.00     0.029 A 
ATOM     55  N   UNL     1       1.720  -0.845   7.654  1.00  0.00    -0.354 N 
ATOM     56  C   UNL     1       5.651   1.826  10.381  1.00  0.00     0.074 A 
ATOM     57  C   UNL     1       6.612   0.748  10.472  1.00  0.00     0.031 C 
ATOM     58  C   UNL     1       1.690   1.347   7.140  1.00  0.00     0.029 A 
ATOM     59  C   UNL     1       0.832   0.219   7.453  1.00  0.00     0.049 A 
ATOM     60  H   UNL     1       1.520  -1.799   7.519  1.00  0.00     0.167 HD
ATOM     61  C   UNL     1       5.751   3.183  10.433  1.00  0.00     0.034 A 
ATOM     62  C   UNL     1      -0.352   0.289   8.128  1.00  0.00     0.034 A 
ATOM     63  C   UNL     1       4.519   3.848  10.022  1.00  0.00     0.049 A 
ATOM     64  C   UNL     1      -0.478   1.518   9.003  1.00  0.00     0.074 A 
ATOM     65  C   UNL     1       4.132   4.446   8.833  1.00  0.00     0.029 A 
ATOM     66  N   UNL     1       3.369   3.724  10.791  1.00  0.00    -0.354 N 
ATOM     67  N   UNL     1       0.522   2.284   9.343  1.00  0.00    -0.248 NA
ATOM     68  C   UNL     1      -1.739   1.965   9.583  1.00  0.00     0.031 C 
ATOM     69  C   UNL     1       2.730   4.651   8.879  1.00  0.00     0.029 A 
ATOM     70  C   UNL     1       2.269   4.202  10.103  1.00  0.00     0.049 A 
ATOM     71  H   UNL     1       3.340   3.347  11.701  1.00  0.00     0.167 HD
ATOM     72  C   UNL     1       0.081   3.284  10.177  1.00  0.00     0.074 A 
ATOM     73  C   UNL     1      -1.350   3.050  10.275  1.00  0.00     0.031 C 
ATOM     74  C   UNL     1       0.944   4.203  10.713  1.00  0.00     0.034 A 
BRANCH  61  75
ATOM     75  C   UNL     1       7.084   3.876  10.537  1.00  0.00     0.023 A 
ATOM     76  C   UNL     1       7.335   5.036   9.778  1.00  0.00     0.031 A 
ATOM     77  C   UNL     1       8.151   3.419  11.334  1.00  0.00     0.131 A 
ATOM     78  C   UNL     1       8.612   5.620   9.739  1.00  0.00     0.055 A 
ATOM     79  C   UNL     1       9.437   3.968  11.258  1.00  0.00     0.041 A 
ATOM     80  F   UNL     1       7.977   2.428  12.223  1.00  0.00    -0.206 F 
ATOM     81  C   UNL     1       9.678   5.067  10.443  1.00  0.00     0.022 A 
BRANCH  78  82
ATOM     82  S   UNL     1       8.859   7.118   8.746  1.00  0.00     0.124 S 
ATOM     83  O   UNL     1       8.448   6.680   7.416  1.00  0.00    -0.237 OA
ATOM     84  O   UNL     1       7.983   8.076   9.410  1.00  0.00    -0.237 OA
ATOM     85  O   UNL     1      10.290   7.387   8.890  1.00  0.00    -0.744 OA
ENDBRANCH  78  82
ENDBRANCH  61  75
BRANCH  62  86
ATOM     86  C   UNL     1      -0.938  -1.050   8.422  1.00  0.00     0.023 A 
ATOM     87  C   UNL     1      -1.239  -1.879   7.318  1.00  0.00     0.031 A 
ATOM     88  C   UNL     1      -0.819  -1.650   9.682  1.00  0.00     0.131 A 
ATOM     89  C   UNL     1      -1.250  -3.273   7.464  1.00  0.00     0.055 A 
ATOM     90  C   UNL     1      -0.894  -3.040   9.833  1.00  0.00     0.041 A 
ATOM     91  F   UNL     1      -0.499  -0.920  10.760  1.00  0.00    -0.206 F 
ATOM     92  C   UNL     1      -1.064  -3.861   8.716  1.00  0.00     0.022 A 
BRANCH  89  93
ATOM     93  S   UNL     1      -1.231  -4.317   5.974  1.00  0.00     0.124 S 
ATOM     94  O   UNL     1      -2.649  -4.599   5.779  1.00  0.00    -0.237 OA
ATOM     95  O   UNL     1      -0.610  -3.453   4.972  1.00  0.00    -0.237 OA
ATOM     96  O   UNL     1      -0.408  -5.457   6.372  1.00  0.00    -0.744 OA
ENDBRANCH  89  93
ENDBRANCH  62  86
BRANCH  74  97
ATOM     97  C   UNL     1       0.634   5.249  11.773  1.00  0.00     0.023 A 
ATOM     98  C   UNL     1      -0.555   5.291  12.514  1.00  0.00     0.031 A 
ATOM     99  C   UNL     1       1.592   6.240  12.120  1.00  0.00     0.131 A 
ATOM    100  C   UNL     1      -0.790   6.296  13.475  1.00  0.00     0.055 A 
ATOM    101  C   UNL     1       1.386   7.196  13.121  1.00  0.00     0.041 A 
ATOM    102  F   UNL     1       2.784   6.322  11.511  1.00  0.00    -0.206 F 
ATOM    103  C   UNL     1       0.180   7.238  13.798  1.00  0.00     0.022 A 
BRANCH 100 104
ATOM    104  S   UNL     1      -2.422   6.373  14.260  1.00  0.00     0.124 S 
ATOM    105  O   UNL     1      -3.292   6.647  13.120  1.00  0.00    -0.237 OA
ATOM    106  O   UNL     1      -2.549   5.043  14.848  1.00  0.00    -0.237 OA
ATOM    107  O   UNL     1      -2.294   7.467  15.220  1.00  0.00    -0.744 OA
ENDBRANCH 100 104
ENDBRANCH  74  97
ENDBRANCH  48  49
ENDBRANCH  40  43
ENDBRANCH  38  39
ENDBRANCH  37  38
ENDBRANCH  36  37
ENDBRANCH   1  36
TORSDOF 21
