REMARK SMILES C[C@@H]1[C@@H](C(=O)NCCCCCCNC(=O)c2ccc(-c3c4nc(c(-c5cc(S(=O)(=O)[O-])ccc5F)c5ccc([nH]5)c(-c5cc(S(=O)(=O)[O-])ccc5F)c5nc(c(-c6cc(S(=O)(=O)[O-])ccc6F)c6ccc3[nH]6)C=C5)C=C4)cc2)CCN1C(=O)N(C)Cc1ccsc1
REMARK SMILES IDX 9 1 8 2 7 3 6 4 4 5 5 6 3 8 1 9 2 10 81 11 79 12 80 13 82 14
REMARK SMILES IDX 83 15 84 16 85 17 86 18 87 19 88 20 91 21 89 22 90 23 10 24
REMARK SMILES IDX 11 25 12 26 13 27 14 28 15 30 16 31 17 32 78 33 18 34 77 35
REMARK SMILES IDX 19 36 20 37 21 38 71 39 22 40 76 41 70 42 72 43 23 44 75 45
REMARK SMILES IDX 69 46 68 47 24 49 56 50 36 51 55 52 37 53 40 54 54 55 73 56
REMARK SMILES IDX 38 57 39 58 53 60 74 61 41 62 25 63 26 64 34 65 27 66 33 67
REMARK SMILES IDX 35 68 32 69 28 70 29 71 30 72 31 73 57 74 58 75 66 76 59 77
REMARK SMILES IDX 65 78 67 79 64 80 60 81 61 82 62 83 63 84 42 85 43 86 51 87
REMARK SMILES IDX 44 88 50 89 52 90 49 91 45 92 46 93 47 94 48 95
REMARK H PARENT 6 7 13 29 72 48 40 59
REMARK Flexibility Score: inf
ROOT
ATOM      1  C   UNL     1      -3.828   4.320  -2.660  1.00  0.00     0.002 C 
ENDROOT
BRANCH   1   2
ATOM      2  C   UNL     1      -2.917   4.331  -1.427  1.00  0.00     0.021 C 
BRANCH   2   3
ATOM      3  C   UNL     1      -2.499   2.958  -0.915  1.00  0.00     0.116 C 
BRANCH   3   4
ATOM      4  N   UNL     1      -1.763   2.203  -1.905  1.00  0.00    -0.356 N 
ATOM      5  C   UNL     1      -0.732   1.330  -1.742  1.00  0.00     0.225 C 
ATOM      6  O   UNL     1      -0.240   0.844  -2.761  1.00  0.00    -0.275 OA
ATOM      7  H   UNL     1      -2.052   2.340  -2.837  1.00  0.00     0.163 HD
BRANCH   5   8
ATOM      8  C   UNL     1      -0.184   1.056  -0.341  1.00  0.00     0.102 C 
ATOM      9  C   UNL     1       1.874   0.088   0.776  1.00  0.00     0.032 C 
ATOM     10  C   UNL     1       0.882  -0.067  -0.385  1.00  0.00     0.096 C 
ATOM     11  N   UNL     1       0.100  -1.306  -0.266  1.00  0.00    -0.321 N 
ATOM     12  C   UNL     1      -1.216   0.464   0.618  1.00  0.00     0.037 C 
ATOM     13  C   UNL     1      -1.236  -0.999   0.231  1.00  0.00     0.122 C 
BRANCH  11  14
ATOM     14  C   UNL     1       0.304  -2.601  -0.654  1.00  0.00     0.320 C 
ATOM     15  O   UNL     1      -0.659  -3.380  -0.593  1.00  0.00    -0.248 OA
BRANCH  14  16
ATOM     16  N   UNL     1       1.530  -3.090  -1.042  1.00  0.00    -0.323 N 
ATOM     17  C   UNL     1       2.781  -2.420  -1.350  1.00  0.00     0.149 C 
BRANCH  16  18
ATOM     18  C   UNL     1       1.591  -4.545  -1.202  1.00  0.00     0.157 C 
BRANCH  18  19
ATOM     19  C   UNL     1       1.679  -5.265   0.125  1.00  0.00    -0.018 A 
ATOM     20  C   UNL     1       1.696  -6.699   0.234  1.00  0.00     0.017 A 
ATOM     21  C   UNL     1       1.705  -4.694   1.388  1.00  0.00     0.070 A 
ATOM     22  C   UNL     1       1.714  -7.139   1.539  1.00  0.00     0.065 A 
ATOM     23  S   UNL     1       1.735  -5.845   2.651  1.00  0.00    -0.152 S 
ENDBRANCH  18  19
ENDBRANCH  16  18
ENDBRANCH  14  16
ENDBRANCH  11  14
ENDBRANCH   5   8
ENDBRANCH   3   4
ENDBRANCH   2   3
ENDBRANCH   1   2
BRANCH   1  24
ATOM     24  C   UNL     1      -5.092   3.463  -2.554  1.00  0.00     0.002 C 
BRANCH  24  25
ATOM     25  C   UNL     1      -5.990   3.744  -1.347  1.00  0.00     0.021 C 
BRANCH  25  26
ATOM     26  C   UNL     1      -6.380   5.204  -1.145  1.00  0.00     0.116 C 
BRANCH  26  27
ATOM     27  N   UNL     1      -7.078   5.761  -2.288  1.00  0.00    -0.352 N 
ATOM     28  C   UNL     1      -8.232   6.503  -2.332  1.00  0.00     0.251 C 
ATOM     29  H   UNL     1      -6.662   5.581  -3.162  1.00  0.00     0.163 HD
ATOM     30  O   UNL     1      -8.744   6.755  -3.418  1.00  0.00    -0.269 OA
BRANCH  28  31
ATOM     31  C   UNL     1      -8.871   6.969  -1.079  1.00  0.00     0.039 A 
ATOM     32  C   UNL     1     -10.262   6.891  -0.973  1.00  0.00     0.014 A 
ATOM     33  C   UNL     1      -8.121   7.499  -0.025  1.00  0.00     0.014 A 
ATOM     34  C   UNL     1     -10.894   7.298   0.205  1.00  0.00     0.010 A 
ATOM     35  C   UNL     1      -8.745   7.834   1.177  1.00  0.00     0.010 A 
ATOM     36  C   UNL     1     -10.140   7.747   1.301  1.00  0.00    -0.014 A 
BRANCH  36  37
ATOM     37  C   UNL     1     -10.806   8.145   2.570  1.00  0.00     0.031 A 
ATOM     38  C   UNL     1     -10.736   9.571   3.049  1.00  0.00     0.074 A 
ATOM     39  C   UNL     1     -11.449   7.216   3.305  1.00  0.00     0.049 A 
ATOM     40  N   UNL     1     -11.233  10.105   4.135  1.00  0.00    -0.248 NA
ATOM     41  C   UNL     1      -9.986  10.514   2.206  1.00  0.00     0.031 C 
ATOM     42  C   UNL     1     -11.552   5.795   2.965  1.00  0.00     0.029 A 
ATOM     43  N   UNL     1     -12.138   7.323   4.487  1.00  0.00    -0.354 N 
ATOM     44  C   UNL     1     -10.852  11.443   4.110  1.00  0.00     0.074 A 
ATOM     45  C   UNL     1     -10.025  11.619   2.936  1.00  0.00     0.031 C 
ATOM     46  C   UNL     1     -12.290   5.172   3.898  1.00  0.00     0.029 A 
ATOM     47  C   UNL     1     -12.675   6.134   4.925  1.00  0.00     0.049 A 
ATOM     48  H   UNL     1     -12.239   8.172   4.976  1.00  0.00     0.167 HD
ATOM     49  C   UNL     1     -11.183  12.438   4.972  1.00  0.00     0.034 A 
ATOM     50  C   UNL     1     -13.392   5.850   6.032  1.00  0.00     0.034 A 
ATOM     51  C   UNL     1     -12.017  12.247   6.134  1.00  0.00     0.049 A 
ATOM     52  C   UNL     1     -13.721   6.967   6.991  1.00  0.00     0.074 A 
ATOM     53  C   UNL     1     -12.457  13.192   7.044  1.00  0.00     0.029 A 
ATOM     54  N   UNL     1     -12.530  11.026   6.554  1.00  0.00    -0.354 N 
ATOM     55  N   UNL     1     -13.399   8.238   6.922  1.00  0.00    -0.248 NA
ATOM     56  C   UNL     1     -14.521   6.611   8.169  1.00  0.00     0.031 C 
ATOM     57  C   UNL     1     -13.173  12.535   8.050  1.00  0.00     0.029 A 
ATOM     58  C   UNL     1     -13.251  11.189   7.728  1.00  0.00     0.049 A 
ATOM     59  H   UNL     1     -12.401  10.169   6.087  1.00  0.00     0.167 HD
ATOM     60  C   UNL     1     -13.984   8.838   8.034  1.00  0.00     0.074 A 
ATOM     61  C   UNL     1     -14.694   7.792   8.743  1.00  0.00     0.031 C 
ATOM     62  C   UNL     1     -13.941  10.135   8.434  1.00  0.00     0.034 A 
BRANCH  49  63
ATOM     63  C   UNL     1     -10.619  13.813   4.697  1.00  0.00     0.023 A 
ATOM     64  C   UNL     1     -10.935  14.520   3.522  1.00  0.00     0.031 A 
ATOM     65  C   UNL     1      -9.736  14.418   5.608  1.00  0.00     0.131 A 
ATOM     66  C   UNL     1     -10.314  15.749   3.254  1.00  0.00     0.055 A 
ATOM     67  C   UNL     1      -9.187  15.681   5.375  1.00  0.00     0.041 A 
ATOM     68  F   UNL     1      -9.379  13.785   6.737  1.00  0.00    -0.206 F 
ATOM     69  C   UNL     1      -9.462  16.347   4.185  1.00  0.00     0.022 A 
BRANCH  66  70
ATOM     70  S   UNL     1     -10.518  16.481   1.607  1.00  0.00     0.124 S 
ATOM     71  O   UNL     1      -9.992  15.424   0.748  1.00  0.00    -0.237 OA
ATOM     72  O   UNL     1     -11.957  16.705   1.538  1.00  0.00    -0.237 OA
ATOM     73  O   UNL     1      -9.700  17.691   1.666  1.00  0.00    -0.744 OA
ENDBRANCH  66  70
ENDBRANCH  49  63
BRANCH  50  74
ATOM     74  C   UNL     1     -13.842   4.454   6.305  1.00  0.00     0.023 A 
ATOM     75  C   UNL     1     -15.207   4.131   6.357  1.00  0.00     0.031 A 
ATOM     76  C   UNL     1     -12.912   3.432   6.568  1.00  0.00     0.131 A 
ATOM     77  C   UNL     1     -15.606   2.833   6.715  1.00  0.00     0.055 A 
ATOM     78  C   UNL     1     -13.313   2.129   6.867  1.00  0.00     0.041 A 
ATOM     79  F   UNL     1     -11.594   3.686   6.529  1.00  0.00    -0.206 F 
ATOM     80  C   UNL     1     -14.668   1.827   6.956  1.00  0.00     0.022 A 
BRANCH  77  81
ATOM     81  S   UNL     1     -17.373   2.503   6.953  1.00  0.00     0.124 S 
ATOM     82  O   UNL     1     -17.721   3.478   7.980  1.00  0.00    -0.237 OA
ATOM     83  O   UNL     1     -17.910   2.755   5.620  1.00  0.00    -0.237 OA
ATOM     84  O   UNL     1     -17.404   1.106   7.381  1.00  0.00    -0.744 OA
ENDBRANCH  77  81
ENDBRANCH  50  74
BRANCH  62  85
ATOM     85  C   UNL     1     -14.718  10.493   9.679  1.00  0.00     0.023 A 
ATOM     86  C   UNL     1     -14.363   9.990  10.943  1.00  0.00     0.031 A 
ATOM     87  C   UNL     1     -15.840  11.337   9.595  1.00  0.00     0.131 A 
ATOM     88  C   UNL     1     -15.159  10.283  12.060  1.00  0.00     0.055 A 
ATOM     89  C   UNL     1     -16.589  11.678  10.722  1.00  0.00     0.041 A 
ATOM     90  F   UNL     1     -16.227  11.845   8.414  1.00  0.00    -0.206 F 
ATOM     91  C   UNL     1     -16.259  11.138  11.961  1.00  0.00     0.022 A 
BRANCH  88  92
ATOM     92  S   UNL     1     -14.796   9.448  13.629  1.00  0.00     0.124 S 
ATOM     93  O   UNL     1     -14.908   8.041  13.258  1.00  0.00    -0.237 OA
ATOM     94  O   UNL     1     -13.449   9.922  13.931  1.00  0.00    -0.237 OA
ATOM     95  O   UNL     1     -15.840   9.937  14.528  1.00  0.00    -0.744 OA
ENDBRANCH  88  92
ENDBRANCH  62  85
ENDBRANCH  36  37
ENDBRANCH  28  31
ENDBRANCH  26  27
ENDBRANCH  25  26
ENDBRANCH  24  25
ENDBRANCH   1  24
TORSDOF 20
