REMARK SMILES C[C@@H]1[C@H](C(=O)NCCCCCCNC(=O)c2ccc(-c3c4nc(c(-c5cc(S(=O)(=O)[O-])ccc5F)c5ccc([nH]5)c(-c5cc(S(=O)(=O)[O-])ccc5F)c5nc(c(-c6cc(S(=O)(=O)[O-])ccc6F)c6ccc3[nH]6)C=C5)C=C4)cc2)CCN1C(=O)COCc1ccccc1
REMARK SMILES IDX 8 1 7 2 6 3 4 4 5 5 3 7 1 8 2 9 81 10 79 11 80 12 82 13
REMARK SMILES IDX 83 14 84 15 85 16 86 17 87 18 88 19 92 20 89 21 91 22 90 23
REMARK SMILES IDX 9 24 10 25 11 26 12 27 13 28 14 29 15 31 16 32 17 33 78 34
REMARK SMILES IDX 18 35 77 36 19 37 20 38 21 39 71 40 22 41 76 42 70 43 72 44
REMARK SMILES IDX 23 45 75 46 69 47 68 48 24 50 56 51 36 52 55 53 37 54 40 55
REMARK SMILES IDX 54 56 73 57 38 58 39 59 53 61 74 62 41 63 25 64 26 65 34 66
REMARK SMILES IDX 27 67 33 68 35 69 32 70 28 71 29 72 30 73 31 74 57 75 58 76
REMARK SMILES IDX 66 77 59 78 65 79 67 80 64 81 60 82 61 83 62 84 63 85 42 86
REMARK SMILES IDX 43 87 51 88 44 89 50 90 52 91 49 92 45 93 46 94 47 95 48 96
REMARK H PARENT 6 6 13 30 72 49 40 60
REMARK Flexibility Score: inf
ROOT
ATOM      1  C   UNL     1       2.827   1.588   2.512  1.00  0.00     0.021 C 
ENDROOT
BRANCH   1   2
ATOM      2  C   UNL     1       1.357   1.808   2.150  1.00  0.00     0.116 C 
BRANCH   2   3
ATOM      3  N   UNL     1       1.220   2.644   0.971  1.00  0.00    -0.356 N 
ATOM      4  C   UNL     1       0.652   2.418  -0.242  1.00  0.00     0.225 C 
ATOM      5  O   UNL     1       0.781   3.304  -1.093  1.00  0.00    -0.275 OA
ATOM      6  H   UNL     1       1.611   3.542   1.068  1.00  0.00     0.163 HD
BRANCH   4   7
ATOM      7  C   UNL     1      -0.121   1.156  -0.591  1.00  0.00     0.102 C 
ATOM      8  C   UNL     1       2.077  -0.228  -0.284  1.00  0.00     0.032 C 
ATOM      9  C   UNL     1       0.656  -0.158  -0.829  1.00  0.00     0.094 C 
ATOM     10  N   UNL     1      -0.246  -1.205  -0.316  1.00  0.00    -0.337 N 
ATOM     11  C   UNL     1      -1.273   0.821   0.356  1.00  0.00     0.037 C 
ATOM     12  C   UNL     1      -1.511  -0.656   0.133  1.00  0.00     0.121 C 
BRANCH  10  13
ATOM     13  C   UNL     1      -0.146  -2.579  -0.454  1.00  0.00     0.248 C 
ATOM     14  O   UNL     1      -1.087  -3.321  -0.157  1.00  0.00    -0.272 OA
BRANCH  13  15
ATOM     15  C   UNL     1       1.170  -3.174  -0.962  1.00  0.00     0.260 C 
BRANCH  15  16
ATOM     16  O   UNL     1       1.631  -2.720  -2.229  1.00  0.00    -0.367 OA
BRANCH  16  17
ATOM     17  C   UNL     1       0.770  -3.077  -3.313  1.00  0.00     0.196 C 
BRANCH  17  18
ATOM     18  C   UNL     1       0.732  -4.567  -3.519  1.00  0.00    -0.022 A 
ATOM     19  C   UNL     1      -0.483  -5.261  -3.461  1.00  0.00     0.006 A 
ATOM     20  C   UNL     1       1.924  -5.286  -3.691  1.00  0.00     0.006 A 
ATOM     21  C   UNL     1      -0.502  -6.652  -3.546  1.00  0.00     0.000 A 
ATOM     22  C   UNL     1       1.903  -6.677  -3.770  1.00  0.00     0.000 A 
ATOM     23  C   UNL     1       0.690  -7.360  -3.692  1.00  0.00     0.000 A 
ENDBRANCH  17  18
ENDBRANCH  16  17
ENDBRANCH  15  16
ENDBRANCH  13  15
ENDBRANCH  10  13
ENDBRANCH   4   7
ENDBRANCH   2   3
ENDBRANCH   1   2
BRANCH   1  24
ATOM     24  C   UNL     1       3.518   2.789   3.158  1.00  0.00     0.002 C 
BRANCH  24  25
ATOM     25  C   UNL     1       2.958   3.211   4.517  1.00  0.00     0.002 C 
BRANCH  25  26
ATOM     26  C   UNL     1       2.837   2.093   5.558  1.00  0.00     0.021 C 
BRANCH  26  27
ATOM     27  C   UNL     1       4.109   1.284   5.805  1.00  0.00     0.116 C 
BRANCH  27  28
ATOM     28  N   UNL     1       5.207   2.114   6.263  1.00  0.00    -0.352 N 
ATOM     29  C   UNL     1       5.972   2.006   7.398  1.00  0.00     0.251 C 
ATOM     30  H   UNL     1       5.438   2.867   5.672  1.00  0.00     0.163 HD
ATOM     31  O   UNL     1       6.725   2.925   7.705  1.00  0.00    -0.269 OA
BRANCH  29  32
ATOM     32  C   UNL     1       5.876   0.803   8.255  1.00  0.00     0.039 A 
ATOM     33  C   UNL     1       5.843   0.972   9.642  1.00  0.00     0.014 A 
ATOM     34  C   UNL     1       5.859  -0.483   7.707  1.00  0.00     0.014 A 
ATOM     35  C   UNL     1       5.751  -0.144  10.476  1.00  0.00     0.010 A 
ATOM     36  C   UNL     1       5.703  -1.593   8.538  1.00  0.00     0.010 A 
ATOM     37  C   UNL     1       5.660  -1.435   9.932  1.00  0.00    -0.014 A 
BRANCH  37  38
ATOM     38  C   UNL     1       5.547  -2.626  10.815  1.00  0.00     0.031 A 
ATOM     39  C   UNL     1       6.664  -3.633  10.872  1.00  0.00     0.074 A 
ATOM     40  C   UNL     1       4.426  -2.816  11.539  1.00  0.00     0.049 A 
ATOM     41  N   UNL     1       6.743  -4.745  11.557  1.00  0.00    -0.248 NA
ATOM     42  C   UNL     1       7.836  -3.365  10.025  1.00  0.00     0.031 C 
ATOM     43  C   UNL     1       3.260  -1.930  11.536  1.00  0.00     0.029 A 
ATOM     44  N   UNL     1       4.082  -3.814  12.415  1.00  0.00    -0.354 N 
ATOM     45  C   UNL     1       7.967  -5.314  11.220  1.00  0.00     0.074 A 
ATOM     46  C   UNL     1       8.565  -4.453  10.220  1.00  0.00     0.031 C 
ATOM     47  C   UNL     1       2.341  -2.412  12.389  1.00  0.00     0.029 A 
ATOM     48  C   UNL     1       2.833  -3.656  12.971  1.00  0.00     0.049 A 
ATOM     49  H   UNL     1       4.673  -4.572  12.626  1.00  0.00     0.167 HD
ATOM     50  C   UNL     1       8.549  -6.435  11.714  1.00  0.00     0.034 A 
ATOM     51  C   UNL     1       2.161  -4.429  13.847  1.00  0.00     0.034 A 
ATOM     52  C   UNL     1       7.945  -7.276  12.720  1.00  0.00     0.049 A 
ATOM     53  C   UNL     1       2.821  -5.678  14.372  1.00  0.00     0.074 A 
ATOM     54  C   UNL     1       8.467  -8.402  13.332  1.00  0.00     0.029 A 
ATOM     55  N   UNL     1       6.678  -7.086  13.258  1.00  0.00    -0.354 N 
ATOM     56  N   UNL     1       4.003  -6.173  14.082  1.00  0.00    -0.248 NA
ATOM     57  C   UNL     1       2.061  -6.466  15.351  1.00  0.00     0.031 C 
ATOM     58  C   UNL     1       7.495  -8.928  14.191  1.00  0.00     0.029 A 
ATOM     59  C   UNL     1       6.391  -8.091  14.170  1.00  0.00     0.049 A 
ATOM     60  H   UNL     1       6.071  -6.346  13.025  1.00  0.00     0.167 HD
ATOM     61  C   UNL     1       4.137  -7.316  14.866  1.00  0.00     0.074 A 
ATOM     62  C   UNL     1       2.925  -7.425  15.651  1.00  0.00     0.031 C 
ATOM     63  C   UNL     1       5.169  -8.195  14.933  1.00  0.00     0.034 A 
BRANCH  50  64
ATOM     64  C   UNL     1       9.897  -6.822  11.152  1.00  0.00     0.023 A 
ATOM     65  C   UNL     1      11.025  -5.997  11.305  1.00  0.00     0.031 A 
ATOM     66  C   UNL     1      10.051  -8.017  10.427  1.00  0.00     0.131 A 
ATOM     67  C   UNL     1      12.233  -6.335  10.676  1.00  0.00     0.055 A 
ATOM     68  C   UNL     1      11.278  -8.389   9.872  1.00  0.00     0.041 A 
ATOM     69  F   UNL     1       9.007  -8.837  10.230  1.00  0.00    -0.206 F 
ATOM     70  C   UNL     1      12.374  -7.538   9.981  1.00  0.00     0.022 A 
BRANCH  67  71
ATOM     71  S   UNL     1      13.572  -5.112  10.657  1.00  0.00     0.124 S 
ATOM     72  O   UNL     1      12.933  -3.987   9.977  1.00  0.00    -0.237 OA
ATOM     73  O   UNL     1      13.851  -4.926  12.076  1.00  0.00    -0.237 OA
ATOM     74  O   UNL     1      14.629  -5.772   9.894  1.00  0.00    -0.744 OA
ENDBRANCH  67  71
ENDBRANCH  50  64
BRANCH  51  75
ATOM     75  C   UNL     1       0.786  -4.054  14.284  1.00  0.00     0.023 A 
ATOM     76  C   UNL     1       0.520  -3.710  15.619  1.00  0.00     0.031 A 
ATOM     77  C   UNL     1      -0.291  -4.075  13.380  1.00  0.00     0.131 A 
ATOM     78  C   UNL     1      -0.798  -3.446  16.023  1.00  0.00     0.055 A 
ATOM     79  C   UNL     1      -1.592  -3.763  13.777  1.00  0.00     0.041 A 
ATOM     80  F   UNL     1      -0.089  -4.391  12.091  1.00  0.00    -0.206 F 
ATOM     81  C   UNL     1      -1.854  -3.458  15.109  1.00  0.00     0.022 A 
BRANCH  78  82
ATOM     82  S   UNL     1      -1.125  -3.162  17.785  1.00  0.00     0.124 S 
ATOM     83  O   UNL     1      -0.618  -4.391  18.384  1.00  0.00    -0.237 OA
ATOM     84  O   UNL     1      -0.349  -1.953  18.045  1.00  0.00    -0.237 OA
ATOM     85  O   UNL     1      -2.575  -2.992  17.838  1.00  0.00    -0.744 OA
ENDBRANCH  78  82
ENDBRANCH  51  75
BRANCH  63  86
ATOM     86  C   UNL     1       5.034  -9.330  15.918  1.00  0.00     0.023 A 
ATOM     87  C   UNL     1       4.080 -10.347  15.746  1.00  0.00     0.031 A 
ATOM     88  C   UNL     1       5.859  -9.380  17.056  1.00  0.00     0.131 A 
ATOM     89  C   UNL     1       3.933 -11.340  16.726  1.00  0.00     0.055 A 
ATOM     90  C   UNL     1       5.748 -10.404  17.998  1.00  0.00     0.041 A 
ATOM     91  F   UNL     1       6.786  -8.434  17.271  1.00  0.00    -0.206 F 
ATOM     92  C   UNL     1       4.771 -11.384  17.843  1.00  0.00     0.022 A 
BRANCH  89  93
ATOM     93  S   UNL     1       2.567 -12.524  16.568  1.00  0.00     0.124 S 
ATOM     94  O   UNL     1       1.404 -11.644  16.546  1.00  0.00    -0.237 OA
ATOM     95  O   UNL     1       2.881 -13.197  15.312  1.00  0.00    -0.237 OA
ATOM     96  O   UNL     1       2.693 -13.355  17.764  1.00  0.00    -0.744 OA
ENDBRANCH  89  93
ENDBRANCH  63  86
ENDBRANCH  37  38
ENDBRANCH  29  32
ENDBRANCH  27  28
ENDBRANCH  26  27
ENDBRANCH  25  26
ENDBRANCH  24  25
ENDBRANCH   1  24
TORSDOF 21
