REMARK SMILES CC1=C[C@H](C)[C@@H](C(=O)NCCCCCCNC(=O)c2ccc(-c3c4nc(c(-c5cc(S(=O)(=O)[O-])ccc5F)c5ccc([nH]5)c(-c5cc(S(=O)(=O)[O-])ccc5F)c5nc(c(-c6cc(S(=O)(=O)[O-])ccc6F)c6ccc3[nH]6)C=C5)C=C4)cc2)[C@H](C(=O)Nc2cccnc2)C1
REMARK SMILES IDX 13 1 12 2 11 3 10 4 9 5 7 6 8 7 6 9 1 10 2 11 3 12 92 13
REMARK SMILES IDX 4 14 82 15 5 16 83 17 84 18 85 19 86 21 87 22 91 23 88 24
REMARK SMILES IDX 90 25 89 26 14 27 15 28 16 29 17 30 18 32 19 33 20 34 81 35
REMARK SMILES IDX 21 36 80 37 22 38 23 39 24 40 74 41 25 42 79 43 73 44 75 45
REMARK SMILES IDX 26 46 78 47 72 48 71 49 27 51 59 52 39 53 58 54 40 55 43 56
REMARK SMILES IDX 57 57 76 58 41 59 42 60 56 62 77 63 44 64 28 65 29 66 37 67
REMARK SMILES IDX 30 68 36 69 38 70 35 71 31 72 32 73 33 74 34 75 60 76 61 77
REMARK SMILES IDX 69 78 62 79 68 80 70 81 67 82 63 83 64 84 65 85 66 86 45 87
REMARK SMILES IDX 46 88 54 89 47 90 53 91 55 92 52 93 48 94 49 95 50 96 51 97
REMARK H PARENT 9 8 85 20 16 31 75 50 43 61
REMARK Flexibility Score: inf
ROOT
ATOM      1  C   UNL     1      -4.976   2.066   0.254  1.00  0.00     0.002 C 
ENDROOT
BRANCH   1   2
ATOM      2  C   UNL     1      -4.187   3.368   0.055  1.00  0.00     0.002 C 
BRANCH   2   3
ATOM      3  C   UNL     1      -2.688   3.183  -0.173  1.00  0.00     0.021 C 
BRANCH   3   4
ATOM      4  C   UNL     1      -2.365   2.364  -1.412  1.00  0.00     0.116 C 
BRANCH   4   5
ATOM      5  N   UNL     1      -2.252   3.165  -2.613  1.00  0.00    -0.356 N 
ATOM      6  C   UNL     1      -1.362   3.072  -3.643  1.00  0.00     0.224 C 
ATOM      7  O   UNL     1      -1.558   3.787  -4.630  1.00  0.00    -0.275 OA
ATOM      8  H   UNL     1      -2.918   3.885  -2.699  1.00  0.00     0.163 HD
BRANCH   6   9
ATOM      9  C   UNL     1      -0.159   2.112  -3.607  1.00  0.00     0.098 C 
ATOM     10  C   UNL     1       0.995  -0.479  -0.148  1.00  0.00     0.039 C 
ATOM     11  C   UNL     1       0.615   0.351  -1.343  1.00  0.00    -0.076 C 
ATOM     12  C   UNL     1      -0.125  -0.148  -2.349  1.00  0.00    -0.024 C 
ATOM     13  C   UNL     1       1.068   1.784  -1.289  1.00  0.00     0.044 C 
ATOM     14  C   UNL     1      -0.671   0.650  -3.506  1.00  0.00     0.022 C 
ATOM     15  C   UNL     1       0.901   2.589  -2.585  1.00  0.00     0.096 C 
ATOM     16  C   UNL     1      -0.571  -0.100  -4.850  1.00  0.00     0.013 C 
BRANCH  15  17
ATOM     17  C   UNL     1       2.251   2.989  -3.224  1.00  0.00     0.228 C 
ATOM     18  O   UNL     1       2.392   4.128  -3.685  1.00  0.00    -0.274 OA
ATOM     19  N   UNL     1       3.362   2.191  -3.187  1.00  0.00    -0.324 N 
ATOM     20  H   UNL     1       4.220   2.671  -3.238  1.00  0.00     0.169 HD
BRANCH  19  21
ATOM     21  C   UNL     1       3.468   0.800  -3.090  1.00  0.00     0.059 A 
ATOM     22  C   UNL     1       2.704  -0.044  -3.880  1.00  0.00     0.029 A 
ATOM     23  C   UNL     1       4.400   0.214  -2.241  1.00  0.00     0.137 A 
ATOM     24  C   UNL     1       2.799  -1.424  -3.715  1.00  0.00     0.022 A 
ATOM     25  N   UNL     1       4.518  -1.123  -2.055  1.00  0.00    -0.263 NA
ATOM     26  C   UNL     1       3.692  -1.911  -2.777  1.00  0.00     0.111 A 
ENDBRANCH  19  21
ENDBRANCH  15  17
ENDBRANCH   6   9
ENDBRANCH   4   5
ENDBRANCH   3   4
ENDBRANCH   2   3
ENDBRANCH   1   2
BRANCH   1  27
ATOM     27  C   UNL     1      -4.461   1.139   1.362  1.00  0.00     0.021 C 
BRANCH  27  28
ATOM     28  C   UNL     1      -4.319   1.790   2.736  1.00  0.00     0.116 C 
BRANCH  28  29
ATOM     29  N   UNL     1      -5.544   2.447   3.153  1.00  0.00    -0.352 N 
ATOM     30  C   UNL     1      -6.264   2.327   4.312  1.00  0.00     0.251 C 
ATOM     31  H   UNL     1      -5.917   3.081   2.498  1.00  0.00     0.163 HD
ATOM     32  O   UNL     1      -7.393   2.808   4.365  1.00  0.00    -0.269 OA
BRANCH  30  33
ATOM     33  C   UNL     1      -5.700   1.617   5.480  1.00  0.00     0.039 A 
ATOM     34  C   UNL     1      -6.553   0.821   6.247  1.00  0.00     0.014 A 
ATOM     35  C   UNL     1      -4.360   1.770   5.852  1.00  0.00     0.014 A 
ATOM     36  C   UNL     1      -6.055   0.153   7.366  1.00  0.00     0.010 A 
ATOM     37  C   UNL     1      -3.848   1.042   6.925  1.00  0.00     0.010 A 
ATOM     38  C   UNL     1      -4.694   0.239   7.702  1.00  0.00    -0.014 A 
BRANCH  38  39
ATOM     39  C   UNL     1      -4.164  -0.510   8.869  1.00  0.00     0.031 A 
ATOM     40  C   UNL     1      -3.619   0.220  10.065  1.00  0.00     0.074 A 
ATOM     41  C   UNL     1      -4.155  -1.856   8.834  1.00  0.00     0.049 A 
ATOM     42  N   UNL     1      -3.149  -0.264  11.187  1.00  0.00    -0.248 NA
ATOM     43  C   UNL     1      -3.563   1.685   9.973  1.00  0.00     0.031 C 
ATOM     44  C   UNL     1      -4.589  -2.671   7.696  1.00  0.00     0.029 A 
ATOM     45  N   UNL     1      -3.770  -2.777   9.774  1.00  0.00    -0.354 N 
ATOM     46  C   UNL     1      -2.741   0.836  11.935  1.00  0.00     0.074 A 
ATOM     47  C   UNL     1      -2.945   2.002  11.100  1.00  0.00     0.031 C 
ATOM     48  C   UNL     1      -4.474  -3.968   8.016  1.00  0.00     0.029 A 
ATOM     49  C   UNL     1      -3.930  -4.080   9.366  1.00  0.00     0.049 A 
ATOM     50  H   UNL     1      -3.414  -2.528  10.657  1.00  0.00     0.167 HD
ATOM     51  C   UNL     1      -2.269   0.873  13.207  1.00  0.00     0.034 A 
ATOM     52  C   UNL     1      -3.668  -5.235  10.006  1.00  0.00     0.034 A 
ATOM     53  C   UNL     1      -2.065  -0.307  14.016  1.00  0.00     0.049 A 
ATOM     54  C   UNL     1      -3.162  -5.178  11.422  1.00  0.00     0.074 A 
ATOM     55  C   UNL     1      -1.641  -0.394  15.331  1.00  0.00     0.029 A 
ATOM     56  N   UNL     1      -2.256  -1.615  13.579  1.00  0.00    -0.354 N 
ATOM     57  N   UNL     1      -2.857  -4.127  12.149  1.00  0.00    -0.248 NA
ATOM     58  C   UNL     1      -2.993  -6.461  12.111  1.00  0.00     0.031 C 
ATOM     59  C   UNL     1      -1.508  -1.748  15.663  1.00  0.00     0.029 A 
ATOM     60  C   UNL     1      -1.929  -2.512  14.586  1.00  0.00     0.049 A 
ATOM     61  H   UNL     1      -2.578  -1.867  12.683  1.00  0.00     0.167 HD
ATOM     62  C   UNL     1      -2.474  -4.623  13.391  1.00  0.00     0.074 A 
ATOM     63  C   UNL     1      -2.620  -6.064  13.319  1.00  0.00     0.031 C 
ATOM     64  C   UNL     1      -2.043  -3.951  14.491  1.00  0.00     0.034 A 
BRANCH  51  65
ATOM     65  C   UNL     1      -1.918   2.233  13.773  1.00  0.00     0.023 A 
ATOM     66  C   UNL     1      -2.876   3.258  13.880  1.00  0.00     0.031 A 
ATOM     67  C   UNL     1      -0.598   2.534  14.154  1.00  0.00     0.131 A 
ATOM     68  C   UNL     1      -2.483   4.554  14.248  1.00  0.00     0.055 A 
ATOM     69  C   UNL     1      -0.233   3.801  14.614  1.00  0.00     0.041 A 
ATOM     70  F   UNL     1       0.370   1.608  14.059  1.00  0.00    -0.206 F 
ATOM     71  C   UNL     1      -1.173   4.827  14.642  1.00  0.00     0.022 A 
BRANCH  68  72
ATOM     72  S   UNL     1      -3.665   5.913  14.019  1.00  0.00     0.124 S 
ATOM     73  O   UNL     1      -3.987   5.787  12.599  1.00  0.00    -0.237 OA
ATOM     74  O   UNL     1      -4.731   5.565  14.950  1.00  0.00    -0.237 OA
ATOM     75  O   UNL     1      -2.891   7.103  14.369  1.00  0.00    -0.744 OA
ENDBRANCH  68  72
ENDBRANCH  51  65
BRANCH  52  76
ATOM     76  C   UNL     1      -3.885  -6.535   9.309  1.00  0.00     0.023 A 
ATOM     77  C   UNL     1      -4.884  -7.430   9.720  1.00  0.00     0.031 A 
ATOM     78  C   UNL     1      -3.085  -6.895   8.209  1.00  0.00     0.131 A 
ATOM     79  C   UNL     1      -5.038  -8.657   9.055  1.00  0.00     0.055 A 
ATOM     80  C   UNL     1      -3.273  -8.095   7.522  1.00  0.00     0.041 A 
ATOM     81  F   UNL     1      -2.123  -6.068   7.769  1.00  0.00    -0.206 F 
ATOM     82  C   UNL     1      -4.249  -8.989   7.951  1.00  0.00     0.022 A 
BRANCH  79  83
ATOM     83  S   UNL     1      -6.257  -9.843   9.686  1.00  0.00     0.124 S 
ATOM     84  O   UNL     1      -5.772 -10.076  11.041  1.00  0.00    -0.237 OA
ATOM     85  O   UNL     1      -7.501  -9.090   9.569  1.00  0.00    -0.237 OA
ATOM     86  O   UNL     1      -6.131 -10.978   8.773  1.00  0.00    -0.744 OA
ENDBRANCH  79  83
ENDBRANCH  52  76
BRANCH  64  87
ATOM     87  C   UNL     1      -1.718  -4.785  15.709  1.00  0.00     0.023 A 
ATOM     88  C   UNL     1      -0.678  -5.733  15.698  1.00  0.00     0.031 A 
ATOM     89  C   UNL     1      -2.490  -4.669  16.878  1.00  0.00     0.131 A 
ATOM     90  C   UNL     1      -0.495  -6.584  16.799  1.00  0.00     0.055 A 
ATOM     91  C   UNL     1      -2.253  -5.466  17.999  1.00  0.00     0.041 A 
ATOM     92  F   UNL     1      -3.498  -3.784  16.948  1.00  0.00    -0.206 F 
ATOM     93  C   UNL     1      -1.264  -6.444  17.956  1.00  0.00     0.022 A 
BRANCH  90  94
ATOM     94  S   UNL     1       0.667  -7.969  16.642  1.00  0.00     0.124 S 
ATOM     95  O   UNL     1       0.170  -8.647  15.449  1.00  0.00    -0.237 OA
ATOM     96  O   UNL     1       1.948  -7.285  16.500  1.00  0.00    -0.237 OA
ATOM     97  O   UNL     1       0.492  -8.706  17.892  1.00  0.00    -0.744 OA
ENDBRANCH  90  94
ENDBRANCH  64  87
ENDBRANCH  38  39
ENDBRANCH  30  33
ENDBRANCH  28  29
ENDBRANCH  27  28
ENDBRANCH   1  27
TORSDOF 18
