REMARK SMILES CC(C)c1ccc2c(c1)C(=O)C[C@H]1[C@](C)(C(=O)NCCCCCCNC(=O)c3ccc(-c4c5nc(c(-c6cc(S(=O)(=O)[O-])ccc6F)c6ccc([nH]6)c(-c6cc(S(=O)(=O)[O-])ccc6F)c6nc(c(-c7cc(S(=O)(=O)[O-])ccc7F)c7ccc4[nH]7)C=C6)C=C5)cc3)CCC[C@@]21C
REMARK SMILES IDX 22 1 21 2 20 3 19 4 18 5 16 6 17 7 14 9 4 10 5 11 9 12 6 13
REMARK SMILES IDX 8 14 7 15 10 16 94 17 12 18 11 19 13 20 93 21 95 22 92 23
REMARK SMILES IDX 91 24 15 25 2 26 1 27 3 28 23 29 24 30 25 31 26 32 27 34
REMARK SMILES IDX 28 35 29 36 90 37 30 38 89 39 31 40 32 41 33 42 83 43 34 44
REMARK SMILES IDX 88 45 82 46 84 47 35 48 87 49 81 50 80 51 36 53 68 54 48 55
REMARK SMILES IDX 67 56 49 57 52 58 66 59 85 60 50 61 51 62 65 64 86 65 53 66
REMARK SMILES IDX 37 67 38 68 46 69 39 70 45 71 47 72 44 73 40 74 41 75 42 76
REMARK SMILES IDX 43 77 69 78 70 79 78 80 71 81 77 82 79 83 76 84 72 85 73 86
REMARK SMILES IDX 74 87 75 88 54 89 55 90 63 91 56 92 62 93 64 94 61 95 57 96
REMARK SMILES IDX 58 97 59 98 60 99
REMARK H PARENT 18 8 25 33 84 52 52 63
REMARK Flexibility Score: inf
ROOT
ATOM      1  C   UNL     1      -3.408  -1.009  -5.132  1.00  0.00     0.002 C 
ENDROOT
BRANCH   1   2
ATOM      2  C   UNL     1      -4.042  -0.588  -3.803  1.00  0.00     0.002 C 
BRANCH   2   3
ATOM      3  C   UNL     1      -5.440   0.037  -3.891  1.00  0.00     0.021 C 
BRANCH   3   4
ATOM      4  C   UNL     1      -6.654  -0.864  -3.879  1.00  0.00     0.116 C 
BRANCH   4   5
ATOM      5  N   UNL     1      -6.832  -1.702  -2.703  1.00  0.00    -0.356 N 
ATOM      6  C   UNL     1      -7.484  -1.485  -1.525  1.00  0.00     0.226 C 
ATOM      7  O   UNL     1      -8.210  -2.426  -1.175  1.00  0.00    -0.274 OA
ATOM      8  H   UNL     1      -6.403  -2.585  -2.769  1.00  0.00     0.163 HD
BRANCH   6   9
ATOM      9  C   UNL     1      -7.258  -0.257  -0.570  1.00  0.00     0.050 C 
ATOM     10  C   UNL     1      -0.862   1.440  -0.417  1.00  0.00    -0.045 A 
ATOM     11  C   UNL     1      -1.543   2.659  -0.504  1.00  0.00     0.004 A 
ATOM     12  C   UNL     1      -1.597   0.324  -0.029  1.00  0.00     0.016 A 
ATOM     13  C   UNL     1      -2.932   2.738  -0.288  1.00  0.00     0.005 A 
ATOM     14  C   UNL     1      -2.983   0.401   0.180  1.00  0.00     0.022 A 
ATOM     15  C   UNL     1      -3.710   1.587  -0.041  1.00  0.00    -0.031 A 
ATOM     16  C   UNL     1      -3.642  -0.846   0.603  1.00  0.00     0.163 C 
ATOM     17  C   UNL     1      -5.244   1.563  -0.349  1.00  0.00    -0.003 C 
ATOM     18  C   UNL     1      -5.126  -0.815   0.679  1.00  0.00     0.086 C 
ATOM     19  O   UNL     1      -2.997  -1.832   0.947  1.00  0.00    -0.294 OA
ATOM     20  C   UNL     1      -5.710   0.038  -0.464  1.00  0.00     0.022 C 
ATOM     21  C   UNL     1      -6.233   2.214   0.634  1.00  0.00     0.012 C 
ATOM     22  C   UNL     1      -5.364   2.452  -1.645  1.00  0.00     0.017 C 
ATOM     23  C   UNL     1      -7.685   2.191   0.056  1.00  0.00     0.002 C 
ATOM     24  C   UNL     1      -8.030   1.018  -0.916  1.00  0.00     0.017 C 
ATOM     25  C   UNL     1      -7.900  -0.713   0.796  1.00  0.00     0.022 C 
BRANCH  10  26
ATOM     26  C   UNL     1       0.614   1.339  -0.768  1.00  0.00     0.013 C 
ATOM     27  C   UNL     1       1.380   0.352   0.122  1.00  0.00     0.012 C 
ATOM     28  C   UNL     1       0.801   0.957  -2.242  1.00  0.00     0.012 C 
ENDBRANCH  10  26
ENDBRANCH   6   9
ENDBRANCH   4   5
ENDBRANCH   3   4
ENDBRANCH   2   3
ENDBRANCH   1   2
BRANCH   1  29
ATOM     29  C   UNL     1      -3.585  -0.025  -6.289  1.00  0.00     0.021 C 
BRANCH  29  30
ATOM     30  C   UNL     1      -3.168   1.411  -5.973  1.00  0.00     0.116 C 
BRANCH  30  31
ATOM     31  N   UNL     1      -1.741   1.627  -6.134  1.00  0.00    -0.352 N 
ATOM     32  C   UNL     1      -1.064   2.199  -7.193  1.00  0.00     0.251 C 
ATOM     33  H   UNL     1      -1.178   1.324  -5.385  1.00  0.00     0.163 HD
ATOM     34  O   UNL     1       0.150   2.140  -7.256  1.00  0.00    -0.269 OA
BRANCH  32  35
ATOM     35  C   UNL     1      -1.848   2.849  -8.270  1.00  0.00     0.039 A 
ATOM     36  C   UNL     1      -2.833   3.786  -7.955  1.00  0.00     0.014 A 
ATOM     37  C   UNL     1      -1.633   2.473  -9.597  1.00  0.00     0.014 A 
ATOM     38  C   UNL     1      -3.729   4.196  -8.936  1.00  0.00     0.010 A 
ATOM     39  C   UNL     1      -2.474   2.969 -10.600  1.00  0.00     0.010 A 
ATOM     40  C   UNL     1      -3.564   3.790 -10.272  1.00  0.00    -0.014 A 
BRANCH  40  41
ATOM     41  C   UNL     1      -4.539   4.242 -11.303  1.00  0.00     0.031 A 
ATOM     42  C   UNL     1      -5.386   3.252 -12.059  1.00  0.00     0.074 A 
ATOM     43  C   UNL     1      -4.694   5.562 -11.525  1.00  0.00     0.049 A 
ATOM     44  N   UNL     1      -6.287   3.475 -12.982  1.00  0.00    -0.248 NA
ATOM     45  C   UNL     1      -5.197   1.826 -11.745  1.00  0.00     0.031 C 
ATOM     46  C   UNL     1      -3.937   6.614 -10.845  1.00  0.00     0.029 A 
ATOM     47  N   UNL     1      -5.543   6.249 -12.357  1.00  0.00    -0.354 N 
ATOM     48  C   UNL     1      -6.762   2.226 -13.367  1.00  0.00     0.074 A 
ATOM     49  C   UNL     1      -6.019   1.244 -12.609  1.00  0.00     0.031 C 
ATOM     50  C   UNL     1      -4.390   7.809 -11.244  1.00  0.00     0.029 A 
ATOM     51  C   UNL     1      -5.411   7.616 -12.271  1.00  0.00     0.049 A 
ATOM     52  H   UNL     1      -6.184   5.806 -12.958  1.00  0.00     0.167 HD
ATOM     53  C   UNL     1      -7.740   1.929 -14.258  1.00  0.00     0.034 A 
ATOM     54  C   UNL     1      -6.022   8.609 -12.950  1.00  0.00     0.034 A 
ATOM     55  C   UNL     1      -8.480   2.922 -14.997  1.00  0.00     0.049 A 
ATOM     56  C   UNL     1      -7.074   8.252 -13.966  1.00  0.00     0.074 A 
ATOM     57  C   UNL     1      -9.499   2.720 -15.911  1.00  0.00     0.029 A 
ATOM     58  N   UNL     1      -8.292   4.294 -14.909  1.00  0.00    -0.354 N 
ATOM     59  N   UNL     1      -7.532   7.067 -14.294  1.00  0.00    -0.248 NA
ATOM     60  C   UNL     1      -7.697   9.360 -14.703  1.00  0.00     0.031 C 
ATOM     61  C   UNL     1      -9.879   3.960 -16.424  1.00  0.00     0.029 A 
ATOM     62  C   UNL     1      -9.158   4.947 -15.772  1.00  0.00     0.049 A 
ATOM     63  H   UNL     1      -7.639   4.738 -14.321  1.00  0.00     0.167 HD
ATOM     64  C   UNL     1      -8.507   7.286 -15.263  1.00  0.00     0.074 A 
ATOM     65  C   UNL     1      -8.593   8.721 -15.445  1.00  0.00     0.031 C 
ATOM     66  C   UNL     1      -9.253   6.379 -15.942  1.00  0.00     0.034 A 
BRANCH  53  67
ATOM     67  C   UNL     1      -8.097   0.478 -14.489  1.00  0.00     0.023 A 
ATOM     68  C   UNL     1      -7.949  -0.091 -15.768  1.00  0.00     0.031 A 
ATOM     69  C   UNL     1      -8.710  -0.296 -13.487  1.00  0.00     0.131 A 
ATOM     70  C   UNL     1      -8.441  -1.378 -16.022  1.00  0.00     0.055 A 
ATOM     71  C   UNL     1      -9.157  -1.595 -13.732  1.00  0.00     0.041 A 
ATOM     72  F   UNL     1      -8.878   0.199 -12.250  1.00  0.00    -0.206 F 
ATOM     73  C   UNL     1      -9.037  -2.136 -15.008  1.00  0.00     0.022 A 
BRANCH  70  74
ATOM     74  S   UNL     1      -8.398  -2.091 -17.689  1.00  0.00     0.124 S 
ATOM     75  O   UNL     1      -7.603  -3.299 -17.477  1.00  0.00    -0.237 OA
ATOM     76  O   UNL     1      -9.815  -2.317 -17.961  1.00  0.00    -0.237 OA
ATOM     77  O   UNL     1      -7.756  -1.059 -18.496  1.00  0.00    -0.744 OA
ENDBRANCH  70  74
ENDBRANCH  53  67
BRANCH  54  78
ATOM     78  C   UNL     1      -5.661  10.023 -12.637  1.00  0.00     0.023 A 
ATOM     79  C   UNL     1      -4.339  10.480 -12.795  1.00  0.00     0.031 A 
ATOM     80  C   UNL     1      -6.593  10.893 -12.048  1.00  0.00     0.131 A 
ATOM     81  C   UNL     1      -3.967  11.729 -12.283  1.00  0.00     0.055 A 
ATOM     82  C   UNL     1      -6.236  12.171 -11.616  1.00  0.00     0.041 A 
ATOM     83  F   UNL     1      -7.863  10.499 -11.864  1.00  0.00    -0.206 F 
ATOM     84  C   UNL     1      -4.911  12.586 -11.712  1.00  0.00     0.022 A 
BRANCH  81  85
ATOM     85  S   UNL     1      -2.219  12.212 -12.196  1.00  0.00     0.124 S 
ATOM     86  O   UNL     1      -2.205  13.447 -12.973  1.00  0.00    -0.237 OA
ATOM     87  O   UNL     1      -2.028  12.368 -10.756  1.00  0.00    -0.237 OA
ATOM     88  O   UNL     1      -1.519  11.080 -12.794  1.00  0.00    -0.744 OA
ENDBRANCH  81  85
ENDBRANCH  54  78
BRANCH  66  89
ATOM     89  C   UNL     1     -10.253   6.878 -16.959  1.00  0.00     0.023 A 
ATOM     90  C   UNL     1     -11.624   6.601 -16.791  1.00  0.00     0.031 A 
ATOM     91  C   UNL     1      -9.839   7.474 -18.163  1.00  0.00     0.131 A 
ATOM     92  C   UNL     1     -12.523   6.871 -17.829  1.00  0.00     0.055 A 
ATOM     93  C   UNL     1     -10.748   7.791 -19.174  1.00  0.00     0.041 A 
ATOM     94  F   UNL     1      -8.543   7.748 -18.378  1.00  0.00    -0.206 F 
ATOM     95  C   UNL     1     -12.094   7.474 -19.016  1.00  0.00     0.022 A 
BRANCH  92  96
ATOM     96  S   UNL     1     -14.261   6.361 -17.720  1.00  0.00     0.124 S 
ATOM     97  O   UNL     1     -14.960   7.638 -17.845  1.00  0.00    -0.237 OA
ATOM     98  O   UNL     1     -14.390   5.465 -18.865  1.00  0.00    -0.237 OA
ATOM     99  O   UNL     1     -14.360   5.725 -16.410  1.00  0.00    -0.744 OA
ENDBRANCH  92  96
ENDBRANCH  66  89
ENDBRANCH  40  41
ENDBRANCH  32  35
ENDBRANCH  30  31
ENDBRANCH  29  30
ENDBRANCH   1  29
TORSDOF 17
