REMARK SMILES O=C(NCCCCCCNC(=O)[C@@H]1[C@@H](C(=O)Nc2nc(-c3ccc(F)cc3)cs2)[C@H]2C=C[C@@H]1O2)c1ccc(-c2c3nc(c(-c4cc(S(=O)(=O)[O-])ccc4F)c4ccc([nH]4)c(-c4cc(S(=O)(=O)[O-])ccc4F)c4nc(c(-c5cc(S(=O)(=O)[O-])ccc5F)c5ccc2[nH]5)C=C4)C=C3)cc1
REMARK SMILES IDX 6 1 5 2 4 3 3 4 1 5 2 6 35 8 36 9 97 10 37 11 96 12 38 13
REMARK SMILES IDX 39 14 40 15 90 16 41 17 95 18 89 19 91 20 42 21 94 22 88 23
REMARK SMILES IDX 87 24 43 26 75 27 55 28 74 29 56 30 59 31 73 32 92 33 57 34
REMARK SMILES IDX 58 35 72 37 93 38 60 39 44 40 45 41 53 42 46 43 52 44 54 45
REMARK SMILES IDX 51 46 47 47 48 48 49 49 50 50 76 51 77 52 85 53 78 54 84 55
REMARK SMILES IDX 86 56 83 57 79 58 80 59 81 60 82 61 61 62 62 63 70 64 63 65
REMARK SMILES IDX 69 66 71 67 68 68 64 69 65 70 66 71 67 72 7 73 8 74 9 75
REMARK SMILES IDX 10 76 11 77 12 79 13 80 14 81 33 82 30 83 32 84 34 85 31 86
REMARK SMILES IDX 15 87 16 88 17 89 18 91 19 92 29 93 20 94 28 95 21 96 22 97
REMARK SMILES IDX 27 98 23 99 26 100 24 101 25 102
REMARK H PARENT 3 7 91 25 59 36 10 78 17 90
REMARK Flexibility Score: inf
ROOT
ATOM      1  C   UNL     1       4.161   3.821   0.579  1.00  0.00     0.002 C 
ENDROOT
BRANCH   1   2
ATOM      2  C   UNL     1       4.604   2.671  -0.328  1.00  0.00     0.021 C 
BRANCH   2   3
ATOM      3  C   UNL     1       4.442   1.291   0.294  1.00  0.00     0.116 C 
BRANCH   3   4
ATOM      4  N   UNL     1       3.042   0.952   0.496  1.00  0.00    -0.352 N 
ATOM      5  O   UNL     1       1.136  -0.194   0.113  1.00  0.00    -0.269 OA
ATOM      6  C   UNL     1       2.361  -0.152   0.048  1.00  0.00     0.251 C 
ATOM      7  H   UNL     1       2.516   1.598   1.020  1.00  0.00     0.163 HD
BRANCH   6   8
ATOM      8  C   UNL     1       3.120  -1.287  -0.516  1.00  0.00     0.039 A 
ATOM      9  C   UNL     1       4.256  -1.767   0.143  1.00  0.00     0.014 A 
ATOM     10  C   UNL     1       2.682  -1.886  -1.700  1.00  0.00     0.014 A 
ATOM     11  C   UNL     1       5.008  -2.783  -0.432  1.00  0.00     0.010 A 
ATOM     12  C   UNL     1       3.396  -2.961  -2.235  1.00  0.00     0.010 A 
ATOM     13  C   UNL     1       4.565  -3.414  -1.605  1.00  0.00    -0.014 A 
BRANCH  13  14
ATOM     14  C   UNL     1       5.271  -4.629  -2.078  1.00  0.00     0.031 A 
ATOM     15  C   UNL     1       6.030  -4.644  -3.370  1.00  0.00     0.074 A 
ATOM     16  C   UNL     1       5.236  -5.722  -1.292  1.00  0.00     0.049 A 
ATOM     17  N   UNL     1       6.702  -5.626  -3.914  1.00  0.00    -0.248 NA
ATOM     18  C   UNL     1       6.034  -3.401  -4.155  1.00  0.00     0.031 C 
ATOM     19  C   UNL     1       4.534  -5.807  -0.007  1.00  0.00     0.029 A 
ATOM     20  N   UNL     1       5.820  -6.952  -1.432  1.00  0.00    -0.354 N 
ATOM     21  C   UNL     1       7.207  -5.127  -5.109  1.00  0.00     0.074 A 
ATOM     22  C   UNL     1       6.735  -3.761  -5.222  1.00  0.00     0.031 C 
ATOM     23  C   UNL     1       4.785  -6.997   0.552  1.00  0.00     0.029 A 
ATOM     24  C   UNL     1       5.598  -7.787  -0.364  1.00  0.00     0.049 A 
ATOM     25  H   UNL     1       6.348  -7.213  -2.221  1.00  0.00     0.167 HD
ATOM     26  C   UNL     1       7.995  -5.754  -6.018  1.00  0.00     0.034 A 
ATOM     27  C   UNL     1       5.988  -9.056  -0.147  1.00  0.00     0.034 A 
ATOM     28  C   UNL     1       8.440  -7.122  -5.888  1.00  0.00     0.049 A 
ATOM     29  C   UNL     1       6.800  -9.752  -1.198  1.00  0.00     0.074 A 
ATOM     30  C   UNL     1       9.236  -7.855  -6.752  1.00  0.00     0.029 A 
ATOM     31  N   UNL     1       8.123  -7.968  -4.832  1.00  0.00    -0.354 N 
ATOM     32  N   UNL     1       7.235  -9.281  -2.343  1.00  0.00    -0.248 NA
ATOM     33  C   UNL     1       7.165 -11.148  -0.935  1.00  0.00     0.031 C 
ATOM     34  C   UNL     1       9.348  -9.157  -6.251  1.00  0.00     0.029 A 
ATOM     35  C   UNL     1       8.685  -9.220  -5.035  1.00  0.00     0.049 A 
ATOM     36  H   UNL     1       7.577  -7.715  -4.052  1.00  0.00     0.167 HD
ATOM     37  C   UNL     1       7.938 -10.322  -2.936  1.00  0.00     0.074 A 
ATOM     38  C   UNL     1       7.872 -11.444  -2.018  1.00  0.00     0.031 C 
ATOM     39  C   UNL     1       8.588 -10.339  -4.127  1.00  0.00     0.034 A 
BRANCH  26  40
ATOM     40  C   UNL     1       8.386  -4.977  -7.250  1.00  0.00     0.023 A 
ATOM     41  C   UNL     1       9.223  -3.849  -7.178  1.00  0.00     0.031 A 
ATOM     42  C   UNL     1       7.912  -5.365  -8.516  1.00  0.00     0.131 A 
ATOM     43  C   UNL     1       9.513  -3.117  -8.339  1.00  0.00     0.055 A 
ATOM     44  C   UNL     1       8.260  -4.672  -9.678  1.00  0.00     0.041 A 
ATOM     45  F   UNL     1       7.094  -6.422  -8.645  1.00  0.00    -0.206 F 
ATOM     46  C   UNL     1       9.056  -3.534  -9.592  1.00  0.00     0.022 A 
BRANCH  43  47
ATOM     47  S   UNL     1      10.406  -1.546  -8.175  1.00  0.00     0.124 S 
ATOM     48  O   UNL     1       9.493  -0.775  -7.334  1.00  0.00    -0.237 OA
ATOM     49  O   UNL     1      11.656  -1.957  -7.547  1.00  0.00    -0.237 OA
ATOM     50  O   UNL     1      10.525  -1.073  -9.552  1.00  0.00    -0.744 OA
ENDBRANCH  43  47
ENDBRANCH  26  40
BRANCH  27  51
ATOM     51  C   UNL     1       5.592  -9.728   1.117  1.00  0.00     0.023 A 
ATOM     52  C   UNL     1       6.531  -9.956   2.133  1.00  0.00     0.031 A 
ATOM     53  C   UNL     1       4.249 -10.070   1.358  1.00  0.00     0.131 A 
ATOM     54  C   UNL     1       6.112 -10.509   3.353  1.00  0.00     0.055 A 
ATOM     55  C   UNL     1       3.833 -10.589   2.583  1.00  0.00     0.041 A 
ATOM     56  F   UNL     1       3.315  -9.847   0.420  1.00  0.00    -0.206 F 
ATOM     57  C   UNL     1       4.768 -10.812   3.590  1.00  0.00     0.022 A 
BRANCH  54  58
ATOM     58  S   UNL     1       7.349 -10.808   4.644  1.00  0.00     0.124 S 
ATOM     59  O   UNL     1       8.149 -11.872   4.048  1.00  0.00    -0.237 OA
ATOM     60  O   UNL     1       7.996  -9.505   4.758  1.00  0.00    -0.237 OA
ATOM     61  O   UNL     1       6.545 -11.202   5.799  1.00  0.00    -0.744 OA
ENDBRANCH  54  58
ENDBRANCH  27  51
BRANCH  39  62
ATOM     62  C   UNL     1       9.309 -11.608  -4.492  1.00  0.00     0.023 A 
ATOM     63  C   UNL     1       8.615 -12.772  -4.862  1.00  0.00     0.031 A 
ATOM     64  C   UNL     1      10.715 -11.643  -4.489  1.00  0.00     0.131 A 
ATOM     65  C   UNL     1       9.330 -13.935  -5.184  1.00  0.00     0.055 A 
ATOM     66  C   UNL     1      11.421 -12.788  -4.856  1.00  0.00     0.041 A 
ATOM     67  F   UNL     1      11.423 -10.556  -4.141  1.00  0.00    -0.206 F 
ATOM     68  C   UNL     1      10.728 -13.945  -5.200  1.00  0.00     0.022 A 
BRANCH  65  69
ATOM     69  S   UNL     1       8.410 -15.457  -5.542  1.00  0.00     0.124 S 
ATOM     70  O   UNL     1       7.769 -15.729  -4.260  1.00  0.00    -0.237 OA
ATOM     71  O   UNL     1       7.523 -15.042  -6.624  1.00  0.00    -0.237 OA
ATOM     72  O   UNL     1       9.453 -16.405  -5.928  1.00  0.00    -0.744 OA
ENDBRANCH  65  69
ENDBRANCH  39  62
ENDBRANCH  13  14
ENDBRANCH   6   8
ENDBRANCH   3   4
ENDBRANCH   2   3
ENDBRANCH   1   2
BRANCH   1  73
ATOM     73  C   UNL     1       4.886   3.892   1.928  1.00  0.00     0.002 C 
BRANCH  73  74
ATOM     74  C   UNL     1       6.419   3.878   1.844  1.00  0.00     0.021 C 
BRANCH  74  75
ATOM     75  C   UNL     1       7.000   5.027   1.020  1.00  0.00     0.116 C 
BRANCH  75  76
ATOM     76  N   UNL     1       6.812   6.282   1.713  1.00  0.00    -0.356 N 
ATOM     77  C   UNL     1       7.695   7.110   2.328  1.00  0.00     0.227 C 
ATOM     78  H   UNL     1       5.878   6.591   1.745  1.00  0.00     0.163 HD
ATOM     79  O   UNL     1       7.208   8.097   2.887  1.00  0.00    -0.275 OA
BRANCH  77  80
ATOM     80  C   UNL     1       9.199   6.919   2.188  1.00  0.00     0.127 C 
ATOM     81  C   UNL     1       9.794   5.539   2.651  1.00  0.00     0.127 C 
ATOM     82  C   UNL     1       9.905   7.892   3.154  1.00  0.00     0.155 C 
ATOM     83  C   UNL     1      10.684   5.987   3.832  1.00  0.00     0.155 C 
ATOM     84  C   UNL     1      11.387   7.926   2.898  1.00  0.00     0.004 C 
ATOM     85  O   UNL     1       9.905   7.088   4.363  1.00  0.00    -0.365 OA
ATOM     86  C   UNL     1      11.872   6.762   3.345  1.00  0.00     0.004 C 
BRANCH  81  87
ATOM     87  C   UNL     1      10.585   4.874   1.512  1.00  0.00     0.233 C 
ATOM     88  O   UNL     1      10.496   5.286   0.350  1.00  0.00    -0.274 OA
ATOM     89  N   UNL     1      11.432   3.832   1.722  1.00  0.00    -0.302 N 
ATOM     90  H   UNL     1      12.012   3.571   0.970  1.00  0.00     0.172 HD
BRANCH  89  91
ATOM     91  C   UNL     1      11.554   3.116   2.869  1.00  0.00     0.189 A 
ATOM     92  N   UNL     1      10.711   3.046   3.862  1.00  0.00    -0.220 NA
ATOM     93  S   UNL     1      13.022   2.268   3.036  1.00  0.00    -0.105 S 
ATOM     94  C   UNL     1      11.282   2.306   4.877  1.00  0.00     0.084 A 
ATOM     95  C   UNL     1      12.567   1.857   4.642  1.00  0.00     0.097 A 
BRANCH  94  96
ATOM     96  C   UNL     1      10.553   2.042   6.095  1.00  0.00     0.001 A 
ATOM     97  C   UNL     1       9.621   0.996   6.123  1.00  0.00     0.013 A 
ATOM     98  C   UNL     1      10.739   2.848   7.225  1.00  0.00     0.013 A 
ATOM     99  C   UNL     1       8.889   0.747   7.283  1.00  0.00     0.040 A 
ATOM    100  C   UNL     1      10.002   2.597   8.383  1.00  0.00     0.040 A 
ATOM    101  C   UNL     1       9.086   1.549   8.402  1.00  0.00     0.123 A 
ATOM    102  F   UNL     1       8.379   1.314   9.515  1.00  0.00    -0.207 F 
ENDBRANCH  94  96
ENDBRANCH  89  91
ENDBRANCH  81  87
ENDBRANCH  77  80
ENDBRANCH  75  76
ENDBRANCH  74  75
ENDBRANCH  73  74
ENDBRANCH   1  73
TORSDOF 19
