REMARK SMILES Cc1c(F)cc(C(=O)NCCCCCCNC(=O)c2ccc(-c3c4nc(c(-c5cc(S(=O)(=O)[O-])ccc5F)c5ccc([nH]5)c(-c5cc(S(=O)(=O)[O-])ccc5F)c5nc(c(-c6cc(S(=O)(=O)[O-])ccc6F)c6ccc3[nH]6)C=C5)C=C4)cc2)cc1S(=O)(=O)Nc1ccc(N2CCCC2)c(F)c1
REMARK SMILES IDX 12 1 11 2 10 3 9 4 7 5 8 6 6 8 1 9 2 10 3 11 83 12 4 13 5 14
REMARK SMILES IDX 82 15 84 16 85 17 86 18 87 19 88 21 89 22 99 23 90 24 97 25
REMARK SMILES IDX 91 26 98 27 92 28 93 29 96 30 94 31 95 32 13 33 14 34 15 35
REMARK SMILES IDX 16 36 17 37 18 39 19 40 20 41 81 42 21 43 80 44 22 45 23 46
REMARK SMILES IDX 24 47 74 48 25 49 79 50 73 51 75 52 26 53 78 54 72 55 71 56
REMARK SMILES IDX 27 58 59 59 39 60 58 61 40 62 43 63 57 64 76 65 41 66 42 67
REMARK SMILES IDX 56 69 77 70 44 71 28 72 29 73 37 74 30 75 36 76 38 77 35 78
REMARK SMILES IDX 31 79 32 80 33 81 34 82 60 83 61 84 69 85 62 86 68 87 70 88
REMARK SMILES IDX 67 89 63 90 64 91 65 92 66 93 45 94 46 95 54 96 47 97 53 98
REMARK SMILES IDX 55 99 52 100 48 101 49 102 50 103 51 104
REMARK H PARENT 9 7 87 20 16 38 75 57 43 68
REMARK Flexibility Score: inf
ROOT
ATOM      1  C   UNL     1      -6.742  -0.492  -0.901  1.00  0.00     0.002 C 
ENDROOT
BRANCH   1   2
ATOM      2  C   UNL     1      -5.423   0.294  -0.905  1.00  0.00     0.021 C 
BRANCH   2   3
ATOM      3  C   UNL     1      -4.570  -0.034   0.319  1.00  0.00     0.116 C 
BRANCH   3   4
ATOM      4  N   UNL     1      -4.057  -1.380   0.160  1.00  0.00    -0.352 N 
ATOM      5  C   UNL     1      -2.869  -1.852  -0.324  1.00  0.00     0.251 C 
ATOM      6  O   UNL     1      -2.783  -3.046  -0.605  1.00  0.00    -0.269 OA
ATOM      7  H   UNL     1      -4.679  -2.084   0.455  1.00  0.00     0.163 HD
BRANCH   5   8
ATOM      8  C   UNL     1      -1.645  -1.015  -0.311  1.00  0.00     0.044 A 
ATOM      9  C   UNL     1       1.548   1.091   1.534  1.00  0.00     0.049 C 
ATOM     10  C   UNL     1       0.517   0.485   0.645  1.00  0.00     0.005 A 
ATOM     11  C   UNL     1       0.575  -0.916   0.555  1.00  0.00     0.128 A 
ATOM     12  C   UNL     1      -0.532   1.140  -0.010  1.00  0.00     0.094 A 
ATOM     13  F   UNL     1       1.645  -1.568   1.034  1.00  0.00    -0.207 F 
ATOM     14  C   UNL     1      -0.492  -1.667   0.103  1.00  0.00     0.053 A 
ATOM     15  C   UNL     1      -1.600   0.364  -0.515  1.00  0.00     0.036 A 
BRANCH  12  16
ATOM     16  S   UNL     1      -0.783   2.902  -0.225  1.00  0.00     0.262 S 
ATOM     17  O   UNL     1      -1.220   3.072  -1.595  1.00  0.00    -0.201 OA
ATOM     18  O   UNL     1      -1.635   3.291   0.881  1.00  0.00    -0.201 OA
BRANCH  16  19
ATOM     19  N   UNL     1       0.603   3.808  -0.036  1.00  0.00    -0.280 N 
ATOM     20  H   UNL     1       0.507   4.681   0.408  1.00  0.00     0.180 HD
BRANCH  19  21
ATOM     21  C   UNL     1       1.902   3.441  -0.455  1.00  0.00     0.052 A 
ATOM     22  C   UNL     1       2.938   3.806   0.407  1.00  0.00     0.029 A 
ATOM     23  C   UNL     1       2.167   2.634  -1.549  1.00  0.00     0.068 A 
ATOM     24  C   UNL     1       4.172   3.164   0.319  1.00  0.00     0.031 A 
ATOM     25  C   UNL     1       3.416   2.010  -1.637  1.00  0.00     0.148 A 
ATOM     26  C   UNL     1       4.416   2.187  -0.657  1.00  0.00     0.073 A 
ATOM     27  F   UNL     1       3.569   1.105  -2.616  1.00  0.00    -0.205 F 
BRANCH  26  28
ATOM     28  N   UNL     1       5.545   1.397  -0.531  1.00  0.00    -0.369 N 
ATOM     29  C   UNL     1       6.237   0.749  -1.638  1.00  0.00     0.116 C 
ATOM     30  C   UNL     1       5.736   0.655   0.723  1.00  0.00     0.116 C 
ATOM     31  C   UNL     1       6.575  -0.638  -1.096  1.00  0.00     0.023 C 
ATOM     32  C   UNL     1       6.798  -0.386   0.386  1.00  0.00     0.023 C 
ENDBRANCH  26  28
ENDBRANCH  19  21
ENDBRANCH  16  19
ENDBRANCH  12  16
ENDBRANCH   5   8
ENDBRANCH   3   4
ENDBRANCH   2   3
ENDBRANCH   1   2
BRANCH   1  33
ATOM     33  C   UNL     1      -7.549  -0.340   0.397  1.00  0.00     0.002 C 
BRANCH  33  34
ATOM     34  C   UNL     1      -7.736   1.113   0.861  1.00  0.00     0.021 C 
BRANCH  34  35
ATOM     35  C   UNL     1      -8.550   1.903  -0.135  1.00  0.00     0.116 C 
BRANCH  35  36
ATOM     36  N   UNL     1      -9.913   1.395  -0.147  1.00  0.00    -0.352 N 
ATOM     37  C   UNL     1     -11.044   2.057  -0.556  1.00  0.00     0.251 C 
ATOM     38  H   UNL     1     -10.038   0.473   0.173  1.00  0.00     0.163 HD
ATOM     39  O   UNL     1     -12.139   1.661  -0.208  1.00  0.00    -0.269 OA
BRANCH  37  40
ATOM     40  C   UNL     1     -10.842   3.175  -1.486  1.00  0.00     0.039 A 
ATOM     41  C   UNL     1     -11.563   4.364  -1.401  1.00  0.00     0.014 A 
ATOM     42  C   UNL     1      -9.899   2.962  -2.491  1.00  0.00     0.014 A 
ATOM     43  C   UNL     1     -11.366   5.333  -2.380  1.00  0.00     0.010 A 
ATOM     44  C   UNL     1      -9.571   3.978  -3.329  1.00  0.00     0.010 A 
ATOM     45  C   UNL     1     -10.387   5.106  -3.349  1.00  0.00    -0.014 A 
BRANCH  45  46
ATOM     46  C   UNL     1     -10.165   5.930  -4.517  1.00  0.00     0.031 A 
ATOM     47  C   UNL     1      -9.759   7.325  -4.344  1.00  0.00     0.074 A 
ATOM     48  C   UNL     1     -10.220   5.280  -5.705  1.00  0.00     0.049 A 
ATOM     49  N   UNL     1     -10.052   8.258  -5.174  1.00  0.00    -0.248 NA
ATOM     50  C   UNL     1      -9.008   7.800  -3.181  1.00  0.00     0.031 C 
ATOM     51  C   UNL     1      -9.737   5.684  -7.011  1.00  0.00     0.029 A 
ATOM     52  N   UNL     1     -10.851   4.052  -5.967  1.00  0.00    -0.354 N 
ATOM     53  C   UNL     1      -9.225   9.318  -4.870  1.00  0.00     0.074 A 
ATOM     54  C   UNL     1      -8.746   9.066  -3.531  1.00  0.00     0.031 C 
ATOM     55  C   UNL     1     -10.341   4.925  -7.947  1.00  0.00     0.029 A 
ATOM     56  C   UNL     1     -11.355   4.131  -7.264  1.00  0.00     0.049 A 
ATOM     57  H   UNL     1     -10.923   3.285  -5.354  1.00  0.00     0.167 HD
ATOM     58  C   UNL     1      -8.834  10.147  -5.878  1.00  0.00     0.034 A 
ATOM     59  C   UNL     1     -12.699   4.143  -7.522  1.00  0.00     0.034 A 
ATOM     60  C   UNL     1      -9.397   9.673  -7.146  1.00  0.00     0.049 A 
ATOM     61  C   UNL     1     -13.105   5.436  -8.195  1.00  0.00     0.074 A 
ATOM     62  C   UNL     1      -8.860   8.875  -8.144  1.00  0.00     0.029 A 
ATOM     63  N   UNL     1     -10.772   9.667  -7.339  1.00  0.00    -0.354 N 
ATOM     64  N   UNL     1     -12.432   6.548  -8.091  1.00  0.00    -0.248 NA
ATOM     65  C   UNL     1     -14.274   5.573  -9.052  1.00  0.00     0.031 C 
ATOM     66  C   UNL     1      -9.924   8.394  -8.947  1.00  0.00     0.029 A 
ATOM     67  C   UNL     1     -11.110   8.895  -8.439  1.00  0.00     0.049 A 
ATOM     68  H   UNL     1     -11.418  10.146  -6.771  1.00  0.00     0.167 HD
ATOM     69  C   UNL     1     -13.024   7.532  -8.842  1.00  0.00     0.074 A 
ATOM     70  C   UNL     1     -14.167   6.859  -9.434  1.00  0.00     0.031 C 
ATOM     71  C   UNL     1     -12.500   8.798  -8.891  1.00  0.00     0.034 A 
BRANCH  58  72
ATOM     72  C   UNL     1      -7.693  11.145  -5.796  1.00  0.00     0.023 A 
ATOM     73  C   UNL     1      -7.230  11.741  -4.601  1.00  0.00     0.031 A 
ATOM     74  C   UNL     1      -7.006  11.532  -6.971  1.00  0.00     0.131 A 
ATOM     75  C   UNL     1      -6.108  12.601  -4.599  1.00  0.00     0.055 A 
ATOM     76  C   UNL     1      -5.918  12.410  -6.971  1.00  0.00     0.041 A 
ATOM     77  F   UNL     1      -7.333  11.050  -8.177  1.00  0.00    -0.206 F 
ATOM     78  C   UNL     1      -5.454  12.940  -5.781  1.00  0.00     0.022 A 
BRANCH  75  79
ATOM     79  S   UNL     1      -5.411  13.266  -3.058  1.00  0.00     0.124 S 
ATOM     80  O   UNL     1      -4.010  12.856  -3.146  1.00  0.00    -0.237 OA
ATOM     81  O   UNL     1      -5.644  14.701  -3.197  1.00  0.00    -0.237 OA
ATOM     82  O   UNL     1      -6.177  12.600  -2.009  1.00  0.00    -0.744 OA
ENDBRANCH  75  79
ENDBRANCH  58  72
BRANCH  59  83
ATOM     83  C   UNL     1     -13.512   3.423  -6.489  1.00  0.00     0.023 A 
ATOM     84  C   UNL     1     -14.154   4.122  -5.455  1.00  0.00     0.031 A 
ATOM     85  C   UNL     1     -13.246   2.048  -6.291  1.00  0.00     0.131 A 
ATOM     86  C   UNL     1     -14.362   3.488  -4.215  1.00  0.00     0.055 A 
ATOM     87  C   UNL     1     -13.400   1.444  -5.041  1.00  0.00     0.041 A 
ATOM     88  F   UNL     1     -12.686   1.321  -7.272  1.00  0.00    -0.206 F 
ATOM     89  C   UNL     1     -13.917   2.181  -3.981  1.00  0.00     0.022 A 
BRANCH  86  90
ATOM     90  S   UNL     1     -15.129   4.413  -2.850  1.00  0.00     0.124 S 
ATOM     91  O   UNL     1     -16.547   4.188  -3.114  1.00  0.00    -0.237 OA
ATOM     92  O   UNL     1     -14.611   3.755  -1.656  1.00  0.00    -0.237 OA
ATOM     93  O   UNL     1     -14.644   5.771  -3.062  1.00  0.00    -0.744 OA
ENDBRANCH  86  90
ENDBRANCH  59  83
BRANCH  71  94
ATOM     94  C   UNL     1     -13.143  10.077  -9.413  1.00  0.00     0.023 A 
ATOM     95  C   UNL     1     -12.397  11.286  -9.322  1.00  0.00     0.031 A 
ATOM     96  C   UNL     1     -14.453  10.230  -9.885  1.00  0.00     0.131 A 
ATOM     97  C   UNL     1     -12.950  12.537  -9.615  1.00  0.00     0.055 A 
ATOM     98  C   UNL     1     -14.982  11.475 -10.261  1.00  0.00     0.041 A 
ATOM     99  F   UNL     1     -15.309   9.209  -9.976  1.00  0.00    -0.206 F 
ATOM    100  C   UNL     1     -14.241  12.637 -10.106  1.00  0.00     0.022 A 
BRANCH  97 101
ATOM    101  S   UNL     1     -12.046  14.066  -9.243  1.00  0.00     0.124 S 
ATOM    102  O   UNL     1     -11.748  14.566 -10.582  1.00  0.00    -0.237 OA
ATOM    103  O   UNL     1     -13.043  14.833  -8.497  1.00  0.00    -0.237 OA
ATOM    104  O   UNL     1     -10.899  13.616  -8.464  1.00  0.00    -0.744 OA
ENDBRANCH  97 101
ENDBRANCH  71  94
ENDBRANCH  45  46
ENDBRANCH  37  40
ENDBRANCH  35  36
ENDBRANCH  34  35
ENDBRANCH  33  34
ENDBRANCH   1  33
TORSDOF 20
