REMARK SMILES Cn1cc(/C=C/C(=O)N(CC(=O)NCCCCCCNC(=O)c2ccc(-c3c4nc(c(-c5cc(S(=O)(=O)[O-])ccc5F)c5ccc([nH]5)c(-c5cc(S(=O)(=O)[O-])ccc5F)c5nc(c(-c6cc(S(=O)(=O)[O-])ccc6F)c6ccc3[nH]6)C=C5)C=C4)cc2)C(C)(C)C)cn1
REMARK SMILES IDX 16 1 15 2 14 3 13 4 11 5 12 6 10 8 9 9 7 10 8 11 6 12 5 13
REMARK SMILES IDX 4 14 1 15 2 16 3 17 91 18 90 19 86 20 87 21 88 22 89 23
REMARK SMILES IDX 17 24 18 25 19 26 20 27 21 28 22 30 23 31 24 32 85 33 25 34
REMARK SMILES IDX 84 35 26 36 27 37 28 38 78 39 29 40 83 41 77 42 79 43 30 44
REMARK SMILES IDX 82 45 76 46 75 47 31 49 63 50 43 51 62 52 44 53 47 54 61 55
REMARK SMILES IDX 80 56 45 57 46 58 60 60 81 61 48 62 32 63 33 64 41 65 34 66
REMARK SMILES IDX 40 67 42 68 39 69 35 70 36 71 37 72 38 73 64 74 65 75 73 76
REMARK SMILES IDX 66 77 72 78 74 79 71 80 67 81 68 82 69 83 70 84 49 85 50 86
REMARK SMILES IDX 58 87 51 88 57 89 59 90 56 91 52 92 53 93 54 94 55 95
REMARK H PARENT 13 7 20 29 79 48 47 59
REMARK Flexibility Score: inf
ROOT
ATOM      1  C   UNL     1       4.718  -3.222  -5.274  1.00  0.00     0.002 C 
ENDROOT
BRANCH   1   2
ATOM      2  C   UNL     1       4.915  -2.613  -3.889  1.00  0.00     0.021 C 
BRANCH   2   3
ATOM      3  C   UNL     1       3.747  -2.815  -2.937  1.00  0.00     0.116 C 
BRANCH   3   4
ATOM      4  N   UNL     1       3.513  -4.199  -2.576  1.00  0.00    -0.355 N 
ATOM      5  C   UNL     1       3.529  -4.852  -1.383  1.00  0.00     0.239 C 
ATOM      6  O   UNL     1       3.049  -5.994  -1.382  1.00  0.00    -0.273 OA
ATOM      7  H   UNL     1       3.303  -4.779  -3.343  1.00  0.00     0.163 HD
BRANCH   5   8
ATOM      8  C   UNL     1       3.946  -4.215  -0.040  1.00  0.00     0.220 C 
BRANCH   8   9
ATOM      9  N   UNL     1       5.123  -3.339  -0.010  1.00  0.00    -0.325 N 
BRANCH   9  10
ATOM     10  C   UNL     1       5.059  -1.945   0.099  1.00  0.00     0.247 C 
ATOM     11  O   UNL     1       6.078  -1.247   0.082  1.00  0.00    -0.270 OA
BRANCH  10  12
ATOM     12  C   UNL     1       3.785  -1.150   0.275  1.00  0.00     0.072 C 
ATOM     13  C   UNL     1       2.515  -1.396  -0.084  1.00  0.00     0.017 C 
BRANCH  13  14
ATOM     14  C   UNL     1       1.395  -0.526   0.030  1.00  0.00     0.013 A 
ATOM     15  C   UNL     1      -2.128   0.197  -0.028  1.00  0.00     0.173 C 
ATOM     16  N   UNL     1      -0.688   0.149   0.046  1.00  0.00    -0.275 N 
ATOM     17  C   UNL     1       0.091  -0.969   0.010  1.00  0.00     0.116 A 
ATOM     18  N   UNL     1       0.020   1.289   0.124  1.00  0.00    -0.181 NA
ATOM     19  C   UNL     1       1.294   0.878   0.100  1.00  0.00     0.143 A 
ENDBRANCH  13  14
ENDBRANCH  10  12
ENDBRANCH   9  10
BRANCH   9  20
ATOM     20  C   UNL     1       6.492  -4.017  -0.028  1.00  0.00     0.035 C 
ATOM     21  C   UNL     1       7.298  -3.663  -1.293  1.00  0.00     0.034 C 
ATOM     22  C   UNL     1       7.308  -3.627   1.226  1.00  0.00     0.034 C 
ATOM     23  C   UNL     1       6.434  -5.574  -0.011  1.00  0.00     0.034 C 
ENDBRANCH   9  20
ENDBRANCH   8   9
ENDBRANCH   5   8
ENDBRANCH   3   4
ENDBRANCH   2   3
ENDBRANCH   1   2
BRANCH   1  24
ATOM     24  C   UNL     1       3.556  -2.621  -6.067  1.00  0.00     0.002 C 
BRANCH  24  25
ATOM     25  C   UNL     1       3.607  -1.100  -6.229  1.00  0.00     0.021 C 
BRANCH  25  26
ATOM     26  C   UNL     1       4.900  -0.570  -6.843  1.00  0.00     0.116 C 
BRANCH  26  27
ATOM     27  N   UNL     1       5.105  -1.083  -8.187  1.00  0.00    -0.352 N 
ATOM     28  C   UNL     1       5.267  -0.388  -9.361  1.00  0.00     0.251 C 
ATOM     29  H   UNL     1       5.132  -2.064  -8.268  1.00  0.00     0.163 HD
ATOM     30  O   UNL     1       5.184  -0.973 -10.434  1.00  0.00    -0.269 OA
BRANCH  28  31
ATOM     31  C   UNL     1       5.522   1.068  -9.312  1.00  0.00     0.039 A 
ATOM     32  C   UNL     1       4.820   1.909 -10.178  1.00  0.00     0.014 A 
ATOM     33  C   UNL     1       6.448   1.599  -8.409  1.00  0.00     0.014 A 
ATOM     34  C   UNL     1       5.011   3.290 -10.100  1.00  0.00     0.010 A 
ATOM     35  C   UNL     1       6.577   2.978  -8.280  1.00  0.00     0.010 A 
ATOM     36  C   UNL     1       5.866   3.839  -9.130  1.00  0.00    -0.014 A 
BRANCH  36  37
ATOM     37  C   UNL     1       6.042   5.310  -9.005  1.00  0.00     0.031 A 
ATOM     38  C   UNL     1       7.390   5.931  -9.255  1.00  0.00     0.074 A 
ATOM     39  C   UNL     1       5.002   6.078  -8.623  1.00  0.00     0.049 A 
ATOM     40  N   UNL     1       7.759   7.181  -9.143  1.00  0.00    -0.248 NA
ATOM     41  C   UNL     1       8.472   5.019  -9.656  1.00  0.00     0.031 C 
ATOM     42  C   UNL     1       3.656   5.585  -8.319  1.00  0.00     0.029 A 
ATOM     43  N   UNL     1       4.911   7.432  -8.421  1.00  0.00    -0.354 N 
ATOM     44  C   UNL     1       9.116   7.205  -9.450  1.00  0.00     0.074 A 
ATOM     45  C   UNL     1       9.516   5.834  -9.685  1.00  0.00     0.031 C 
ATOM     46  C   UNL     1       2.869   6.625  -8.000  1.00  0.00     0.029 A 
ATOM     47  C   UNL     1       3.661   7.850  -8.023  1.00  0.00     0.049 A 
ATOM     48  H   UNL     1       5.669   8.047  -8.548  1.00  0.00     0.167 HD
ATOM     49  C   UNL     1       9.944   8.273  -9.552  1.00  0.00     0.034 A 
ATOM     50  C   UNL     1       3.209   9.079  -7.700  1.00  0.00     0.034 A 
ATOM     51  C   UNL     1       9.526   9.634  -9.320  1.00  0.00     0.049 A 
ATOM     52  C   UNL     1       4.161  10.247  -7.778  1.00  0.00     0.074 A 
ATOM     53  C   UNL     1      10.267  10.796  -9.445  1.00  0.00     0.029 A 
ATOM     54  N   UNL     1       8.257  10.018  -8.903  1.00  0.00    -0.354 N 
ATOM     55  N   UNL     1       5.428  10.259  -8.124  1.00  0.00    -0.248 NA
ATOM     56  C   UNL     1       3.620  11.567  -7.431  1.00  0.00     0.031 C 
ATOM     57  C   UNL     1       9.475  11.870  -9.028  1.00  0.00     0.029 A 
ATOM     58  C   UNL     1       8.208  11.393  -8.729  1.00  0.00     0.049 A 
ATOM     59  H   UNL     1       7.503   9.403  -8.753  1.00  0.00     0.167 HD
ATOM     60  C   UNL     1       5.824  11.593  -8.067  1.00  0.00     0.074 A 
ATOM     61  C   UNL     1       4.657  12.355  -7.671  1.00  0.00     0.031 C 
ATOM     62  C   UNL     1       7.040  12.140  -8.323  1.00  0.00     0.034 A 
BRANCH  49  63
ATOM     63  C   UNL     1      11.389   8.004  -9.904  1.00  0.00     0.023 A 
ATOM     64  C   UNL     1      11.755   7.405 -11.123  1.00  0.00     0.031 A 
ATOM     65  C   UNL     1      12.416   8.329  -8.999  1.00  0.00     0.131 A 
ATOM     66  C   UNL     1      13.097   7.079 -11.369  1.00  0.00     0.055 A 
ATOM     67  C   UNL     1      13.759   8.082  -9.289  1.00  0.00     0.041 A 
ATOM     68  F   UNL     1      12.130   8.882  -7.809  1.00  0.00    -0.206 F 
ATOM     69  C   UNL     1      14.105   7.439 -10.473  1.00  0.00     0.022 A 
BRANCH  66  70
ATOM     70  S   UNL     1      13.486   6.042 -12.806  1.00  0.00     0.124 S 
ATOM     71  O   UNL     1      12.684   4.851 -12.535  1.00  0.00    -0.237 OA
ATOM     72  O   UNL     1      13.043   6.870 -13.922  1.00  0.00    -0.237 OA
ATOM     73  O   UNL     1      14.931   5.847 -12.707  1.00  0.00    -0.744 OA
ENDBRANCH  66  70
ENDBRANCH  49  63
BRANCH  50  74
ATOM     74  C   UNL     1       1.797   9.275  -7.259  1.00  0.00     0.023 A 
ATOM     75  C   UNL     1       0.911  10.076  -7.998  1.00  0.00     0.031 A 
ATOM     76  C   UNL     1       1.325   8.706  -6.062  1.00  0.00     0.131 A 
ATOM     77  C   UNL     1      -0.380  10.328  -7.508  1.00  0.00     0.055 A 
ATOM     78  C   UNL     1       0.020   8.910  -5.611  1.00  0.00     0.041 A 
ATOM     79  F   UNL     1       2.129   7.931  -5.316  1.00  0.00    -0.206 F 
ATOM     80  C   UNL     1      -0.837   9.738  -6.328  1.00  0.00     0.022 A 
BRANCH  77  81
ATOM     81  S   UNL     1      -1.424  11.524  -8.387  1.00  0.00     0.124 S 
ATOM     82  O   UNL     1      -0.593  12.722  -8.356  1.00  0.00    -0.237 OA
ATOM     83  O   UNL     1      -1.585  10.886  -9.689  1.00  0.00    -0.237 OA
ATOM     84  O   UNL     1      -2.635  11.583  -7.570  1.00  0.00    -0.744 OA
ENDBRANCH  77  81
ENDBRANCH  50  74
BRANCH  62  85
ATOM     85  C   UNL     1       7.154  13.643  -8.229  1.00  0.00     0.023 A 
ATOM     86  C   UNL     1       7.002  14.325  -7.009  1.00  0.00     0.031 A 
ATOM     87  C   UNL     1       7.417  14.405  -9.382  1.00  0.00     0.131 A 
ATOM     88  C   UNL     1       7.059  15.727  -6.980  1.00  0.00     0.055 A 
ATOM     89  C   UNL     1       7.540  15.794  -9.335  1.00  0.00     0.041 A 
ATOM     90  F   UNL     1       7.566  13.808 -10.576  1.00  0.00    -0.206 F 
ATOM     91  C   UNL     1       7.347  16.464  -8.132  1.00  0.00     0.022 A 
BRANCH  88  92
ATOM     92  S   UNL     1       6.653  16.584  -5.434  1.00  0.00     0.124 S 
ATOM     93  O   UNL     1       5.297  16.112  -5.173  1.00  0.00    -0.237 OA
ATOM     94  O   UNL     1       7.684  16.094  -4.525  1.00  0.00    -0.237 OA
ATOM     95  O   UNL     1       6.760  17.998  -5.787  1.00  0.00    -0.744 OA
ENDBRANCH  88  92
ENDBRANCH  62  85
ENDBRANCH  36  37
ENDBRANCH  28  31
ENDBRANCH  26  27
ENDBRANCH  25  26
ENDBRANCH  24  25
ENDBRANCH   1  24
TORSDOF 21
