REMARK SMILES Cc1cc([N+](=O)[O-])ccc1NC(=O)[C@@H]1[C@@H](C(=O)NCCCCCCNC(=O)c2ccc(-c3c4nc(c(-c5cc(S(=O)(=O)[O-])ccc5F)c5ccc([nH]5)c(-c5cc(S(=O)(=O)[O-])ccc5F)c5nc(c(-c6cc(S(=O)(=O)[O-])ccc6F)c6ccc3[nH]6)C=C5)C=C4)cc2)[C@H]2C=C[C@@H]1C2
REMARK SMILES IDX 21 1 20 2 19 3 18 4 16 5 17 6 15 8 14 9 94 10 91 11 93 12
REMARK SMILES IDX 95 13 92 14 12 15 11 16 13 18 10 19 1 20 2 21 3 22 4 23 9 24
REMARK SMILES IDX 8 25 5 26 6 27 7 28 22 29 23 30 24 31 25 32 26 33 27 35
REMARK SMILES IDX 28 36 29 37 90 38 30 39 89 40 31 41 32 42 33 43 83 44 34 45
REMARK SMILES IDX 88 46 82 47 84 48 35 49 87 50 81 51 80 52 36 54 68 55 48 56
REMARK SMILES IDX 67 57 49 58 52 59 66 60 85 61 50 62 51 63 65 65 86 66 53 67
REMARK SMILES IDX 37 68 38 69 46 70 39 71 45 72 47 73 44 74 40 75 41 76 42 77
REMARK SMILES IDX 43 78 69 79 70 80 78 81 71 82 77 83 79 84 76 85 72 86 73 87
REMARK SMILES IDX 74 88 75 89 54 90 55 91 63 92 56 93 62 94 64 95 61 96 57 97
REMARK SMILES IDX 58 98 59 99 60 100
REMARK H PARENT 18 7 11 17 25 34 84 53 52 64
REMARK Flexibility Score: inf
ROOT
ATOM      1  C   UNL     1      -4.992   9.320  -1.035  1.00  0.00     0.002 C 
ENDROOT
BRANCH   1   2
ATOM      2  C   UNL     1      -3.820   9.130  -0.064  1.00  0.00     0.021 C 
BRANCH   2   3
ATOM      3  C   UNL     1      -3.505   7.698   0.359  1.00  0.00     0.116 C 
BRANCH   3   4
ATOM      4  N   UNL     1      -3.286   6.797  -0.750  1.00  0.00    -0.356 N 
ATOM      5  C   UNL     1      -2.628   5.608  -0.785  1.00  0.00     0.224 C 
ATOM      6  O   UNL     1      -2.642   4.980  -1.847  1.00  0.00    -0.275 OA
ATOM      7  H   UNL     1      -3.671   7.088  -1.608  1.00  0.00     0.163 HD
BRANCH   5   8
ATOM      8  C   UNL     1      -1.827   5.122   0.422  1.00  0.00     0.098 C 
ATOM      9  C   UNL     1      -1.347   3.630   0.212  1.00  0.00     0.099 C 
ATOM     10  C   UNL     1      -1.787   2.944   1.531  1.00  0.00     0.025 C 
ATOM     11  C   UNL     1      -2.601   5.011   1.762  1.00  0.00     0.025 C 
ATOM     12  C   UNL     1      -3.294   2.832   1.485  1.00  0.00    -0.027 C 
ATOM     13  C   UNL     1      -1.668   4.082   2.545  1.00  0.00     0.017 C 
ATOM     14  C   UNL     1      -3.782   4.075   1.611  1.00  0.00    -0.027 C 
BRANCH   9  15
ATOM     15  C   UNL     1       0.136   3.455  -0.050  1.00  0.00     0.228 C 
ATOM     16  N   UNL     1       0.691   2.222  -0.288  1.00  0.00    -0.326 N 
ATOM     17  H   UNL     1       1.663   2.259  -0.441  1.00  0.00     0.169 HD
ATOM     18  O   UNL     1       0.917   4.410   0.002  1.00  0.00    -0.274 OA
BRANCH  16  19
ATOM     19  C   UNL     1       0.167   0.913  -0.362  1.00  0.00     0.044 A 
ATOM     20  C   UNL     1       2.499  -0.080   0.151  1.00  0.00     0.047 C 
ATOM     21  C   UNL     1       1.011  -0.185  -0.071  1.00  0.00    -0.021 A 
ATOM     22  C   UNL     1       0.460  -1.484   0.007  1.00  0.00     0.091 A 
ATOM     23  C   UNL     1      -0.904  -1.694  -0.215  1.00  0.00     0.269 A 
ATOM     24  C   UNL     1      -1.169   0.647  -0.694  1.00  0.00     0.033 A 
ATOM     25  C   UNL     1      -1.717  -0.634  -0.599  1.00  0.00     0.088 A 
BRANCH  23  26
ATOM     26  N   UNL     1      -1.483  -3.030  -0.047  1.00  0.00     0.062 N 
ATOM     27  O   UNL     1      -0.703  -3.981   0.105  1.00  0.00    -0.258 OA
ATOM     28  O   UNL     1      -2.718  -3.129  -0.051  1.00  0.00    -0.258 OA
ENDBRANCH  23  26
ENDBRANCH  16  19
ENDBRANCH   9  15
ENDBRANCH   5   8
ENDBRANCH   3   4
ENDBRANCH   2   3
ENDBRANCH   1   2
BRANCH   1  29
ATOM     29  C   UNL     1      -6.340   8.692  -0.660  1.00  0.00     0.002 C 
BRANCH  29  30
ATOM     30  C   UNL     1      -6.886   9.010   0.729  1.00  0.00     0.021 C 
BRANCH  30  31
ATOM     31  C   UNL     1      -6.983  10.490   1.073  1.00  0.00     0.116 C 
BRANCH  31  32
ATOM     32  N   UNL     1      -8.248  11.137   0.759  1.00  0.00    -0.352 N 
ATOM     33  C   UNL     1      -8.597  12.470   0.938  1.00  0.00     0.251 C 
ATOM     34  H   UNL     1      -8.943  10.559   0.370  1.00  0.00     0.163 HD
ATOM     35  O   UNL     1      -9.724  12.868   0.699  1.00  0.00    -0.269 OA
BRANCH  33  36
ATOM     36  C   UNL     1      -7.533  13.443   1.310  1.00  0.00     0.039 A 
ATOM     37  C   UNL     1      -7.387  14.580   0.508  1.00  0.00     0.014 A 
ATOM     38  C   UNL     1      -6.566  13.135   2.264  1.00  0.00     0.014 A 
ATOM     39  C   UNL     1      -6.166  15.253   0.490  1.00  0.00     0.010 A 
ATOM     40  C   UNL     1      -5.322  13.734   2.176  1.00  0.00     0.010 A 
ATOM     41  C   UNL     1      -5.102  14.748   1.242  1.00  0.00    -0.014 A 
BRANCH  41  42
ATOM     42  C   UNL     1      -3.718  15.151   1.018  1.00  0.00     0.031 A 
ATOM     43  C   UNL     1      -3.058  16.112   1.927  1.00  0.00     0.074 A 
ATOM     44  C   UNL     1      -3.021  14.690  -0.046  1.00  0.00     0.049 A 
ATOM     45  N   UNL     1      -2.248  17.036   1.529  1.00  0.00    -0.248 NA
ATOM     46  C   UNL     1      -3.277  16.114   3.369  1.00  0.00     0.031 C 
ATOM     47  C   UNL     1      -1.602  14.919  -0.320  1.00  0.00     0.029 A 
ATOM     48  N   UNL     1      -3.488  14.102  -1.220  1.00  0.00    -0.354 N 
ATOM     49  C   UNL     1      -1.622  17.539   2.646  1.00  0.00     0.074 A 
ATOM     50  C   UNL     1      -2.361  17.003   3.768  1.00  0.00     0.031 C 
ATOM     51  C   UNL     1      -1.399  14.804  -1.642  1.00  0.00     0.029 A 
ATOM     52  C   UNL     1      -2.701  14.617  -2.259  1.00  0.00     0.049 A 
ATOM     53  H   UNL     1      -4.225  13.454  -1.303  1.00  0.00     0.167 HD
ATOM     54  C   UNL     1      -0.446  18.217   2.530  1.00  0.00     0.034 A 
ATOM     55  C   UNL     1      -3.178  15.316  -3.329  1.00  0.00     0.034 A 
ATOM     56  C   UNL     1       0.045  18.233   1.156  1.00  0.00     0.049 A 
ATOM     57  C   UNL     1      -2.495  16.653  -3.526  1.00  0.00     0.074 A 
ATOM     58  C   UNL     1       1.013  17.482   0.510  1.00  0.00     0.029 A 
ATOM     59  N   UNL     1      -0.636  18.932   0.170  1.00  0.00    -0.354 N 
ATOM     60  N   UNL     1      -1.795  17.254  -2.606  1.00  0.00    -0.248 NA
ATOM     61  C   UNL     1      -2.588  17.440  -4.751  1.00  0.00     0.031 C 
ATOM     62  C   UNL     1       0.918  17.739  -0.878  1.00  0.00     0.029 A 
ATOM     63  C   UNL     1      -0.102  18.654  -1.074  1.00  0.00     0.049 A 
ATOM     64  H   UNL     1      -1.393  19.540   0.333  1.00  0.00     0.167 HD
ATOM     65  C   UNL     1      -1.355  18.472  -3.071  1.00  0.00     0.074 A 
ATOM     66  C   UNL     1      -1.875  18.534  -4.425  1.00  0.00     0.031 C 
ATOM     67  C   UNL     1      -0.612  19.304  -2.275  1.00  0.00     0.034 A 
BRANCH  54  68
ATOM     68  C   UNL     1       0.431  18.582   3.706  1.00  0.00     0.023 A 
ATOM     69  C   UNL     1       1.833  18.596   3.550  1.00  0.00     0.031 A 
ATOM     70  C   UNL     1      -0.040  18.915   4.989  1.00  0.00     0.131 A 
ATOM     71  C   UNL     1       2.694  18.809   4.639  1.00  0.00     0.055 A 
ATOM     72  C   UNL     1       0.816  19.083   6.088  1.00  0.00     0.041 A 
ATOM     73  F   UNL     1      -1.345  19.124   5.222  1.00  0.00    -0.206 F 
ATOM     74  C   UNL     1       2.192  19.013   5.920  1.00  0.00     0.022 A 
BRANCH  71  75
ATOM     75  S   UNL     1       4.485  18.811   4.349  1.00  0.00     0.124 S 
ATOM     76  O   UNL     1       4.708  17.487   3.777  1.00  0.00    -0.237 OA
ATOM     77  O   UNL     1       4.651  19.942   3.444  1.00  0.00    -0.237 OA
ATOM     78  O   UNL     1       5.044  19.005   5.687  1.00  0.00    -0.744 OA
ENDBRANCH  71  75
ENDBRANCH  54  68
BRANCH  55  79
ATOM     79  C   UNL     1      -4.597  15.036  -3.671  1.00  0.00     0.023 A 
ATOM     80  C   UNL     1      -4.925  13.730  -4.084  1.00  0.00     0.031 A 
ATOM     81  C   UNL     1      -5.633  15.873  -3.232  1.00  0.00     0.131 A 
ATOM     82  C   UNL     1      -6.227  13.244  -3.908  1.00  0.00     0.055 A 
ATOM     83  C   UNL     1      -6.941  15.397  -3.099  1.00  0.00     0.041 A 
ATOM     84  F   UNL     1      -5.371  17.113  -2.796  1.00  0.00    -0.206 F 
ATOM     85  C   UNL     1      -7.234  14.066  -3.393  1.00  0.00     0.022 A 
BRANCH  82  86
ATOM     86  S   UNL     1      -6.555  11.468  -4.112  1.00  0.00     0.124 S 
ATOM     87  O   UNL     1      -7.142  11.419  -5.446  1.00  0.00    -0.237 OA
ATOM     88  O   UNL     1      -5.232  10.866  -3.981  1.00  0.00    -0.237 OA
ATOM     89  O   UNL     1      -7.466  11.180  -3.007  1.00  0.00    -0.744 OA
ENDBRANCH  82  86
ENDBRANCH  55  79
BRANCH  67  90
ATOM     90  C   UNL     1      -0.198  20.744  -2.548  1.00  0.00     0.023 A 
ATOM     91  C   UNL     1      -0.569  21.472  -3.686  1.00  0.00     0.031 A 
ATOM     92  C   UNL     1       0.587  21.469  -1.608  1.00  0.00     0.131 A 
ATOM     93  C   UNL     1      -0.145  22.803  -3.884  1.00  0.00     0.055 A 
ATOM     94  C   UNL     1       0.970  22.803  -1.783  1.00  0.00     0.041 A 
ATOM     95  F   UNL     1       1.011  20.922  -0.460  1.00  0.00    -0.206 F 
ATOM     96  C   UNL     1       0.611  23.480  -2.934  1.00  0.00     0.022 A 
BRANCH  93  97
ATOM     97  S   UNL     1      -0.583  23.620  -5.442  1.00  0.00     0.124 S 
ATOM     98  O   UNL     1       0.092  22.777  -6.426  1.00  0.00    -0.237 OA
ATOM     99  O   UNL     1      -2.040  23.541  -5.435  1.00  0.00    -0.237 OA
ATOM    100  O   UNL     1      -0.033  24.966  -5.295  1.00  0.00    -0.744 OA
ENDBRANCH  93  97
ENDBRANCH  67  90
ENDBRANCH  41  42
ENDBRANCH  33  36
ENDBRANCH  31  32
ENDBRANCH  30  31
ENDBRANCH  29  30
ENDBRANCH   1  29
TORSDOF 19
