REMARK SMILES COC(=O)c1ccc([C@H]2CC(=O)Nc3c(C(=O)NCCCCCCNC(=O)c4ccc(-c5c6nc(c(-c7cc(S(=O)(=O)[O-])ccc7F)c7ccc([nH]7)c(-c7cc(S(=O)(=O)[O-])ccc7F)c7nc(c(-c8cc(S(=O)(=O)[O-])ccc8F)c8ccc5[nH]8)C=C7)C=C6)cc4)cn(-c4cc(OC)ccc4OC)c32)cc1
REMARK SMILES IDX 21 1 20 2 19 3 18 4 16 5 17 6 15 8 9 9 10 10 103 11 11 12
REMARK SMILES IDX 14 13 92 14 12 15 13 16 91 17 8 19 5 20 6 21 105 22 7 23
REMARK SMILES IDX 104 24 3 25 4 26 2 27 1 28 93 29 94 30 100 31 95 32 99 33
REMARK SMILES IDX 98 34 101 35 102 36 96 37 97 38 22 39 23 40 24 41 25 42
REMARK SMILES IDX 26 43 27 45 28 46 29 47 90 48 30 49 89 50 31 51 32 52 33 53
REMARK SMILES IDX 83 54 34 55 88 56 82 57 84 58 35 59 87 60 81 61 80 62 36 64
REMARK SMILES IDX 68 65 48 66 67 67 49 68 52 69 66 70 85 71 50 72 51 73 65 75
REMARK SMILES IDX 86 76 53 77 37 78 38 79 46 80 39 81 45 82 47 83 44 84 40 85
REMARK SMILES IDX 41 86 42 87 43 88 69 89 70 90 78 91 71 92 77 93 79 94 76 95
REMARK SMILES IDX 72 96 73 97 74 98 75 99 54 100 55 101 63 102 56 103 62 104
REMARK SMILES IDX 64 105 61 106 57 107 58 108 59 109 60 110
REMARK H PARENT 18 7 13 18 25 44 84 63 52 74
REMARK Flexibility Score: inf
ROOT
ATOM      1  C   UNL     1      -8.260   6.379   5.843  1.00  0.00     0.002 C 
ENDROOT
BRANCH   1   2
ATOM      2  C   UNL     1      -6.782   5.984   5.881  1.00  0.00     0.021 C 
BRANCH   2   3
ATOM      3  C   UNL     1      -6.077   6.159   4.531  1.00  0.00     0.116 C 
BRANCH   3   4
ATOM      4  N   UNL     1      -5.399   7.424   4.478  1.00  0.00    -0.352 N 
ATOM      5  C   UNL     1      -4.098   7.789   4.641  1.00  0.00     0.254 C 
ATOM      6  O   UNL     1      -3.861   8.978   4.402  1.00  0.00    -0.269 OA
ATOM      7  H   UNL     1      -5.997   8.182   4.283  1.00  0.00     0.163 HD
BRANCH   5   8
ATOM      8  C   UNL     1      -3.011   6.895   5.061  1.00  0.00     0.081 A 
ATOM      9  C   UNL     1      -0.932   4.215   6.689  1.00  0.00     0.078 C 
ATOM     10  C   UNL     1      -2.040   3.321   7.263  1.00  0.00     0.115 C 
ATOM     11  C   UNL     1      -1.500   5.426   5.977  1.00  0.00     0.055 A 
ATOM     12  C   UNL     1      -3.390   3.453   6.619  1.00  0.00     0.225 C 
ATOM     13  C   UNL     1      -2.844   5.633   5.716  1.00  0.00     0.076 A 
ATOM     14  N   UNL     1      -0.810   6.525   5.491  1.00  0.00    -0.314 N 
ATOM     15  O   UNL     1      -4.220   2.543   6.651  1.00  0.00    -0.275 OA
ATOM     16  N   UNL     1      -3.736   4.659   6.088  1.00  0.00    -0.324 N 
ATOM     17  C   UNL     1      -1.706   7.320   4.831  1.00  0.00     0.107 A 
ATOM     18  H   UNL     1      -4.694   4.846   5.963  1.00  0.00     0.170 HD
BRANCH   9  19
ATOM     19  C   UNL     1       0.059   4.466   7.826  1.00  0.00    -0.038 A 
ATOM     20  C   UNL     1       1.999   4.893   9.829  1.00  0.00     0.060 A 
ATOM     21  C   UNL     1       1.896   3.647   9.202  1.00  0.00     0.016 A 
ATOM     22  C   UNL     1       1.079   5.895   9.514  1.00  0.00     0.016 A 
ATOM     23  C   UNL     1       0.943   3.440   8.202  1.00  0.00     0.005 A 
ATOM     24  C   UNL     1       0.092   5.661   8.555  1.00  0.00     0.005 A 
BRANCH  20  25
ATOM     25  C   UNL     1       3.121   5.114  10.781  1.00  0.00     0.337 C 
ATOM     26  O   UNL     1       4.027   4.322  10.948  1.00  0.00    -0.246 OA
BRANCH  25  27
ATOM     27  O   UNL     1       2.997   6.328  11.377  1.00  0.00    -0.465 OA
ATOM     28  C   UNL     1       4.053   6.644  12.282  1.00  0.00     0.282 C 
ENDBRANCH  25  27
ENDBRANCH  20  25
ENDBRANCH   9  19
BRANCH  14  29
ATOM     29  C   UNL     1       0.562   6.819   5.620  1.00  0.00     0.091 A 
ATOM     30  C   UNL     1       1.452   5.833   5.147  1.00  0.00     0.077 A 
ATOM     31  C   UNL     1       1.050   7.975   6.250  1.00  0.00     0.143 A 
ATOM     32  C   UNL     1       2.824   5.940   5.362  1.00  0.00     0.121 A 
ATOM     33  C   UNL     1       2.440   8.064   6.438  1.00  0.00     0.052 A 
ATOM     34  C   UNL     1       3.318   7.059   6.019  1.00  0.00     0.050 A 
BRANCH  31  35
ATOM     35  O   UNL     1       0.440   9.057   6.810  1.00  0.00    -0.495 OA
ATOM     36  C   UNL     1      -0.953   9.169   7.033  1.00  0.00     0.278 C 
ENDBRANCH  31  35
BRANCH  32  37
ATOM     37  O   UNL     1       3.569   4.899   4.883  1.00  0.00    -0.497 OA
ATOM     38  C   UNL     1       4.874   4.765   5.436  1.00  0.00     0.278 C 
ENDBRANCH  32  37
ENDBRANCH  14  29
ENDBRANCH   5   8
ENDBRANCH   3   4
ENDBRANCH   2   3
ENDBRANCH   1   2
BRANCH   1  39
ATOM     39  C   UNL     1      -9.109   5.593   4.832  1.00  0.00     0.002 C 
BRANCH  39  40
ATOM     40  C   UNL     1      -9.004   4.061   4.910  1.00  0.00     0.021 C 
BRANCH  40  41
ATOM     41  C   UNL     1      -9.690   3.471   6.135  1.00  0.00     0.116 C 
BRANCH  41  42
ATOM     42  N   UNL     1     -11.132   3.705   6.089  1.00  0.00    -0.352 N 
ATOM     43  C   UNL     1     -12.083   3.530   7.070  1.00  0.00     0.251 C 
ATOM     44  H   UNL     1     -11.475   4.037   5.228  1.00  0.00     0.163 HD
ATOM     45  O   UNL     1     -13.265   3.416   6.761  1.00  0.00    -0.269 OA
BRANCH  43  46
ATOM     46  C   UNL     1     -11.664   3.474   8.480  1.00  0.00     0.039 A 
ATOM     47  C   UNL     1     -12.278   2.596   9.376  1.00  0.00     0.014 A 
ATOM     48  C   UNL     1     -10.630   4.308   8.902  1.00  0.00     0.014 A 
ATOM     49  C   UNL     1     -11.781   2.505  10.673  1.00  0.00     0.010 A 
ATOM     50  C   UNL     1     -10.047   4.111  10.129  1.00  0.00     0.010 A 
ATOM     51  C   UNL     1     -10.643   3.246  11.037  1.00  0.00    -0.014 A 
BRANCH  51  52
ATOM     52  C   UNL     1      -9.973   3.005  12.313  1.00  0.00     0.031 A 
ATOM     53  C   UNL     1      -9.653   1.577  12.555  1.00  0.00     0.074 A 
ATOM     54  C   UNL     1      -9.487   3.977  13.117  1.00  0.00     0.049 A 
ATOM     55  N   UNL     1     -10.271   0.765  13.345  1.00  0.00    -0.248 NA
ATOM     56  C   UNL     1      -8.669   0.917  11.682  1.00  0.00     0.031 C 
ATOM     57  C   UNL     1      -9.472   5.423  12.876  1.00  0.00     0.029 A 
ATOM     58  N   UNL     1      -8.800   3.865  14.290  1.00  0.00    -0.354 N 
ATOM     59  C   UNL     1      -9.553  -0.423  13.294  1.00  0.00     0.074 A 
ATOM     60  C   UNL     1      -8.776  -0.351  12.087  1.00  0.00     0.031 C 
ATOM     61  C   UNL     1      -8.621   6.020  13.740  1.00  0.00     0.029 A 
ATOM     62  C   UNL     1      -8.164   5.034  14.703  1.00  0.00     0.049 A 
ATOM     63  H   UNL     1      -8.758   3.026  14.803  1.00  0.00     0.167 HD
ATOM     64  C   UNL     1      -9.432  -1.202  14.405  1.00  0.00     0.034 A 
ATOM     65  C   UNL     1      -7.314   5.191  15.755  1.00  0.00     0.034 A 
ATOM     66  C   UNL     1     -10.410  -0.818  15.410  1.00  0.00     0.049 A 
ATOM     67  C   UNL     1      -7.619   4.096  16.708  1.00  0.00     0.074 A 
ATOM     68  C   UNL     1     -11.785  -0.670  15.419  1.00  0.00     0.029 A 
ATOM     69  N   UNL     1      -9.965  -0.120  16.514  1.00  0.00    -0.354 N 
ATOM     70  N   UNL     1      -8.759   3.996  17.335  1.00  0.00    -0.248 NA
ATOM     71  C   UNL     1      -6.865   2.857  16.596  1.00  0.00     0.031 C 
ATOM     72  C   UNL     1     -12.024   0.506  16.192  1.00  0.00     0.029 A 
ATOM     73  C   UNL     1     -10.802   0.953  16.698  1.00  0.00     0.049 A 
ATOM     74  H   UNL     1      -9.187  -0.350  17.071  1.00  0.00     0.167 HD
ATOM     75  C   UNL     1      -9.077   2.648  17.279  1.00  0.00     0.074 A 
ATOM     76  C   UNL     1      -7.825   1.984  16.917  1.00  0.00     0.031 C 
ATOM     77  C   UNL     1     -10.378   2.229  17.246  1.00  0.00     0.034 A 
BRANCH  64  78
ATOM     78  C   UNL     1      -8.188  -1.993  14.770  1.00  0.00     0.023 A 
ATOM     79  C   UNL     1      -8.219  -2.676  16.000  1.00  0.00     0.031 A 
ATOM     80  C   UNL     1      -6.910  -1.867  14.178  1.00  0.00     0.131 A 
ATOM     81  C   UNL     1      -7.033  -3.039  16.657  1.00  0.00     0.055 A 
ATOM     82  C   UNL     1      -5.736  -2.300  14.803  1.00  0.00     0.041 A 
ATOM     83  F   UNL     1      -6.699  -1.252  13.011  1.00  0.00    -0.206 F 
ATOM     84  C   UNL     1      -5.787  -2.849  16.070  1.00  0.00     0.022 A 
BRANCH  81  85
ATOM     85  S   UNL     1      -7.151  -3.560  18.386  1.00  0.00     0.124 S 
ATOM     86  O   UNL     1      -7.853  -2.425  18.976  1.00  0.00    -0.237 OA
ATOM     87  O   UNL     1      -7.910  -4.801  18.271  1.00  0.00    -0.237 OA
ATOM     88  O   UNL     1      -5.756  -3.716  18.788  1.00  0.00    -0.744 OA
ENDBRANCH  81  85
ENDBRANCH  64  78
BRANCH  65  89
ATOM     89  C   UNL     1      -6.092   6.042  15.832  1.00  0.00     0.023 A 
ATOM     90  C   UNL     1      -5.460   6.374  17.052  1.00  0.00     0.031 A 
ATOM     91  C   UNL     1      -5.374   6.335  14.651  1.00  0.00     0.131 A 
ATOM     92  C   UNL     1      -4.168   6.958  17.053  1.00  0.00     0.055 A 
ATOM     93  C   UNL     1      -4.101   6.909  14.658  1.00  0.00     0.041 A 
ATOM     94  F   UNL     1      -5.848   5.988  13.444  1.00  0.00    -0.206 F 
ATOM     95  C   UNL     1      -3.486   7.213  15.861  1.00  0.00     0.022 A 
BRANCH  92  96
ATOM     96  S   UNL     1      -3.302   7.311  18.620  1.00  0.00     0.124 S 
ATOM     97  O   UNL     1      -4.085   8.412  19.168  1.00  0.00    -0.237 OA
ATOM     98  O   UNL     1      -3.391   6.036  19.323  1.00  0.00    -0.237 OA
ATOM     99  O   UNL     1      -1.951   7.675  18.189  1.00  0.00    -0.744 OA
ENDBRANCH  92  96
ENDBRANCH  65  89
BRANCH  77 100
ATOM    100  C   UNL     1     -11.467   3.217  17.622  1.00  0.00     0.023 A 
ATOM    101  C   UNL     1     -11.684   4.473  17.009  1.00  0.00     0.031 A 
ATOM    102  C   UNL     1     -12.390   2.805  18.601  1.00  0.00     0.131 A 
ATOM    103  C   UNL     1     -12.783   5.268  17.397  1.00  0.00     0.055 A 
ATOM    104  C   UNL     1     -13.488   3.583  18.965  1.00  0.00     0.041 A 
ATOM    105  F   UNL     1     -12.256   1.613  19.206  1.00  0.00    -0.206 F 
ATOM    106  C   UNL     1     -13.684   4.823  18.370  1.00  0.00     0.022 A 
BRANCH 103 107
ATOM    107  S   UNL     1     -13.050   6.917  16.666  1.00  0.00     0.124 S 
ATOM    108  O   UNL     1     -11.731   7.536  16.718  1.00  0.00    -0.237 OA
ATOM    109  O   UNL     1     -13.552   6.595  15.333  1.00  0.00    -0.237 OA
ATOM    110  O   UNL     1     -14.042   7.526  17.555  1.00  0.00    -0.744 OA
ENDBRANCH 103 107
ENDBRANCH  77 100
ENDBRANCH  51  52
ENDBRANCH  43  46
ENDBRANCH  41  42
ENDBRANCH  40  41
ENDBRANCH  39  40
ENDBRANCH   1  39
TORSDOF 22
