REMARK SMILES Cc1ccc(NC(=O)C[C@@H](C(=O)NCCCCCCNC(=O)c2ccc(-c3c4nc(c(-c5cc(S(=O)(=O)[O-])ccc5F)c5ccc([nH]5)c(-c5cc(S(=O)(=O)[O-])ccc5F)c5nc(c(-c6cc(S(=O)(=O)[O-])ccc6F)c6ccc3[nH]6)C=C5)C=C4)cc2)[C@@H](C)c2ccccc2)cc1Br
REMARK SMILES IDX 16 1 15 2 14 3 13 4 11 5 12 6 10 8 9 9 7 10 6 11 8 13 5 14
REMARK SMILES IDX 1 15 2 16 3 17 95 18 4 19 94 20 96 21 86 22 87 23 88 24
REMARK SMILES IDX 89 25 93 26 90 27 92 28 91 29 17 30 18 31 19 32 20 33 21 34
REMARK SMILES IDX 22 36 23 37 24 38 85 39 25 40 84 41 26 42 27 43 28 44 78 45
REMARK SMILES IDX 29 46 83 47 77 48 79 49 30 50 82 51 76 52 75 53 31 55 63 56
REMARK SMILES IDX 43 57 62 58 44 59 47 60 61 61 80 62 45 63 46 64 60 66 81 67
REMARK SMILES IDX 48 68 32 69 33 70 41 71 34 72 40 73 42 74 39 75 35 76 36 77
REMARK SMILES IDX 37 78 38 79 64 80 65 81 73 82 66 83 72 84 74 85 71 86 67 87
REMARK SMILES IDX 68 88 69 89 70 90 49 91 50 92 58 93 51 94 57 95 59 96 56 97
REMARK SMILES IDX 52 98 53 99 54 100 55 101
REMARK H PARENT 13 7 6 12 20 35 79 54 47 65
REMARK Flexibility Score: inf
ROOT
ATOM      1  C   UNL     1       5.154   1.460  -0.885  1.00  0.00     0.002 C 
ENDROOT
BRANCH   1   2
ATOM      2  C   UNL     1       4.484   2.838  -0.762  1.00  0.00     0.021 C 
BRANCH   2   3
ATOM      3  C   UNL     1       3.433   3.177  -1.826  1.00  0.00     0.116 C 
BRANCH   3   4
ATOM      4  N   UNL     1       2.433   2.135  -1.917  1.00  0.00    -0.356 N 
ATOM      5  C   UNL     1       1.110   2.068  -1.645  1.00  0.00     0.224 C 
ATOM      6  O   UNL     1       0.652   0.925  -1.679  1.00  0.00    -0.275 OA
ATOM      7  H   UNL     1       2.798   1.284  -2.252  1.00  0.00     0.163 HD
BRANCH   5   8
ATOM      8  C   UNL     1       0.249   3.301  -1.354  1.00  0.00     0.095 C 
BRANCH   8   9
ATOM      9  C   UNL     1       0.428   3.932   0.054  1.00  0.00     0.114 C 
BRANCH   9  10
ATOM     10  C   UNL     1       1.648   3.745   0.920  1.00  0.00     0.225 C 
ATOM     11  N   UNL     1       1.965   2.581   1.550  1.00  0.00    -0.326 N 
ATOM     12  H   UNL     1       2.691   2.660   2.210  1.00  0.00     0.169 HD
ATOM     13  O   UNL     1       2.414   4.702   1.087  1.00  0.00    -0.275 OA
BRANCH  11  14
ATOM     14  C   UNL     1       1.439   1.292   1.423  1.00  0.00     0.042 A 
ATOM     15  C   UNL     1       0.207  -2.652   0.217  1.00  0.00     0.045 C 
ATOM     16  C   UNL     1       0.601  -1.309   0.758  1.00  0.00    -0.037 A 
ATOM     17  C   UNL     1       1.960  -1.024   0.945  1.00  0.00     0.007 A 
ATOM     18  C   UNL     1      -0.335  -0.297   1.028  1.00  0.00     0.022 A 
ATOM     19  C   UNL     1       2.370   0.256   1.314  1.00  0.00     0.026 A 
ATOM     20  C   UNL     1       0.082   1.002   1.346  1.00  0.00     0.042 A 
ATOM     21  Br  UNL     1      -2.207  -0.620   0.944  1.00  0.00    -0.050 Br
ENDBRANCH  11  14
ENDBRANCH   9  10
ENDBRANCH   8   9
BRANCH   8  22
ATOM     22  C   UNL     1      -1.312   3.061  -1.555  1.00  0.00     0.029 C 
ATOM     23  C   UNL     1      -2.094   4.390  -1.378  1.00  0.00     0.013 C 
BRANCH  22  24
ATOM     24  C   UNL     1      -1.798   2.339  -2.817  1.00  0.00    -0.044 A 
ATOM     25  C   UNL     1      -2.273   3.003  -3.956  1.00  0.00     0.004 A 
ATOM     26  C   UNL     1      -1.888   0.935  -2.810  1.00  0.00     0.004 A 
ATOM     27  C   UNL     1      -2.810   2.288  -5.036  1.00  0.00     0.000 A 
ATOM     28  C   UNL     1      -2.376   0.217  -3.902  1.00  0.00     0.000 A 
ATOM     29  C   UNL     1      -2.847   0.896  -5.016  1.00  0.00     0.000 A 
ENDBRANCH  22  24
ENDBRANCH   8  22
ENDBRANCH   5   8
ENDBRANCH   3   4
ENDBRANCH   2   3
ENDBRANCH   1   2
BRANCH   1  30
ATOM     30  C   UNL     1       6.198   1.343  -1.991  1.00  0.00     0.002 C 
BRANCH  30  31
ATOM     31  C   UNL     1       7.281   2.420  -1.952  1.00  0.00     0.021 C 
BRANCH  31  32
ATOM     32  C   UNL     1       7.919   2.631  -0.583  1.00  0.00     0.116 C 
BRANCH  32  33
ATOM     33  N   UNL     1       8.697   1.479  -0.156  1.00  0.00    -0.352 N 
ATOM     34  C   UNL     1      10.046   1.417   0.095  1.00  0.00     0.251 C 
ATOM     35  H   UNL     1       8.195   0.641  -0.032  1.00  0.00     0.163 HD
ATOM     36  O   UNL     1      10.604   0.334   0.246  1.00  0.00    -0.269 OA
BRANCH  34  37
ATOM     37  C   UNL     1      10.812   2.678   0.147  1.00  0.00     0.039 A 
ATOM     38  C   UNL     1      11.939   2.825  -0.660  1.00  0.00     0.014 A 
ATOM     39  C   UNL     1      10.359   3.738   0.941  1.00  0.00     0.014 A 
ATOM     40  C   UNL     1      12.584   4.062  -0.715  1.00  0.00     0.010 A 
ATOM     41  C   UNL     1      10.951   4.990   0.817  1.00  0.00     0.010 A 
ATOM     42  C   UNL     1      12.075   5.164  -0.006  1.00  0.00    -0.014 A 
BRANCH  42  43
ATOM     43  C   UNL     1      12.719   6.500  -0.098  1.00  0.00     0.031 A 
ATOM     44  C   UNL     1      13.322   7.125   1.132  1.00  0.00     0.074 A 
ATOM     45  C   UNL     1      12.721   7.166  -1.270  1.00  0.00     0.049 A 
ATOM     46  N   UNL     1      13.886   8.296   1.274  1.00  0.00    -0.248 NA
ATOM     47  C   UNL     1      13.254   6.337   2.372  1.00  0.00     0.031 C 
ATOM     48  C   UNL     1      12.131   6.679  -2.519  1.00  0.00     0.029 A 
ATOM     49  N   UNL     1      13.233   8.395  -1.604  1.00  0.00    -0.354 N 
ATOM     50  C   UNL     1      14.230   8.390   2.618  1.00  0.00     0.074 A 
ATOM     51  C   UNL     1      13.745   7.187   3.260  1.00  0.00     0.031 C 
ATOM     52  C   UNL     1      12.344   7.584  -3.488  1.00  0.00     0.029 A 
ATOM     53  C   UNL     1      13.040   8.736  -2.924  1.00  0.00     0.049 A 
ATOM     54  H   UNL     1      13.695   8.978  -0.960  1.00  0.00     0.167 HD
ATOM     55  C   UNL     1      14.913   9.374   3.253  1.00  0.00     0.034 A 
ATOM     56  C   UNL     1      13.376   9.854  -3.598  1.00  0.00     0.034 A 
ATOM     57  C   UNL     1      15.395  10.563   2.594  1.00  0.00     0.049 A 
ATOM     58  C   UNL     1      14.102  10.953  -2.862  1.00  0.00     0.074 A 
ATOM     59  C   UNL     1      16.141  11.601   3.125  1.00  0.00     0.029 A 
ATOM     60  N   UNL     1      15.169  10.881   1.260  1.00  0.00    -0.354 N 
ATOM     61  N   UNL     1      14.471  11.002  -1.602  1.00  0.00    -0.248 NA
ATOM     62  C   UNL     1      14.466  12.143  -3.642  1.00  0.00     0.031 C 
ATOM     63  C   UNL     1      16.298  12.579   2.138  1.00  0.00     0.029 A 
ATOM     64  C   UNL     1      15.728  12.115   0.962  1.00  0.00     0.049 A 
ATOM     65  H   UNL     1      14.683  10.313   0.619  1.00  0.00     0.167 HD
ATOM     66  C   UNL     1      15.139  12.214  -1.449  1.00  0.00     0.074 A 
ATOM     67  C   UNL     1      15.136  12.855  -2.748  1.00  0.00     0.031 C 
ATOM     68  C   UNL     1      15.707  12.748  -0.337  1.00  0.00     0.034 A 
BRANCH  55  69
ATOM     69  C   UNL     1      15.150   9.211   4.737  1.00  0.00     0.023 A 
ATOM     70  C   UNL     1      15.895   8.136   5.253  1.00  0.00     0.031 A 
ATOM     71  C   UNL     1      14.597  10.125   5.652  1.00  0.00     0.131 A 
ATOM     72  C   UNL     1      15.998   7.956   6.641  1.00  0.00     0.055 A 
ATOM     73  C   UNL     1      14.779   9.990   7.029  1.00  0.00     0.041 A 
ATOM     74  F   UNL     1      13.856  11.159   5.223  1.00  0.00    -0.206 F 
ATOM     75  C   UNL     1      15.469   8.890   7.532  1.00  0.00     0.022 A 
BRANCH  72  76
ATOM     76  S   UNL     1      16.695   6.400   7.261  1.00  0.00     0.124 S 
ATOM     77  O   UNL     1      15.802   5.415   6.655  1.00  0.00    -0.237 OA
ATOM     78  O   UNL     1      18.056   6.434   6.741  1.00  0.00    -0.237 OA
ATOM     79  O   UNL     1      16.577   6.527   8.713  1.00  0.00    -0.744 OA
ENDBRANCH  72  76
ENDBRANCH  55  69
BRANCH  56  80
ATOM     80  C   UNL     1      13.026  10.004  -5.041  1.00  0.00     0.023 A 
ATOM     81  C   UNL     1      14.024  10.130  -6.021  1.00  0.00     0.031 A 
ATOM     82  C   UNL     1      11.684  10.072  -5.458  1.00  0.00     0.131 A 
ATOM     83  C   UNL     1      13.668  10.365  -7.358  1.00  0.00     0.055 A 
ATOM     84  C   UNL     1      11.334  10.247  -6.798  1.00  0.00     0.041 A 
ATOM     85  F   UNL     1      10.688   9.956  -4.564  1.00  0.00    -0.206 F 
ATOM     86  C   UNL     1      12.330  10.410  -7.756  1.00  0.00     0.022 A 
BRANCH  83  87
ATOM     87  S   UNL     1      14.982  10.710  -8.560  1.00  0.00     0.124 S 
ATOM     88  O   UNL     1      15.630  11.873  -7.966  1.00  0.00    -0.237 OA
ATOM     89  O   UNL     1      15.746   9.467  -8.537  1.00  0.00    -0.237 OA
ATOM     90  O   UNL     1      14.251  10.966  -9.799  1.00  0.00    -0.744 OA
ENDBRANCH  83  87
ENDBRANCH  56  80
BRANCH  68  91
ATOM     91  C   UNL     1      16.411  14.075  -0.493  1.00  0.00     0.023 A 
ATOM     92  C   UNL     1      15.715  15.251  -0.821  1.00  0.00     0.031 A 
ATOM     93  C   UNL     1      17.805  14.159  -0.319  1.00  0.00     0.131 A 
ATOM     94  C   UNL     1      16.419  16.447  -1.024  1.00  0.00     0.055 A 
ATOM     95  C   UNL     1      18.491  15.366  -0.454  1.00  0.00     0.041 A 
ATOM     96  F   UNL     1      18.523  13.068  -0.010  1.00  0.00    -0.206 F 
ATOM     97  C   UNL     1      17.800  16.517  -0.822  1.00  0.00     0.022 A 
BRANCH  94  98
ATOM     98  S   UNL     1      15.521  17.890  -1.655  1.00  0.00     0.124 S 
ATOM     99  O   UNL     1      14.974  17.382  -2.909  1.00  0.00    -0.237 OA
ATOM    100  O   UNL     1      14.552  18.145  -0.594  1.00  0.00    -0.237 OA
ATOM    101  O   UNL     1      16.562  18.906  -1.800  1.00  0.00    -0.744 OA
ENDBRANCH  94  98
ENDBRANCH  68  91
ENDBRANCH  42  43
ENDBRANCH  34  37
ENDBRANCH  32  33
ENDBRANCH  31  32
ENDBRANCH  30  31
ENDBRANCH   1  30
TORSDOF 21
