REMARK SMILES COc1cccc(-c2ccc(C#N)c(SCC(=O)NCCCCCCNC(=O)c3ccc(-c4c5nc(c(-c6cc(S(=O)(=O)[O-])ccc6F)c6ccc([nH]6)c(-c6cc(S(=O)(=O)[O-])ccc6F)c6nc(c(-c7cc(S(=O)(=O)[O-])ccc7F)c7ccc4[nH]7)C=C6)C=C5)cc3)n2)c1
REMARK SMILES IDX 22 1 21 2 20 3 19 4 17 5 18 6 16 8 15 9 14 10 8 11 9 12
REMARK SMILES IDX 92 13 10 14 11 15 7 16 3 17 4 18 93 19 5 20 6 21 2 22 1 23
REMARK SMILES IDX 12 24 13 25 23 26 24 27 25 28 26 29 27 30 28 32 29 33 30 34
REMARK SMILES IDX 91 35 31 36 90 37 32 38 33 39 34 40 84 41 35 42 89 43 83 44
REMARK SMILES IDX 85 45 36 46 88 47 82 48 81 49 37 51 69 52 49 53 68 54 50 55
REMARK SMILES IDX 53 56 67 57 86 58 51 59 52 60 66 62 87 63 54 64 38 65 39 66
REMARK SMILES IDX 47 67 40 68 46 69 48 70 45 71 41 72 42 73 43 74 44 75 70 76
REMARK SMILES IDX 71 77 79 78 72 79 78 80 80 81 77 82 73 83 74 84 75 85 76 86
REMARK SMILES IDX 55 87 56 88 64 89 57 90 63 91 65 92 62 93 58 94 59 95 60 96
REMARK SMILES IDX 61 97
REMARK H PARENT 19 7 26 31 85 50 53 61
REMARK Flexibility Score: inf
ROOT
ATOM      1  C   UNL     1       6.837   4.375   3.343  1.00  0.00     0.002 C 
ENDROOT
BRANCH   1   2
ATOM      2  C   UNL     1       6.345   5.418   2.326  1.00  0.00     0.021 C 
BRANCH   2   3
ATOM      3  C   UNL     1       7.446   6.340   1.800  1.00  0.00     0.116 C 
BRANCH   3   4
ATOM      4  N   UNL     1       8.466   5.562   1.131  1.00  0.00    -0.355 N 
ATOM      5  C   UNL     1       8.775   5.482  -0.187  1.00  0.00     0.230 C 
ATOM      6  O   UNL     1       9.578   4.607  -0.518  1.00  0.00    -0.274 OA
ATOM      7  H   UNL     1       9.023   5.007   1.724  1.00  0.00     0.163 HD
BRANCH   5   8
ATOM      8  C   UNL     1       8.233   6.484  -1.184  1.00  0.00     0.176 C 
BRANCH   8   9
ATOM      9  S   UNL     1       6.463   6.345  -1.577  1.00  0.00    -0.095 SA
BRANCH   9  10
ATOM     10  C   UNL     1       6.120   4.693  -2.148  1.00  0.00     0.115 A 
ATOM     11  C   UNL     1       4.281   3.239  -2.438  1.00  0.00     0.072 A 
ATOM     12  C   UNL     1       5.102   2.256  -2.970  1.00  0.00     0.030 A 
ATOM     13  N   UNL     1       4.781   4.425  -2.017  1.00  0.00    -0.240 NA
ATOM     14  C   UNL     1       6.455   2.523  -3.119  1.00  0.00     0.024 A 
ATOM     15  C   UNL     1       6.976   3.770  -2.747  1.00  0.00     0.084 A 
BRANCH  11  16
ATOM     16  C   UNL     1       2.824   3.037  -2.379  1.00  0.00     0.004 A 
ATOM     17  C   UNL     1       0.932   1.585  -1.841  1.00  0.00     0.119 A 
ATOM     18  C   UNL     1       0.080   2.425  -2.554  1.00  0.00     0.046 A 
ATOM     19  C   UNL     1       2.293   1.889  -1.761  1.00  0.00     0.056 A 
ATOM     20  C   UNL     1       0.575   3.593  -3.135  1.00  0.00     0.005 A 
ATOM     21  C   UNL     1       1.936   3.902  -3.040  1.00  0.00     0.010 A 
BRANCH  17  22
ATOM     22  O   UNL     1       0.369   0.445  -1.335  1.00  0.00    -0.497 OA
ATOM     23  C   UNL     1       0.884   0.037  -0.070  1.00  0.00     0.278 C 
ENDBRANCH  17  22
ENDBRANCH  11  16
BRANCH  15  24
ATOM     24  C   UNL     1       8.320   4.034  -3.144  1.00  0.00     0.102 C 
ATOM     25  N   UNL     1       9.392   4.201  -3.562  1.00  0.00    -0.192 NA
ENDBRANCH  15  24
ENDBRANCH   9  10
ENDBRANCH   8   9
ENDBRANCH   5   8
ENDBRANCH   3   4
ENDBRANCH   2   3
ENDBRANCH   1   2
BRANCH   1  26
ATOM     26  C   UNL     1       7.598   4.951   4.542  1.00  0.00     0.002 C 
BRANCH  26  27
ATOM     27  C   UNL     1       6.838   6.027   5.320  1.00  0.00     0.021 C 
BRANCH  27  28
ATOM     28  C   UNL     1       5.493   5.566   5.868  1.00  0.00     0.116 C 
BRANCH  28  29
ATOM     29  N   UNL     1       5.646   4.495   6.838  1.00  0.00    -0.352 N 
ATOM     30  C   UNL     1       5.210   4.434   8.138  1.00  0.00     0.251 C 
ATOM     31  H   UNL     1       6.130   3.700   6.517  1.00  0.00     0.163 HD
ATOM     32  O   UNL     1       5.634   3.554   8.881  1.00  0.00    -0.269 OA
BRANCH  30  33
ATOM     33  C   UNL     1       4.253   5.444   8.640  1.00  0.00     0.039 A 
ATOM     34  C   UNL     1       4.457   5.993   9.907  1.00  0.00     0.014 A 
ATOM     35  C   UNL     1       3.166   5.856   7.863  1.00  0.00     0.014 A 
ATOM     36  C   UNL     1       3.604   6.997  10.367  1.00  0.00     0.010 A 
ATOM     37  C   UNL     1       2.372   6.918   8.286  1.00  0.00     0.010 A 
ATOM     38  C   UNL     1       2.581   7.500   9.544  1.00  0.00    -0.014 A 
BRANCH  38  39
ATOM     39  C   UNL     1       1.747   8.649   9.988  1.00  0.00     0.031 A 
ATOM     40  C   UNL     1       0.262   8.493  10.170  1.00  0.00     0.074 A 
ATOM     41  C   UNL     1       2.333   9.845  10.200  1.00  0.00     0.049 A 
ATOM     42  N   UNL     1      -0.621   9.383  10.543  1.00  0.00    -0.248 NA
ATOM     43  C   UNL     1      -0.308   7.170   9.873  1.00  0.00     0.031 C 
ATOM     44  C   UNL     1       3.759  10.128  10.018  1.00  0.00     0.029 A 
ATOM     45  N   UNL     1       1.811  11.042  10.620  1.00  0.00    -0.354 N 
ATOM     46  C   UNL     1      -1.849   8.732  10.527  1.00  0.00     0.074 A 
ATOM     47  C   UNL     1      -1.604   7.391  10.040  1.00  0.00     0.031 C 
ATOM     48  C   UNL     1       4.004  11.399  10.370  1.00  0.00     0.029 A 
ATOM     49  C   UNL     1       2.749  12.043  10.741  1.00  0.00     0.049 A 
ATOM     50  H   UNL     1       0.856  11.174  10.816  1.00  0.00     0.167 HD
ATOM     51  C   UNL     1      -3.064   9.201  10.906  1.00  0.00     0.034 A 
ATOM     52  C   UNL     1       2.614  13.336  11.097  1.00  0.00     0.034 A 
ATOM     53  C   UNL     1      -3.292  10.545  11.382  1.00  0.00     0.049 A 
ATOM     54  C   UNL     1       1.242  13.848  11.457  1.00  0.00     0.074 A 
ATOM     55  C   UNL     1      -4.473  11.110  11.832  1.00  0.00     0.029 A 
ATOM     56  N   UNL     1      -2.326  11.542  11.454  1.00  0.00    -0.354 N 
ATOM     57  N   UNL     1       0.100  13.200  11.492  1.00  0.00    -0.248 NA
ATOM     58  C   UNL     1       1.145  15.262  11.835  1.00  0.00     0.031 C 
ATOM     59  C   UNL     1      -4.244  12.466  12.083  1.00  0.00     0.029 A 
ATOM     60  C   UNL     1      -2.896  12.728  11.894  1.00  0.00     0.049 A 
ATOM     61  H   UNL     1      -1.375  11.424  11.226  1.00  0.00     0.167 HD
ATOM     62  C   UNL     1      -0.846  14.125  11.925  1.00  0.00     0.074 A 
ATOM     63  C   UNL     1      -0.133  15.363  12.164  1.00  0.00     0.031 C 
ATOM     64  C   UNL     1      -2.182  13.965  12.110  1.00  0.00     0.034 A 
BRANCH  51  65
ATOM     65  C   UNL     1      -4.244   8.263  10.790  1.00  0.00     0.023 A 
ATOM     66  C   UNL     1      -4.307   7.059  11.514  1.00  0.00     0.031 A 
ATOM     67  C   UNL     1      -5.317   8.570   9.935  1.00  0.00     0.131 A 
ATOM     68  C   UNL     1      -5.378   6.175  11.314  1.00  0.00     0.055 A 
ATOM     69  C   UNL     1      -6.425   7.729   9.810  1.00  0.00     0.041 A 
ATOM     70  F   UNL     1      -5.305   9.691   9.197  1.00  0.00    -0.206 F 
ATOM     71  C   UNL     1      -6.453   6.516  10.490  1.00  0.00     0.022 A 
BRANCH  68  72
ATOM     72  S   UNL     1      -5.268   4.508  12.020  1.00  0.00     0.124 S 
ATOM     73  O   UNL     1      -4.025   4.018  11.426  1.00  0.00    -0.237 OA
ATOM     74  O   UNL     1      -5.230   4.774  13.453  1.00  0.00    -0.237 OA
ATOM     75  O   UNL     1      -6.480   3.851  11.537  1.00  0.00    -0.744 OA
ENDBRANCH  68  72
ENDBRANCH  51  65
BRANCH  52  76
ATOM     76  C   UNL     1       3.797  14.246  11.112  1.00  0.00     0.023 A 
ATOM     77  C   UNL     1       4.213  14.877  12.294  1.00  0.00     0.031 A 
ATOM     78  C   UNL     1       4.497  14.542   9.928  1.00  0.00     0.131 A 
ATOM     79  C   UNL     1       5.258  15.814  12.257  1.00  0.00     0.055 A 
ATOM     80  C   UNL     1       5.582  15.420   9.910  1.00  0.00     0.041 A 
ATOM     81  F   UNL     1       4.141  13.971   8.766  1.00  0.00    -0.206 F 
ATOM     82  C   UNL     1       5.958  16.074  11.077  1.00  0.00     0.022 A 
BRANCH  79  83
ATOM     83  S   UNL     1       5.615  16.775  13.754  1.00  0.00     0.124 S 
ATOM     84  O   UNL     1       4.327  17.407  14.013  1.00  0.00    -0.237 OA
ATOM     85  O   UNL     1       6.022  15.736  14.693  1.00  0.00    -0.237 OA
ATOM     86  O   UNL     1       6.681  17.680  13.329  1.00  0.00    -0.744 OA
ENDBRANCH  79  83
ENDBRANCH  52  76
BRANCH  64  87
ATOM     87  C   UNL     1      -2.950  15.158  12.633  1.00  0.00     0.023 A 
ATOM     88  C   UNL     1      -3.045  16.356  11.903  1.00  0.00     0.031 A 
ATOM     89  C   UNL     1      -3.570  15.106  13.895  1.00  0.00     0.131 A 
ATOM     90  C   UNL     1      -3.669  17.475  12.473  1.00  0.00     0.055 A 
ATOM     91  C   UNL     1      -4.265  16.197  14.419  1.00  0.00     0.041 A 
ATOM     92  F   UNL     1      -3.509  13.993  14.643  1.00  0.00    -0.206 F 
ATOM     93  C   UNL     1      -4.301  17.397  13.716  1.00  0.00     0.022 A 
BRANCH  90  94
ATOM     94  S   UNL     1      -3.521  19.074  11.628  1.00  0.00     0.124 S 
ATOM     95  O   UNL     1      -2.074  19.232  11.534  1.00  0.00    -0.237 OA
ATOM     96  O   UNL     1      -4.219  18.828  10.370  1.00  0.00    -0.237 OA
ATOM     97  O   UNL     1      -4.189  20.004  12.536  1.00  0.00    -0.744 OA
ENDBRANCH  90  94
ENDBRANCH  64  87
ENDBRANCH  38  39
ENDBRANCH  30  33
ENDBRANCH  28  29
ENDBRANCH  27  28
ENDBRANCH  26  27
ENDBRANCH   1  26
TORSDOF 21
