REMARK SMILES COc1ccc(-c2ncn(CC(=O)NCCCCCCNC(=O)c3ccc(-c4c5nc(c(-c6cc(S(=O)(=O)[O-])ccc6F)c6ccc([nH]6)c(-c6cc(S(=O)(=O)[O-])ccc6F)c6nc(c(-c7cc(S(=O)(=O)[O-])ccc7F)c7ccc4[nH]7)C=C6)C=C5)cc3)c2-c2ccc(OC)cc2)cc1
REMARK SMILES IDX 17 1 16 2 15 3 14 4 12 5 13 6 11 8 10 9 7 10 8 11 87 12 9 13
REMARK SMILES IDX 6 14 3 15 4 16 97 17 5 18 96 19 2 20 1 21 88 22 89 23 95 24
REMARK SMILES IDX 90 25 94 26 91 27 92 28 93 29 18 30 19 31 20 32 21 33 22 34
REMARK SMILES IDX 23 36 24 37 25 38 86 39 26 40 85 41 27 42 28 43 29 44 79 45
REMARK SMILES IDX 30 46 84 47 78 48 80 49 31 50 83 51 77 52 76 53 32 55 64 56
REMARK SMILES IDX 44 57 63 58 45 59 48 60 62 61 81 62 46 63 47 64 61 66 82 67
REMARK SMILES IDX 49 68 33 69 34 70 42 71 35 72 41 73 43 74 40 75 36 76 37 77
REMARK SMILES IDX 38 78 39 79 65 80 66 81 74 82 67 83 73 84 75 85 72 86 68 87
REMARK SMILES IDX 69 88 70 89 71 90 50 91 51 92 59 93 52 94 58 95 60 96 57 97
REMARK SMILES IDX 53 98 54 99 55 100 56 101
REMARK H PARENT 14 7 21 35 80 54 48 65
REMARK Flexibility Score: inf
ROOT
ATOM      1  C   UNL     1      -0.680   6.676  -8.382  1.00  0.00     0.002 C 
ENDROOT
BRANCH   1   2
ATOM      2  C   UNL     1       0.655   6.346  -7.705  1.00  0.00     0.021 C 
BRANCH   2   3
ATOM      3  C   UNL     1       1.534   7.577  -7.506  1.00  0.00     0.116 C 
BRANCH   3   4
ATOM      4  N   UNL     1       0.958   8.499  -6.551  1.00  0.00    -0.355 N 
ATOM      5  C   UNL     1       1.402   8.831  -5.307  1.00  0.00     0.239 C 
ATOM      6  O   UNL     1       0.817   9.742  -4.713  1.00  0.00    -0.273 OA
ATOM      7  H   UNL     1       0.131   8.947  -6.840  1.00  0.00     0.163 HD
BRANCH   5   8
ATOM      8  C   UNL     1       2.627   8.168  -4.718  1.00  0.00     0.223 C 
BRANCH   8   9
ATOM      9  N   UNL     1       2.595   6.713  -4.702  1.00  0.00    -0.321 N 
ATOM     10  C   UNL     1       2.225   4.610  -4.280  1.00  0.00     0.096 A 
ATOM     11  N   UNL     1       3.325   4.653  -5.098  1.00  0.00    -0.236 NA
ATOM     12  C   UNL     1       1.748   5.885  -3.996  1.00  0.00     0.076 A 
ATOM     13  C   UNL     1       3.535   5.926  -5.317  1.00  0.00     0.201 A 
BRANCH  10  14
ATOM     14  C   UNL     1       1.759   3.396  -3.647  1.00  0.00     0.003 A 
ATOM     15  C   UNL     1       0.864   1.237  -2.115  1.00  0.00     0.118 A 
ATOM     16  C   UNL     1      -0.028   1.937  -2.930  1.00  0.00     0.047 A 
ATOM     17  C   UNL     1       2.218   1.565  -2.126  1.00  0.00     0.047 A 
ATOM     18  C   UNL     1       0.413   3.020  -3.691  1.00  0.00     0.014 A 
ATOM     19  C   UNL     1       2.665   2.641  -2.894  1.00  0.00     0.014 A 
BRANCH  15  20
ATOM     20  O   UNL     1       0.326   0.202  -1.403  1.00  0.00    -0.497 OA
ATOM     21  C   UNL     1       0.871   0.004  -0.104  1.00  0.00     0.278 C 
ENDBRANCH  15  20
ENDBRANCH  10  14
BRANCH  12  22
ATOM     22  C   UNL     1       0.743   6.333  -3.037  1.00  0.00     0.001 A 
ATOM     23  C   UNL     1      -0.387   7.048  -3.436  1.00  0.00     0.014 A 
ATOM     24  C   UNL     1       0.916   6.049  -1.678  1.00  0.00     0.014 A 
ATOM     25  C   UNL     1      -1.270   7.559  -2.483  1.00  0.00     0.047 A 
ATOM     26  C   UNL     1       0.008   6.521  -0.728  1.00  0.00     0.047 A 
ATOM     27  C   UNL     1      -1.079   7.298  -1.126  1.00  0.00     0.118 A 
BRANCH  27  28
ATOM     28  O   UNL     1      -2.007   7.859  -0.294  1.00  0.00    -0.497 OA
ATOM     29  C   UNL     1      -2.000   7.397   1.051  1.00  0.00     0.278 C 
ENDBRANCH  27  28
ENDBRANCH  12  22
ENDBRANCH   8   9
ENDBRANCH   5   8
ENDBRANCH   3   4
ENDBRANCH   2   3
ENDBRANCH   1   2
BRANCH   1  30
ATOM     30  C   UNL     1      -0.547   7.490  -9.679  1.00  0.00     0.002 C 
BRANCH  30  31
ATOM     31  C   UNL     1       0.394   6.885 -10.731  1.00  0.00     0.021 C 
BRANCH  31  32
ATOM     32  C   UNL     1      -0.100   5.544 -11.239  1.00  0.00     0.116 C 
BRANCH  32  33
ATOM     33  N   UNL     1      -1.321   5.688 -12.033  1.00  0.00    -0.352 N 
ATOM     34  C   UNL     1      -1.833   4.816 -12.990  1.00  0.00     0.251 C 
ATOM     35  H   UNL     1      -1.846   6.504 -11.870  1.00  0.00     0.163 HD
ATOM     36  O   UNL     1      -2.593   5.194 -13.845  1.00  0.00    -0.269 OA
BRANCH  34  37
ATOM     37  C   UNL     1      -1.490   3.386 -12.831  1.00  0.00     0.039 A 
ATOM     38  C   UNL     1      -1.405   2.441 -13.857  1.00  0.00     0.014 A 
ATOM     39  C   UNL     1      -1.356   2.954 -11.528  1.00  0.00     0.014 A 
ATOM     40  C   UNL     1      -1.229   1.089 -13.488  1.00  0.00     0.010 A 
ATOM     41  C   UNL     1      -0.637   1.828 -11.326  1.00  0.00     0.010 A 
ATOM     42  C   UNL     1      -0.997   0.777 -12.135  1.00  0.00    -0.014 A 
BRANCH  42  43
ATOM     43  C   UNL     1      -0.539  -0.496 -11.559  1.00  0.00     0.031 A 
ATOM     44  C   UNL     1       0.806  -0.816 -12.170  1.00  0.00     0.074 A 
ATOM     45  C   UNL     1      -1.142  -1.077 -10.468  1.00  0.00     0.049 A 
ATOM     46  N   UNL     1       0.990  -1.519 -13.245  1.00  0.00    -0.248 NA
ATOM     47  C   UNL     1       2.010   0.011 -11.865  1.00  0.00     0.031 C 
ATOM     48  C   UNL     1      -2.363  -0.697  -9.726  1.00  0.00     0.029 A 
ATOM     49  N   UNL     1      -0.771  -2.203  -9.754  1.00  0.00    -0.354 N 
ATOM     50  C   UNL     1       2.371  -1.560 -13.417  1.00  0.00     0.074 A 
ATOM     51  C   UNL     1       2.854  -0.351 -12.837  1.00  0.00     0.031 C 
ATOM     52  C   UNL     1      -2.476  -1.406  -8.563  1.00  0.00     0.029 A 
ATOM     53  C   UNL     1      -1.423  -2.406  -8.494  1.00  0.00     0.049 A 
ATOM     54  H   UNL     1      -0.093  -2.831 -10.094  1.00  0.00     0.167 HD
ATOM     55  C   UNL     1       2.996  -2.764 -13.560  1.00  0.00     0.034 A 
ATOM     56  C   UNL     1      -1.172  -3.408  -7.561  1.00  0.00     0.034 A 
ATOM     57  C   UNL     1       1.998  -3.775 -13.846  1.00  0.00     0.049 A 
ATOM     58  C   UNL     1      -0.450  -4.463  -8.332  1.00  0.00     0.074 A 
ATOM     59  C   UNL     1       1.064  -3.971 -14.842  1.00  0.00     0.029 A 
ATOM     60  N   UNL     1       1.552  -4.472 -12.748  1.00  0.00    -0.354 N 
ATOM     61  N   UNL     1      -1.033  -5.122  -9.301  1.00  0.00    -0.248 NA
ATOM     62  C   UNL     1       0.991  -4.273  -8.466  1.00  0.00     0.031 C 
ATOM     63  C   UNL     1      -0.114  -4.398 -14.158  1.00  0.00     0.029 A 
ATOM     64  C   UNL     1       0.194  -4.630 -12.816  1.00  0.00     0.049 A 
ATOM     65  H   UNL     1       2.125  -4.809 -12.021  1.00  0.00     0.167 HD
ATOM     66  C   UNL     1      -0.158  -5.010 -10.372  1.00  0.00     0.074 A 
ATOM     67  C   UNL     1       1.082  -4.469  -9.788  1.00  0.00     0.031 C 
ATOM     68  C   UNL     1      -0.615  -4.991 -11.664  1.00  0.00     0.034 A 
BRANCH  55  69
ATOM     69  C   UNL     1       4.331  -3.152 -12.935  1.00  0.00     0.023 A 
ATOM     70  C   UNL     1       4.744  -4.485 -13.139  1.00  0.00     0.031 A 
ATOM     71  C   UNL     1       5.047  -2.444 -11.941  1.00  0.00     0.131 A 
ATOM     72  C   UNL     1       5.715  -5.084 -12.318  1.00  0.00     0.055 A 
ATOM     73  C   UNL     1       6.057  -3.028 -11.166  1.00  0.00     0.041 A 
ATOM     74  F   UNL     1       4.770  -1.183 -11.597  1.00  0.00    -0.206 F 
ATOM     75  C   UNL     1       6.378  -4.364 -11.332  1.00  0.00     0.022 A 
BRANCH  72  76
ATOM     76  S   UNL     1       5.960  -6.873 -12.454  1.00  0.00     0.124 S 
ATOM     77  O   UNL     1       4.617  -7.372 -12.182  1.00  0.00    -0.237 OA
ATOM     78  O   UNL     1       6.432  -7.007 -13.828  1.00  0.00    -0.237 OA
ATOM     79  O   UNL     1       6.955  -7.157 -11.422  1.00  0.00    -0.744 OA
ENDBRANCH  72  76
ENDBRANCH  55  69
BRANCH  56  80
ATOM     80  C   UNL     1      -1.041  -3.336  -6.032  1.00  0.00     0.023 A 
ATOM     81  C   UNL     1      -1.016  -4.426  -5.083  1.00  0.00     0.031 A 
ATOM     82  C   UNL     1      -0.638  -2.092  -5.512  1.00  0.00     0.131 A 
ATOM     83  C   UNL     1      -0.622  -4.211  -3.714  1.00  0.00     0.055 A 
ATOM     84  C   UNL     1      -0.219  -1.904  -4.191  1.00  0.00     0.041 A 
ATOM     85  F   UNL     1      -0.556  -1.014  -6.306  1.00  0.00    -0.206 F 
ATOM     86  C   UNL     1      -0.205  -2.952  -3.289  1.00  0.00     0.022 A 
BRANCH  83  87
ATOM     87  S   UNL     1      -0.616  -5.526  -2.404  1.00  0.00     0.124 S 
ATOM     88  O   UNL     1      -2.020  -5.912  -2.328  1.00  0.00    -0.237 OA
ATOM     89  O   UNL     1       0.304  -6.522  -2.938  1.00  0.00    -0.237 OA
ATOM     90  O   UNL     1      -0.122  -4.832  -1.210  1.00  0.00    -0.744 OA
ENDBRANCH  83  87
ENDBRANCH  56  80
BRANCH  68  91
ATOM     91  C   UNL     1      -2.071  -5.337 -11.933  1.00  0.00     0.023 A 
ATOM     92  C   UNL     1      -3.224  -4.607 -11.537  1.00  0.00     0.031 A 
ATOM     93  C   UNL     1      -2.266  -6.455 -12.760  1.00  0.00     0.131 A 
ATOM     94  C   UNL     1      -4.506  -5.041 -11.956  1.00  0.00     0.055 A 
ATOM     95  C   UNL     1      -3.522  -6.847 -13.205  1.00  0.00     0.041 A 
ATOM     96  F   UNL     1      -1.212  -7.170 -13.186  1.00  0.00    -0.206 F 
ATOM     97  C   UNL     1      -4.650  -6.150 -12.796  1.00  0.00     0.022 A 
BRANCH  94  98
ATOM     98  S   UNL     1      -6.036  -4.230 -11.360  1.00  0.00     0.124 S 
ATOM     99  O   UNL     1      -5.837  -4.161  -9.918  1.00  0.00    -0.237 OA
ATOM    100  O   UNL     1      -6.021  -2.953 -12.068  1.00  0.00    -0.237 OA
ATOM    101  O   UNL     1      -7.097  -5.146 -11.785  1.00  0.00    -0.744 OA
ENDBRANCH  94  98
ENDBRANCH  68  91
ENDBRANCH  42  43
ENDBRANCH  34  37
ENDBRANCH  32  33
ENDBRANCH  31  32
ENDBRANCH  30  31
ENDBRANCH   1  30
TORSDOF 21
