REMARK SMILES Cc1cccc(Cl)c1Nc1ccccc1CC(=O)NCCCCCCNC(=O)c1ccc(-c2c3nc(c(-c4cc(S(=O)(=O)[O-])ccc4F)c4ccc([nH]4)c(-c4cc(S(=O)(=O)[O-])ccc4F)c4nc(c(-c5cc(S(=O)(=O)[O-])ccc5F)c5ccc2[nH]5)C=C4)C=C3)cc1
REMARK SMILES IDX 22 1 21 2 20 3 19 4 17 5 18 6 16 8 15 9 10 10 11 11 12 12
REMARK SMILES IDX 14 13 13 14 9 15 8 17 1 18 2 19 3 20 4 21 6 22 5 23 7 24
REMARK SMILES IDX 23 25 24 26 25 27 26 28 27 29 28 31 29 32 30 33 91 34 31 35
REMARK SMILES IDX 90 36 32 37 33 38 34 39 84 40 35 41 89 42 83 43 85 44 36 45
REMARK SMILES IDX 88 46 82 47 81 48 37 50 69 51 49 52 68 53 50 54 53 55 67 56
REMARK SMILES IDX 86 57 51 58 52 59 66 61 87 62 54 63 38 64 39 65 47 66 40 67
REMARK SMILES IDX 46 68 48 69 45 70 41 71 42 72 43 73 44 74 70 75 71 76 79 77
REMARK SMILES IDX 72 78 78 79 80 80 77 81 73 82 74 83 75 84 76 85 55 86 56 87
REMARK SMILES IDX 64 88 57 89 63 90 65 91 62 92 58 93 59 94 60 95 61 96
REMARK H PARENT 19 7 9 16 26 30 85 49 53 60
REMARK Flexibility Score: inf
ROOT
ATOM      1  C   UNL     1       0.647   6.118  -3.620  1.00  0.00     0.002 C 
ENDROOT
BRANCH   1   2
ATOM      2  C   UNL     1       0.707   5.128  -2.450  1.00  0.00     0.021 C 
BRANCH   2   3
ATOM      3  C   UNL     1       0.133   3.752  -2.789  1.00  0.00     0.116 C 
BRANCH   3   4
ATOM      4  N   UNL     1       1.008   3.038  -3.699  1.00  0.00    -0.356 N 
ATOM      5  C   UNL     1       1.890   2.037  -3.408  1.00  0.00     0.224 C 
ATOM      6  O   UNL     1       2.662   1.657  -4.292  1.00  0.00    -0.275 OA
ATOM      7  H   UNL     1       0.960   3.309  -4.644  1.00  0.00     0.163 HD
BRANCH   5   8
ATOM      8  C   UNL     1       1.853   1.373  -2.042  1.00  0.00     0.137 C 
BRANCH   8   9
ATOM      9  C   UNL     1       2.356   2.236  -0.902  1.00  0.00    -0.015 A 
ATOM     10  C   UNL     1       1.587   2.523   0.248  1.00  0.00     0.042 A 
ATOM     11  C   UNL     1       2.108   3.420   1.200  1.00  0.00     0.026 A 
ATOM     12  C   UNL     1       3.369   3.994   1.048  1.00  0.00     0.002 A 
ATOM     13  C   UNL     1       3.642   2.803  -1.025  1.00  0.00     0.006 A 
ATOM     14  C   UNL     1       4.143   3.675  -0.059  1.00  0.00     0.000 A 
BRANCH  10  15
ATOM     15  N   UNL     1       0.337   1.940   0.545  1.00  0.00    -0.354 N 
ATOM     16  H   UNL     1      -0.323   2.579   0.899  1.00  0.00     0.167 HD
BRANCH  15  17
ATOM     17  C   UNL     1      -0.157   0.618   0.436  1.00  0.00     0.060 A 
ATOM     18  C   UNL     1      -2.482   1.607   0.015  1.00  0.00     0.046 C 
ATOM     19  C   UNL     1      -1.536   0.439   0.143  1.00  0.00    -0.026 A 
ATOM     20  C   UNL     1      -2.051  -0.852  -0.077  1.00  0.00     0.005 A 
ATOM     21  C   UNL     1      -1.228  -1.970  -0.003  1.00  0.00     0.002 A 
ATOM     22  C   UNL     1       0.650  -0.540   0.539  1.00  0.00     0.064 A 
ATOM     23  C   UNL     1       0.116  -1.815   0.312  1.00  0.00     0.023 A 
ATOM     24  Cl  UNL     1       2.305  -0.501   1.052  1.00  0.00    -0.082 Cl
ENDBRANCH  15  17
ENDBRANCH  10  15
ENDBRANCH   8   9
ENDBRANCH   5   8
ENDBRANCH   3   4
ENDBRANCH   2   3
ENDBRANCH   1   2
BRANCH   1  25
ATOM     25  C   UNL     1      -0.763   6.387  -4.158  1.00  0.00     0.002 C 
BRANCH  25  26
ATOM     26  C   UNL     1      -1.763   6.891  -3.114  1.00  0.00     0.021 C 
BRANCH  26  27
ATOM     27  C   UNL     1      -1.373   8.210  -2.453  1.00  0.00     0.116 C 
BRANCH  27  28
ATOM     28  N   UNL     1      -1.284   9.290  -3.423  1.00  0.00    -0.352 N 
ATOM     29  C   UNL     1      -1.921  10.502  -3.435  1.00  0.00     0.251 C 
ATOM     30  H   UNL     1      -0.678   9.125  -4.181  1.00  0.00     0.163 HD
ATOM     31  O   UNL     1      -1.907  11.183  -4.464  1.00  0.00    -0.269 OA
BRANCH  29  32
ATOM     32  C   UNL     1      -2.631  10.985  -2.233  1.00  0.00     0.039 A 
ATOM     33  C   UNL     1      -3.868  11.614  -2.386  1.00  0.00     0.014 A 
ATOM     34  C   UNL     1      -2.070  10.841  -0.960  1.00  0.00     0.014 A 
ATOM     35  C   UNL     1      -4.565  12.054  -1.259  1.00  0.00     0.010 A 
ATOM     36  C   UNL     1      -2.800  11.212   0.168  1.00  0.00     0.010 A 
ATOM     37  C   UNL     1      -4.051  11.830   0.030  1.00  0.00    -0.014 A 
BRANCH  37  38
ATOM     38  C   UNL     1      -4.816  12.242   1.236  1.00  0.00     0.031 A 
ATOM     39  C   UNL     1      -4.268  13.295   2.161  1.00  0.00     0.074 A 
ATOM     40  C   UNL     1      -5.986  11.635   1.516  1.00  0.00     0.049 A 
ATOM     41  N   UNL     1      -4.777  13.768   3.271  1.00  0.00    -0.248 NA
ATOM     42  C   UNL     1      -2.962  13.871   1.808  1.00  0.00     0.031 C 
ATOM     43  C   UNL     1      -6.593  10.566   0.720  1.00  0.00     0.029 A 
ATOM     44  N   UNL     1      -6.875  11.826   2.544  1.00  0.00    -0.354 N 
ATOM     45  C   UNL     1      -3.852  14.689   3.752  1.00  0.00     0.074 A 
ATOM     46  C   UNL     1      -2.722  14.656   2.847  1.00  0.00     0.031 C 
ATOM     47  C   UNL     1      -7.767  10.219   1.271  1.00  0.00     0.029 A 
ATOM     48  C   UNL     1      -7.978  11.006   2.482  1.00  0.00     0.049 A 
ATOM     49  H   UNL     1      -6.736  12.488   3.260  1.00  0.00     0.167 HD
ATOM     50  C   UNL     1      -3.947  15.503   4.833  1.00  0.00     0.034 A 
ATOM     51  C   UNL     1      -9.037  10.896   3.308  1.00  0.00     0.034 A 
ATOM     52  C   UNL     1      -5.086  15.526   5.719  1.00  0.00     0.049 A 
ATOM     53  C   UNL     1      -9.116  11.804   4.509  1.00  0.00     0.074 A 
ATOM     54  C   UNL     1      -5.314  16.348   6.809  1.00  0.00     0.029 A 
ATOM     55  N   UNL     1      -6.187  14.682   5.626  1.00  0.00    -0.354 N 
ATOM     56  N   UNL     1      -8.261  12.714   4.915  1.00  0.00    -0.248 NA
ATOM     57  C   UNL     1     -10.310  11.679   5.352  1.00  0.00     0.031 C 
ATOM     58  C   UNL     1      -6.512  15.953   7.416  1.00  0.00     0.029 A 
ATOM     59  C   UNL     1      -7.077  14.940   6.658  1.00  0.00     0.049 A 
ATOM     60  H   UNL     1      -6.315  13.999   4.928  1.00  0.00     0.167 HD
ATOM     61  C   UNL     1      -8.831  13.291   6.048  1.00  0.00     0.074 A 
ATOM     62  C   UNL     1     -10.111  12.640   6.242  1.00  0.00     0.031 C 
ATOM     63  C   UNL     1      -8.342  14.270   6.853  1.00  0.00     0.034 A 
BRANCH  50  64
ATOM     64  C   UNL     1      -2.774  16.410   5.127  1.00  0.00     0.023 A 
ATOM     65  C   UNL     1      -2.360  17.403   4.221  1.00  0.00     0.031 A 
ATOM     66  C   UNL     1      -2.042  16.266   6.319  1.00  0.00     0.131 A 
ATOM     67  C   UNL     1      -1.204  18.155   4.482  1.00  0.00     0.055 A 
ATOM     68  C   UNL     1      -0.943  17.077   6.613  1.00  0.00     0.041 A 
ATOM     69  F   UNL     1      -2.373  15.323   7.215  1.00  0.00    -0.206 F 
ATOM     70  C   UNL     1      -0.508  18.017   5.685  1.00  0.00     0.022 A 
BRANCH  67  71
ATOM     71  S   UNL     1      -0.537  19.206   3.162  1.00  0.00     0.124 S 
ATOM     72  O   UNL     1      -0.315  18.233   2.095  1.00  0.00    -0.237 OA
ATOM     73  O   UNL     1      -1.617  20.160   2.943  1.00  0.00    -0.237 OA
ATOM     74  O   UNL     1       0.680  19.763   3.750  1.00  0.00    -0.744 OA
ENDBRANCH  67  71
ENDBRANCH  50  64
BRANCH  51  75
ATOM     75  C   UNL     1     -10.104   9.890   3.038  1.00  0.00     0.023 A 
ATOM     76  C   UNL     1     -11.420  10.286   2.750  1.00  0.00     0.031 A 
ATOM     77  C   UNL     1      -9.831   8.512   3.103  1.00  0.00     0.131 A 
ATOM     78  C   UNL     1     -12.423   9.318   2.587  1.00  0.00     0.055 A 
ATOM     79  C   UNL     1     -10.820   7.552   2.884  1.00  0.00     0.041 A 
ATOM     80  F   UNL     1      -8.588   8.077   3.368  1.00  0.00    -0.206 F 
ATOM     81  C   UNL     1     -12.129   7.954   2.638  1.00  0.00     0.022 A 
BRANCH  78  82
ATOM     82  S   UNL     1     -14.140   9.869   2.393  1.00  0.00     0.124 S 
ATOM     83  O   UNL     1     -14.342  10.646   3.611  1.00  0.00    -0.237 OA
ATOM     84  O   UNL     1     -14.074  10.630   1.150  1.00  0.00    -0.237 OA
ATOM     85  O   UNL     1     -14.891   8.618   2.317  1.00  0.00    -0.744 OA
ENDBRANCH  78  82
ENDBRANCH  51  75
BRANCH  63  86
ATOM     86  C   UNL     1      -9.224  14.714   7.997  1.00  0.00     0.023 A 
ATOM     87  C   UNL     1      -9.562  13.846   9.050  1.00  0.00     0.031 A 
ATOM     88  C   UNL     1      -9.760  16.014   8.015  1.00  0.00     0.131 A 
ATOM     89  C   UNL     1     -10.470  14.263  10.036  1.00  0.00     0.055 A 
ATOM     90  C   UNL     1     -10.605  16.447   9.038  1.00  0.00     0.041 A 
ATOM     91  F   UNL     1      -9.475  16.886   7.034  1.00  0.00    -0.206 F 
ATOM     92  C   UNL     1     -10.979  15.564  10.047  1.00  0.00     0.022 A 
BRANCH  89  93
ATOM     93  S   UNL     1     -11.071  13.043  11.236  1.00  0.00     0.124 S 
ATOM     94  O   UNL     1     -11.628  12.012  10.366  1.00  0.00    -0.237 OA
ATOM     95  O   UNL     1      -9.851  12.682  11.951  1.00  0.00    -0.237 OA
ATOM     96  O   UNL     1     -12.053  13.788  12.021  1.00  0.00    -0.744 OA
ENDBRANCH  89  93
ENDBRANCH  63  86
ENDBRANCH  37  38
ENDBRANCH  29  32
ENDBRANCH  27  28
ENDBRANCH  26  27
ENDBRANCH  25  26
ENDBRANCH   1  25
TORSDOF 19
