REMARK SMILES Nc1ccnc(N2CCC[C@](Cc3ccc(F)cc3)(C(=O)NCCCCCCNC(=O)c3ccc(-c4c5nc(c(-c6cc(S(=O)(=O)[O-])ccc6F)c6ccc([nH]6)c(-c6cc(S(=O)(=O)[O-])ccc6F)c6nc(c(-c7cc(S(=O)(=O)[O-])ccc7F)c7ccc4[nH]7)C=C6)C=C5)cc3)C2)n1
REMARK SMILES IDX 26 1 25 2 24 3 23 4 22 5 20 6 21 7 11 9 7 10 8 11 95 12 9 13
REMARK SMILES IDX 10 14 6 15 2 16 3 17 96 18 4 19 5 20 1 21 12 24 13 25 14 26
REMARK SMILES IDX 19 27 15 28 18 29 16 30 17 31 27 32 28 33 29 34 30 35 31 37
REMARK SMILES IDX 32 38 33 39 94 40 34 41 93 42 35 43 36 44 37 45 87 46 38 47
REMARK SMILES IDX 92 48 86 49 88 50 39 51 91 52 85 53 84 54 40 56 72 57 52 58
REMARK SMILES IDX 71 59 53 60 56 61 70 62 89 63 54 64 55 65 69 67 90 68 57 69
REMARK SMILES IDX 41 70 42 71 50 72 43 73 49 74 51 75 48 76 44 77 45 78 46 79
REMARK SMILES IDX 47 80 73 81 74 82 82 83 75 84 81 85 83 86 80 87 76 88 77 89
REMARK SMILES IDX 78 90 79 91 58 92 59 93 67 94 60 95 66 96 68 97 65 98 61 99
REMARK SMILES IDX 62 100 63 101 64 102
REMARK H PARENT 22 8 1 22 1 23 29 36 88 55 56 66
REMARK Flexibility Score: inf
ROOT
ATOM      1  C   UNL     1       2.688  -0.723  -2.341  1.00  0.00     0.002 C 
ENDROOT
BRANCH   1   2
ATOM      2  C   UNL     1       2.714  -1.749  -1.209  1.00  0.00     0.002 C 
BRANCH   2   3
ATOM      3  C   UNL     1       1.458  -2.580  -0.888  1.00  0.00     0.021 C 
BRANCH   3   4
ATOM      4  C   UNL     1       0.313  -2.642  -1.906  1.00  0.00     0.116 C 
BRANCH   4   5
ATOM      5  N   UNL     1      -0.153  -4.014  -2.066  1.00  0.00    -0.356 N 
ATOM      6  C   UNL     1      -1.064  -4.809  -1.471  1.00  0.00     0.228 C 
ATOM      7  O   UNL     1      -0.828  -6.019  -1.643  1.00  0.00    -0.274 OA
ATOM      8  H   UNL     1       0.318  -4.479  -2.795  1.00  0.00     0.163 HD
BRANCH   6   9
ATOM      9  C   UNL     1      -2.377  -4.410  -0.747  1.00  0.00     0.071 C 
ATOM     10  N   UNL     1      -1.780  -2.455   0.657  1.00  0.00    -0.340 N 
ATOM     11  C   UNL     1      -1.821  -3.191   1.911  1.00  0.00     0.120 C 
ATOM     12  C   UNL     1      -2.622  -2.916  -0.436  1.00  0.00     0.137 C 
ATOM     13  C   UNL     1      -1.467  -4.643   1.634  1.00  0.00     0.023 C 
ATOM     14  C   UNL     1      -2.413  -5.224   0.585  1.00  0.00     0.021 C 
BRANCH  10  15
ATOM     15  C   UNL     1      -1.475  -1.118   0.793  1.00  0.00     0.227 A 
ATOM     16  C   UNL     1       0.089   0.410   1.515  1.00  0.00     0.128 A 
ATOM     17  C   UNL     1      -0.621   1.449   0.976  1.00  0.00     0.067 A 
ATOM     18  N   UNL     1      -0.342  -0.847   1.457  1.00  0.00    -0.196 NA
ATOM     19  C   UNL     1      -1.786   1.099   0.336  1.00  0.00     0.119 A 
ATOM     20  N   UNL     1      -2.213  -0.174   0.197  1.00  0.00    -0.221 NA
BRANCH  16  21
ATOM     21  N   UNL     1       1.351   0.575   2.046  1.00  0.00    -0.384 N 
ATOM     22  H   UNL     1       1.739   1.476   2.122  1.00  0.00     0.158 HD
ATOM     23  H   UNL     1       1.863  -0.209   2.348  1.00  0.00     0.158 HD
ENDBRANCH  16  21
ENDBRANCH  10  15
BRANCH   9  24
ATOM     24  C   UNL     1      -3.482  -4.940  -1.736  1.00  0.00     0.054 C 
BRANCH  24  25
ATOM     25  C   UNL     1      -4.908  -5.020  -1.229  1.00  0.00    -0.047 A 
ATOM     26  C   UNL     1      -5.740  -3.892  -1.238  1.00  0.00     0.007 A 
ATOM     27  C   UNL     1      -5.414  -6.234  -0.732  1.00  0.00     0.007 A 
ATOM     28  C   UNL     1      -7.027  -3.958  -0.701  1.00  0.00     0.039 A 
ATOM     29  C   UNL     1      -6.708  -6.303  -0.213  1.00  0.00     0.039 A 
ATOM     30  C   UNL     1      -7.496  -5.160  -0.189  1.00  0.00     0.123 A 
ATOM     31  F   UNL     1      -8.728  -5.219   0.335  1.00  0.00    -0.207 F 
ENDBRANCH  24  25
ENDBRANCH   9  24
ENDBRANCH   6   9
ENDBRANCH   4   5
ENDBRANCH   3   4
ENDBRANCH   2   3
ENDBRANCH   1   2
BRANCH   1  32
ATOM     32  C   UNL     1       1.884   0.558  -2.112  1.00  0.00     0.021 C 
BRANCH  32  33
ATOM     33  C   UNL     1       2.462   1.619  -1.166  1.00  0.00     0.116 C 
BRANCH  33  34
ATOM     34  N   UNL     1       3.895   1.830  -1.226  1.00  0.00    -0.352 N 
ATOM     35  C   UNL     1       4.617   2.896  -0.744  1.00  0.00     0.251 C 
ATOM     36  H   UNL     1       4.417   1.122  -1.668  1.00  0.00     0.163 HD
ATOM     37  O   UNL     1       5.842   2.909  -0.862  1.00  0.00    -0.269 OA
BRANCH  35  38
ATOM     38  C   UNL     1       3.927   4.048  -0.121  1.00  0.00     0.039 A 
ATOM     39  C   UNL     1       4.143   5.319  -0.658  1.00  0.00     0.014 A 
ATOM     40  C   UNL     1       3.110   3.896   1.003  1.00  0.00     0.014 A 
ATOM     41  C   UNL     1       3.499   6.429  -0.102  1.00  0.00     0.010 A 
ATOM     42  C   UNL     1       2.436   5.003   1.535  1.00  0.00     0.010 A 
ATOM     43  C   UNL     1       2.616   6.282   0.982  1.00  0.00    -0.014 A 
BRANCH  43  44
ATOM     44  C   UNL     1       1.870   7.463   1.505  1.00  0.00     0.031 A 
ATOM     45  C   UNL     1       2.151   8.015   2.879  1.00  0.00     0.074 A 
ATOM     46  C   UNL     1       0.939   8.056   0.728  1.00  0.00     0.049 A 
ATOM     47  N   UNL     1       1.605   9.043   3.479  1.00  0.00    -0.248 NA
ATOM     48  C   UNL     1       3.166   7.321   3.685  1.00  0.00     0.031 C 
ATOM     49  C   UNL     1       0.565   7.618  -0.619  1.00  0.00     0.029 A 
ATOM     50  N   UNL     1       0.150   9.161   0.944  1.00  0.00    -0.354 N 
ATOM     51  C   UNL     1       2.217   9.129   4.725  1.00  0.00     0.074 A 
ATOM     52  C   UNL     1       3.137   8.015   4.816  1.00  0.00     0.031 C 
ATOM     53  C   UNL     1      -0.341   8.470  -1.124  1.00  0.00     0.029 A 
ATOM     54  C   UNL     1      -0.653   9.489  -0.126  1.00  0.00     0.049 A 
ATOM     55  H   UNL     1       0.158   9.671   1.786  1.00  0.00     0.167 HD
ATOM     56  C   UNL     1       2.047  10.064   5.692  1.00  0.00     0.034 A 
ATOM     57  C   UNL     1      -1.540  10.492  -0.292  1.00  0.00     0.034 A 
ATOM     58  C   UNL     1       1.141  11.181   5.595  1.00  0.00     0.049 A 
ATOM     59  C   UNL     1      -1.752  11.483   0.824  1.00  0.00     0.074 A 
ATOM     60  C   UNL     1       0.924  12.192   6.517  1.00  0.00     0.029 A 
ATOM     61  N   UNL     1       0.306  11.442   4.519  1.00  0.00    -0.354 N 
ATOM     62  N   UNL     1      -1.161  11.542   1.994  1.00  0.00    -0.248 NA
ATOM     63  C   UNL     1      -2.748  12.541   0.600  1.00  0.00     0.031 C 
ATOM     64  C   UNL     1      -0.085  13.025   6.029  1.00  0.00     0.029 A 
ATOM     65  C   UNL     1      -0.446  12.579   4.768  1.00  0.00     0.049 A 
ATOM     66  H   UNL     1       0.255  10.899   3.699  1.00  0.00     0.167 HD
ATOM     67  C   UNL     1      -1.692  12.660   2.630  1.00  0.00     0.074 A 
ATOM     68  C   UNL     1      -2.650  13.247   1.719  1.00  0.00     0.031 C 
ATOM     69  C   UNL     1      -1.402  13.158   3.857  1.00  0.00     0.034 A 
BRANCH  56  70
ATOM     70  C   UNL     1       2.856   9.931   6.957  1.00  0.00     0.023 A 
ATOM     71  C   UNL     1       4.242  10.159   6.963  1.00  0.00     0.031 A 
ATOM     72  C   UNL     1       2.223   9.650   8.180  1.00  0.00     0.131 A 
ATOM     73  C   UNL     1       4.956  10.079   8.168  1.00  0.00     0.055 A 
ATOM     74  C   UNL     1       2.929   9.628   9.384  1.00  0.00     0.041 A 
ATOM     75  F   UNL     1       0.902   9.414   8.227  1.00  0.00    -0.206 F 
ATOM     76  C   UNL     1       4.305   9.840   9.382  1.00  0.00     0.022 A 
BRANCH  73  77
ATOM     77  S   UNL     1       6.760  10.241   8.122  1.00  0.00     0.124 S 
ATOM     78  O   UNL     1       7.141   9.056   7.357  1.00  0.00    -0.237 OA
ATOM     79  O   UNL     1       6.948  11.522   7.451  1.00  0.00    -0.237 OA
ATOM     80  O   UNL     1       7.143  10.215   9.533  1.00  0.00    -0.744 OA
ENDBRANCH  73  77
ENDBRANCH  56  70
BRANCH  57  81
ATOM     81  C   UNL     1      -2.306  10.613  -1.566  1.00  0.00     0.023 A 
ATOM     82  C   UNL     1      -2.111  11.704  -2.427  1.00  0.00     0.031 A 
ATOM     83  C   UNL     1      -3.260   9.646  -1.930  1.00  0.00     0.131 A 
ATOM     84  C   UNL     1      -2.882  11.819  -3.595  1.00  0.00     0.055 A 
ATOM     85  C   UNL     1      -3.991   9.740  -3.115  1.00  0.00     0.041 A 
ATOM     86  F   UNL     1      -3.480   8.580  -1.143  1.00  0.00    -0.206 F 
ATOM     87  C   UNL     1      -3.810  10.837  -3.951  1.00  0.00     0.022 A 
BRANCH  84  88
ATOM     88  S   UNL     1      -2.692  13.301  -4.623  1.00  0.00     0.124 S 
ATOM     89  O   UNL     1      -3.118  14.352  -3.706  1.00  0.00    -0.237 OA
ATOM     90  O   UNL     1      -1.270  13.267  -4.947  1.00  0.00    -0.237 OA
ATOM     91  O   UNL     1      -3.591  13.051  -5.748  1.00  0.00    -0.744 OA
ENDBRANCH  84  88
ENDBRANCH  57  81
BRANCH  69  92
ATOM     92  C   UNL     1      -2.095  14.425   4.286  1.00  0.00     0.023 A 
ATOM     93  C   UNL     1      -3.455  14.439   4.634  1.00  0.00     0.031 A 
ATOM     94  C   UNL     1      -1.361  15.618   4.415  1.00  0.00     0.131 A 
ATOM     95  C   UNL     1      -4.047  15.632   5.079  1.00  0.00     0.055 A 
ATOM     96  C   UNL     1      -1.944  16.789   4.901  1.00  0.00     0.041 A 
ATOM     97  F   UNL     1      -0.057  15.654   4.099  1.00  0.00    -0.206 F 
ATOM     98  C   UNL     1      -3.296  16.800   5.232  1.00  0.00     0.022 A 
BRANCH  95  99
ATOM     99  S   UNL     1      -5.824  15.643   5.441  1.00  0.00     0.124 S 
ATOM    100  O   UNL     1      -6.402  15.396   4.125  1.00  0.00    -0.237 OA
ATOM    101  O   UNL     1      -5.957  14.558   6.409  1.00  0.00    -0.237 OA
ATOM    102  O   UNL     1      -6.056  16.982   5.980  1.00  0.00    -0.744 OA
ENDBRANCH  95  99
ENDBRANCH  69  92
ENDBRANCH  43  44
ENDBRANCH  35  38
ENDBRANCH  33  34
ENDBRANCH  32  33
ENDBRANCH   1  32
TORSDOF 20
