REMARK SMILES O=C(NCCCCCCNC(=O)[C@@H]1[C@@H](C(=O)Nc2cccc([N+](=O)[O-])c2)[C@@H]2C=C[C@H]1O2)c1ccc(-c2c3nc(c(-c4cc(S(=O)(=O)[O-])ccc4F)c4ccc([nH]4)c(-c4cc(S(=O)(=O)[O-])ccc4F)c4nc(c(-c5cc(S(=O)(=O)[O-])ccc5F)c5ccc2[nH]5)C=C4)C=C3)cc1
REMARK SMILES IDX 6 1 5 2 4 3 3 4 1 5 2 6 32 8 33 9 94 10 34 11 93 12 35 13
REMARK SMILES IDX 36 14 37 15 87 16 38 17 92 18 86 19 88 20 39 21 91 22 85 23
REMARK SMILES IDX 84 24 40 26 72 27 52 28 71 29 53 30 56 31 70 32 89 33 54 34
REMARK SMILES IDX 55 35 69 37 90 38 57 39 41 40 42 41 50 42 43 43 49 44 51 45
REMARK SMILES IDX 48 46 44 47 45 48 46 49 47 50 73 51 74 52 82 53 75 54 81 55
REMARK SMILES IDX 83 56 80 57 76 58 77 59 78 60 79 61 58 62 59 63 67 64 60 65
REMARK SMILES IDX 66 66 68 67 65 68 61 69 62 70 63 71 64 72 7 73 8 74 9 75
REMARK SMILES IDX 10 76 11 77 12 79 13 80 14 81 30 82 27 83 29 84 31 85 28 86
REMARK SMILES IDX 15 87 16 88 17 89 18 91 19 92 26 93 20 94 22 95 21 96 23 97
REMARK SMILES IDX 24 98 25 99
REMARK H PARENT 3 7 88 25 56 36 10 78 17 90
REMARK Flexibility Score: inf
ROOT
ATOM      1  C   UNL     1       3.864   3.703   1.063  1.00  0.00     0.002 C 
ENDROOT
BRANCH   1   2
ATOM      2  C   UNL     1       4.496   2.652   0.147  1.00  0.00     0.021 C 
BRANCH   2   3
ATOM      3  C   UNL     1       4.308   1.214   0.602  1.00  0.00     0.116 C 
BRANCH   3   4
ATOM      4  N   UNL     1       2.906   0.853   0.685  1.00  0.00    -0.352 N 
ATOM      5  O   UNL     1       1.026  -0.206   0.037  1.00  0.00    -0.269 OA
ATOM      6  C   UNL     1       2.248  -0.159   0.032  1.00  0.00     0.251 C 
ATOM      7  H   UNL     1       2.356   1.405   1.287  1.00  0.00     0.163 HD
BRANCH   6   8
ATOM      8  C   UNL     1       3.043  -1.184  -0.677  1.00  0.00     0.039 A 
ATOM      9  C   UNL     1       4.154  -1.763  -0.055  1.00  0.00     0.014 A 
ATOM     10  C   UNL     1       2.663  -1.577  -1.961  1.00  0.00     0.014 A 
ATOM     11  C   UNL     1       4.942  -2.666  -0.754  1.00  0.00     0.010 A 
ATOM     12  C   UNL     1       3.405  -2.556  -2.627  1.00  0.00     0.010 A 
ATOM     13  C   UNL     1       4.547  -3.109  -2.026  1.00  0.00    -0.014 A 
BRANCH  13  14
ATOM     14  C   UNL     1       5.251  -4.263  -2.634  1.00  0.00     0.031 A 
ATOM     15  C   UNL     1       6.027  -4.126  -3.910  1.00  0.00     0.074 A 
ATOM     16  C   UNL     1       5.163  -5.451  -2.000  1.00  0.00     0.049 A 
ATOM     17  N   UNL     1       6.665  -5.048  -4.582  1.00  0.00    -0.248 NA
ATOM     18  C   UNL     1       6.092  -2.788  -4.517  1.00  0.00     0.031 C 
ATOM     19  C   UNL     1       4.422  -5.685  -0.755  1.00  0.00     0.029 A 
ATOM     20  N   UNL     1       5.693  -6.678  -2.300  1.00  0.00    -0.354 N 
ATOM     21  C   UNL     1       7.192  -4.414  -5.700  1.00  0.00     0.074 A 
ATOM     22  C   UNL     1       6.787  -3.026  -5.623  1.00  0.00     0.031 C 
ATOM     23  C   UNL     1       4.572  -6.963  -0.383  1.00  0.00     0.029 A 
ATOM     24  C   UNL     1       5.340  -7.662  -1.404  1.00  0.00     0.049 A 
ATOM     25  H   UNL     1       6.271  -6.841  -3.080  1.00  0.00     0.167 HD
ATOM     26  C   UNL     1       7.941  -4.952  -6.694  1.00  0.00     0.034 A 
ATOM     27  C   UNL     1       5.567  -8.989  -1.423  1.00  0.00     0.034 A 
ATOM     28  C   UNL     1       8.333  -6.341  -6.739  1.00  0.00     0.049 A 
ATOM     29  C   UNL     1       6.354  -9.559  -2.572  1.00  0.00     0.074 A 
ATOM     30  C   UNL     1       9.148  -6.973  -7.663  1.00  0.00     0.029 A 
ATOM     31  N   UNL     1       7.924  -7.318  -5.840  1.00  0.00    -0.354 N 
ATOM     32  N   UNL     1       6.897  -8.930  -3.591  1.00  0.00    -0.248 NA
ATOM     33  C   UNL     1       6.560 -11.011  -2.578  1.00  0.00     0.031 C 
ATOM     34  C   UNL     1       9.160  -8.341  -7.375  1.00  0.00     0.029 A 
ATOM     35  C   UNL     1       8.424  -8.555  -6.221  1.00  0.00     0.049 A 
ATOM     36  H   UNL     1       7.361  -7.157  -5.049  1.00  0.00     0.167 HD
ATOM     37  C   UNL     1       7.520  -9.914  -4.350  1.00  0.00     0.074 A 
ATOM     38  C   UNL     1       7.318 -11.167  -3.652  1.00  0.00     0.031 C 
ATOM     39  C   UNL     1       8.194  -9.797  -5.522  1.00  0.00     0.034 A 
BRANCH  26  40
ATOM     40  C   UNL     1       8.348  -4.064  -7.843  1.00  0.00     0.023 A 
ATOM     41  C   UNL     1       9.259  -3.006  -7.687  1.00  0.00     0.031 A 
ATOM     42  C   UNL     1       7.851  -4.321  -9.135  1.00  0.00     0.131 A 
ATOM     43  C   UNL     1       9.622  -2.227  -8.797  1.00  0.00     0.055 A 
ATOM     44  C   UNL     1       8.263  -3.582 -10.245  1.00  0.00     0.041 A 
ATOM     45  F   UNL     1       6.962  -5.306  -9.339  1.00  0.00    -0.206 F 
ATOM     46  C   UNL     1       9.150  -2.524 -10.079  1.00  0.00     0.022 A 
BRANCH  43  47
ATOM     47  S   UNL     1      10.658  -0.762  -8.533  1.00  0.00     0.124 S 
ATOM     48  O   UNL     1       9.830   0.027  -7.624  1.00  0.00    -0.237 OA
ATOM     49  O   UNL     1      11.871  -1.331  -7.958  1.00  0.00    -0.237 OA
ATOM     50  O   UNL     1      10.808  -0.200  -9.874  1.00  0.00    -0.744 OA
ENDBRANCH  43  47
ENDBRANCH  26  40
BRANCH  27  51
ATOM     51  C   UNL     1       4.989  -9.875  -0.372  1.00  0.00     0.023 A 
ATOM     52  C   UNL     1       5.812 -10.673   0.435  1.00  0.00     0.031 A 
ATOM     53  C   UNL     1       3.595  -9.990  -0.207  1.00  0.00     0.131 A 
ATOM     54  C   UNL     1       5.237 -11.598   1.320  1.00  0.00     0.055 A 
ATOM     55  C   UNL     1       3.030 -10.856   0.729  1.00  0.00     0.041 A 
ATOM     56  F   UNL     1       2.757  -9.253  -0.954  1.00  0.00    -0.206 F 
ATOM     57  C   UNL     1       3.853 -11.683   1.485  1.00  0.00     0.022 A 
BRANCH  54  58
ATOM     58  S   UNL     1       6.325 -12.787   2.151  1.00  0.00     0.124 S 
ATOM     59  O   UNL     1       7.035 -13.377   1.021  1.00  0.00    -0.237 OA
ATOM     60  O   UNL     1       7.112 -11.918   3.020  1.00  0.00    -0.237 OA
ATOM     61  O   UNL     1       5.393 -13.678   2.837  1.00  0.00    -0.744 OA
ENDBRANCH  54  58
ENDBRANCH  27  51
BRANCH  39  62
ATOM     62  C   UNL     1       8.773 -11.064  -6.098  1.00  0.00     0.023 A 
ATOM     63  C   UNL     1       7.947 -12.104  -6.559  1.00  0.00     0.031 A 
ATOM     64  C   UNL     1      10.165 -11.244  -6.165  1.00  0.00     0.131 A 
ATOM     65  C   UNL     1       8.519 -13.302  -7.010  1.00  0.00     0.055 A 
ATOM     66  C   UNL     1      10.730 -12.411  -6.679  1.00  0.00     0.041 A 
ATOM     67  F   UNL     1      11.000 -10.285  -5.734  1.00  0.00    -0.206 F 
ATOM     68  C   UNL     1       9.905 -13.454  -7.092  1.00  0.00     0.022 A 
BRANCH  65  69
ATOM     69  S   UNL     1       7.425 -14.695  -7.398  1.00  0.00     0.124 S 
ATOM     70  O   UNL     1       6.758 -14.920  -6.120  1.00  0.00    -0.237 OA
ATOM     71  O   UNL     1       6.592 -14.151  -8.465  1.00  0.00    -0.237 OA
ATOM     72  O   UNL     1       8.348 -15.751  -7.811  1.00  0.00    -0.744 OA
ENDBRANCH  65  69
ENDBRANCH  39  62
ENDBRANCH  13  14
ENDBRANCH   6   8
ENDBRANCH   3   4
ENDBRANCH   2   3
ENDBRANCH   1   2
BRANCH   1  73
ATOM     73  C   UNL     1       4.259   3.620   2.539  1.00  0.00     0.002 C 
BRANCH  73  74
ATOM     74  C   UNL     1       5.755   3.500   2.808  1.00  0.00     0.021 C 
BRANCH  74  75
ATOM     75  C   UNL     1       6.623   4.520   2.084  1.00  0.00     0.116 C 
BRANCH  75  76
ATOM     76  N   UNL     1       6.571   5.840   2.675  1.00  0.00    -0.356 N 
ATOM     77  C   UNL     1       7.525   6.700   3.104  1.00  0.00     0.227 C 
ATOM     78  H   UNL     1       5.655   6.183   2.788  1.00  0.00     0.163 HD
ATOM     79  O   UNL     1       7.119   7.814   3.466  1.00  0.00    -0.275 OA
BRANCH  77  80
ATOM     80  C   UNL     1       8.997   6.379   3.296  1.00  0.00     0.127 C 
ATOM     81  C   UNL     1       9.785   5.449   2.341  1.00  0.00     0.127 C 
ATOM     82  C   UNL     1       9.203   5.699   4.662  1.00  0.00     0.155 C 
ATOM     83  C   UNL     1      10.335   4.404   3.320  1.00  0.00     0.155 C 
ATOM     84  C   UNL     1       8.567   4.350   4.761  1.00  0.00     0.004 C 
ATOM     85  O   UNL     1      10.560   5.231   4.496  1.00  0.00    -0.365 OA
ATOM     86  C   UNL     1       9.251   3.554   3.924  1.00  0.00     0.004 C 
BRANCH  81  87
ATOM     87  C   UNL     1      10.773   6.165   1.407  1.00  0.00     0.231 C 
ATOM     88  O   UNL     1      10.550   6.113   0.188  1.00  0.00    -0.274 OA
ATOM     89  N   UNL     1      11.794   6.989   1.771  1.00  0.00    -0.325 N 
ATOM     90  H   UNL     1      12.177   7.513   1.031  1.00  0.00     0.169 HD
BRANCH  89  91
ATOM     91  C   UNL     1      12.391   7.221   3.008  1.00  0.00     0.048 A 
ATOM     92  C   UNL     1      12.488   8.537   3.462  1.00  0.00     0.026 A 
ATOM     93  C   UNL     1      12.880   6.181   3.787  1.00  0.00     0.111 A 
ATOM     94  C   UNL     1      12.889   8.792   4.776  1.00  0.00     0.009 A 
ATOM     95  C   UNL     1      13.204   6.428   5.123  1.00  0.00     0.271 A 
ATOM     96  C   UNL     1      13.204   7.733   5.628  1.00  0.00     0.086 A 
BRANCH  95  97
ATOM     97  N   UNL     1      13.417   5.292   6.025  1.00  0.00     0.062 N 
ATOM     98  O   UNL     1      13.348   5.508   7.245  1.00  0.00    -0.258 OA
ATOM     99  O   UNL     1      13.662   4.187   5.519  1.00  0.00    -0.258 OA
ENDBRANCH  95  97
ENDBRANCH  89  91
ENDBRANCH  81  87
ENDBRANCH  77  80
ENDBRANCH  75  76
ENDBRANCH  74  75
ENDBRANCH  73  74
ENDBRANCH   1  73
TORSDOF 19
