REMARK SMILES Cc1cc(C(=O)NCCCCCCNC(=O)c2ccc(-c3c4nc(c(-c5cc(S(=O)(=O)[O-])ccc5F)c5ccc([nH]5)c(-c5cc(S(=O)(=O)[O-])ccc5F)c5nc(c(-c6cc(S(=O)(=O)[O-])ccc6F)c6ccc3[nH]6)C=C5)C=C4)cc2)ccc1NS(=O)(=O)c1ccc(C#N)cc1C
REMARK SMILES IDX 10 1 9 2 8 3 7 4 5 5 6 6 4 8 1 9 2 10 3 11 82 12 81 13 80 14
REMARK SMILES IDX 83 15 84 17 85 18 86 19 87 20 88 21 94 22 89 23 93 24 95 25
REMARK SMILES IDX 90 26 91 27 92 28 11 29 12 30 13 31 14 32 15 33 16 35 17 36
REMARK SMILES IDX 18 37 79 38 19 39 78 40 20 41 21 42 22 43 72 44 23 45 77 46
REMARK SMILES IDX 71 47 73 48 24 49 76 50 70 51 69 52 25 54 57 55 37 56 56 57
REMARK SMILES IDX 38 58 41 59 55 60 74 61 39 62 40 63 54 65 75 66 42 67 26 68
REMARK SMILES IDX 27 69 35 70 28 71 34 72 36 73 33 74 29 75 30 76 31 77 32 78
REMARK SMILES IDX 58 79 59 80 67 81 60 82 66 83 68 84 65 85 61 86 62 87 63 88
REMARK SMILES IDX 64 89 43 90 44 91 52 92 45 93 51 94 53 95 50 96 46 97 47 98
REMARK SMILES IDX 48 99 49 100
REMARK H PARENT 7 7 83 16 14 34 73 53 41 64
REMARK Flexibility Score: inf
ROOT
ATOM      1  C   UNL     1      -5.863  -2.506  -1.047  1.00  0.00     0.002 C 
ENDROOT
BRANCH   1   2
ATOM      2  C   UNL     1      -4.780  -1.421  -1.018  1.00  0.00     0.021 C 
BRANCH   2   3
ATOM      3  C   UNL     1      -3.841  -1.516   0.184  1.00  0.00     0.116 C 
BRANCH   3   4
ATOM      4  N   UNL     1      -2.886  -2.599   0.032  1.00  0.00    -0.352 N 
ATOM      5  C   UNL     1      -1.534  -2.585  -0.210  1.00  0.00     0.251 C 
ATOM      6  O   UNL     1      -0.897  -3.634  -0.123  1.00  0.00    -0.269 OA
ATOM      7  H   UNL     1      -3.274  -3.499   0.117  1.00  0.00     0.163 HD
BRANCH   5   8
ATOM      8  C   UNL     1      -0.802  -1.317  -0.476  1.00  0.00     0.040 A 
ATOM      9  C   UNL     1       2.650   0.030   0.280  1.00  0.00     0.046 C 
ATOM     10  C   UNL     1       1.177   0.030  -0.028  1.00  0.00    -0.026 A 
ATOM     11  C   UNL     1       0.509  -1.206  -0.006  1.00  0.00     0.019 A 
ATOM     12  C   UNL     1       0.472   1.177  -0.434  1.00  0.00     0.052 A 
ATOM     13  C   UNL     1      -0.702   1.003  -1.162  1.00  0.00     0.028 A 
ATOM     14  C   UNL     1      -1.337  -0.244  -1.185  1.00  0.00     0.016 A 
BRANCH  12  15
ATOM     15  N   UNL     1       0.729   2.389   0.283  1.00  0.00    -0.279 N 
ATOM     16  H   UNL     1       1.415   2.332   0.986  1.00  0.00     0.180 HD
BRANCH  15  17
ATOM     17  S   UNL     1       0.018   3.891   0.084  1.00  0.00     0.262 S 
ATOM     18  O   UNL     1       0.560   4.691   1.167  1.00  0.00    -0.201 OA
ATOM     19  O   UNL     1       0.213   4.278  -1.296  1.00  0.00    -0.201 OA
BRANCH  17  20
ATOM     20  C   UNL     1      -1.758   3.822   0.372  1.00  0.00     0.090 A 
ATOM     21  C   UNL     1      -2.385   2.635   0.767  1.00  0.00     0.024 A 
ATOM     22  C   UNL     1      -2.551   4.937   0.019  1.00  0.00    -0.029 A 
ATOM     23  C   UNL     1      -3.773   2.488   0.623  1.00  0.00     0.021 A 
ATOM     24  C   UNL     1      -3.947   4.774  -0.105  1.00  0.00     0.024 A 
ATOM     25  C   UNL     1      -2.015   6.334  -0.153  1.00  0.00     0.046 C 
ATOM     26  C   UNL     1      -4.551   3.542   0.144  1.00  0.00     0.052 A 
BRANCH  26  27
ATOM     27  C   UNL     1      -5.963   3.362  -0.083  1.00  0.00     0.099 C 
ATOM     28  N   UNL     1      -7.091   3.210  -0.266  1.00  0.00    -0.192 NA
ENDBRANCH  26  27
ENDBRANCH  17  20
ENDBRANCH  15  17
ENDBRANCH  12  15
ENDBRANCH   5   8
ENDBRANCH   3   4
ENDBRANCH   2   3
ENDBRANCH   1   2
BRANCH   1  29
ATOM     29  C   UNL     1      -6.750  -2.593   0.204  1.00  0.00     0.002 C 
BRANCH  29  30
ATOM     30  C   UNL     1      -7.429  -1.292   0.614  1.00  0.00     0.021 C 
BRANCH  30  31
ATOM     31  C   UNL     1      -8.500  -0.829  -0.356  1.00  0.00     0.116 C 
BRANCH  31  32
ATOM     32  N   UNL     1      -9.810  -1.424  -0.138  1.00  0.00    -0.352 N 
ATOM     33  C   UNL     1     -11.053  -0.983  -0.560  1.00  0.00     0.251 C 
ATOM     34  H   UNL     1      -9.813  -2.259   0.385  1.00  0.00     0.163 HD
ATOM     35  O   UNL     1     -12.087  -1.424  -0.061  1.00  0.00    -0.269 OA
BRANCH  33  36
ATOM     36  C   UNL     1     -11.155  -0.159  -1.798  1.00  0.00     0.039 A 
ATOM     37  C   UNL     1     -12.128  -0.578  -2.722  1.00  0.00     0.014 A 
ATOM     38  C   UNL     1     -10.081   0.603  -2.228  1.00  0.00     0.014 A 
ATOM     39  C   UNL     1     -11.827  -0.555  -4.073  1.00  0.00     0.010 A 
ATOM     40  C   UNL     1      -9.683   0.447  -3.522  1.00  0.00     0.010 A 
ATOM     41  C   UNL     1     -10.536  -0.190  -4.420  1.00  0.00    -0.014 A 
BRANCH  41  42
ATOM     42  C   UNL     1     -10.000  -0.211  -5.756  1.00  0.00     0.031 A 
ATOM     43  C   UNL     1     -10.255   1.015  -6.521  1.00  0.00     0.074 A 
ATOM     44  C   UNL     1      -9.133  -1.203  -6.051  1.00  0.00     0.049 A 
ATOM     45  N   UNL     1     -10.130   1.121  -7.785  1.00  0.00    -0.248 NA
ATOM     46  C   UNL     1     -10.745   2.252  -5.897  1.00  0.00     0.031 C 
ATOM     47  C   UNL     1      -8.175  -1.325  -7.140  1.00  0.00     0.029 A 
ATOM     48  N   UNL     1      -9.143  -2.477  -5.477  1.00  0.00    -0.354 N 
ATOM     49  C   UNL     1     -10.154   2.467  -8.082  1.00  0.00     0.074 A 
ATOM     50  C   UNL     1     -10.687   3.112  -6.915  1.00  0.00     0.031 C 
ATOM     51  C   UNL     1      -7.950  -2.635  -7.371  1.00  0.00     0.029 A 
ATOM     52  C   UNL     1      -8.866  -3.383  -6.524  1.00  0.00     0.049 A 
ATOM     53  H   UNL     1      -9.310  -2.698  -4.532  1.00  0.00     0.167 HD
ATOM     54  C   UNL     1      -9.546   2.861  -9.231  1.00  0.00     0.034 A 
ATOM     55  C   UNL     1      -9.889  -4.183  -6.964  1.00  0.00     0.034 A 
ATOM     56  C   UNL     1      -9.068   1.675  -9.947  1.00  0.00     0.049 A 
ATOM     57  C   UNL     1     -10.385  -3.756  -8.341  1.00  0.00     0.074 A 
ATOM     58  C   UNL     1      -7.864   0.996  -9.985  1.00  0.00     0.029 A 
ATOM     59  N   UNL     1     -10.019   0.796 -10.414  1.00  0.00    -0.354 N 
ATOM     60  N   UNL     1     -10.066  -2.626  -8.920  1.00  0.00    -0.248 NA
ATOM     61  C   UNL     1     -11.289  -4.556  -9.161  1.00  0.00     0.031 C 
ATOM     62  C   UNL     1      -8.143  -0.347 -10.400  1.00  0.00     0.029 A 
ATOM     63  C   UNL     1      -9.503  -0.459 -10.636  1.00  0.00     0.049 A 
ATOM     64  H   UNL     1     -10.960   1.038 -10.571  1.00  0.00     0.167 HD
ATOM     65  C   UNL     1     -10.652  -2.544 -10.152  1.00  0.00     0.074 A 
ATOM     66  C   UNL     1     -11.463  -3.754 -10.227  1.00  0.00     0.031 C 
ATOM     67  C   UNL     1     -10.430  -1.509 -11.025  1.00  0.00     0.034 A 
BRANCH  54  68
ATOM     68  C   UNL     1      -9.171   4.256  -9.644  1.00  0.00     0.023 A 
ATOM     69  C   UNL     1      -8.245   4.370 -10.698  1.00  0.00     0.031 A 
ATOM     70  C   UNL     1      -9.614   5.474  -9.095  1.00  0.00     0.131 A 
ATOM     71  C   UNL     1      -7.769   5.611 -11.139  1.00  0.00     0.055 A 
ATOM     72  C   UNL     1      -9.133   6.720  -9.529  1.00  0.00     0.041 A 
ATOM     73  F   UNL     1     -10.547   5.537  -8.140  1.00  0.00    -0.206 F 
ATOM     74  C   UNL     1      -8.202   6.795 -10.555  1.00  0.00     0.022 A 
BRANCH  71  75
ATOM     75  S   UNL     1      -6.566   5.627 -12.489  1.00  0.00     0.124 S 
ATOM     76  O   UNL     1      -5.445   4.896 -11.907  1.00  0.00    -0.237 OA
ATOM     77  O   UNL     1      -7.294   4.950 -13.557  1.00  0.00    -0.237 OA
ATOM     78  O   UNL     1      -6.327   7.052 -12.710  1.00  0.00    -0.744 OA
ENDBRANCH  71  75
ENDBRANCH  54  68
BRANCH  55  79
ATOM     79  C   UNL     1     -10.736  -4.641  -5.799  1.00  0.00     0.023 A 
ATOM     80  C   UNL     1     -10.034  -5.249  -4.725  1.00  0.00     0.031 A 
ATOM     81  C   UNL     1     -11.953  -4.014  -5.503  1.00  0.00     0.131 A 
ATOM     82  C   UNL     1     -10.385  -4.941  -3.399  1.00  0.00     0.055 A 
ATOM     83  C   UNL     1     -12.364  -3.825  -4.175  1.00  0.00     0.041 A 
ATOM     84  F   UNL     1     -12.678  -3.430  -6.469  1.00  0.00    -0.206 F 
ATOM     85  C   UNL     1     -11.540  -4.215  -3.118  1.00  0.00     0.022 A 
BRANCH  82  86
ATOM     86  S   UNL     1      -9.128  -5.186  -2.103  1.00  0.00     0.124 S 
ATOM     87  O   UNL     1      -9.155  -6.631  -1.913  1.00  0.00    -0.237 OA
ATOM     88  O   UNL     1      -7.924  -4.647  -2.733  1.00  0.00    -0.237 OA
ATOM     89  O   UNL     1      -9.618  -4.395  -0.974  1.00  0.00    -0.744 OA
ENDBRANCH  82  86
ENDBRANCH  55  79
BRANCH  67  90
ATOM     90  C   UNL     1     -11.126  -1.403 -12.357  1.00  0.00     0.023 A 
ATOM     91  C   UNL     1     -11.371  -2.545 -13.117  1.00  0.00     0.031 A 
ATOM     92  C   UNL     1     -11.551  -0.175 -12.923  1.00  0.00     0.131 A 
ATOM     93  C   UNL     1     -12.168  -2.475 -14.264  1.00  0.00     0.055 A 
ATOM     94  C   UNL     1     -12.218  -0.094 -14.144  1.00  0.00     0.041 A 
ATOM     95  F   UNL     1     -11.404   1.001 -12.298  1.00  0.00    -0.206 F 
ATOM     96  C   UNL     1     -12.572  -1.256 -14.804  1.00  0.00     0.022 A 
BRANCH  93  97
ATOM     97  S   UNL     1     -12.809  -4.028 -14.921  1.00  0.00     0.124 S 
ATOM     98  O   UNL     1     -11.597  -4.815 -15.120  1.00  0.00    -0.237 OA
ATOM     99  O   UNL     1     -13.676  -4.468 -13.829  1.00  0.00    -0.237 OA
ATOM    100  O   UNL     1     -13.503  -3.624 -16.141  1.00  0.00    -0.744 OA
ENDBRANCH  93  97
ENDBRANCH  67  90
ENDBRANCH  41  42
ENDBRANCH  33  36
ENDBRANCH  31  32
ENDBRANCH  30  31
ENDBRANCH  29  30
ENDBRANCH   1  29
TORSDOF 20
