REMARK SMILES Nc1ccc2[nH]cc(C(=O)NCCCCCCNC(=O)c3ccc(-c4c5nc(c(-c6cc(S(=O)(=O)[O-])ccc6F)c6ccc([nH]6)c(-c6cc(S(=O)(=O)[O-])ccc6F)c6nc(c(-c7cc(S(=O)(=O)[O-])ccc7F)c7ccc4[nH]7)C=C6)C=C5)cc3)c2c1
REMARK SMILES IDX 15 1 14 2 13 3 12 4 11 5 9 6 10 7 8 9 2 10 3 11 85 12 4 13
REMARK SMILES IDX 84 14 5 15 6 16 7 17 1 19 16 22 17 23 18 24 19 25 20 27
REMARK SMILES IDX 21 28 22 29 83 30 23 31 82 32 24 33 25 34 26 35 76 36 27 37
REMARK SMILES IDX 81 38 75 39 77 40 28 41 80 42 74 43 73 44 29 46 61 47 41 48
REMARK SMILES IDX 60 49 42 50 45 51 59 52 78 53 43 54 44 55 58 57 79 58 46 59
REMARK SMILES IDX 30 60 31 61 39 62 32 63 38 64 40 65 37 66 33 67 34 68 35 69
REMARK SMILES IDX 36 70 62 71 63 72 71 73 64 74 70 75 72 76 69 77 65 78 66 79
REMARK SMILES IDX 67 80 68 81 47 82 48 83 56 84 49 85 55 86 57 87 54 88 50 89
REMARK SMILES IDX 51 90 52 91 53 92
REMARK H PARENT 11 8 6 18 1 20 1 21 18 26 77 45 45 56
REMARK Flexibility Score: inf
ROOT
ATOM      1  C   UNL     1      -2.383   0.830   4.429  1.00  0.00     0.002 C 
ENDROOT
BRANCH   1   2
ATOM      2  C   UNL     1      -2.295   2.345   4.215  1.00  0.00     0.002 C 
BRANCH   2   3
ATOM      3  C   UNL     1      -1.559   2.834   2.970  1.00  0.00     0.021 C 
BRANCH   3   4
ATOM      4  C   UNL     1      -2.034   2.291   1.631  1.00  0.00     0.116 C 
BRANCH   4   5
ATOM      5  N   UNL     1      -3.271   2.840   1.136  1.00  0.00    -0.352 N 
ATOM      6  C   UNL     1      -3.653   3.143  -0.151  1.00  0.00     0.253 C 
ATOM      7  O   UNL     1      -4.785   3.619  -0.284  1.00  0.00    -0.269 OA
ATOM      8  H   UNL     1      -3.948   3.027   1.825  1.00  0.00     0.163 HD
BRANCH   6   9
ATOM      9  C   UNL     1      -2.751   3.025  -1.309  1.00  0.00     0.065 A 
ATOM     10  C   UNL     1       0.354   0.731  -1.467  1.00  0.00     0.032 A 
ATOM     11  C   UNL     1       0.869   1.285  -2.632  1.00  0.00     0.027 A 
ATOM     12  C   UNL     1      -0.922   1.116  -1.038  1.00  0.00     0.036 A 
ATOM     13  C   UNL     1       0.158   2.247  -3.356  1.00  0.00     0.029 A 
ATOM     14  C   UNL     1      -1.600   2.209  -1.632  1.00  0.00     0.014 A 
ATOM     15  C   UNL     1      -1.055   2.700  -2.823  1.00  0.00     0.046 A 
ATOM     16  N   UNL     1      -1.931   3.632  -3.315  1.00  0.00    -0.360 N 
ATOM     17  C   UNL     1      -2.937   3.842  -2.421  1.00  0.00     0.097 A 
ATOM     18  H   UNL     1      -1.845   4.083  -4.186  1.00  0.00     0.166 HD
BRANCH  10  19
ATOM     19  N   UNL     1       1.061  -0.234  -0.771  1.00  0.00    -0.399 N 
ATOM     20  H   UNL     1       1.958  -0.503  -1.075  1.00  0.00     0.156 HD
ATOM     21  H   UNL     1       0.667  -0.653   0.029  1.00  0.00     0.156 HD
ENDBRANCH  10  19
ENDBRANCH   6   9
ENDBRANCH   4   5
ENDBRANCH   3   4
ENDBRANCH   2   3
ENDBRANCH   1   2
BRANCH   1  22
ATOM     22  C   UNL     1      -1.084   0.021   4.325  1.00  0.00     0.021 C 
BRANCH  22  23
ATOM     23  C   UNL     1       0.114   0.553   5.113  1.00  0.00     0.116 C 
BRANCH  23  24
ATOM     24  N   UNL     1      -0.149   0.821   6.509  1.00  0.00    -0.352 N 
ATOM     25  C   UNL     1      -0.148   0.081   7.657  1.00  0.00     0.251 C 
ATOM     26  H   UNL     1      -0.384   1.763   6.672  1.00  0.00     0.163 HD
ATOM     27  O   UNL     1      -0.309   0.719   8.702  1.00  0.00    -0.269 OA
BRANCH  25  28
ATOM     28  C   UNL     1      -0.032  -1.401   7.727  1.00  0.00     0.039 A 
ATOM     29  C   UNL     1       0.278  -2.245   6.660  1.00  0.00     0.014 A 
ATOM     30  C   UNL     1      -0.305  -1.980   8.982  1.00  0.00     0.014 A 
ATOM     31  C   UNL     1       0.214  -3.627   6.814  1.00  0.00     0.010 A 
ATOM     32  C   UNL     1      -0.346  -3.361   9.148  1.00  0.00     0.010 A 
ATOM     33  C   UNL     1      -0.136  -4.184   8.047  1.00  0.00    -0.014 A 
BRANCH  33  34
ATOM     34  C   UNL     1      -0.211  -5.640   8.136  1.00  0.00     0.031 A 
ATOM     35  C   UNL     1       1.068  -6.361   7.895  1.00  0.00     0.074 A 
ATOM     36  C   UNL     1      -1.326  -6.306   8.496  1.00  0.00     0.049 A 
ATOM     37  N   UNL     1       1.377  -7.141   6.911  1.00  0.00    -0.248 NA
ATOM     38  C   UNL     1       2.184  -6.081   8.808  1.00  0.00     0.031 C 
ATOM     39  C   UNL     1      -2.550  -5.744   9.077  1.00  0.00     0.029 A 
ATOM     40  N   UNL     1      -1.559  -7.651   8.520  1.00  0.00    -0.354 N 
ATOM     41  C   UNL     1       2.667  -7.607   7.176  1.00  0.00     0.074 A 
ATOM     42  C   UNL     1       3.164  -6.804   8.264  1.00  0.00     0.031 C 
ATOM     43  C   UNL     1      -3.285  -6.744   9.613  1.00  0.00     0.029 A 
ATOM     44  C   UNL     1      -2.671  -8.013   9.264  1.00  0.00     0.049 A 
ATOM     45  H   UNL     1      -0.989  -8.303   8.053  1.00  0.00     0.167 HD
ATOM     46  C   UNL     1       3.146  -8.757   6.619  1.00  0.00     0.034 A 
ATOM     47  C   UNL     1      -3.034  -9.265   9.626  1.00  0.00     0.034 A 
ATOM     48  C   UNL     1       2.275  -9.230   5.580  1.00  0.00     0.049 A 
ATOM     49  C   UNL     1      -2.375 -10.236   8.729  1.00  0.00     0.074 A 
ATOM     50  C   UNL     1       2.010  -8.914   4.269  1.00  0.00     0.029 A 
ATOM     51  N   UNL     1       1.277 -10.060   6.017  1.00  0.00    -0.354 N 
ATOM     52  N   UNL     1      -2.666 -10.380   7.467  1.00  0.00    -0.248 NA
ATOM     53  C   UNL     1      -1.136 -10.874   9.159  1.00  0.00     0.031 C 
ATOM     54  C   UNL     1       0.692  -9.389   4.016  1.00  0.00     0.029 A 
ATOM     55  C   UNL     1       0.201  -9.993   5.176  1.00  0.00     0.049 A 
ATOM     56  H   UNL     1       1.327 -10.626   6.821  1.00  0.00     0.167 HD
ATOM     57  C   UNL     1      -1.463 -10.718   6.877  1.00  0.00     0.074 A 
ATOM     58  C   UNL     1      -0.625 -11.196   7.968  1.00  0.00     0.031 C 
ATOM     59  C   UNL     1      -1.150 -10.285   5.623  1.00  0.00     0.034 A 
BRANCH  46  60
ATOM     60  C   UNL     1       4.147  -9.698   7.263  1.00  0.00     0.023 A 
ATOM     61  C   UNL     1       4.572  -9.576   8.597  1.00  0.00     0.031 A 
ATOM     62  C   UNL     1       4.494 -10.911   6.621  1.00  0.00     0.131 A 
ATOM     63  C   UNL     1       5.269 -10.607   9.245  1.00  0.00     0.055 A 
ATOM     64  C   UNL     1       5.137 -11.964   7.285  1.00  0.00     0.041 A 
ATOM     65  F   UNL     1       4.162 -11.138   5.340  1.00  0.00    -0.206 F 
ATOM     66  C   UNL     1       5.522 -11.819   8.610  1.00  0.00     0.022 A 
BRANCH  63  67
ATOM     67  S   UNL     1       5.834 -10.393  10.955  1.00  0.00     0.124 S 
ATOM     68  O   UNL     1       5.105 -11.450  11.646  1.00  0.00    -0.237 OA
ATOM     69  O   UNL     1       7.274 -10.599  10.819  1.00  0.00    -0.237 OA
ATOM     70  O   UNL     1       5.433  -9.026  11.276  1.00  0.00    -0.744 OA
ENDBRANCH  63  67
ENDBRANCH  46  60
BRANCH  47  71
ATOM     71  C   UNL     1      -3.611  -9.674  10.924  1.00  0.00     0.023 A 
ATOM     72  C   UNL     1      -3.211  -9.003  12.095  1.00  0.00     0.031 A 
ATOM     73  C   UNL     1      -4.291 -10.893  11.070  1.00  0.00     0.131 A 
ATOM     74  C   UNL     1      -3.438  -9.577  13.351  1.00  0.00     0.055 A 
ATOM     75  C   UNL     1      -4.533 -11.456  12.328  1.00  0.00     0.041 A 
ATOM     76  F   UNL     1      -4.672 -11.594   9.991  1.00  0.00    -0.206 F 
ATOM     77  C   UNL     1      -4.090 -10.805  13.476  1.00  0.00     0.022 A 
BRANCH  74  78
ATOM     78  S   UNL     1      -2.803  -8.781  14.852  1.00  0.00     0.124 S 
ATOM     79  O   UNL     1      -3.972  -8.800  15.728  1.00  0.00    -0.237 OA
ATOM     80  O   UNL     1      -1.719  -9.681  15.229  1.00  0.00    -0.237 OA
ATOM     81  O   UNL     1      -2.399  -7.456  14.391  1.00  0.00    -0.744 OA
ENDBRANCH  74  78
ENDBRANCH  47  71
BRANCH  59  82
ATOM     82  C   UNL     1      -2.267  -9.870   4.705  1.00  0.00     0.023 A 
ATOM     83  C   UNL     1      -2.307 -10.486   3.442  1.00  0.00     0.031 A 
ATOM     84  C   UNL     1      -3.146  -8.799   4.941  1.00  0.00     0.131 A 
ATOM     85  C   UNL     1      -3.159 -10.001   2.446  1.00  0.00     0.055 A 
ATOM     86  C   UNL     1      -4.054  -8.369   3.969  1.00  0.00     0.041 A 
ATOM     87  F   UNL     1      -3.099  -8.091   6.078  1.00  0.00    -0.206 F 
ATOM     88  C   UNL     1      -4.050  -8.958   2.708  1.00  0.00     0.022 A 
BRANCH  85  89
ATOM     89  S   UNL     1      -3.001 -10.605   0.747  1.00  0.00     0.124 S 
ATOM     90  O   UNL     1      -4.287 -11.271   0.535  1.00  0.00    -0.237 OA
ATOM     91  O   UNL     1      -2.812  -9.363  -0.005  1.00  0.00    -0.237 OA
ATOM     92  O   UNL     1      -1.842 -11.482   0.786  1.00  0.00    -0.744 OA
ENDBRANCH  85  89
ENDBRANCH  59  82
ENDBRANCH  33  34
ENDBRANCH  25  28
ENDBRANCH  23  24
ENDBRANCH  22  23
ENDBRANCH   1  22
TORSDOF 17
