REMARK SMILES Cc1c(CC(=O)N[C@H](CO)C(=O)NCCCCCCNC(=O)c2ccc(-c3c4nc(c(-c5cc(S(=O)(=O)[O-])ccc5F)c5ccc([nH]5)c(-c5cc(S(=O)(=O)[O-])ccc5F)c5nc(c(-c6cc(S(=O)(=O)[O-])ccc6F)c6ccc3[nH]6)C=C5)C=C4)cc2)cc(-c2ccc(S(C)(=O)=O)cc2)n1-c1ccc(F)cc1
REMARK SMILES IDX 15 1 14 2 13 3 11 4 12 5 8 7 7 8 5 9 6 10 4 12 3 13 1 14
REMARK SMILES IDX 2 15 98 16 86 17 87 18 99 19 100 20 105 21 101 22 104 23
REMARK SMILES IDX 102 24 103 25 88 26 89 27 97 28 90 29 96 30 91 31 92 32
REMARK SMILES IDX 93 33 94 34 95 35 9 36 10 37 16 39 17 40 18 41 19 42 20 43
REMARK SMILES IDX 21 44 22 46 23 47 24 48 85 49 25 50 84 51 26 52 27 53 28 54
REMARK SMILES IDX 78 55 29 56 83 57 77 58 79 59 30 60 82 61 76 62 75 63 31 65
REMARK SMILES IDX 63 66 43 67 62 68 44 69 47 70 61 71 80 72 45 73 46 74 60 76
REMARK SMILES IDX 81 77 48 78 32 79 33 80 41 81 34 82 40 83 42 84 39 85 35 86
REMARK SMILES IDX 36 87 37 88 38 89 64 90 65 91 73 92 66 93 72 94 74 95 71 96
REMARK SMILES IDX 67 97 68 98 69 99 70 100 49 101 50 102 58 103 51 104 57 105
REMARK SMILES IDX 59 106 56 107 52 108 53 109 54 110 55 111
REMARK H PARENT 13 6 7 11 10 38 20 45 79 64 47 75
REMARK Flexibility Score: inf
ROOT
ATOM      1  C   UNL     1      -6.364  -2.653   1.237  1.00  0.00     0.021 C 
ENDROOT
BRANCH   1   2
ATOM      2  C   UNL     1      -4.962  -1.513   1.309  1.00  0.00     0.116 C 
BRANCH   2   3
ATOM      3  N   UNL     1      -4.566  -0.651   2.477  1.00  0.00    -0.354 N 
ATOM      4  C   UNL     1      -3.817   0.446   2.742  1.00  0.00     0.244 C 
ATOM      5  O   UNL     1      -3.916   0.878   3.903  1.00  0.00    -0.273 OA
ATOM      6  H   UNL     1      -4.977  -0.990   3.305  1.00  0.00     0.163 HD
BRANCH   4   7
ATOM      7  C   UNL     1      -2.886   1.177   1.788  1.00  0.00     0.197 C 
BRANCH   7   8
ATOM      8  N   UNL     1      -3.454   1.904   0.646  1.00  0.00    -0.342 N 
ATOM      9  C   UNL     1      -4.328   2.959   0.662  1.00  0.00     0.225 C 
ATOM     10  O   UNL     1      -4.168   3.843  -0.187  1.00  0.00    -0.275 OA
ATOM     11  H   UNL     1      -3.171   1.594  -0.244  1.00  0.00     0.164 HD
BRANCH   9  12
ATOM     12  C   UNL     1      -5.502   3.021   1.638  1.00  0.00     0.137 C 
BRANCH  12  13
ATOM     13  C   UNL     1      -6.418   1.837   1.482  1.00  0.00    -0.017 A 
ATOM     14  C   UNL     1      -6.974   1.936  -1.032  1.00  0.00     0.065 C 
ATOM     15  C   UNL     1      -6.874   1.266   0.307  1.00  0.00     0.024 A 
ATOM     16  N   UNL     1      -7.157  -0.104   0.526  1.00  0.00    -0.314 N 
ATOM     17  C   UNL     1      -6.978   1.119   2.562  1.00  0.00     0.033 A 
ATOM     18  C   UNL     1      -7.314  -0.182   2.170  1.00  0.00     0.053 A 
BRANCH  16  19
ATOM     19  C   UNL     1      -6.973  -1.133  -0.776  1.00  0.00     0.046 A 
ATOM     20  C   UNL     1      -7.663  -2.346  -1.071  1.00  0.00     0.029 A 
ATOM     21  C   UNL     1      -5.837  -1.055  -1.598  1.00  0.00     0.029 A 
ATOM     22  C   UNL     1      -7.165  -3.516  -1.648  1.00  0.00     0.041 A 
ATOM     23  C   UNL     1      -5.324  -2.211  -2.279  1.00  0.00     0.041 A 
ATOM     24  C   UNL     1      -5.932  -3.454  -2.188  1.00  0.00     0.123 A 
ATOM     25  F   UNL     1      -5.320  -4.579  -2.559  1.00  0.00    -0.207 F 
ENDBRANCH  16  19
BRANCH  18  26
ATOM     26  C   UNL     1      -7.425  -1.320   3.429  1.00  0.00    -0.001 A 
ATOM     27  C   UNL     1      -6.473  -2.335   3.787  1.00  0.00     0.011 A 
ATOM     28  C   UNL     1      -8.564  -1.432   4.247  1.00  0.00     0.011 A 
ATOM     29  C   UNL     1      -6.788  -3.585   4.357  1.00  0.00     0.021 A 
ATOM     30  C   UNL     1      -8.871  -2.661   4.952  1.00  0.00     0.021 A 
ATOM     31  C   UNL     1      -8.047  -3.789   4.848  1.00  0.00     0.067 A 
BRANCH  31  32
ATOM     32  S   UNL     1      -8.443  -5.439   5.408  1.00  0.00     0.175 S 
ATOM     33  C   UNL     1      -8.934  -6.370   3.967  1.00  0.00     0.163 C 
ATOM     34  O   UNL     1      -7.230  -6.025   5.906  1.00  0.00    -0.224 OA
ATOM     35  O   UNL     1      -9.617  -5.312   6.279  1.00  0.00    -0.224 OA
ENDBRANCH  31  32
ENDBRANCH  18  26
ENDBRANCH  12  13
ENDBRANCH   9  12
ENDBRANCH   7   8
BRANCH   7  36
ATOM     36  C   UNL     1      -1.800   0.189   1.351  1.00  0.00     0.191 C 
BRANCH  36  37
ATOM     37  O   UNL     1      -0.919   0.806   0.411  1.00  0.00    -0.394 OA
ATOM     38  H   UNL     1      -1.422   1.083  -0.371  1.00  0.00     0.210 HD
ENDBRANCH  36  37
ENDBRANCH   7  36
ENDBRANCH   4   7
ENDBRANCH   2   3
ENDBRANCH   1   2
BRANCH   1  39
ATOM     39  C   UNL     1      -8.238  -2.596   1.254  1.00  0.00     0.002 C 
BRANCH  39  40
ATOM     40  C   UNL     1      -9.545  -1.498   0.626  1.00  0.00     0.002 C 
BRANCH  40  41
ATOM     41  C   UNL     1      -9.948  -0.853  -0.928  1.00  0.00     0.021 C 
BRANCH  41  42
ATOM     42  C   UNL     1      -9.724  -1.392  -2.494  1.00  0.00     0.116 C 
BRANCH  42  43
ATOM     43  N   UNL     1     -10.131  -2.771  -2.879  1.00  0.00    -0.352 N 
ATOM     44  C   UNL     1      -9.683  -3.917  -3.583  1.00  0.00     0.251 C 
ATOM     45  H   UNL     1     -11.029  -2.950  -2.517  1.00  0.00     0.163 HD
ATOM     46  O   UNL     1     -10.543  -4.810  -3.570  1.00  0.00    -0.269 OA
BRANCH  44  47
ATOM     47  C   UNL     1      -8.325  -4.313  -4.266  1.00  0.00     0.039 A 
ATOM     48  C   UNL     1      -7.654  -3.639  -5.280  1.00  0.00     0.014 A 
ATOM     49  C   UNL     1      -7.751  -5.603  -4.030  1.00  0.00     0.014 A 
ATOM     50  C   UNL     1      -6.429  -4.192  -5.928  1.00  0.00     0.010 A 
ATOM     51  C   UNL     1      -6.519  -6.156  -4.676  1.00  0.00     0.010 A 
ATOM     52  C   UNL     1      -5.762  -5.463  -5.651  1.00  0.00    -0.014 A 
BRANCH  52  53
ATOM     53  C   UNL     1      -4.844  -6.200  -6.903  1.00  0.00     0.031 A 
ATOM     54  C   UNL     1      -5.915  -6.207  -7.930  1.00  0.00     0.074 A 
ATOM     55  C   UNL     1      -3.680  -6.935  -7.298  1.00  0.00     0.049 A 
ATOM     56  N   UNL     1      -7.032  -6.787  -7.597  1.00  0.00    -0.248 NA
ATOM     57  C   UNL     1      -6.027  -5.288  -9.055  1.00  0.00     0.031 C 
ATOM     58  C   UNL     1      -2.599  -7.492  -6.446  1.00  0.00     0.029 A 
ATOM     59  N   UNL     1      -3.156  -7.411  -8.591  1.00  0.00    -0.354 N 
ATOM     60  C   UNL     1      -7.897  -6.620  -8.637  1.00  0.00     0.074 A 
ATOM     61  C   UNL     1      -7.313  -5.500  -9.375  1.00  0.00     0.031 C 
ATOM     62  C   UNL     1      -1.552  -8.018  -7.166  1.00  0.00     0.029 A 
ATOM     63  C   UNL     1      -1.774  -7.956  -8.619  1.00  0.00     0.049 A 
ATOM     64  H   UNL     1      -3.704  -7.370  -9.408  1.00  0.00     0.167 HD
ATOM     65  C   UNL     1      -8.379  -7.814  -9.097  1.00  0.00     0.034 A 
ATOM     66  C   UNL     1      -0.928  -8.412  -9.676  1.00  0.00     0.034 A 
ATOM     67  C   UNL     1      -7.593  -8.292 -10.206  1.00  0.00     0.049 A 
ATOM     68  C   UNL     1      -1.839  -9.007 -10.646  1.00  0.00     0.074 A 
ATOM     69  C   UNL     1      -7.074  -7.646 -11.311  1.00  0.00     0.029 A 
ATOM     70  N   UNL     1      -6.849  -9.441 -10.032  1.00  0.00    -0.354 N 
ATOM     71  N   UNL     1      -2.348 -10.183 -10.461  1.00  0.00    -0.248 NA
ATOM     72  C   UNL     1      -2.176  -8.352 -11.898  1.00  0.00     0.031 C 
ATOM     73  C   UNL     1      -5.765  -8.146 -11.431  1.00  0.00     0.029 A 
ATOM     74  C   UNL     1      -5.683  -9.364 -10.768  1.00  0.00     0.049 A 
ATOM     75  H   UNL     1      -7.111 -10.203  -9.467  1.00  0.00     0.167 HD
ATOM     76  C   UNL     1      -3.471 -10.130 -11.224  1.00  0.00     0.074 A 
ATOM     77  C   UNL     1      -3.175  -9.156 -12.264  1.00  0.00     0.031 C 
ATOM     78  C   UNL     1      -4.638 -10.348 -10.564  1.00  0.00     0.034 A 
BRANCH  65  79
ATOM     79  C   UNL     1      -8.908  -8.667  -7.959  1.00  0.00     0.023 A 
ATOM     80  C   UNL     1     -10.283  -8.655  -7.696  1.00  0.00     0.031 A 
ATOM     81  C   UNL     1      -8.067  -9.287  -7.002  1.00  0.00     0.131 A 
ATOM     82  C   UNL     1     -10.771  -9.187  -6.489  1.00  0.00     0.055 A 
ATOM     83  C   UNL     1      -8.548  -9.762  -5.782  1.00  0.00     0.041 A 
ATOM     84  F   UNL     1      -6.744  -9.393  -7.216  1.00  0.00    -0.206 F 
ATOM     85  C   UNL     1      -9.910  -9.704  -5.515  1.00  0.00     0.022 A 
BRANCH  82  86
ATOM     86  S   UNL     1     -12.562  -9.201  -6.214  1.00  0.00     0.124 S 
ATOM     87  O   UNL     1     -12.892  -7.780  -6.199  1.00  0.00    -0.237 OA
ATOM     88  O   UNL     1     -13.044  -9.945  -7.375  1.00  0.00    -0.237 OA
ATOM     89  O   UNL     1     -12.714  -9.892  -4.935  1.00  0.00    -0.744 OA
ENDBRANCH  82  86
ENDBRANCH  65  79
BRANCH  66  90
ATOM     90  C   UNL     1       0.562  -8.793 -10.192  1.00  0.00     0.023 A 
ATOM     91  C   UNL     1       0.836  -9.698 -11.329  1.00  0.00     0.031 A 
ATOM     92  C   UNL     1       1.658  -7.978  -9.879  1.00  0.00     0.131 A 
ATOM     93  C   UNL     1       2.072  -9.703 -12.071  1.00  0.00     0.055 A 
ATOM     94  C   UNL     1       2.879  -7.991 -10.618  1.00  0.00     0.041 A 
ATOM     95  F   UNL     1       1.556  -7.061  -8.909  1.00  0.00    -0.206 F 
ATOM     96  C   UNL     1       3.084  -8.825 -11.717  1.00  0.00     0.022 A 
BRANCH  93  97
ATOM     97  S   UNL     1       2.354 -10.684 -13.635  1.00  0.00     0.124 S 
ATOM     98  O   UNL     1       2.683 -12.015 -13.140  1.00  0.00    -0.237 OA
ATOM     99  O   UNL     1       1.088 -10.546 -14.348  1.00  0.00    -0.237 OA
ATOM    100  O   UNL     1       3.474  -9.990 -14.280  1.00  0.00    -0.744 OA
ENDBRANCH  93  97
ENDBRANCH  66  90
BRANCH  78 101
ATOM    101  C   UNL     1      -4.684 -11.523  -9.584  1.00  0.00     0.023 A 
ATOM    102  C   UNL     1      -3.666 -11.910  -8.669  1.00  0.00     0.031 A 
ATOM    103  C   UNL     1      -5.801 -12.372  -9.654  1.00  0.00     0.131 A 
ATOM    104  C   UNL     1      -3.772 -13.101  -7.918  1.00  0.00     0.055 A 
ATOM    105  C   UNL     1      -5.929 -13.525  -8.876  1.00  0.00     0.041 A 
ATOM    106  F   UNL     1      -6.801 -12.107 -10.510  1.00  0.00    -0.206 F 
ATOM    107  C   UNL     1      -4.906 -13.905  -8.018  1.00  0.00     0.022 A 
BRANCH 104 108
ATOM    108  S   UNL     1      -2.386 -13.679  -6.877  1.00  0.00     0.124 S 
ATOM    109  O   UNL     1      -1.215 -13.470  -7.720  1.00  0.00    -0.237 OA
ATOM    110  O   UNL     1      -2.490 -12.814  -5.705  1.00  0.00    -0.237 OA
ATOM    111  O   UNL     1      -2.712 -15.085  -6.630  1.00  0.00    -0.744 OA
ENDBRANCH 104 108
ENDBRANCH  78 101
ENDBRANCH  52  53
ENDBRANCH  44  47
ENDBRANCH  42  43
ENDBRANCH  41  42
ENDBRANCH  40  41
ENDBRANCH  39  40
ENDBRANCH   1  39
TORSDOF 24
