REMARK SMILES O=C(NCCCCCCNC(=O)c1cc(N2CCN(c3ccc(F)cc3)CC2)ccc1NC(=O)C1CCCC1)c1ccc(-c2c3nc(c(-c4cc(S(=O)(=O)[O-])ccc4F)c4ccc([nH]4)c(-c4cc(S(=O)(=O)[O-])ccc4F)c4nc(c(-c5cc(S(=O)(=O)[O-])ccc5F)c5ccc2[nH]5)C=C4)C=C3)cc1
REMARK SMILES IDX 6 1 5 2 4 3 3 4 1 5 2 6 40 8 41 9 102 10 42 11 101 12 43 13
REMARK SMILES IDX 44 14 45 15 95 16 46 17 100 18 94 19 96 20 47 21 99 22 93 23
REMARK SMILES IDX 92 24 48 26 80 27 60 28 79 29 61 30 64 31 78 32 97 33 62 34
REMARK SMILES IDX 63 35 77 37 98 38 65 39 49 40 50 41 58 42 51 43 57 44 59 45
REMARK SMILES IDX 56 46 52 47 53 48 54 49 55 50 81 51 82 52 90 53 83 54 89 55
REMARK SMILES IDX 91 56 88 57 84 58 85 59 86 60 87 61 66 62 67 63 75 64 68 65
REMARK SMILES IDX 74 66 76 67 73 68 69 69 70 70 71 71 72 72 7 73 8 74 9 75
REMARK SMILES IDX 10 76 11 77 12 79 13 80 14 81 31 82 15 83 30 84 29 85 32 86
REMARK SMILES IDX 33 87 34 89 35 90 36 91 39 92 37 93 38 94 16 95 17 96 28 97
REMARK SMILES IDX 18 98 27 99 19 100 20 101 21 102 26 103 22 104 25 105 23 106
REMARK SMILES IDX 24 107
REMARK H PARENT 3 7 96 25 64 36 10 78 32 88
REMARK Flexibility Score: inf
ROOT
ATOM      1  C   UNL     1       4.242   3.559  -1.504  1.00  0.00     0.002 C 
ENDROOT
BRANCH   1   2
ATOM      2  C   UNL     1       4.718   2.114  -1.652  1.00  0.00     0.021 C 
BRANCH   2   3
ATOM      3  C   UNL     1       4.436   1.201  -0.467  1.00  0.00     0.116 C 
BRANCH   3   4
ATOM      4  N   UNL     1       3.018   1.027  -0.203  1.00  0.00    -0.352 N 
ATOM      5  O   UNL     1       1.088  -0.103   0.088  1.00  0.00    -0.269 OA
ATOM      6  C   UNL     1       2.313  -0.136  -0.003  1.00  0.00     0.251 C 
ATOM      7  H   UNL     1       2.489   1.856  -0.163  1.00  0.00     0.163 HD
BRANCH   6   8
ATOM      8  C   UNL     1       3.030  -1.429   0.080  1.00  0.00     0.039 A 
ATOM      9  C   UNL     1       4.185  -1.559   0.855  1.00  0.00     0.014 A 
ATOM     10  C   UNL     1       2.532  -2.530  -0.624  1.00  0.00     0.014 A 
ATOM     11  C   UNL     1       4.910  -2.746   0.824  1.00  0.00     0.010 A 
ATOM     12  C   UNL     1       3.220  -3.748  -0.589  1.00  0.00     0.010 A 
ATOM     13  C   UNL     1       4.428  -3.859   0.116  1.00  0.00    -0.014 A 
BRANCH  13  14
ATOM     14  C   UNL     1       5.170  -5.146   0.185  1.00  0.00     0.031 A 
ATOM     15  C   UNL     1       5.812  -5.742  -1.036  1.00  0.00     0.074 A 
ATOM     16  C   UNL     1       5.274  -5.766   1.378  1.00  0.00     0.049 A 
ATOM     17  N   UNL     1       6.493  -6.854  -1.150  1.00  0.00    -0.248 NA
ATOM     18  C   UNL     1       5.665  -4.997  -2.295  1.00  0.00     0.031 C 
ATOM     19  C   UNL     1       4.685  -5.281   2.629  1.00  0.00     0.029 A 
ATOM     20  N   UNL     1       5.917  -6.921   1.741  1.00  0.00    -0.354 N 
ATOM     21  C   UNL     1       6.845  -6.953  -2.492  1.00  0.00     0.074 A 
ATOM     22  C   UNL     1       6.272  -5.801  -3.158  1.00  0.00     0.031 C 
ATOM     23  C   UNL     1       5.027  -6.109   3.626  1.00  0.00     0.029 A 
ATOM     24  C   UNL     1       5.798  -7.218   3.079  1.00  0.00     0.049 A 
ATOM     25  H   UNL     1       6.415  -7.484   1.105  1.00  0.00     0.167 HD
ATOM     26  C   UNL     1       7.583  -7.913  -3.106  1.00  0.00     0.034 A 
ATOM     27  C   UNL     1       6.238  -8.277   3.785  1.00  0.00     0.034 A 
ATOM     28  C   UNL     1       8.144  -9.056  -2.424  1.00  0.00     0.049 A 
ATOM     29  C   UNL     1       7.017  -9.348   3.071  1.00  0.00     0.074 A 
ATOM     30  C   UNL     1       8.932 -10.070  -2.943  1.00  0.00     0.029 A 
ATOM     31  N   UNL     1       7.970  -9.347  -1.076  1.00  0.00    -0.354 N 
ATOM     32  N   UNL     1       7.356  -9.416   1.805  1.00  0.00    -0.248 NA
ATOM     33  C   UNL     1       7.474 -10.482   3.882  1.00  0.00     0.031 C 
ATOM     34  C   UNL     1       9.176 -11.004  -1.929  1.00  0.00     0.029 A 
ATOM     35  C   UNL     1       8.607 -10.537  -0.755  1.00  0.00     0.049 A 
ATOM     36  H   UNL     1       7.467  -8.788  -0.440  1.00  0.00     0.167 HD
ATOM     37  C   UNL     1       8.085 -10.594   1.672  1.00  0.00     0.074 A 
ATOM     38  C   UNL     1       8.153 -11.190   2.991  1.00  0.00     0.031 C 
ATOM     39  C   UNL     1       8.649 -11.131   0.561  1.00  0.00     0.034 A 
BRANCH  26  40
ATOM     40  C   UNL     1       7.786  -7.790  -4.599  1.00  0.00     0.023 A 
ATOM     41  C   UNL     1       8.508  -6.724  -5.165  1.00  0.00     0.031 A 
ATOM     42  C   UNL     1       7.239  -8.748  -5.471  1.00  0.00     0.131 A 
ATOM     43  C   UNL     1       8.610  -6.608  -6.560  1.00  0.00     0.055 A 
ATOM     44  C   UNL     1       7.405  -8.667  -6.855  1.00  0.00     0.041 A 
ATOM     45  F   UNL     1       6.524  -9.778  -4.992  1.00  0.00    -0.206 F 
ATOM     46  C   UNL     1       8.083  -7.585  -7.409  1.00  0.00     0.022 A 
BRANCH  43  47
ATOM     47  S   UNL     1       9.328  -5.094  -7.255  1.00  0.00     0.124 S 
ATOM     48  O   UNL     1       8.455  -4.067  -6.692  1.00  0.00    -0.237 OA
ATOM     49  O   UNL     1      10.692  -5.126  -6.739  1.00  0.00    -0.237 OA
ATOM     50  O   UNL     1       9.202  -5.286  -8.699  1.00  0.00    -0.744 OA
ENDBRANCH  43  47
ENDBRANCH  26  40
BRANCH  27  51
ATOM     51  C   UNL     1       5.923  -8.391   5.237  1.00  0.00     0.023 A 
ATOM     52  C   UNL     1       6.939  -8.367   6.204  1.00  0.00     0.031 A 
ATOM     53  C   UNL     1       4.595  -8.545   5.675  1.00  0.00     0.131 A 
ATOM     54  C   UNL     1       6.615  -8.533   7.559  1.00  0.00     0.055 A 
ATOM     55  C   UNL     1       4.273  -8.655   7.028  1.00  0.00     0.041 A 
ATOM     56  F   UNL     1       3.586  -8.569   4.790  1.00  0.00    -0.206 F 
ATOM     57  C   UNL     1       5.289  -8.661   7.979  1.00  0.00     0.022 A 
BRANCH  54  58
ATOM     58  S   UNL     1       7.964  -8.652   8.765  1.00  0.00     0.124 S 
ATOM     59  O   UNL     1       8.723  -9.787   8.252  1.00  0.00    -0.237 OA
ATOM     60  O   UNL     1       8.599  -7.345   8.639  1.00  0.00    -0.237 OA
ATOM     61  O   UNL     1       7.270  -8.886  10.030  1.00  0.00    -0.744 OA
ENDBRANCH  54  58
ENDBRANCH  27  51
BRANCH  39  62
ATOM     62  C   UNL     1       9.420 -12.415   0.746  1.00  0.00     0.023 A 
ATOM     63  C   UNL     1       8.780 -13.617   1.097  1.00  0.00     0.031 A 
ATOM     64  C   UNL     1      10.818 -12.427   0.598  1.00  0.00     0.131 A 
ATOM     65  C   UNL     1       9.544 -14.767   1.345  1.00  0.00     0.055 A 
ATOM     66  C   UNL     1      11.567 -13.589   0.788  1.00  0.00     0.041 A 
ATOM     67  F   UNL     1      11.480 -11.306   0.268  1.00  0.00    -0.206 F 
ATOM     68  C   UNL     1      10.931 -14.764   1.177  1.00  0.00     0.022 A 
BRANCH  65  69
ATOM     69  S   UNL     1       8.710 -16.246   1.984  1.00  0.00     0.124 S 
ATOM     70  O   UNL     1       8.118 -15.749   3.222  1.00  0.00    -0.237 OA
ATOM     71  O   UNL     1       7.773 -16.564   0.912  1.00  0.00    -0.237 OA
ATOM     72  O   UNL     1       9.799 -17.205   2.160  1.00  0.00    -0.744 OA
ENDBRANCH  65  69
ENDBRANCH  39  62
ENDBRANCH  13  14
ENDBRANCH   6   8
ENDBRANCH   3   4
ENDBRANCH   2   3
ENDBRANCH   1   2
BRANCH   1  73
ATOM     73  C   UNL     1       4.699   4.298  -0.243  1.00  0.00     0.002 C 
BRANCH  73  74
ATOM     74  C   UNL     1       6.205   4.303   0.043  1.00  0.00     0.021 C 
BRANCH  74  75
ATOM     75  C   UNL     1       7.101   4.764  -1.104  1.00  0.00     0.116 C 
BRANCH  75  76
ATOM     76  N   UNL     1       6.803   6.117  -1.548  1.00  0.00    -0.352 N 
ATOM     77  C   UNL     1       7.646   7.164  -1.830  1.00  0.00     0.253 C 
ATOM     78  H   UNL     1       5.846   6.313  -1.665  1.00  0.00     0.163 HD
ATOM     79  O   UNL     1       7.169   8.271  -2.072  1.00  0.00    -0.269 OA
BRANCH  77  80
ATOM     80  C   UNL     1       9.120   6.987  -1.838  1.00  0.00     0.065 A 
ATOM     81  C   UNL     1       9.853   7.969  -1.139  1.00  0.00     0.042 A 
ATOM     82  C   UNL     1       9.780   5.982  -2.580  1.00  0.00     0.054 A 
ATOM     83  C   UNL     1      11.247   7.962  -1.137  1.00  0.00     0.038 A 
ATOM     84  C   UNL     1      11.164   5.907  -2.439  1.00  0.00     0.029 A 
ATOM     85  C   UNL     1      11.883   6.883  -1.740  1.00  0.00     0.028 A 
BRANCH  82  86
ATOM     86  N   UNL     1       9.022   5.155  -3.442  1.00  0.00    -0.325 N 
ATOM     87  C   UNL     1       9.275   4.122  -4.298  1.00  0.00     0.227 C 
ATOM     88  H   UNL     1       8.065   5.383  -3.419  1.00  0.00     0.169 HD
ATOM     89  O   UNL     1       8.294   3.610  -4.846  1.00  0.00    -0.274 OA
BRANCH  87  90
ATOM     90  C   UNL     1      10.678   3.640  -4.582  1.00  0.00     0.079 C 
ATOM     91  C   UNL     1      10.782   2.321  -5.346  1.00  0.00     0.013 C 
ATOM     92  C   UNL     1      11.409   4.583  -5.537  1.00  0.00     0.013 C 
ATOM     93  C   UNL     1      12.239   2.313  -5.807  1.00  0.00     0.001 C 
ATOM     94  C   UNL     1      12.621   3.782  -5.996  1.00  0.00     0.001 C 
ENDBRANCH  87  90
ENDBRANCH  82  86
BRANCH  83  95
ATOM     95  N   UNL     1      11.955   9.033  -0.639  1.00  0.00    -0.368 N 
ATOM     96  C   UNL     1      12.169   9.198   0.807  1.00  0.00     0.138 C 
ATOM     97  C   UNL     1      12.901   9.733  -1.525  1.00  0.00     0.138 C 
ATOM     98  C   UNL     1      13.652   8.944   1.198  1.00  0.00     0.138 C 
ATOM     99  C   UNL     1      14.364   9.461  -1.124  1.00  0.00     0.138 C 
ATOM    100  N   UNL     1      14.576   9.689   0.314  1.00  0.00    -0.368 N 
BRANCH 100 101
ATOM    101  C   UNL     1      15.213  10.823   0.776  1.00  0.00     0.037 A 
ATOM    102  C   UNL     1      16.071  10.744   1.885  1.00  0.00     0.029 A 
ATOM    103  C   UNL     1      15.070  12.074   0.156  1.00  0.00     0.029 A 
ATOM    104  C   UNL     1      16.772  11.863   2.346  1.00  0.00     0.041 A 
ATOM    105  C   UNL     1      15.753  13.202   0.621  1.00  0.00     0.041 A 
ATOM    106  C   UNL     1      16.604  13.083   1.709  1.00  0.00     0.123 A 
ATOM    107  F   UNL     1      17.273  14.158   2.146  1.00  0.00    -0.207 F 
ENDBRANCH 100 101
ENDBRANCH  83  95
ENDBRANCH  77  80
ENDBRANCH  75  76
ENDBRANCH  74  75
ENDBRANCH  73  74
ENDBRANCH   1  73
TORSDOF 20
