REMARK SMILES C[C@H]1C[NH+](CC[C@@H]2CCC[C@]2([NH3+])C(=O)NCCCCCCNC(=O)c2ccc(-c3c4nc(c(-c5cc(S(=O)(=O)[O-])ccc5F)c5ccc([nH]5)c(-c5cc(S(=O)(=O)[O-])ccc5F)c5nc(c(-c6cc(S(=O)(=O)[O-])ccc6F)c6ccc3[nH]6)C=C5)C=C4)cc2)C[C@H](C)O1
REMARK SMILES IDX 18 1 17 2 16 3 15 4 13 5 14 6 11 8 7 9 8 10 9 11 10 12 6 13
REMARK SMILES IDX 5 14 4 15 1 16 2 17 3 18 91 19 89 20 88 21 90 23 12 24 19 28
REMARK SMILES IDX 20 29 21 30 22 31 23 32 24 34 25 35 26 36 87 37 27 38 86 39
REMARK SMILES IDX 28 40 29 41 30 42 80 43 31 44 85 45 79 46 81 47 32 48 84 49
REMARK SMILES IDX 78 50 77 51 33 53 65 54 45 55 64 56 46 57 49 58 63 59 82 60
REMARK SMILES IDX 47 61 48 62 62 64 83 65 50 66 34 67 35 68 43 69 36 70 42 71
REMARK SMILES IDX 44 72 41 73 37 74 38 75 39 76 40 77 66 78 67 79 75 80 68 81
REMARK SMILES IDX 74 82 76 83 73 84 69 85 70 86 71 87 72 88 51 89 52 90 60 91
REMARK SMILES IDX 53 92 59 93 61 94 58 95 54 96 55 97 56 98 57 99
REMARK H PARENT 15 7 4 22 12 25 12 26 12 27 22 33 81 52 49 63
REMARK Flexibility Score: inf
ROOT
ATOM      1  C   UNL     1       4.986   4.009   0.352  1.00  0.00     0.002 C 
ENDROOT
BRANCH   1   2
ATOM      2  C   UNL     1       3.568   4.390   0.803  1.00  0.00     0.021 C 
BRANCH   2   3
ATOM      3  C   UNL     1       2.897   3.446   1.827  1.00  0.00     0.116 C 
BRANCH   3   4
ATOM      4  N   UNL     1       2.418   4.119   3.045  1.00  0.00    -0.351 N 
ATOM      5  C   UNL     1       1.319   4.381   3.784  1.00  0.00     0.281 C 
ATOM      6  O   UNL     1       1.670   4.529   4.974  1.00  0.00    -0.268 OA
ATOM      7  H   UNL     1       3.192   4.535   3.489  1.00  0.00     0.163 HD
BRANCH   5   8
ATOM      8  C   UNL     1      -0.259   4.495   3.446  1.00  0.00     0.177 C 
ATOM      9  C   UNL     1      -0.863   5.404   2.326  1.00  0.00     0.066 C 
ATOM     10  C   UNL     1      -0.397   6.809   2.756  1.00  0.00     0.011 C 
ATOM     11  C   UNL     1      -0.506   6.799   4.283  1.00  0.00     0.008 C 
ATOM     12  C   UNL     1      -0.828   5.351   4.648  1.00  0.00     0.079 C 
BRANCH   9  13
ATOM     13  C   UNL     1      -0.893   5.196   0.796  1.00  0.00     0.072 C 
BRANCH  13  14
ATOM     14  C   UNL     1       0.296   4.572   0.094  1.00  0.00     0.262 C 
BRANCH  14  15
ATOM     15  N   UNL     1       0.357   3.126  -0.145  1.00  0.00    -0.331 N 
ATOM     16  C   UNL     1       0.201   0.696  -3.069  1.00  0.00     0.045 C 
ATOM     17  C   UNL     1       0.431   1.203  -1.656  1.00  0.00     0.170 C 
ATOM     18  C   UNL     1       0.048   2.696  -1.514  1.00  0.00     0.294 C 
ATOM     19  O   UNL     1      -0.354   0.377  -0.779  1.00  0.00    -0.364 OA
ATOM     20  C   UNL     1      -0.228   0.752   0.593  1.00  0.00     0.170 C 
ATOM     21  C   UNL     1      -0.372   2.276   0.792  1.00  0.00     0.294 C 
ATOM     22  H   UNL     1       1.352   2.978   0.025  1.00  0.00     0.348 HD
ATOM     23  C   UNL     1       1.045   0.178   1.215  1.00  0.00     0.045 C 
ENDBRANCH  14  15
ENDBRANCH  13  14
ENDBRANCH   9  13
BRANCH   8  24
ATOM     24  N   UNL     1      -0.959   3.217   3.684  1.00  0.00    -0.345 N 
ATOM     25  H   UNL     1      -1.948   3.325   3.462  1.00  0.00     0.345 HD
ATOM     26  H   UNL     1      -0.857   2.952   4.664  1.00  0.00     0.345 HD
ATOM     27  H   UNL     1      -0.554   2.492   3.092  1.00  0.00     0.345 HD
ENDBRANCH   8  24
ENDBRANCH   5   8
ENDBRANCH   3   4
ENDBRANCH   2   3
ENDBRANCH   1   2
BRANCH   1  28
ATOM     28  C   UNL     1       5.121   2.703  -0.440  1.00  0.00     0.002 C 
BRANCH  28  29
ATOM     29  C   UNL     1       4.485   2.663  -1.837  1.00  0.00     0.021 C 
BRANCH  29  30
ATOM     30  C   UNL     1       4.961   3.709  -2.851  1.00  0.00     0.116 C 
BRANCH  30  31
ATOM     31  N   UNL     1       6.404   3.716  -3.034  1.00  0.00    -0.352 N 
ATOM     32  C   UNL     1       7.174   3.564  -4.163  1.00  0.00     0.251 C 
ATOM     33  H   UNL     1       6.918   3.854  -2.206  1.00  0.00     0.163 HD
ATOM     34  O   UNL     1       8.392   3.453  -4.038  1.00  0.00    -0.269 OA
BRANCH  32  35
ATOM     35  C   UNL     1       6.569   3.513  -5.517  1.00  0.00     0.039 A 
ATOM     36  C   UNL     1       7.079   2.596  -6.444  1.00  0.00     0.014 A 
ATOM     37  C   UNL     1       5.559   4.395  -5.905  1.00  0.00     0.014 A 
ATOM     38  C   UNL     1       6.537   2.523  -7.733  1.00  0.00     0.010 A 
ATOM     39  C   UNL     1       4.980   4.283  -7.172  1.00  0.00     0.010 A 
ATOM     40  C   UNL     1       5.461   3.345  -8.100  1.00  0.00    -0.014 A 
BRANCH  40  41
ATOM     41  C   UNL     1       4.832   3.237  -9.446  1.00  0.00     0.031 A 
ATOM     42  C   UNL     1       4.905   4.388 -10.415  1.00  0.00     0.074 A 
ATOM     43  C   UNL     1       4.139   2.126  -9.771  1.00  0.00     0.049 A 
ATOM     44  N   UNL     1       4.353   4.516 -11.595  1.00  0.00    -0.248 NA
ATOM     45  C   UNL     1       5.681   5.561  -9.985  1.00  0.00     0.031 C 
ATOM     46  C   UNL     1       3.965   0.958  -8.905  1.00  0.00     0.029 A 
ATOM     47  N   UNL     1       3.441   1.800 -10.908  1.00  0.00    -0.354 N 
ATOM     48  C   UNL     1       4.697   5.789 -12.041  1.00  0.00     0.074 A 
ATOM     49  C   UNL     1       5.463   6.409 -10.980  1.00  0.00     0.031 C 
ATOM     50  C   UNL     1       3.221   0.042  -9.545  1.00  0.00     0.029 A 
ATOM     51  C   UNL     1       2.827   0.569 -10.847  1.00  0.00     0.049 A 
ATOM     52  H   UNL     1       3.384   2.391 -11.693  1.00  0.00     0.167 HD
ATOM     53  C   UNL     1       4.412   6.378 -13.230  1.00  0.00     0.034 A 
ATOM     54  C   UNL     1       2.025  -0.058 -11.731  1.00  0.00     0.034 A 
ATOM     55  C   UNL     1       3.662   5.737 -14.284  1.00  0.00     0.049 A 
ATOM     56  C   UNL     1       1.715   0.621 -13.043  1.00  0.00     0.074 A 
ATOM     57  C   UNL     1       3.377   6.215 -15.552  1.00  0.00     0.029 A 
ATOM     58  N   UNL     1       3.068   4.485 -14.192  1.00  0.00    -0.354 N 
ATOM     59  N   UNL     1       2.099   1.801 -13.472  1.00  0.00    -0.248 NA
ATOM     60  C   UNL     1       0.876  -0.121 -13.992  1.00  0.00     0.031 C 
ATOM     61  C   UNL     1       2.554   5.285 -16.198  1.00  0.00     0.029 A 
ATOM     62  C   UNL     1       2.390   4.190 -15.365  1.00  0.00     0.049 A 
ATOM     63  H   UNL     1       3.121   3.892 -13.407  1.00  0.00     0.167 HD
ATOM     64  C   UNL     1       1.573   1.927 -14.755  1.00  0.00     0.074 A 
ATOM     65  C   UNL     1       0.861   0.697 -15.034  1.00  0.00     0.031 C 
ATOM     66  C   UNL     1       1.674   2.963 -15.627  1.00  0.00     0.034 A 
BRANCH  53  67
ATOM     67  C   UNL     1       4.887   7.798 -13.440  1.00  0.00     0.023 A 
ATOM     68  C   UNL     1       6.254   8.130 -13.453  1.00  0.00     0.031 A 
ATOM     69  C   UNL     1       3.958   8.839 -13.617  1.00  0.00     0.131 A 
ATOM     70  C   UNL     1       6.649   9.472 -13.563  1.00  0.00     0.055 A 
ATOM     71  C   UNL     1       4.361  10.163 -13.809  1.00  0.00     0.041 A 
ATOM     72  F   UNL     1       2.639   8.590 -13.596  1.00  0.00    -0.206 F 
ATOM     73  C   UNL     1       5.713  10.488 -13.767  1.00  0.00     0.022 A 
BRANCH  70  74
ATOM     74  S   UNL     1       8.395   9.885 -13.296  1.00  0.00     0.124 S 
ATOM     75  O   UNL     1       8.611   9.386 -11.940  1.00  0.00    -0.237 OA
ATOM     76  O   UNL     1       9.061   9.149 -14.363  1.00  0.00    -0.237 OA
ATOM     77  O   UNL     1       8.426  11.341 -13.428  1.00  0.00    -0.744 OA
ENDBRANCH  70  74
ENDBRANCH  53  67
BRANCH  54  78
ATOM     78  C   UNL     1       1.439  -1.393 -11.409  1.00  0.00     0.023 A 
ATOM     79  C   UNL     1       1.765  -2.530 -12.165  1.00  0.00     0.031 A 
ATOM     80  C   UNL     1       0.506  -1.541 -10.367  1.00  0.00     0.131 A 
ATOM     81  C   UNL     1       1.126  -3.753 -11.903  1.00  0.00     0.055 A 
ATOM     82  C   UNL     1      -0.085  -2.772 -10.074  1.00  0.00     0.041 A 
ATOM     83  F   UNL     1       0.160  -0.488  -9.610  1.00  0.00    -0.206 F 
ATOM     84  C   UNL     1       0.214  -3.884 -10.854  1.00  0.00     0.022 A 
BRANCH  81  85
ATOM     85  S   UNL     1       1.436  -5.151 -13.017  1.00  0.00     0.124 S 
ATOM     86  O   UNL     1       1.052  -4.592 -14.309  1.00  0.00    -0.237 OA
ATOM     87  O   UNL     1       2.862  -5.385 -12.818  1.00  0.00    -0.237 OA
ATOM     88  O   UNL     1       0.556  -6.197 -12.502  1.00  0.00    -0.744 OA
ENDBRANCH  81  85
ENDBRANCH  54  78
BRANCH  66  89
ATOM     89  C   UNL     1       1.032   2.785 -16.981  1.00  0.00     0.023 A 
ATOM     90  C   UNL     1      -0.362   2.689 -17.135  1.00  0.00     0.031 A 
ATOM     91  C   UNL     1       1.832   2.698 -18.135  1.00  0.00     0.131 A 
ATOM     92  C   UNL     1      -0.911   2.456 -18.405  1.00  0.00     0.055 A 
ATOM     93  C   UNL     1       1.276   2.528 -19.404  1.00  0.00     0.041 A 
ATOM     94  F   UNL     1       3.169   2.780 -18.047  1.00  0.00    -0.206 F 
ATOM     95  C   UNL     1      -0.102   2.392 -19.543  1.00  0.00     0.022 A 
BRANCH  92  96
ATOM     96  S   UNL     1      -2.693   2.145 -18.540  1.00  0.00     0.124 S 
ATOM     97  O   UNL     1      -2.863   0.977 -17.682  1.00  0.00    -0.237 OA
ATOM     98  O   UNL     1      -3.266   3.391 -18.042  1.00  0.00    -0.237 OA
ATOM     99  O   UNL     1      -2.891   1.900 -19.968  1.00  0.00    -0.744 OA
ENDBRANCH  92  96
ENDBRANCH  66  89
ENDBRANCH  40  41
ENDBRANCH  32  35
ENDBRANCH  30  31
ENDBRANCH  29  30
ENDBRANCH  28  29
ENDBRANCH   1  28
TORSDOF 20
