REMARK SMILES CSc1ccc(/C=C2\C(C)=C(CC(=O)NCCCCCCNC(=O)c3ccc(-c4c5nc(c(-c6cc(S(=O)(=O)[O-])ccc6F)c6ccc([nH]6)c(-c6cc(S(=O)(=O)[O-])ccc6F)c6nc(c(-c7cc(S(=O)(=O)[O-])ccc7F)c7ccc4[nH]7)C=C6)C=C5)cc3)c3cc(F)ccc32)cc1
REMARK SMILES IDX 18 1 17 2 16 3 15 4 13 5 14 6 12 8 11 9 7 10 8 11 9 12 94 13
REMARK SMILES IDX 10 14 88 15 93 16 89 17 92 18 90 19 91 20 6 21 3 22 4 23
REMARK SMILES IDX 96 24 5 25 95 26 2 27 1 28 19 29 20 30 21 31 22 32 23 33
REMARK SMILES IDX 24 35 25 36 26 37 87 38 27 39 86 40 28 41 29 42 30 43 80 44
REMARK SMILES IDX 31 45 85 46 79 47 81 48 32 49 84 50 78 51 77 52 33 54 65 55
REMARK SMILES IDX 45 56 64 57 46 58 49 59 63 60 82 61 47 62 48 63 62 65 83 66
REMARK SMILES IDX 50 67 34 68 35 69 43 70 36 71 42 72 44 73 41 74 37 75 38 76
REMARK SMILES IDX 39 77 40 78 66 79 67 80 75 81 68 82 74 83 76 84 73 85 69 86
REMARK SMILES IDX 70 87 71 88 72 89 51 90 52 91 60 92 53 93 59 94 61 95 58 96
REMARK SMILES IDX 54 97 55 98 56 99 57 100
REMARK H PARENT 15 7 22 34 81 53 49 64
REMARK Flexibility Score: inf
ROOT
ATOM      1  C   UNL     1       7.845   6.232  -0.663  1.00  0.00     0.002 C 
ENDROOT
BRANCH   1   2
ATOM      2  C   UNL     1       6.634   5.895  -1.530  1.00  0.00     0.021 C 
BRANCH   2   3
ATOM      3  C   UNL     1       6.009   7.093  -2.242  1.00  0.00     0.116 C 
BRANCH   3   4
ATOM      4  N   UNL     1       6.877   7.595  -3.286  1.00  0.00    -0.356 N 
ATOM      5  C   UNL     1       6.847   7.266  -4.610  1.00  0.00     0.224 C 
ATOM      6  O   UNL     1       7.729   7.687  -5.358  1.00  0.00    -0.275 OA
ATOM      7  H   UNL     1       7.563   8.244  -3.011  1.00  0.00     0.163 HD
BRANCH   5   8
ATOM      8  C   UNL     1       5.720   6.389  -5.113  1.00  0.00     0.136 C 
BRANCH   8   9
ATOM      9  C   UNL     1       6.003   4.942  -4.752  1.00  0.00    -0.027 C 
ATOM     10  C   UNL     1       2.829   3.649  -5.016  1.00  0.00     0.017 C 
ATOM     11  C   UNL     1       4.167   3.725  -5.114  1.00  0.00    -0.014 C 
ATOM     12  C   UNL     1       5.113   4.169  -4.066  1.00  0.00    -0.039 C 
ATOM     13  C   UNL     1       5.056   3.419  -6.265  1.00  0.00    -0.010 A 
ATOM     14  C   UNL     1       5.641   2.921  -3.321  1.00  0.00     0.045 C 
ATOM     15  C   UNL     1       6.247   4.112  -5.950  1.00  0.00    -0.011 A 
ATOM     16  C   UNL     1       5.104   2.280  -7.050  1.00  0.00     0.012 A 
ATOM     17  C   UNL     1       7.497   3.696  -6.372  1.00  0.00     0.048 A 
ATOM     18  C   UNL     1       6.370   1.830  -7.463  1.00  0.00     0.040 A 
ATOM     19  C   UNL     1       7.541   2.526  -7.113  1.00  0.00     0.123 A 
ATOM     20  F   UNL     1       8.734   1.983  -7.395  1.00  0.00    -0.207 F 
BRANCH  10  21
ATOM     21  C   UNL     1       1.986   3.638  -3.784  1.00  0.00    -0.025 A 
ATOM     22  C   UNL     1       0.382   2.364  -1.837  1.00  0.00     0.007 A 
ATOM     23  C   UNL     1       1.722   2.615  -1.585  1.00  0.00     0.015 A 
ATOM     24  C   UNL     1      -0.198   2.980  -2.953  1.00  0.00     0.015 A 
ATOM     25  C   UNL     1       2.498   3.283  -2.533  1.00  0.00     0.009 A 
ATOM     26  C   UNL     1       0.596   3.614  -3.922  1.00  0.00     0.009 A 
BRANCH  22  27
ATOM     27  S   UNL     1      -0.609   1.237  -0.872  1.00  0.00    -0.130 SA
ATOM     28  C   UNL     1       0.637   0.268   0.042  1.00  0.00     0.091 C 
ENDBRANCH  22  27
ENDBRANCH  10  21
ENDBRANCH   8   9
ENDBRANCH   5   8
ENDBRANCH   3   4
ENDBRANCH   2   3
ENDBRANCH   1   2
BRANCH   1  29
ATOM     29  C   UNL     1       7.610   7.365   0.335  1.00  0.00     0.002 C 
BRANCH  29  30
ATOM     30  C   UNL     1       6.350   7.209   1.190  1.00  0.00     0.021 C 
BRANCH  30  31
ATOM     31  C   UNL     1       6.306   5.920   2.001  1.00  0.00     0.116 C 
BRANCH  31  32
ATOM     32  N   UNL     1       7.396   5.868   2.958  1.00  0.00    -0.352 N 
ATOM     33  C   UNL     1       7.329   5.833   4.328  1.00  0.00     0.251 C 
ATOM     34  H   UNL     1       8.302   5.856   2.574  1.00  0.00     0.163 HD
ATOM     35  O   UNL     1       8.319   6.098   4.997  1.00  0.00    -0.269 OA
BRANCH  33  36
ATOM     36  C   UNL     1       6.048   5.482   4.977  1.00  0.00     0.039 A 
ATOM     37  C   UNL     1       5.618   6.223   6.079  1.00  0.00     0.014 A 
ATOM     38  C   UNL     1       5.278   4.418   4.495  1.00  0.00     0.014 A 
ATOM     39  C   UNL     1       4.393   5.919   6.675  1.00  0.00     0.010 A 
ATOM     40  C   UNL     1       4.024   4.169   5.040  1.00  0.00     0.010 A 
ATOM     41  C   UNL     1       3.575   4.907   6.145  1.00  0.00    -0.014 A 
BRANCH  41  42
ATOM     42  C   UNL     1       2.260   4.584   6.754  1.00  0.00     0.031 A 
ATOM     43  C   UNL     1       2.034   3.232   7.375  1.00  0.00     0.074 A 
ATOM     44  C   UNL     1       1.261   5.486   6.703  1.00  0.00     0.049 A 
ATOM     45  N   UNL     1       0.946   2.732   7.900  1.00  0.00    -0.248 NA
ATOM     46  C   UNL     1       3.180   2.310   7.374  1.00  0.00     0.031 C 
ATOM     47  C   UNL     1       1.354   6.816   6.097  1.00  0.00     0.029 A 
ATOM     48  N   UNL     1      -0.029   5.421   7.165  1.00  0.00    -0.354 N 
ATOM     49  C   UNL     1       1.272   1.436   8.286  1.00  0.00     0.074 A 
ATOM     50  C   UNL     1       2.637   1.206   7.861  1.00  0.00     0.031 C 
ATOM     51  C   UNL     1       0.183   7.453   6.257  1.00  0.00     0.029 A 
ATOM     52  C   UNL     1      -0.757   6.564   6.930  1.00  0.00     0.049 A 
ATOM     53  H   UNL     1      -0.398   4.632   7.622  1.00  0.00     0.167 HD
ATOM     54  C   UNL     1       0.515   0.533   8.959  1.00  0.00     0.034 A 
ATOM     55  C   UNL     1      -2.041   6.856   7.219  1.00  0.00     0.034 A 
ATOM     56  C   UNL     1      -0.843   0.786   9.377  1.00  0.00     0.049 A 
ATOM     57  C   UNL     1      -2.879   5.821   7.926  1.00  0.00     0.074 A 
ATOM     58  C   UNL     1      -1.692  -0.036  10.097  1.00  0.00     0.029 A 
ATOM     59  N   UNL     1      -1.555   1.949   9.107  1.00  0.00    -0.354 N 
ATOM     60  N   UNL     1      -2.544   4.615   8.323  1.00  0.00    -0.248 NA
ATOM     61  C   UNL     1      -4.266   6.192   8.232  1.00  0.00     0.031 C 
ATOM     62  C   UNL     1      -2.935   0.598  10.200  1.00  0.00     0.029 A 
ATOM     63  C   UNL     1      -2.841   1.851   9.618  1.00  0.00     0.049 A 
ATOM     64  H   UNL     1      -1.198   2.729   8.624  1.00  0.00     0.167 HD
ATOM     65  C   UNL     1      -3.670   4.099   8.960  1.00  0.00     0.074 A 
ATOM     66  C   UNL     1      -4.686   5.130   8.903  1.00  0.00     0.031 C 
ATOM     67  C   UNL     1      -3.847   2.886   9.544  1.00  0.00     0.034 A 
BRANCH  54  68
ATOM     68  C   UNL     1       1.140  -0.811   9.252  1.00  0.00     0.023 A 
ATOM     69  C   UNL     1       2.301  -0.929  10.037  1.00  0.00     0.031 A 
ATOM     70  C   UNL     1       0.601  -1.988   8.703  1.00  0.00     0.131 A 
ATOM     71  C   UNL     1       2.936  -2.172  10.171  1.00  0.00     0.055 A 
ATOM     72  C   UNL     1       1.185  -3.238   8.919  1.00  0.00     0.041 A 
ATOM     73  F   UNL     1      -0.493  -1.942   7.926  1.00  0.00    -0.206 F 
ATOM     74  C   UNL     1       2.371  -3.333   9.641  1.00  0.00     0.022 A 
BRANCH  71  75
ATOM     75  S   UNL     1       4.598  -2.220  10.897  1.00  0.00     0.124 S 
ATOM     76  O   UNL     1       5.332  -1.321  10.009  1.00  0.00    -0.237 OA
ATOM     77  O   UNL     1       4.365  -1.731  12.251  1.00  0.00    -0.237 OA
ATOM     78  O   UNL     1       4.976  -3.628  10.797  1.00  0.00    -0.744 OA
ENDBRANCH  71  75
ENDBRANCH  54  68
BRANCH  55  79
ATOM     79  C   UNL     1      -2.617   8.181   6.850  1.00  0.00     0.023 A 
ATOM     80  C   UNL     1      -3.051   9.077   7.839  1.00  0.00     0.031 A 
ATOM     81  C   UNL     1      -2.780   8.555   5.504  1.00  0.00     0.131 A 
ATOM     82  C   UNL     1      -3.673  10.280   7.470  1.00  0.00     0.055 A 
ATOM     83  C   UNL     1      -3.349   9.777   5.142  1.00  0.00     0.041 A 
ATOM     84  F   UNL     1      -2.376   7.738   4.518  1.00  0.00    -0.206 F 
ATOM     85  C   UNL     1      -3.812  10.642   6.129  1.00  0.00     0.022 A 
BRANCH  82  86
ATOM     86  S   UNL     1      -4.377  11.327   8.773  1.00  0.00     0.124 S 
ATOM     87  O   UNL     1      -5.324  10.415   9.406  1.00  0.00    -0.237 OA
ATOM     88  O   UNL     1      -3.195  11.671   9.556  1.00  0.00    -0.237 OA
ATOM     89  O   UNL     1      -4.976  12.434   8.032  1.00  0.00    -0.744 OA
ENDBRANCH  82  86
ENDBRANCH  55  79
BRANCH  67  90
ATOM     90  C   UNL     1      -5.178   2.636  10.212  1.00  0.00     0.023 A 
ATOM     91  C   UNL     1      -6.375   2.558   9.479  1.00  0.00     0.031 A 
ATOM     92  C   UNL     1      -5.249   2.492  11.610  1.00  0.00     0.131 A 
ATOM     93  C   UNL     1      -7.597   2.401  10.150  1.00  0.00     0.055 A 
ATOM     94  C   UNL     1      -6.460   2.271  12.266  1.00  0.00     0.041 A 
ATOM     95  F   UNL     1      -4.138   2.561  12.361  1.00  0.00    -0.206 F 
ATOM     96  C   UNL     1      -7.645   2.240  11.537  1.00  0.00     0.022 A 
BRANCH  93  97
ATOM     97  S   UNL     1      -9.136   2.512   9.196  1.00  0.00     0.124 S 
ATOM     98  O   UNL     1      -9.029   3.840   8.601  1.00  0.00    -0.237 OA
ATOM     99  O   UNL     1      -9.012   1.388   8.273  1.00  0.00    -0.237 OA
ATOM    100  O   UNL     1     -10.179   2.369  10.209  1.00  0.00    -0.744 OA
ENDBRANCH  93  97
ENDBRANCH  67  90
ENDBRANCH  41  42
ENDBRANCH  33  36
ENDBRANCH  31  32
ENDBRANCH  30  31
ENDBRANCH  29  30
ENDBRANCH   1  29
TORSDOF 19
