REMARK SMILES C=CCS(=O)(=O)N[C@H](CC(N)=O)C(=O)NCCCCCCNC(=O)c1ccc(-c2c3nc(c(-c4cc(S(=O)(=O)[O-])ccc4F)c4ccc([nH]4)c(-c4cc(S(=O)(=O)[O-])ccc4F)c4nc(c(-c5cc(S(=O)(=O)[O-])ccc5F)c5ccc2[nH]5)C=C4)C=C3)cc1
REMARK SMILES IDX 18 1 17 2 16 3 15 4 13 5 14 6 8 8 7 9 4 11 5 12 6 13 3 14
REMARK SMILES IDX 2 15 1 16 9 17 10 18 11 19 12 20 19 23 20 24 21 25 22 26
REMARK SMILES IDX 23 27 24 29 25 30 26 31 87 32 27 33 86 34 28 35 29 36 30 37
REMARK SMILES IDX 80 38 31 39 85 40 79 41 81 42 32 43 84 44 78 45 77 46 33 48
REMARK SMILES IDX 65 49 45 50 64 51 46 52 49 53 63 54 82 55 47 56 48 57 62 59
REMARK SMILES IDX 83 60 50 61 34 62 35 63 43 64 36 65 42 66 44 67 41 68 37 69
REMARK SMILES IDX 38 70 39 71 40 72 66 73 67 74 75 75 68 76 74 77 76 78 73 79
REMARK SMILES IDX 69 80 70 81 71 82 72 83 51 84 52 85 60 86 53 87 59 88 61 89
REMARK SMILES IDX 58 90 54 91 55 92 56 93 57 94
REMARK H PARENT 15 7 7 10 11 21 11 22 22 28 81 47 49 58
REMARK Flexibility Score: inf
ROOT
ATOM      1  C   UNL     1      -1.481  -6.699   5.010  1.00  0.00     0.002 C 
ENDROOT
BRANCH   1   2
ATOM      2  C   UNL     1      -1.906  -5.265   4.672  1.00  0.00     0.021 C 
BRANCH   2   3
ATOM      3  C   UNL     1      -0.708  -4.342   4.522  1.00  0.00     0.116 C 
BRANCH   3   4
ATOM      4  N   UNL     1      -0.169  -4.403   3.188  1.00  0.00    -0.355 N 
ATOM      5  C   UNL     1       0.157  -3.388   2.358  1.00  0.00     0.238 C 
ATOM      6  O   UNL     1       0.510  -3.701   1.213  1.00  0.00    -0.273 OA
ATOM      7  H   UNL     1      -0.018  -5.309   2.831  1.00  0.00     0.163 HD
BRANCH   5   8
ATOM      8  C   UNL     1       0.025  -1.926   2.737  1.00  0.00     0.168 C 
BRANCH   8   9
ATOM      9  N   UNL     1       0.707  -1.226   3.832  1.00  0.00    -0.202 NA
ATOM     10  H   UNL     1       1.158  -0.437   3.369  1.00  0.00     0.141 HD
BRANCH   9  11
ATOM     11  S   UNL     1       1.837  -1.730   4.929  1.00  0.00     0.215 S 
ATOM     12  O   UNL     1       1.303  -2.814   5.717  1.00  0.00    -0.212 OA
ATOM     13  O   UNL     1       2.199  -0.493   5.595  1.00  0.00    -0.212 OA
BRANCH  11  14
ATOM     14  C   UNL     1       3.341  -2.293   4.104  1.00  0.00     0.180 C 
BRANCH  14  15
ATOM     15  C   UNL     1       3.123  -3.392   3.117  1.00  0.00    -0.017 C 
ATOM     16  C   UNL     1       3.553  -3.342   1.848  1.00  0.00     0.005 C 
ENDBRANCH  14  15
ENDBRANCH  11  14
ENDBRANCH   9  11
ENDBRANCH   8   9
BRANCH   8  17
ATOM     17  C   UNL     1      -1.441  -1.476   2.537  1.00  0.00     0.129 C 
BRANCH  17  18
ATOM     18  C   UNL     1      -2.276  -1.188   3.764  1.00  0.00     0.219 C 
ATOM     19  N   UNL     1      -2.519   0.129   4.022  1.00  0.00    -0.370 N 
ATOM     20  O   UNL     1      -2.788  -2.051   4.465  1.00  0.00    -0.275 OA
ATOM     21  H   UNL     1      -2.108   0.824   3.459  1.00  0.00     0.159 HD
ATOM     22  H   UNL     1      -3.105   0.384   4.771  1.00  0.00     0.159 HD
ENDBRANCH  17  18
ENDBRANCH   8  17
ENDBRANCH   5   8
ENDBRANCH   3   4
ENDBRANCH   2   3
ENDBRANCH   1   2
BRANCH   1  23
ATOM     23  C   UNL     1      -0.646  -6.834   6.293  1.00  0.00     0.002 C 
BRANCH  23  24
ATOM     24  C   UNL     1      -1.253  -6.161   7.528  1.00  0.00     0.021 C 
BRANCH  24  25
ATOM     25  C   UNL     1      -2.666  -6.631   7.856  1.00  0.00     0.116 C 
BRANCH  25  26
ATOM     26  N   UNL     1      -2.721  -8.076   7.995  1.00  0.00    -0.352 N 
ATOM     27  C   UNL     1      -3.229  -8.834   9.014  1.00  0.00     0.251 C 
ATOM     28  H   UNL     1      -2.337  -8.585   7.245  1.00  0.00     0.163 HD
ATOM     29  O   UNL     1      -2.951 -10.028   9.079  1.00  0.00    -0.269 OA
BRANCH  27  30
ATOM     30  C   UNL     1      -4.100  -8.209  10.029  1.00  0.00     0.039 A 
ATOM     31  C   UNL     1      -3.945  -8.584  11.364  1.00  0.00     0.014 A 
ATOM     32  C   UNL     1      -5.085  -7.285   9.662  1.00  0.00     0.014 A 
ATOM     33  C   UNL     1      -4.758  -8.007  12.337  1.00  0.00     0.010 A 
ATOM     34  C   UNL     1      -5.843  -6.654  10.643  1.00  0.00     0.010 A 
ATOM     35  C   UNL     1      -5.697  -7.021  11.988  1.00  0.00    -0.014 A 
BRANCH  35  36
ATOM     36  C   UNL     1      -6.532  -6.377  13.032  1.00  0.00     0.031 A 
ATOM     37  C   UNL     1      -8.023  -6.569  13.037  1.00  0.00     0.074 A 
ATOM     38  C   UNL     1      -5.937  -5.602  13.960  1.00  0.00     0.049 A 
ATOM     39  N   UNL     1      -8.914  -6.098  13.871  1.00  0.00    -0.248 NA
ATOM     40  C   UNL     1      -8.592  -7.376  11.946  1.00  0.00     0.031 C 
ATOM     41  C   UNL     1      -4.503  -5.307  14.017  1.00  0.00     0.029 A 
ATOM     42  N   UNL     1      -6.457  -4.927  15.034  1.00  0.00    -0.354 N 
ATOM     43  C   UNL     1     -10.146  -6.545  13.405  1.00  0.00     0.074 A 
ATOM     44  C   UNL     1      -9.892  -7.270  12.179  1.00  0.00     0.031 C 
ATOM     45  C   UNL     1      -4.254  -4.543  15.091  1.00  0.00     0.029 A 
ATOM     46  C   UNL     1      -5.511  -4.255  15.774  1.00  0.00     0.049 A 
ATOM     47  H   UNL     1      -7.416  -4.923  15.255  1.00  0.00     0.167 HD
ATOM     48  C   UNL     1     -11.371  -6.384  13.964  1.00  0.00     0.034 A 
ATOM     49  C   UNL     1      -5.644  -3.490  16.874  1.00  0.00     0.034 A 
ATOM     50  C   UNL     1     -11.598  -5.660  15.192  1.00  0.00     0.049 A 
ATOM     51  C   UNL     1      -7.018  -3.317  17.469  1.00  0.00     0.074 A 
ATOM     52  C   UNL     1     -12.786  -5.481  15.880  1.00  0.00     0.029 A 
ATOM     53  N   UNL     1     -10.619  -4.986  15.913  1.00  0.00    -0.354 N 
ATOM     54  N   UNL     1      -8.166  -3.804  17.054  1.00  0.00    -0.248 NA
ATOM     55  C   UNL     1      -7.111  -2.509  18.689  1.00  0.00     0.031 C 
ATOM     56  C   UNL     1     -12.540  -4.637  16.968  1.00  0.00     0.029 A 
ATOM     57  C   UNL     1     -11.183  -4.360  17.015  1.00  0.00     0.049 A 
ATOM     58  H   UNL     1      -9.664  -4.956  15.675  1.00  0.00     0.167 HD
ATOM     59  C   UNL     1      -9.114  -3.380  17.981  1.00  0.00     0.074 A 
ATOM     60  C   UNL     1      -8.396  -2.625  18.988  1.00  0.00     0.031 C 
ATOM     61  C   UNL     1     -10.456  -3.593  18.000  1.00  0.00     0.034 A 
BRANCH  48  62
ATOM     62  C   UNL     1     -12.556  -6.975  13.235  1.00  0.00     0.023 A 
ATOM     63  C   UNL     1     -12.680  -8.360  13.019  1.00  0.00     0.031 A 
ATOM     64  C   UNL     1     -13.572  -6.141  12.736  1.00  0.00     0.131 A 
ATOM     65  C   UNL     1     -13.754  -8.860  12.268  1.00  0.00     0.055 A 
ATOM     66  C   UNL     1     -14.681  -6.653  12.059  1.00  0.00     0.041 A 
ATOM     67  F   UNL     1     -13.500  -4.809  12.889  1.00  0.00    -0.206 F 
ATOM     68  C   UNL     1     -14.770  -8.019  11.809  1.00  0.00     0.022 A 
BRANCH  65  69
ATOM     69  S   UNL     1     -13.735 -10.607  11.780  1.00  0.00     0.124 S 
ATOM     70  O   UNL     1     -12.486 -10.690  11.026  1.00  0.00    -0.237 OA
ATOM     71  O   UNL     1     -13.752 -11.294  13.066  1.00  0.00    -0.237 OA
ATOM     72  O   UNL     1     -14.948 -10.753  10.978  1.00  0.00    -0.744 OA
ENDBRANCH  65  69
ENDBRANCH  48  62
BRANCH  49  73
ATOM     73  C   UNL     1      -4.455  -2.824  17.482  1.00  0.00     0.023 A 
ATOM     74  C   UNL     1      -4.035  -3.135  18.785  1.00  0.00     0.031 A 
ATOM     75  C   UNL     1      -3.748  -1.830  16.782  1.00  0.00     0.131 A 
ATOM     76  C   UNL     1      -2.977  -2.421  19.368  1.00  0.00     0.055 A 
ATOM     77  C   UNL     1      -2.657  -1.166  17.344  1.00  0.00     0.041 A 
ATOM     78  F   UNL     1      -4.105  -1.495  15.532  1.00  0.00    -0.206 F 
ATOM     79  C   UNL     1      -2.275  -1.449  18.651  1.00  0.00     0.022 A 
BRANCH  76  80
ATOM     80  S   UNL     1      -2.594  -2.710  21.118  1.00  0.00     0.124 S 
ATOM     81  O   UNL     1      -3.874  -2.421  21.754  1.00  0.00    -0.237 OA
ATOM     82  O   UNL     1      -2.182  -4.109  21.111  1.00  0.00    -0.237 OA
ATOM     83  O   UNL     1      -1.528  -1.750  21.396  1.00  0.00    -0.744 OA
ENDBRANCH  76  80
ENDBRANCH  49  73
BRANCH  61  84
ATOM     84  C   UNL     1     -11.217  -3.025  19.175  1.00  0.00     0.023 A 
ATOM     85  C   UNL     1     -11.301  -1.640  19.401  1.00  0.00     0.031 A 
ATOM     86  C   UNL     1     -11.836  -3.883  20.101  1.00  0.00     0.131 A 
ATOM     87  C   UNL     1     -11.919  -1.157  20.565  1.00  0.00     0.055 A 
ATOM     88  C   UNL     1     -12.515  -3.394  21.218  1.00  0.00     0.041 A 
ATOM     89  F   UNL     1     -11.787  -5.215  19.939  1.00  0.00    -0.206 F 
ATOM     90  C   UNL     1     -12.543  -2.025  21.465  1.00  0.00     0.022 A 
BRANCH  87  91
ATOM     91  S   UNL     1     -11.784   0.610  20.951  1.00  0.00     0.124 S 
ATOM     92  O   UNL     1     -10.338   0.808  20.964  1.00  0.00    -0.237 OA
ATOM     93  O   UNL     1     -12.502   1.227  19.841  1.00  0.00    -0.237 OA
ATOM     94  O   UNL     1     -12.438   0.727  22.253  1.00  0.00    -0.744 OA
ENDBRANCH  87  91
ENDBRANCH  61  84
ENDBRANCH  35  36
ENDBRANCH  27  30
ENDBRANCH  25  26
ENDBRANCH  24  25
ENDBRANCH  23  24
ENDBRANCH   1  23
TORSDOF 22
