REMARK SMILES C[C@H](C(=O)NC1CCCC1)[N@H+]1CCn2nc(CCC(=O)NCCCCCCNC(=O)c3ccc(-c4c5nc(c(-c6cc(S(=O)(=O)[O-])ccc6F)c6ccc([nH]6)c(-c6cc(S(=O)(=O)[O-])ccc6F)c6nc(c(-c7cc(S(=O)(=O)[O-])ccc7F)c7ccc4[nH]7)C=C6)C=C5)cc3)cc2C1
REMARK SMILES IDX 23 1 22 2 21 3 19 4 20 5 18 7 17 8 16 9 11 10 12 11 96 12
REMARK SMILES IDX 13 14 95 15 14 16 94 17 15 18 2 19 1 20 3 21 4 22 5 23 6 25
REMARK SMILES IDX 7 26 10 27 8 28 9 29 24 30 25 31 26 32 27 33 28 34 29 35
REMARK SMILES IDX 30 37 31 38 32 39 93 40 33 41 92 42 34 43 35 44 36 45 86 46
REMARK SMILES IDX 37 47 91 48 85 49 87 50 38 51 90 52 84 53 83 54 39 56 71 57
REMARK SMILES IDX 51 58 70 59 52 60 55 61 69 62 88 63 53 64 54 65 68 67 89 68
REMARK SMILES IDX 56 69 40 70 41 71 49 72 42 73 48 74 50 75 47 76 43 77 44 78
REMARK SMILES IDX 45 79 46 80 72 81 73 82 81 83 74 84 80 85 82 86 79 87 75 88
REMARK SMILES IDX 76 89 77 90 78 91 57 92 58 93 66 94 59 95 65 96 67 97 64 98
REMARK SMILES IDX 60 99 61 100 62 101 63 102
REMARK H PARENT 21 6 11 13 5 24 28 36 87 55 55 66
REMARK Flexibility Score: inf
ROOT
ATOM      1  C   UNL     1      -2.326  -1.162  -4.889  1.00  0.00     0.021 C 
ENDROOT
BRANCH   1   2
ATOM      2  C   UNL     1      -1.962  -0.727  -6.305  1.00  0.00     0.116 C 
BRANCH   2   3
ATOM      3  N   UNL     1      -3.110  -0.749  -7.194  1.00  0.00    -0.356 N 
ATOM      4  C   UNL     1      -3.915   0.256  -7.646  1.00  0.00     0.220 C 
ATOM      5  O   UNL     1      -4.913  -0.061  -8.301  1.00  0.00    -0.275 OA
ATOM      6  H   UNL     1      -3.349  -1.644  -7.528  1.00  0.00     0.163 HD
BRANCH   4   7
ATOM      7  C   UNL     1      -3.578   1.722  -7.449  1.00  0.00     0.106 C 
BRANCH   7   8
ATOM      8  C   UNL     1      -4.488   2.413  -6.430  1.00  0.00     0.068 C 
BRANCH   8   9
ATOM      9  C   UNL     1      -3.859   2.410  -5.087  1.00  0.00     0.063 A 
ATOM     10  N   UNL     1      -0.698   1.408  -2.244  1.00  0.00    -0.318 N 
ATOM     11  C   UNL     1      -1.671   0.375  -1.872  1.00  0.00     0.287 C 
ATOM     12  C   UNL     1      -1.166   2.730  -2.650  1.00  0.00     0.319 C 
ATOM     13  H   UNL     1      -0.522   0.961  -3.143  1.00  0.00     0.349 HD
ATOM     14  C   UNL     1      -3.154   0.672  -2.156  1.00  0.00     0.206 C 
ATOM     15  C   UNL     1      -2.357   2.589  -3.498  1.00  0.00     0.093 A 
ATOM     16  N   UNL     1      -3.281   1.627  -3.230  1.00  0.00    -0.258 N 
ATOM     17  C   UNL     1      -2.767   3.199  -4.654  1.00  0.00     0.055 A 
ATOM     18  N   UNL     1      -4.217   1.500  -4.177  1.00  0.00    -0.177 NA
BRANCH  10  19
ATOM     19  C   UNL     1       0.632   1.403  -1.621  1.00  0.00     0.271 C 
ATOM     20  C   UNL     1       1.577   0.637  -2.559  1.00  0.00     0.086 C 
BRANCH  19  21
ATOM     21  C   UNL     1       0.700   0.851  -0.180  1.00  0.00     0.278 C 
ATOM     22  O   UNL     1       1.605   0.084   0.168  1.00  0.00    -0.268 OA
ATOM     23  N   UNL     1      -0.181   1.247   0.786  1.00  0.00    -0.348 N 
ATOM     24  H   UNL     1       0.028   0.910   1.687  1.00  0.00     0.163 HD
BRANCH  23  25
ATOM     25  C   UNL     1      -1.372   2.076   0.719  1.00  0.00     0.082 C 
ATOM     26  C   UNL     1      -2.628   1.439   1.277  1.00  0.00     0.025 C 
ATOM     27  C   UNL     1      -1.268   3.380   1.464  1.00  0.00     0.025 C 
ATOM     28  C   UNL     1      -3.595   2.584   1.483  1.00  0.00     0.002 C 
ATOM     29  C   UNL     1      -2.723   3.828   1.619  1.00  0.00     0.002 C 
ENDBRANCH  23  25
ENDBRANCH  19  21
ENDBRANCH  10  19
ENDBRANCH   8   9
ENDBRANCH   7   8
ENDBRANCH   4   7
ENDBRANCH   2   3
ENDBRANCH   1   2
BRANCH   1  30
ATOM     30  C   UNL     1      -2.344  -2.647  -4.500  1.00  0.00     0.002 C 
BRANCH  30  31
ATOM     31  C   UNL     1      -0.999  -3.368  -4.266  1.00  0.00     0.002 C 
BRANCH  31  32
ATOM     32  C   UNL     1      -0.066  -2.884  -3.132  1.00  0.00     0.021 C 
BRANCH  32  33
ATOM     33  C   UNL     1      -0.598  -2.995  -1.695  1.00  0.00     0.116 C 
BRANCH  33  34
ATOM     34  N   UNL     1      -0.270  -4.231  -0.980  1.00  0.00    -0.352 N 
ATOM     35  C   UNL     1      -0.284  -4.514   0.393  1.00  0.00     0.251 C 
ATOM     36  H   UNL     1       0.005  -4.982  -1.554  1.00  0.00     0.163 HD
ATOM     37  O   UNL     1       0.295  -5.511   0.796  1.00  0.00    -0.269 OA
BRANCH  35  38
ATOM     38  C   UNL     1      -1.010  -3.636   1.368  1.00  0.00     0.039 A 
ATOM     39  C   UNL     1      -0.739  -3.615   2.751  1.00  0.00     0.014 A 
ATOM     40  C   UNL     1      -2.051  -2.856   0.913  1.00  0.00     0.014 A 
ATOM     41  C   UNL     1      -1.491  -2.784   3.625  1.00  0.00     0.010 A 
ATOM     42  C   UNL     1      -2.675  -1.947   1.734  1.00  0.00     0.010 A 
ATOM     43  C   UNL     1      -2.478  -1.929   3.111  1.00  0.00    -0.014 A 
BRANCH  43  44
ATOM     44  C   UNL     1      -3.257  -0.905   3.873  1.00  0.00     0.031 A 
ATOM     45  C   UNL     1      -2.450   0.155   4.612  1.00  0.00     0.074 A 
ATOM     46  C   UNL     1      -4.582  -0.673   3.578  1.00  0.00     0.049 A 
ATOM     47  N   UNL     1      -2.826   0.901   5.597  1.00  0.00    -0.248 NA
ATOM     48  C   UNL     1      -1.087   0.511   4.153  1.00  0.00     0.031 C 
ATOM     49  C   UNL     1      -5.441  -1.426   2.640  1.00  0.00     0.029 A 
ATOM     50  N   UNL     1      -5.421   0.366   3.915  1.00  0.00    -0.354 N 
ATOM     51  C   UNL     1      -1.859   1.896   5.777  1.00  0.00     0.074 A 
ATOM     52  C   UNL     1      -0.837   1.655   4.799  1.00  0.00     0.031 C 
ATOM     53  C   UNL     1      -6.543  -0.711   2.315  1.00  0.00     0.029 A 
ATOM     54  C   UNL     1      -6.595   0.486   3.134  1.00  0.00     0.049 A 
ATOM     55  H   UNL     1      -5.217   0.986   4.652  1.00  0.00     0.167 HD
ATOM     56  C   UNL     1      -2.000   2.869   6.720  1.00  0.00     0.034 A 
ATOM     57  C   UNL     1      -7.554   1.468   3.146  1.00  0.00     0.034 A 
ATOM     58  C   UNL     1      -2.786   2.372   7.817  1.00  0.00     0.049 A 
ATOM     59  C   UNL     1      -7.389   2.186   4.426  1.00  0.00     0.074 A 
ATOM     60  C   UNL     1      -2.629   1.269   8.636  1.00  0.00     0.029 A 
ATOM     61  N   UNL     1      -4.109   2.726   7.920  1.00  0.00    -0.354 N 
ATOM     62  N   UNL     1      -7.621   1.645   5.585  1.00  0.00    -0.248 NA
ATOM     63  C   UNL     1      -6.527   3.354   4.430  1.00  0.00     0.031 C 
ATOM     64  C   UNL     1      -3.920   0.675   8.646  1.00  0.00     0.029 A 
ATOM     65  C   UNL     1      -4.801   1.540   7.993  1.00  0.00     0.049 A 
ATOM     66  H   UNL     1      -4.483   3.636   7.938  1.00  0.00     0.167 HD
ATOM     67  C   UNL     1      -6.586   2.092   6.382  1.00  0.00     0.074 A 
ATOM     68  C   UNL     1      -5.995   3.214   5.646  1.00  0.00     0.031 C 
ATOM     69  C   UNL     1      -6.112   1.336   7.415  1.00  0.00     0.034 A 
BRANCH  56  70
ATOM     70  C   UNL     1      -1.695   4.335   6.565  1.00  0.00     0.023 A 
ATOM     71  C   UNL     1      -1.989   5.176   7.653  1.00  0.00     0.031 A 
ATOM     72  C   UNL     1      -1.508   4.973   5.328  1.00  0.00     0.131 A 
ATOM     73  C   UNL     1      -2.255   6.542   7.460  1.00  0.00     0.055 A 
ATOM     74  C   UNL     1      -1.731   6.344   5.140  1.00  0.00     0.041 A 
ATOM     75  F   UNL     1      -1.169   4.279   4.240  1.00  0.00    -0.206 F 
ATOM     76  C   UNL     1      -2.150   7.131   6.204  1.00  0.00     0.022 A 
BRANCH  73  77
ATOM     77  S   UNL     1      -2.936   7.471   8.858  1.00  0.00     0.124 S 
ATOM     78  O   UNL     1      -4.106   6.667   9.197  1.00  0.00    -0.237 OA
ATOM     79  O   UNL     1      -1.831   7.430   9.809  1.00  0.00    -0.237 OA
ATOM     80  O   UNL     1      -3.220   8.784   8.286  1.00  0.00    -0.744 OA
ENDBRANCH  73  77
ENDBRANCH  56  70
BRANCH  57  81
ATOM     81  C   UNL     1      -8.520   1.993   2.115  1.00  0.00     0.023 A 
ATOM     82  C   UNL     1      -9.662   2.783   2.442  1.00  0.00     0.031 A 
ATOM     83  C   UNL     1      -8.158   1.971   0.754  1.00  0.00     0.131 A 
ATOM     84  C   UNL     1     -10.364   3.508   1.440  1.00  0.00     0.055 A 
ATOM     85  C   UNL     1      -8.850   2.695  -0.229  1.00  0.00     0.041 A 
ATOM     86  F   UNL     1      -7.056   1.323   0.347  1.00  0.00    -0.206 F 
ATOM     87  C   UNL     1      -9.945   3.476   0.111  1.00  0.00     0.022 A 
BRANCH  84  88
ATOM     88  S   UNL     1     -11.769   4.613   1.853  1.00  0.00     0.124 S 
ATOM     89  O   UNL     1     -12.847   3.667   2.117  1.00  0.00    -0.237 OA
ATOM     90  O   UNL     1     -11.265   5.361   2.999  1.00  0.00    -0.237 OA
ATOM     91  O   UNL     1     -11.944   5.413   0.639  1.00  0.00    -0.744 OA
ENDBRANCH  84  88
ENDBRANCH  57  81
BRANCH  69  92
ATOM     92  C   UNL     1      -6.860   0.081   7.841  1.00  0.00     0.023 A 
ATOM     93  C   UNL     1      -7.321  -0.940   6.976  1.00  0.00     0.031 A 
ATOM     94  C   UNL     1      -6.973  -0.152   9.225  1.00  0.00     0.131 A 
ATOM     95  C   UNL     1      -7.868  -2.126   7.508  1.00  0.00     0.055 A 
ATOM     96  C   UNL     1      -7.470  -1.343   9.746  1.00  0.00     0.041 A 
ATOM     97  F   UNL     1      -6.551   0.768  10.110  1.00  0.00    -0.206 F 
ATOM     98  C   UNL     1      -7.927  -2.333   8.889  1.00  0.00     0.022 A 
BRANCH  95  99
ATOM     99  S   UNL     1      -8.561  -3.415   6.420  1.00  0.00     0.124 S 
ATOM    100  O   UNL     1      -9.302  -2.661   5.416  1.00  0.00    -0.237 OA
ATOM    101  O   UNL     1      -7.364  -4.106   5.947  1.00  0.00    -0.237 OA
ATOM    102  O   UNL     1      -9.397  -4.204   7.327  1.00  0.00    -0.744 OA
ENDBRANCH  95  99
ENDBRANCH  69  92
ENDBRANCH  43  44
ENDBRANCH  35  38
ENDBRANCH  33  34
ENDBRANCH  32  33
ENDBRANCH  31  32
ENDBRANCH  30  31
ENDBRANCH   1  30
TORSDOF 21
