REMARK SMILES C[C@@H](C(=O)NCCCCCCNC(=O)c1ccc(-c2c3nc(c(-c4cc(S(=O)(=O)[O-])ccc4F)c4ccc([nH]4)c(-c4cc(S(=O)(=O)[O-])ccc4F)c4nc(c(-c5cc(S(=O)(=O)[O-])ccc5F)c5ccc2[nH]5)C=C4)C=C3)cc1)c1ccc(C[C@H]2CCC[C@H]2O)cc1
REMARK SMILES IDX 8 1 7 2 6 3 5 4 3 5 4 6 2 8 1 9 78 10 79 11 90 12 80 13
REMARK SMILES IDX 89 14 81 15 82 16 83 17 84 18 87 19 85 20 86 21 88 22 9 24
REMARK SMILES IDX 10 25 11 26 12 27 13 28 14 30 15 31 16 32 77 33 17 34 76 35
REMARK SMILES IDX 18 36 19 37 20 38 70 39 21 40 75 41 69 42 71 43 22 44 74 45
REMARK SMILES IDX 68 46 67 47 23 49 55 50 35 51 54 52 36 53 39 54 53 55 72 56
REMARK SMILES IDX 37 57 38 58 52 60 73 61 40 62 24 63 25 64 33 65 26 66 32 67
REMARK SMILES IDX 34 68 31 69 27 70 28 71 29 72 30 73 56 74 57 75 65 76 58 77
REMARK SMILES IDX 64 78 66 79 63 80 59 81 60 82 61 83 62 84 41 85 42 86 50 87
REMARK SMILES IDX 43 88 49 89 51 90 48 91 44 92 45 93 46 94 47 95
REMARK H PARENT 5 7 88 23 12 29 71 48 39 59
REMARK Flexibility Score: inf
ROOT
ATOM      1  C   UNL     1       4.918  -2.189   1.855  1.00  0.00     0.002 C 
ENDROOT
BRANCH   1   2
ATOM      2  C   UNL     1       4.209  -1.270   0.850  1.00  0.00     0.021 C 
BRANCH   2   3
ATOM      3  C   UNL     1       3.349  -2.007  -0.182  1.00  0.00     0.116 C 
BRANCH   3   4
ATOM      4  N   UNL     1       2.247  -2.681   0.477  1.00  0.00    -0.356 N 
ATOM      5  C   UNL     1       0.943  -2.292   0.594  1.00  0.00     0.227 C 
ATOM      6  O   UNL     1       0.300  -2.805   1.513  1.00  0.00    -0.274 OA
ATOM      7  H   UNL     1       2.470  -3.541   0.900  1.00  0.00     0.163 HD
BRANCH   5   8
ATOM      8  C   UNL     1       0.362  -1.265  -0.399  1.00  0.00     0.105 C 
ATOM      9  C   UNL     1       0.761   0.135   0.100  1.00  0.00     0.023 C 
BRANCH   8  10
ATOM     10  C   UNL     1      -1.155  -1.369  -0.615  1.00  0.00    -0.036 A 
ATOM     11  C   UNL     1      -1.889  -0.268  -1.083  1.00  0.00     0.005 A 
ATOM     12  C   UNL     1      -1.869  -2.545  -0.346  1.00  0.00     0.005 A 
ATOM     13  C   UNL     1      -3.284  -0.276  -1.076  1.00  0.00     0.004 A 
ATOM     14  C   UNL     1      -3.266  -2.546  -0.310  1.00  0.00     0.004 A 
ATOM     15  C   UNL     1      -3.981  -1.380  -0.588  1.00  0.00    -0.048 A 
BRANCH  15  16
ATOM     16  C   UNL     1      -5.454  -1.285  -0.287  1.00  0.00     0.041 C 
BRANCH  16  17
ATOM     17  C   UNL     1      -5.840  -0.767   1.115  1.00  0.00     0.022 C 
ATOM     18  C   UNL     1      -5.224  -1.510   2.314  1.00  0.00     0.007 C 
ATOM     19  C   UNL     1      -5.610   0.719   1.435  1.00  0.00     0.117 C 
ATOM     20  C   UNL     1      -5.173  -0.497   3.463  1.00  0.00     0.003 C 
ATOM     21  C   UNL     1      -5.842   0.772   2.942  1.00  0.00     0.032 C 
BRANCH  19  22
ATOM     22  O   UNL     1      -4.304   1.198   1.170  1.00  0.00    -0.393 OA
ATOM     23  H   UNL     1      -3.662   0.690   1.690  1.00  0.00     0.210 HD
ENDBRANCH  19  22
ENDBRANCH  16  17
ENDBRANCH  15  16
ENDBRANCH   8  10
ENDBRANCH   5   8
ENDBRANCH   3   4
ENDBRANCH   2   3
ENDBRANCH   1   2
BRANCH   1  24
ATOM     24  C   UNL     1       5.861  -3.224   1.236  1.00  0.00     0.002 C 
BRANCH  24  25
ATOM     25  C   UNL     1       6.918  -2.646   0.294  1.00  0.00     0.021 C 
BRANCH  25  26
ATOM     26  C   UNL     1       7.833  -1.608   0.932  1.00  0.00     0.116 C 
BRANCH  26  27
ATOM     27  N   UNL     1       8.693  -2.190   1.949  1.00  0.00    -0.352 N 
ATOM     28  C   UNL     1      10.059  -2.077   2.079  1.00  0.00     0.251 C 
ATOM     29  H   UNL     1       8.241  -2.736   2.632  1.00  0.00     0.163 HD
ATOM     30  O   UNL     1      10.666  -2.782   2.873  1.00  0.00    -0.269 OA
BRANCH  28  31
ATOM     31  C   UNL     1      10.777  -1.108   1.224  1.00  0.00     0.039 A 
ATOM     32  C   UNL     1      11.895  -1.531   0.500  1.00  0.00     0.014 A 
ATOM     33  C   UNL     1      10.318   0.207   1.117  1.00  0.00     0.014 A 
ATOM     34  C   UNL     1      12.519  -0.646  -0.384  1.00  0.00     0.010 A 
ATOM     35  C   UNL     1      10.900   1.065   0.191  1.00  0.00     0.010 A 
ATOM     36  C   UNL     1      12.008   0.648  -0.567  1.00  0.00    -0.014 A 
BRANCH  36  37
ATOM     37  C   UNL     1      12.621   1.613  -1.515  1.00  0.00     0.031 A 
ATOM     38  C   UNL     1      13.218   2.885  -0.983  1.00  0.00     0.074 A 
ATOM     39  C   UNL     1      12.532   1.408  -2.843  1.00  0.00     0.049 A 
ATOM     40  N   UNL     1      13.612   3.953  -1.625  1.00  0.00    -0.248 NA
ATOM     41  C   UNL     1      13.342   2.977   0.479  1.00  0.00     0.031 C 
ATOM     42  C   UNL     1      11.946   0.228  -3.479  1.00  0.00     0.029 A 
ATOM     43  N   UNL     1      12.903   2.206  -3.896  1.00  0.00    -0.354 N 
ATOM     44  C   UNL     1      13.998   4.861  -0.644  1.00  0.00     0.074 A 
ATOM     45  C   UNL     1      13.734   4.231   0.633  1.00  0.00     0.031 C 
ATOM     46  C   UNL     1      11.988   0.383  -4.813  1.00  0.00     0.029 A 
ATOM     47  C   UNL     1      12.558   1.691  -5.124  1.00  0.00     0.049 A 
ATOM     48  H   UNL     1      13.372   3.065  -3.784  1.00  0.00     0.167 HD
ATOM     49  C   UNL     1      14.534   6.098  -0.797  1.00  0.00     0.034 A 
ATOM     50  C   UNL     1      12.656   2.225  -6.358  1.00  0.00     0.034 A 
ATOM     51  C   UNL     1      14.804   6.695  -2.083  1.00  0.00     0.049 A 
ATOM     52  C   UNL     1      13.250   3.601  -6.514  1.00  0.00     0.074 A 
ATOM     53  C   UNL     1      15.404   7.911  -2.362  1.00  0.00     0.029 A 
ATOM     54  N   UNL     1      14.482   6.122  -3.307  1.00  0.00    -0.354 N 
ATOM     55  N   UNL     1      13.646   4.438  -5.583  1.00  0.00    -0.248 NA
ATOM     56  C   UNL     1      13.418   4.102  -7.885  1.00  0.00     0.031 C 
ATOM     57  C   UNL     1      15.388   8.099  -3.749  1.00  0.00     0.029 A 
ATOM     58  C   UNL     1      14.846   6.969  -4.342  1.00  0.00     0.049 A 
ATOM     59  H   UNL     1      14.057   5.241  -3.423  1.00  0.00     0.167 HD
ATOM     60  C   UNL     1      14.140   5.551  -6.257  1.00  0.00     0.074 A 
ATOM     61  C   UNL     1      13.988   5.281  -7.672  1.00  0.00     0.031 C 
ATOM     62  C   UNL     1      14.684   6.686  -5.749  1.00  0.00     0.034 A 
BRANCH  49  63
ATOM     63  C   UNL     1      14.820   6.885   0.461  1.00  0.00     0.023 A 
ATOM     64  C   UNL     1      15.708   6.411   1.443  1.00  0.00     0.031 A 
ATOM     65  C   UNL     1      14.140   8.088   0.720  1.00  0.00     0.131 A 
ATOM     66  C   UNL     1      15.805   7.070   2.677  1.00  0.00     0.055 A 
ATOM     67  C   UNL     1      14.318   8.793   1.912  1.00  0.00     0.041 A 
ATOM     68  F   UNL     1      13.265   8.585  -0.169  1.00  0.00    -0.206 F 
ATOM     69  C   UNL     1      15.136   8.272   2.910  1.00  0.00     0.022 A 
BRANCH  66  70
ATOM     70  S   UNL     1      16.659   6.225   4.038  1.00  0.00     0.124 S 
ATOM     71  O   UNL     1      15.928   4.960   4.103  1.00  0.00    -0.237 OA
ATOM     72  O   UNL     1      18.030   6.146   3.549  1.00  0.00    -0.237 OA
ATOM     73  O   UNL     1      16.450   7.114   5.178  1.00  0.00    -0.744 OA
ENDBRANCH  66  70
ENDBRANCH  49  63
BRANCH  50  74
ATOM     74  C   UNL     1      12.156   1.464  -7.535  1.00  0.00     0.023 A 
ATOM     75  C   UNL     1      13.041   0.929  -8.483  1.00  0.00     0.031 A 
ATOM     76  C   UNL     1      10.778   1.248  -7.718  1.00  0.00     0.131 A 
ATOM     77  C   UNL     1      12.537   0.225  -9.588  1.00  0.00     0.055 A 
ATOM     78  C   UNL     1      10.285   0.514  -8.797  1.00  0.00     0.041 A 
ATOM     79  F   UNL     1       9.893   1.728  -6.831  1.00  0.00    -0.206 F 
ATOM     80  C   UNL     1      11.167   0.002  -9.744  1.00  0.00     0.022 A 
BRANCH  77  81
ATOM     81  S   UNL     1      13.701  -0.375 -10.843  1.00  0.00     0.124 S 
ATOM     82  O   UNL     1      14.275   0.872 -11.335  1.00  0.00    -0.237 OA
ATOM     83  O   UNL     1      14.588  -1.224 -10.054  1.00  0.00    -0.237 OA
ATOM     84  O   UNL     1      12.845  -1.085 -11.790  1.00  0.00    -0.744 OA
ENDBRANCH  77  81
ENDBRANCH  50  74
BRANCH  62  85
ATOM     85  C   UNL     1      15.216   7.698  -6.732  1.00  0.00     0.023 A 
ATOM     86  C   UNL     1      14.365   8.486  -7.524  1.00  0.00     0.031 A 
ATOM     87  C   UNL     1      16.604   7.896  -6.844  1.00  0.00     0.131 A 
ATOM     88  C   UNL     1      14.914   9.420  -8.417  1.00  0.00     0.055 A 
ATOM     89  C   UNL     1      17.142   8.857  -7.700  1.00  0.00     0.041 A 
ATOM     90  F   UNL     1      17.459   7.168  -6.108  1.00  0.00    -0.206 F 
ATOM     91  C   UNL     1      16.295   9.622  -8.497  1.00  0.00     0.022 A 
BRANCH  88  92
ATOM     92  S   UNL     1      13.801  10.347  -9.509  1.00  0.00     0.124 S 
ATOM     93  O   UNL     1      13.204   9.282 -10.308  1.00  0.00    -0.237 OA
ATOM     94  O   UNL     1      12.910  11.010  -8.562  1.00  0.00    -0.237 OA
ATOM     95  O   UNL     1      14.700  11.240 -10.239  1.00  0.00    -0.744 OA
ENDBRANCH  88  92
ENDBRANCH  62  85
ENDBRANCH  36  37
ENDBRANCH  28  31
ENDBRANCH  26  27
ENDBRANCH  25  26
ENDBRANCH  24  25
ENDBRANCH   1  24
TORSDOF 20
