REMARK SMILES O=C(COc1cccc(/C=C2/SC(=S)N(NC(=O)c3ccccc3F)C2=O)c1)NCCCCCCNC(=O)c1ccc(-c2c3nc(c(-c4cc(S(=O)(=O)[O-])ccc4F)c4ccc([nH]4)c(-c4cc(S(=O)(=O)[O-])ccc4F)c4nc(c(-c5cc(S(=O)(=O)[O-])ccc5F)c5ccc2[nH]5)C=C4)C=C3)cc1
REMARK SMILES IDX 31 1 30 2 29 3 1 4 2 5 3 7 4 8 5 9 6 10 28 11 7 12 9 13 8 14
REMARK SMILES IDX 10 15 11 16 12 17 26 18 13 19 15 20 27 21 14 22 16 23 17 24
REMARK SMILES IDX 18 26 19 27 20 28 24 29 21 30 23 31 25 32 22 33 32 34 33 35
REMARK SMILES IDX 34 36 35 37 36 38 37 39 38 41 39 42 40 43 101 44 41 45
REMARK SMILES IDX 100 46 42 47 43 48 44 49 94 50 45 51 99 52 93 53 95 54 46 55
REMARK SMILES IDX 98 56 92 57 91 58 47 60 79 61 59 62 78 63 60 64 63 65 77 66
REMARK SMILES IDX 96 67 61 68 62 69 76 71 97 72 64 73 48 74 49 75 57 76 50 77
REMARK SMILES IDX 56 78 58 79 55 80 51 81 52 82 53 83 54 84 80 85 81 86 89 87
REMARK SMILES IDX 82 88 88 89 90 90 87 91 83 92 84 93 85 94 86 95 65 96 66 97
REMARK SMILES IDX 74 98 67 99 73 100 75 101 72 102 68 103 69 104 70 105 71 106
REMARK H PARENT 29 6 16 25 36 40 95 59 63 70
REMARK Flexibility Score: inf
ROOT
ATOM      1  C   UNL     1       2.783   1.622   3.092  1.00  0.00     0.021 C 
ENDROOT
BRANCH   1   2
ATOM      2  C   UNL     1       2.133   1.669   1.712  1.00  0.00     0.116 C 
BRANCH   2   3
ATOM      3  N   UNL     1       2.653   0.684   0.779  1.00  0.00    -0.353 N 
ATOM      4  O   UNL     1       0.932  -0.806   1.059  1.00  0.00    -0.271 OA
ATOM      5  C   UNL     1       1.959  -0.466   0.473  1.00  0.00     0.257 C 
ATOM      6  H   UNL     1       3.527   0.843   0.354  1.00  0.00     0.163 HD
BRANCH   5   7
ATOM      7  C   UNL     1       2.556  -1.342  -0.644  1.00  0.00     0.329 C 
BRANCH   7   8
ATOM      8  O   UNL     1       3.355  -0.788  -1.676  1.00  0.00    -0.484 OA
BRANCH   8   9
ATOM      9  C   UNL     1       2.688  -0.151  -2.688  1.00  0.00     0.120 A 
ATOM     10  C   UNL     1       3.134  -0.401  -3.986  1.00  0.00     0.046 A 
ATOM     11  C   UNL     1       1.761   0.864  -2.466  1.00  0.00     0.054 A 
ATOM     12  C   UNL     1       2.672   0.373  -5.052  1.00  0.00     0.004 A 
ATOM     13  C   UNL     1       1.401   1.732  -3.502  1.00  0.00    -0.021 A 
ATOM     14  C   UNL     1       1.824   1.454  -4.806  1.00  0.00     0.008 A 
BRANCH  13  15
ATOM     15  C   UNL     1       0.694   2.992  -3.234  1.00  0.00     0.029 C 
ATOM     16  C   UNL     1       1.154   3.975  -2.438  1.00  0.00     0.082 C 
ATOM     17  S   UNL     1       0.443   5.554  -2.407  1.00  0.00    -0.052 SA
ATOM     18  C   UNL     1       2.374   3.981  -1.575  1.00  0.00     0.285 C 
ATOM     19  C   UNL     1       1.841   6.271  -1.608  1.00  0.00     0.168 C 
ATOM     20  N   UNL     1       2.762   5.281  -1.325  1.00  0.00    -0.198 N 
ATOM     21  O   UNL     1       2.899   2.979  -1.096  1.00  0.00    -0.266 OA
ATOM     22  S   UNL     1       1.953   7.891  -1.236  1.00  0.00    -0.050 S 
BRANCH  20  23
ATOM     23  N   UNL     1       3.928   5.577  -0.590  1.00  0.00    -0.254 N 
ATOM     24  C   UNL     1       5.183   5.018  -0.728  1.00  0.00     0.273 C 
ATOM     25  H   UNL     1       3.836   6.267   0.106  1.00  0.00     0.192 HD
ATOM     26  O   UNL     1       6.090   5.373   0.026  1.00  0.00    -0.267 OA
BRANCH  24  27
ATOM     27  C   UNL     1       5.480   3.941  -1.688  1.00  0.00     0.077 A 
ATOM     28  C   UNL     1       6.081   2.770  -1.199  1.00  0.00     0.017 A 
ATOM     29  C   UNL     1       5.173   4.041  -3.041  1.00  0.00     0.136 A 
ATOM     30  C   UNL     1       6.315   1.693  -2.054  1.00  0.00     0.001 A 
ATOM     31  C   UNL     1       5.417   2.970  -3.900  1.00  0.00     0.040 A 
ATOM     32  F   UNL     1       4.609   5.150  -3.540  1.00  0.00    -0.206 F 
ATOM     33  C   UNL     1       5.981   1.793  -3.404  1.00  0.00     0.003 A 
ENDBRANCH  24  27
ENDBRANCH  20  23
ENDBRANCH  13  15
ENDBRANCH   8   9
ENDBRANCH   7   8
ENDBRANCH   5   7
ENDBRANCH   2   3
ENDBRANCH   1   2
BRANCH   1  34
ATOM     34  C   UNL     1       4.275   1.970   3.132  1.00  0.00     0.002 C 
BRANCH  34  35
ATOM     35  C   UNL     1       4.673   3.318   2.526  1.00  0.00     0.002 C 
BRANCH  35  36
ATOM     36  C   UNL     1       3.983   4.562   3.091  1.00  0.00     0.021 C 
BRANCH  36  37
ATOM     37  C   UNL     1       4.134   4.793   4.593  1.00  0.00     0.116 C 
BRANCH  37  38
ATOM     38  N   UNL     1       5.514   4.971   5.009  1.00  0.00    -0.352 N 
ATOM     39  C   UNL     1       6.073   5.891   5.864  1.00  0.00     0.251 C 
ATOM     40  H   UNL     1       6.151   4.331   4.617  1.00  0.00     0.163 HD
ATOM     41  O   UNL     1       7.295   5.918   5.996  1.00  0.00    -0.269 OA
BRANCH  39  42
ATOM     42  C   UNL     1       5.232   6.871   6.596  1.00  0.00     0.039 A 
ATOM     43  C   UNL     1       5.689   8.190   6.704  1.00  0.00     0.014 A 
ATOM     44  C   UNL     1       4.023   6.511   7.197  1.00  0.00     0.014 A 
ATOM     45  C   UNL     1       4.908   9.154   7.348  1.00  0.00     0.010 A 
ATOM     46  C   UNL     1       3.214   7.487   7.785  1.00  0.00     0.010 A 
ATOM     47  C   UNL     1       3.645   8.820   7.862  1.00  0.00    -0.014 A 
BRANCH  47  48
ATOM     48  C   UNL     1       2.763   9.863   8.454  1.00  0.00     0.031 A 
ATOM     49  C   UNL     1       2.405   9.831   9.915  1.00  0.00     0.074 A 
ATOM     50  C   UNL     1       2.240  10.815   7.657  1.00  0.00     0.049 A 
ATOM     51  N   UNL     1       1.638  10.643  10.599  1.00  0.00    -0.248 NA
ATOM     52  C   UNL     1       2.959   8.722  10.704  1.00  0.00     0.031 C 
ATOM     53  C   UNL     1       2.467  10.926   6.214  1.00  0.00     0.029 A 
ATOM     54  N   UNL     1       1.408  11.869   7.942  1.00  0.00    -0.354 N 
ATOM     55  C   UNL     1       1.607  10.139  11.895  1.00  0.00     0.074 A 
ATOM     56  C   UNL     1       2.388   8.919  11.883  1.00  0.00     0.031 C 
ATOM     57  C   UNL     1       1.818  12.004   5.748  1.00  0.00     0.029 A 
ATOM     58  C   UNL     1       1.100  12.642   6.847  1.00  0.00     0.049 A 
ATOM     59  H   UNL     1       1.065  12.055   8.846  1.00  0.00     0.167 HD
ATOM     60  C   UNL     1       1.002  10.656  12.996  1.00  0.00     0.034 A 
ATOM     61  C   UNL     1       0.327  13.739   6.737  1.00  0.00     0.034 A 
ATOM     62  C   UNL     1       0.236  11.881  12.994  1.00  0.00     0.049 A 
ATOM     63  C   UNL     1      -0.341  14.291   7.969  1.00  0.00     0.074 A 
ATOM     64  C   UNL     1      -0.349  12.535  14.066  1.00  0.00     0.029 A 
ATOM     65  N   UNL     1      -0.067  12.630  11.864  1.00  0.00    -0.354 N 
ATOM     66  N   UNL     1      -0.303  13.842   9.202  1.00  0.00    -0.248 NA
ATOM     67  C   UNL     1      -1.147  15.505   7.792  1.00  0.00     0.031 C 
ATOM     68  C   UNL     1      -1.059  13.639  13.576  1.00  0.00     0.029 A 
ATOM     69  C   UNL     1      -0.861  13.717  12.207  1.00  0.00     0.049 A 
ATOM     70  H   UNL     1       0.238  12.421  10.952  1.00  0.00     0.167 HD
ATOM     71  C   UNL     1      -1.065  14.733   9.952  1.00  0.00     0.074 A 
ATOM     72  C   UNL     1      -1.531  15.754   9.035  1.00  0.00     0.031 C 
ATOM     73  C   UNL     1      -1.350  14.711  11.280  1.00  0.00     0.034 A 
BRANCH  60  74
ATOM     74  C   UNL     1       1.125   9.873  14.284  1.00  0.00     0.023 A 
ATOM     75  C   UNL     1       2.371   9.638  14.891  1.00  0.00     0.031 A 
ATOM     76  C   UNL     1      -0.016   9.320  14.892  1.00  0.00     0.131 A 
ATOM     77  C   UNL     1       2.458   8.801  16.014  1.00  0.00     0.055 A 
ATOM     78  C   UNL     1       0.068   8.556  16.059  1.00  0.00     0.041 A 
ATOM     79  F   UNL     1      -1.232   9.495  14.352  1.00  0.00    -0.206 F 
ATOM     80  C   UNL     1       1.313   8.277  16.616  1.00  0.00     0.022 A 
BRANCH  77  81
ATOM     81  S   UNL     1       4.101   8.277  16.578  1.00  0.00     0.124 S 
ATOM     82  O   UNL     1       4.643   7.654  15.373  1.00  0.00    -0.237 OA
ATOM     83  O   UNL     1       4.714   9.538  16.977  1.00  0.00    -0.237 OA
ATOM     84  O   UNL     1       3.809   7.350  17.670  1.00  0.00    -0.744 OA
ENDBRANCH  77  81
ENDBRANCH  60  74
BRANCH  61  85
ATOM     85  C   UNL     1       0.142  14.398   5.415  1.00  0.00     0.023 A 
ATOM     86  C   UNL     1       0.669  15.676   5.168  1.00  0.00     0.031 A 
ATOM     87  C   UNL     1      -0.585  13.771   4.388  1.00  0.00     0.131 A 
ATOM     88  C   UNL     1       0.430  16.303   3.936  1.00  0.00     0.055 A 
ATOM     89  C   UNL     1      -0.783  14.381   3.149  1.00  0.00     0.041 A 
ATOM     90  F   UNL     1      -1.102  12.546   4.574  1.00  0.00    -0.206 F 
ATOM     91  C   UNL     1      -0.283  15.660   2.921  1.00  0.00     0.022 A 
BRANCH  88  92
ATOM     92  S   UNL     1       1.017  18.002   3.698  1.00  0.00     0.124 S 
ATOM     93  O   UNL     1       0.303  18.715   4.752  1.00  0.00    -0.237 OA
ATOM     94  O   UNL     1       2.457  17.855   3.885  1.00  0.00    -0.237 OA
ATOM     95  O   UNL     1       0.598  18.320   2.334  1.00  0.00    -0.744 OA
ENDBRANCH  88  92
ENDBRANCH  61  85
BRANCH  73  96
ATOM     96  C   UNL     1      -2.192  15.847  11.809  1.00  0.00     0.023 A 
ATOM     97  C   UNL     1      -3.536  16.007  11.426  1.00  0.00     0.031 A 
ATOM     98  C   UNL     1      -1.632  16.806  12.670  1.00  0.00     0.131 A 
ATOM     99  C   UNL     1      -4.255  17.135  11.850  1.00  0.00     0.055 A 
ATOM    100  C   UNL     1      -2.370  17.894  13.137  1.00  0.00     0.041 A 
ATOM    101  F   UNL     1      -0.353  16.705  13.066  1.00  0.00    -0.206 F 
ATOM    102  C   UNL     1      -3.685  18.072  12.715  1.00  0.00     0.022 A 
BRANCH  99 103
ATOM    103  S   UNL     1      -5.912  17.419  11.167  1.00  0.00     0.124 S 
ATOM    104  O   UNL     1      -5.649  17.448   9.732  1.00  0.00    -0.237 OA
ATOM    105  O   UNL     1      -6.653  16.262  11.656  1.00  0.00    -0.237 OA
ATOM    106  O   UNL     1      -6.308  18.700  11.750  1.00  0.00    -0.744 OA
ENDBRANCH  99 103
ENDBRANCH  73  96
ENDBRANCH  47  48
ENDBRANCH  39  42
ENDBRANCH  37  38
ENDBRANCH  36  37
ENDBRANCH  35  36
ENDBRANCH  34  35
ENDBRANCH   1  34
TORSDOF 21
