REMARK SMILES CC(=O)O[C@@H]1CC[C@@]23C(=O)O[C@]4(CC[C@]2(O)C1)[C@H]3CC[C@]1(C)[C@H](C(=O)NCCCCCCNC(=O)c2ccc(-c3c5nc(c(-c6cc(S(=O)(=O)[O-])ccc6F)c6ccc([nH]6)c(-c6cc(S(=O)(=O)[O-])ccc6F)c6nc(c(-c7cc(S(=O)(=O)[O-])ccc7F)c7ccc3[nH]7)C=C6)C=C5)cc2)CC[C@@H]14
REMARK SMILES IDX 30 1 29 2 28 3 27 4 26 5 24 6 25 7 23 9 5 10 6 11 17 12 7 13
REMARK SMILES IDX 15 14 8 15 14 16 9 17 18 18 13 19 10 20 11 21 12 22 19 23
REMARK SMILES IDX 101 24 20 25 21 26 100 27 22 28 99 29 4 30 2 31 1 32 3 33
REMARK SMILES IDX 16 34 31 36 32 37 33 38 34 39 35 41 36 42 37 43 98 44 38 45
REMARK SMILES IDX 97 46 39 47 40 48 41 49 91 50 42 51 96 52 90 53 92 54 43 55
REMARK SMILES IDX 95 56 89 57 88 58 44 60 76 61 56 62 75 63 57 64 60 65 74 66
REMARK SMILES IDX 93 67 58 68 59 69 73 71 94 72 61 73 45 74 46 75 54 76 47 77
REMARK SMILES IDX 53 78 55 79 52 80 48 81 49 82 50 83 51 84 77 85 78 86 86 87
REMARK SMILES IDX 79 88 85 89 87 90 84 91 80 92 81 93 82 94 83 95 62 96 63 97
REMARK SMILES IDX 71 98 64 99 70 100 72 101 69 102 65 103 66 104 67 105 68 106
REMARK H PARENT 26 8 16 35 33 40 92 59 60 70
REMARK Flexibility Score: inf
ROOT
ATOM      1  C   UNL     1      -5.436  -9.784   0.408  1.00  0.00     0.002 C 
ENDROOT
BRANCH   1   2
ATOM      2  C   UNL     1      -4.525 -10.039   1.611  1.00  0.00     0.002 C 
BRANCH   2   3
ATOM      3  C   UNL     1      -3.332  -9.087   1.708  1.00  0.00     0.021 C 
BRANCH   3   4
ATOM      4  C   UNL     1      -3.713  -7.638   2.055  1.00  0.00     0.116 C 
BRANCH   4   5
ATOM      5  N   UNL     1      -3.824  -7.512   3.494  1.00  0.00    -0.356 N 
ATOM      6  C   UNL     1      -2.944  -7.149   4.454  1.00  0.00     0.223 C 
ATOM      7  O   UNL     1      -3.266  -7.460   5.610  1.00  0.00    -0.275 OA
ATOM      8  H   UNL     1      -4.718  -7.733   3.842  1.00  0.00     0.163 HD
BRANCH   6   9
ATOM      9  C   UNL     1      -1.675  -6.314   4.252  1.00  0.00     0.085 C 
ATOM     10  C   UNL     1       0.874  -3.045  -2.486  1.00  0.00     0.179 C 
ATOM     11  C   UNL     1      -0.481  -3.506  -2.002  1.00  0.00     0.047 C 
ATOM     12  C   UNL     1       1.771  -4.306  -2.490  1.00  0.00     0.081 C 
ATOM     13  C   UNL     1      -0.311  -4.026  -0.592  1.00  0.00     0.026 C 
ATOM     14  C   UNL     1       1.784  -5.172  -1.185  1.00  0.00     0.085 C 
ATOM     15  C   UNL     1       0.470  -5.530  -0.560  1.00  0.00     0.103 C 
ATOM     16  C   UNL     1       2.532  -4.397  -0.015  1.00  0.00     0.041 C 
ATOM     17  C   UNL     1      -0.765  -6.097  -0.078  1.00  0.00     0.316 C 
ATOM     18  C   UNL     1       1.116  -6.432   0.849  1.00  0.00     0.054 C 
ATOM     19  C   UNL     1       1.741  -4.285   1.399  1.00  0.00     0.052 C 
ATOM     20  O   UNL     1      -1.695  -6.666  -0.632  1.00  0.00    -0.251 OA
ATOM     21  O   UNL     1      -0.758  -5.512   1.210  1.00  0.00    -0.458 OA
ATOM     22  C   UNL     1       0.625  -5.390   1.735  1.00  0.00     0.120 C 
ATOM     23  C   UNL     1       0.674  -7.838   1.363  1.00  0.00     0.009 C 
ATOM     24  C   UNL     1       0.430  -5.520   3.231  1.00  0.00     0.040 C 
ATOM     25  C   UNL     1      -0.349  -7.886   2.534  1.00  0.00     0.008 C 
ATOM     26  C   UNL     1      -0.296  -6.830   3.672  1.00  0.00    -0.014 C 
ATOM     27  C   UNL     1      -0.504  -4.353   3.661  1.00  0.00     0.009 C 
ATOM     28  C   UNL     1       0.483  -7.441   4.861  1.00  0.00     0.012 C 
ATOM     29  C   UNL     1      -1.917  -4.931   3.667  1.00  0.00     0.014 C 
BRANCH  10  30
ATOM     30  O   UNL     1       1.519  -1.989  -1.704  1.00  0.00    -0.462 OA
BRANCH  30  31
ATOM     31  C   UNL     1       0.832  -0.979  -1.099  1.00  0.00     0.302 C 
ATOM     32  C   UNL     1       1.761   0.053  -0.528  1.00  0.00     0.139 C 
ATOM     33  O   UNL     1      -0.382  -0.871  -1.003  1.00  0.00    -0.253 OA
ENDBRANCH  30  31
ENDBRANCH  10  30
BRANCH  14  34
ATOM     34  O   UNL     1       2.485  -6.379  -1.500  1.00  0.00    -0.389 OA
ATOM     35  H   UNL     1       2.517  -6.949  -0.716  1.00  0.00     0.211 HD
ENDBRANCH  14  34
ENDBRANCH   6   9
ENDBRANCH   4   5
ENDBRANCH   3   4
ENDBRANCH   2   3
ENDBRANCH   1   2
BRANCH   1  36
ATOM     36  C   UNL     1      -4.726  -9.770  -0.949  1.00  0.00     0.021 C 
BRANCH  36  37
ATOM     37  C   UNL     1      -3.907 -11.022  -1.254  1.00  0.00     0.116 C 
BRANCH  37  38
ATOM     38  N   UNL     1      -4.735 -12.218  -1.250  1.00  0.00    -0.352 N 
ATOM     39  C   UNL     1      -5.011 -13.086  -2.276  1.00  0.00     0.251 C 
ATOM     40  H   UNL     1      -5.157 -12.436  -0.388  1.00  0.00     0.163 HD
ATOM     41  O   UNL     1      -5.935 -13.886  -2.170  1.00  0.00    -0.269 OA
BRANCH  39  42
ATOM     42  C   UNL     1      -4.196 -13.042  -3.509  1.00  0.00     0.039 A 
ATOM     43  C   UNL     1      -4.835 -13.095  -4.749  1.00  0.00     0.014 A 
ATOM     44  C   UNL     1      -2.802 -12.964  -3.436  1.00  0.00     0.014 A 
ATOM     45  C   UNL     1      -4.077 -13.016  -5.919  1.00  0.00     0.010 A 
ATOM     46  C   UNL     1      -2.055 -12.815  -4.601  1.00  0.00     0.010 A 
ATOM     47  C   UNL     1      -2.684 -12.846  -5.854  1.00  0.00    -0.014 A 
BRANCH  47  48
ATOM     48  C   UNL     1      -1.867 -12.711  -7.088  1.00  0.00     0.031 A 
ATOM     49  C   UNL     1      -0.843 -13.758  -7.429  1.00  0.00     0.074 A 
ATOM     50  C   UNL     1      -2.009 -11.620  -7.866  1.00  0.00     0.049 A 
ATOM     51  N   UNL     1       0.017 -13.788  -8.416  1.00  0.00    -0.248 NA
ATOM     52  C   UNL     1      -0.755 -14.912  -6.522  1.00  0.00     0.031 C 
ATOM     53  C   UNL     1      -2.946 -10.523  -7.618  1.00  0.00     0.029 A 
ATOM     54  N   UNL     1      -1.363 -11.249  -9.019  1.00  0.00    -0.354 N 
ATOM     55  C   UNL     1       0.752 -14.956  -8.244  1.00  0.00     0.074 A 
ATOM     56  C   UNL     1       0.281 -15.569  -7.020  1.00  0.00     0.031 C 
ATOM     57  C   UNL     1      -2.835  -9.618  -8.604  1.00  0.00     0.029 A 
ATOM     58  C   UNL     1      -1.786 -10.043  -9.526  1.00  0.00     0.049 A 
ATOM     59  H   UNL     1      -0.663 -11.796  -9.443  1.00  0.00     0.167 HD
ATOM     60  C   UNL     1       1.712 -15.481  -9.045  1.00  0.00     0.034 A 
ATOM     61  C   UNL     1      -1.368  -9.352 -10.605  1.00  0.00     0.034 A 
ATOM     62  C   UNL     1       2.166 -14.855 -10.264  1.00  0.00     0.049 A 
ATOM     63  C   UNL     1      -0.268  -9.933 -11.458  1.00  0.00     0.074 A 
ATOM     64  C   UNL     1       3.100 -15.316 -11.175  1.00  0.00     0.029 A 
ATOM     65  N   UNL     1       1.724 -13.626 -10.740  1.00  0.00    -0.354 N 
ATOM     66  N   UNL     1       0.389 -11.060 -11.306  1.00  0.00    -0.248 NA
ATOM     67  C   UNL     1       0.140  -9.152 -12.632  1.00  0.00     0.031 C 
ATOM     68  C   UNL     1       3.275 -14.337 -12.160  1.00  0.00     0.029 A 
ATOM     69  C   UNL     1       2.390 -13.300 -11.912  1.00  0.00     0.049 A 
ATOM     70  H   UNL     1       1.037 -13.068 -10.308  1.00  0.00     0.167 HD
ATOM     71  C   UNL     1       1.263 -11.139 -12.387  1.00  0.00     0.074 A 
ATOM     72  C   UNL     1       1.039  -9.952 -13.187  1.00  0.00     0.031 C 
ATOM     73  C   UNL     1       2.164 -12.106 -12.694  1.00  0.00     0.034 A 
BRANCH  60  74
ATOM     74  C   UNL     1       2.349 -16.780  -8.607  1.00  0.00     0.023 A 
ATOM     75  C   UNL     1       1.595 -17.958  -8.460  1.00  0.00     0.031 A 
ATOM     76  C   UNL     1       3.719 -16.836  -8.295  1.00  0.00     0.131 A 
ATOM     77  C   UNL     1       2.193 -19.114  -7.936  1.00  0.00     0.055 A 
ATOM     78  C   UNL     1       4.328 -18.014  -7.858  1.00  0.00     0.041 A 
ATOM     79  F   UNL     1       4.488 -15.740  -8.394  1.00  0.00    -0.206 F 
ATOM     80  C   UNL     1       3.561 -19.158  -7.659  1.00  0.00     0.022 A 
BRANCH  77  81
ATOM     81  S   UNL     1       1.126 -20.506  -7.473  1.00  0.00     0.124 S 
ATOM     82  O   UNL     1       0.228 -19.880  -6.506  1.00  0.00    -0.237 OA
ATOM     83  O   UNL     1       0.530 -20.884  -8.749  1.00  0.00    -0.237 OA
ATOM     84  O   UNL     1       2.059 -21.479  -6.907  1.00  0.00    -0.744 OA
ENDBRANCH  77  81
ENDBRANCH  60  74
BRANCH  61  85
ATOM     85  C   UNL     1      -1.979  -8.034 -10.944  1.00  0.00     0.023 A 
ATOM     86  C   UNL     1      -2.694  -7.858 -12.139  1.00  0.00     0.031 A 
ATOM     87  C   UNL     1      -1.821  -6.920 -10.100  1.00  0.00     0.131 A 
ATOM     88  C   UNL     1      -3.182  -6.587 -12.482  1.00  0.00     0.055 A 
ATOM     89  C   UNL     1      -2.358  -5.672 -10.418  1.00  0.00     0.041 A 
ATOM     90  F   UNL     1      -1.147  -7.033  -8.944  1.00  0.00    -0.206 F 
ATOM     91  C   UNL     1      -3.032  -5.497 -11.623  1.00  0.00     0.022 A 
BRANCH  88  92
ATOM     92  S   UNL     1      -3.938  -6.360 -14.115  1.00  0.00     0.124 S 
ATOM     93  O   UNL     1      -2.857  -6.773 -15.002  1.00  0.00    -0.237 OA
ATOM     94  O   UNL     1      -5.088  -7.255 -14.043  1.00  0.00    -0.237 OA
ATOM     95  O   UNL     1      -4.260  -4.935 -14.144  1.00  0.00    -0.744 OA
ENDBRANCH  88  92
ENDBRANCH  61  85
BRANCH  73  96
ATOM     96  C   UNL     1       2.939 -11.937 -13.979  1.00  0.00     0.023 A 
ATOM     97  C   UNL     1       3.870 -10.898 -14.153  1.00  0.00     0.031 A 
ATOM     98  C   UNL     1       2.732 -12.825 -15.050  1.00  0.00     0.131 A 
ATOM     99  C   UNL     1       4.516 -10.738 -15.388  1.00  0.00     0.055 A 
ATOM    100  C   UNL     1       3.424 -12.698 -16.255  1.00  0.00     0.041 A 
ATOM    101  F   UNL     1       1.853 -13.834 -14.941  1.00  0.00    -0.206 F 
ATOM    102  C   UNL     1       4.312 -11.642 -16.434  1.00  0.00     0.022 A 
BRANCH  99 103
ATOM    103  S   UNL     1       5.558  -9.275 -15.644  1.00  0.00     0.124 S 
ATOM    104  O   UNL     1       4.615  -8.186 -15.408  1.00  0.00    -0.237 OA
ATOM    105  O   UNL     1       6.595  -9.449 -14.632  1.00  0.00    -0.237 OA
ATOM    106  O   UNL     1       6.012  -9.414 -17.026  1.00  0.00    -0.744 OA
ENDBRANCH  99 103
ENDBRANCH  73  96
ENDBRANCH  47  48
ENDBRANCH  39  42
ENDBRANCH  37  38
ENDBRANCH  36  37
ENDBRANCH   1  36
TORSDOF 19
