REMARK SMILES O=C(/C=C\c1ccc([N+](=O)[O-])cc1)NCCCCCCNC(=O)c1ccc(-c2c3nc(c(-c4cc(S(=O)(=O)[O-])ccc4F)c4ccc([nH]4)c(-c4cc(S(=O)(=O)[O-])ccc4F)c4nc(c(-c5cc(S(=O)(=O)[O-])ccc5F)c5ccc2[nH]5)C=C4)C=C3)cc1
REMARK SMILES IDX 18 1 17 2 16 3 15 4 14 5 1 6 2 7 3 9 4 10 5 11 6 12 13 13
REMARK SMILES IDX 7 14 12 15 8 16 9 17 10 18 11 19 19 20 20 21 21 22 22 23
REMARK SMILES IDX 23 25 24 26 25 27 86 28 26 29 85 30 27 31 28 32 29 33 79 34
REMARK SMILES IDX 30 35 84 36 78 37 80 38 31 39 83 40 77 41 76 42 32 44 64 45
REMARK SMILES IDX 44 46 63 47 45 48 48 49 62 50 81 51 46 52 47 53 61 55 82 56
REMARK SMILES IDX 49 57 33 58 34 59 42 60 35 61 41 62 43 63 40 64 36 65 37 66
REMARK SMILES IDX 38 67 39 68 65 69 66 70 74 71 67 72 73 73 75 74 72 75 68 76
REMARK SMILES IDX 69 77 70 78 71 79 50 80 51 81 59 82 52 83 58 84 60 85 57 86
REMARK SMILES IDX 53 87 54 88 55 89 56 90
REMARK H PARENT 14 8 21 24 80 43 48 54
REMARK Flexibility Score: inf
ROOT
ATOM      1  C   UNL     1       4.258   3.304   2.860  1.00  0.00     0.002 C 
ENDROOT
BRANCH   1   2
ATOM      2  C   UNL     1       3.607   1.982   3.276  1.00  0.00     0.002 C 
BRANCH   2   3
ATOM      3  C   UNL     1       2.140   1.804   2.877  1.00  0.00     0.021 C 
BRANCH   3   4
ATOM      4  C   UNL     1       1.852   1.976   1.384  1.00  0.00     0.116 C 
BRANCH   4   5
ATOM      5  N   UNL     1       2.675   1.122   0.545  1.00  0.00    -0.353 N 
ATOM      6  O   UNL     1       1.138  -0.561   0.319  1.00  0.00    -0.270 OA
ATOM      7  C   UNL     1       2.249  -0.092   0.090  1.00  0.00     0.243 C 
ATOM      8  H   UNL     1       3.576   1.432   0.294  1.00  0.00     0.163 HD
BRANCH   7   9
ATOM      9  C   UNL     1       3.170  -0.844  -0.808  1.00  0.00     0.072 C 
ATOM     10  C   UNL     1       4.506  -0.842  -0.942  1.00  0.00     0.014 C 
BRANCH  10  11
ATOM     11  C   UNL     1       5.491  -0.062  -0.196  1.00  0.00    -0.025 A 
ATOM     12  C   UNL     1       6.230   0.925  -0.860  1.00  0.00     0.015 A 
ATOM     13  C   UNL     1       5.709  -0.290   1.167  1.00  0.00     0.015 A 
ATOM     14  C   UNL     1       7.134   1.726  -0.157  1.00  0.00     0.086 A 
ATOM     15  C   UNL     1       6.615   0.503   1.879  1.00  0.00     0.086 A 
ATOM     16  C   UNL     1       7.306   1.526   1.218  1.00  0.00     0.269 A 
BRANCH  16  17
ATOM     17  N   UNL     1       8.179   2.425   1.980  1.00  0.00     0.062 N 
ATOM     18  O   UNL     1       8.931   3.171   1.340  1.00  0.00    -0.258 OA
ATOM     19  O   UNL     1       8.094   2.390   3.215  1.00  0.00    -0.258 OA
ENDBRANCH  16  17
ENDBRANCH  10  11
ENDBRANCH   7   9
ENDBRANCH   4   5
ENDBRANCH   3   4
ENDBRANCH   2   3
ENDBRANCH   1   2
BRANCH   1  20
ATOM     20  C   UNL     1       3.730   4.535   3.595  1.00  0.00     0.021 C 
BRANCH  20  21
ATOM     21  C   UNL     1       3.978   4.534   5.101  1.00  0.00     0.116 C 
BRANCH  21  22
ATOM     22  N   UNL     1       5.390   4.541   5.453  1.00  0.00    -0.352 N 
ATOM     23  C   UNL     1       6.036   5.264   6.431  1.00  0.00     0.251 C 
ATOM     24  H   UNL     1       5.963   3.947   4.917  1.00  0.00     0.163 HD
ATOM     25  O   UNL     1       7.256   5.235   6.511  1.00  0.00    -0.269 OA
BRANCH  23  26
ATOM     26  C   UNL     1       5.250   6.113   7.356  1.00  0.00     0.039 A 
ATOM     27  C   UNL     1       5.688   7.416   7.603  1.00  0.00     0.014 A 
ATOM     28  C   UNL     1       4.077   5.642   7.954  1.00  0.00     0.014 A 
ATOM     29  C   UNL     1       4.907   8.271   8.385  1.00  0.00     0.010 A 
ATOM     30  C   UNL     1       3.262   6.519   8.666  1.00  0.00     0.010 A 
ATOM     31  C   UNL     1       3.665   7.844   8.885  1.00  0.00    -0.014 A 
BRANCH  31  32
ATOM     32  C   UNL     1       2.774   8.788   9.610  1.00  0.00     0.031 A 
ATOM     33  C   UNL     1       2.417   8.552  11.052  1.00  0.00     0.074 A 
ATOM     34  C   UNL     1       2.246   9.836   8.947  1.00  0.00     0.049 A 
ATOM     35  N   UNL     1       1.661   9.268  11.845  1.00  0.00    -0.248 NA
ATOM     36  C   UNL     1       2.956   7.335  11.674  1.00  0.00     0.031 C 
ATOM     37  C   UNL     1       2.466  10.135   7.529  1.00  0.00     0.029 A 
ATOM     38  N   UNL     1       1.421  10.847   9.372  1.00  0.00    -0.354 N 
ATOM     39  C   UNL     1       1.623   8.583  13.056  1.00  0.00     0.074 A 
ATOM     40  C   UNL     1       2.378   7.362  12.865  1.00  0.00     0.031 C 
ATOM     41  C   UNL     1       1.834  11.277   7.217  1.00  0.00     0.029 A 
ATOM     42  C   UNL     1       1.131  11.771   8.395  1.00  0.00     0.049 A 
ATOM     43  H   UNL     1       1.070  10.905  10.290  1.00  0.00     0.167 HD
ATOM     44  C   UNL     1       1.035   8.950  14.222  1.00  0.00     0.034 A 
ATOM     45  C   UNL     1       0.386  12.893   8.444  1.00  0.00     0.034 A 
ATOM     46  C   UNL     1       0.294  10.178  14.394  1.00  0.00     0.049 A 
ATOM     47  C   UNL     1      -0.263  13.277   9.748  1.00  0.00     0.074 A 
ATOM     48  C   UNL     1      -0.275  10.688  15.549  1.00  0.00     0.029 A 
ATOM     49  N   UNL     1       0.004  11.084  13.380  1.00  0.00    -0.354 N 
ATOM     50  N   UNL     1      -0.222  12.660  10.907  1.00  0.00    -0.248 NA
ATOM     51  C   UNL     1      -1.047  14.517   9.751  1.00  0.00     0.031 C 
ATOM     52  C   UNL     1      -0.970  11.858  15.218  1.00  0.00     0.029 A 
ATOM     53  C   UNL     1      -0.770  12.125  13.873  1.00  0.00     0.049 A 
ATOM     54  H   UNL     1       0.305  10.998  12.446  1.00  0.00     0.167 HD
ATOM     55  C   UNL     1      -0.958  13.453  11.783  1.00  0.00     0.074 A 
ATOM     56  C   UNL     1      -1.404  14.604  11.023  1.00  0.00     0.031 C 
ATOM     57  C   UNL     1      -1.238  13.251  13.097  1.00  0.00     0.034 A 
BRANCH  44  58
ATOM     58  C   UNL     1       1.147   7.992  15.387  1.00  0.00     0.023 A 
ATOM     59  C   UNL     1       2.392   7.629  15.932  1.00  0.00     0.031 A 
ATOM     60  C   UNL     1      -0.004   7.399  15.935  1.00  0.00     0.131 A 
ATOM     61  C   UNL     1       2.464   6.638  16.923  1.00  0.00     0.055 A 
ATOM     62  C   UNL     1       0.067   6.479  16.984  1.00  0.00     0.041 A 
ATOM     63  F   UNL     1      -1.221   7.688  15.448  1.00  0.00    -0.206 F 
ATOM     64  C   UNL     1       1.308   6.079  17.471  1.00  0.00     0.022 A 
BRANCH  61  65
ATOM     65  S   UNL     1       4.092   5.972  17.366  1.00  0.00     0.124 S 
ATOM     66  O   UNL     1       4.583   5.505  16.071  1.00  0.00    -0.237 OA
ATOM     67  O   UNL     1       4.768   7.137  17.924  1.00  0.00    -0.237 OA
ATOM     68  O   UNL     1       3.781   4.912  18.323  1.00  0.00    -0.744 OA
ENDBRANCH  61  65
ENDBRANCH  44  58
BRANCH  45  69
ATOM     69  C   UNL     1       0.222  13.745   7.232  1.00  0.00     0.023 A 
ATOM     70  C   UNL     1       0.744  15.048   7.192  1.00  0.00     0.031 A 
ATOM     71  C   UNL     1      -0.487  13.283   6.110  1.00  0.00     0.131 A 
ATOM     72  C   UNL     1       0.513  15.860   6.071  1.00  0.00     0.055 A 
ATOM     73  C   UNL     1      -0.672  14.077   4.977  1.00  0.00     0.041 A 
ATOM     74  F   UNL     1      -1.001  12.042   6.094  1.00  0.00    -0.206 F 
ATOM     75  C   UNL     1      -0.180  15.379   4.958  1.00  0.00     0.022 A 
BRANCH  72  76
ATOM     76  S   UNL     1       1.073  17.584   6.118  1.00  0.00     0.124 S 
ATOM     77  O   UNL     1       0.345  18.103   7.270  1.00  0.00    -0.237 OA
ATOM     78  O   UNL     1       2.514  17.430   6.285  1.00  0.00    -0.237 OA
ATOM     79  O   UNL     1       0.652  18.114   4.822  1.00  0.00    -0.744 OA
ENDBRANCH  72  76
ENDBRANCH  45  69
BRANCH  57  80
ATOM     80  C   UNL     1      -2.052  14.321  13.787  1.00  0.00     0.023 A 
ATOM     81  C   UNL     1      -3.379  14.596  13.409  1.00  0.00     0.031 A 
ATOM     82  C   UNL     1      -1.479  15.110  14.800  1.00  0.00     0.131 A 
ATOM     83  C   UNL     1      -4.061  15.680  13.982  1.00  0.00     0.055 A 
ATOM     84  C   UNL     1      -2.187  16.142  15.418  1.00  0.00     0.041 A 
ATOM     85  F   UNL     1      -0.215  14.897  15.200  1.00  0.00    -0.206 F 
ATOM     86  C   UNL     1      -3.479  16.445  14.996  1.00  0.00     0.022 A 
BRANCH  83  87
ATOM     87  S   UNL     1      -5.669  16.159  13.292  1.00  0.00     0.124 S 
ATOM     88  O   UNL     1      -5.342  16.378  11.886  1.00  0.00    -0.237 OA
ATOM     89  O   UNL     1      -6.492  14.990  13.580  1.00  0.00    -0.237 OA
ATOM     90  O   UNL     1      -6.019  17.364  14.041  1.00  0.00    -0.744 OA
ENDBRANCH  83  87
ENDBRANCH  57  80
ENDBRANCH  31  32
ENDBRANCH  23  26
ENDBRANCH  21  22
ENDBRANCH  20  21
ENDBRANCH   1  20
TORSDOF 18
