REMARK SMILES Cc1cscc1-c1noc(SCC(=O)NCCCCCCNC(=O)c2ccc(-c3c4nc(c(-c5cc(S(=O)(=O)[O-])ccc5F)c5ccc([nH]5)c(-c5cc(S(=O)(=O)[O-])ccc5F)c5nc(c(-c6cc(S(=O)(=O)[O-])ccc6F)c6ccc3[nH]6)C=C5)C=C4)cc2)n1
REMARK SMILES IDX 18 1 17 2 16 3 15 4 13 5 14 6 12 8 11 9 10 10 7 11 8 12
REMARK SMILES IDX 88 13 9 14 6 15 1 16 2 17 3 18 4 19 5 20 19 21 20 22 21 23
REMARK SMILES IDX 22 24 23 25 24 27 25 28 26 29 87 30 27 31 86 32 28 33 29 34
REMARK SMILES IDX 30 35 80 36 31 37 85 38 79 39 81 40 32 41 84 42 78 43 77 44
REMARK SMILES IDX 33 46 65 47 45 48 64 49 46 50 49 51 63 52 82 53 47 54 48 55
REMARK SMILES IDX 62 57 83 58 50 59 34 60 35 61 43 62 36 63 42 64 44 65 41 66
REMARK SMILES IDX 37 67 38 68 39 69 40 70 66 71 67 72 75 73 68 74 74 75 76 76
REMARK SMILES IDX 73 77 69 78 70 79 71 80 72 81 51 82 52 83 60 84 53 85 59 86
REMARK SMILES IDX 61 87 58 88 54 89 55 90 56 91 57 92
REMARK H PARENT 15 7 22 26 81 45 49 56
REMARK Flexibility Score: inf
ROOT
ATOM      1  C   UNL     1       7.595   2.484   0.531  1.00  0.00     0.002 C 
ENDROOT
BRANCH   1   2
ATOM      2  C   UNL     1       6.827   3.706   0.007  1.00  0.00     0.021 C 
BRANCH   2   3
ATOM      3  C   UNL     1       6.795   3.807  -1.519  1.00  0.00     0.116 C 
BRANCH   3   4
ATOM      4  N   UNL     1       6.031   2.711  -2.085  1.00  0.00    -0.355 N 
ATOM      5  C   UNL     1       4.802   2.703  -2.673  1.00  0.00     0.230 C 
ATOM      6  O   UNL     1       4.351   1.610  -3.029  1.00  0.00    -0.274 OA
ATOM      7  H   UNL     1       6.471   1.832  -2.036  1.00  0.00     0.163 HD
BRANCH   5   8
ATOM      8  C   UNL     1       4.084   3.995  -3.010  1.00  0.00     0.179 C 
BRANCH   8   9
ATOM      9  S   UNL     1       3.649   5.028  -1.596  1.00  0.00    -0.055 SA
BRANCH   9  10
ATOM     10  C   UNL     1       2.572   4.028  -0.683  1.00  0.00     0.286 A 
ATOM     11  C   UNL     1       1.317   2.504  -0.006  1.00  0.00     0.204 A 
ATOM     12  N   UNL     1       1.135   3.462   0.910  1.00  0.00    -0.056 NA
ATOM     13  N   UNL     1       2.198   2.813  -1.008  1.00  0.00    -0.181 NA
ATOM     14  O   UNL     1       1.989   4.473   0.473  1.00  0.00    -0.327 OA
BRANCH  11  15
ATOM     15  C   UNL     1       0.574   1.246  -0.014  1.00  0.00     0.036 A 
ATOM     16  C   UNL     1       2.661  -0.313  -0.097  1.00  0.00     0.046 C 
ATOM     17  C   UNL     1       1.190  -0.051  -0.067  1.00  0.00    -0.029 A 
ATOM     18  C   UNL     1       0.225  -1.044  -0.058  1.00  0.00     0.069 A 
ATOM     19  S   UNL     1      -1.369  -0.431   0.017  1.00  0.00    -0.151 S 
ATOM     20  C   UNL     1      -0.802   1.178   0.052  1.00  0.00     0.077 A 
ENDBRANCH  11  15
ENDBRANCH   9  10
ENDBRANCH   8   9
ENDBRANCH   5   8
ENDBRANCH   3   4
ENDBRANCH   2   3
ENDBRANCH   1   2
BRANCH   1  21
ATOM     21  C   UNL     1       9.059   2.401   0.087  1.00  0.00     0.002 C 
BRANCH  21  22
ATOM     22  C   UNL     1       9.904   3.630   0.426  1.00  0.00     0.021 C 
BRANCH  22  23
ATOM     23  C   UNL     1       9.977   3.953   1.914  1.00  0.00     0.116 C 
BRANCH  23  24
ATOM     24  N   UNL     1      10.641   2.901   2.666  1.00  0.00    -0.352 N 
ATOM     25  C   UNL     1      11.704   2.993   3.529  1.00  0.00     0.251 C 
ATOM     26  H   UNL     1      10.277   1.995   2.539  1.00  0.00     0.163 HD
ATOM     27  O   UNL     1      12.272   1.968   3.904  1.00  0.00    -0.269 OA
BRANCH  25  28
ATOM     28  C   UNL     1      12.174   4.319   3.985  1.00  0.00     0.039 A 
ATOM     29  C   UNL     1      13.547   4.566   4.052  1.00  0.00     0.014 A 
ATOM     30  C   UNL     1      11.264   5.314   4.356  1.00  0.00     0.014 A 
ATOM     31  C   UNL     1      14.005   5.825   4.448  1.00  0.00     0.010 A 
ATOM     32  C   UNL     1      11.721   6.591   4.669  1.00  0.00     0.010 A 
ATOM     33  C   UNL     1      13.097   6.857   4.735  1.00  0.00    -0.014 A 
BRANCH  33  34
ATOM     34  C   UNL     1      13.569   8.207   5.145  1.00  0.00     0.031 A 
ATOM     35  C   UNL     1      13.227   8.738   6.512  1.00  0.00     0.074 A 
ATOM     36  C   UNL     1      14.263   8.970   4.277  1.00  0.00     0.049 A 
ATOM     37  N   UNL     1      13.490   9.907   7.038  1.00  0.00    -0.248 NA
ATOM     38  C   UNL     1      12.459   7.844   7.392  1.00  0.00     0.031 C 
ATOM     39  C   UNL     1      14.625   8.580   2.913  1.00  0.00     0.029 A 
ATOM     40  N   UNL     1      14.785  10.232   4.410  1.00  0.00    -0.354 N 
ATOM     41  C   UNL     1      12.910   9.893   8.303  1.00  0.00     0.074 A 
ATOM     42  C   UNL     1      12.220   8.628   8.432  1.00  0.00     0.031 C 
ATOM     43  C   UNL     1      15.336   9.569   2.348  1.00  0.00     0.029 A 
ATOM     44  C   UNL     1      15.440  10.682   3.287  1.00  0.00     0.049 A 
ATOM     45  H   UNL     1      14.700  10.765   5.233  1.00  0.00     0.167 HD
ATOM     46  C   UNL     1      12.970  10.836   9.277  1.00  0.00     0.034 A 
ATOM     47  C   UNL     1      16.046  11.860   3.037  1.00  0.00     0.034 A 
ATOM     48  C   UNL     1      13.670  12.089   9.133  1.00  0.00     0.049 A 
ATOM     49  C   UNL     1      16.076  12.906   4.124  1.00  0.00     0.074 A 
ATOM     50  C   UNL     1      13.832  13.099  10.066  1.00  0.00     0.029 A 
ATOM     51  N   UNL     1      14.321  12.511   7.979  1.00  0.00    -0.354 N 
ATOM     52  N   UNL     1      15.560  12.861   5.332  1.00  0.00    -0.248 NA
ATOM     53  C   UNL     1      16.787  14.153   3.820  1.00  0.00     0.031 C 
ATOM     54  C   UNL     1      14.509  14.159   9.454  1.00  0.00     0.029 A 
ATOM     55  C   UNL     1      14.857  13.776   8.169  1.00  0.00     0.049 A 
ATOM     56  H   UNL     1      14.391  11.988   7.148  1.00  0.00     0.167 HD
ATOM     57  C   UNL     1      15.921  14.059   5.944  1.00  0.00     0.074 A 
ATOM     58  C   UNL     1      16.709  14.796   4.976  1.00  0.00     0.031 C 
ATOM     59  C   UNL     1      15.636  14.506   7.194  1.00  0.00     0.034 A 
BRANCH  46  60
ATOM     60  C   UNL     1      12.232  10.551  10.566  1.00  0.00     0.023 A 
ATOM     61  C   UNL     1      12.553   9.445  11.375  1.00  0.00     0.031 A 
ATOM     62  C   UNL     1      11.167  11.373  10.975  1.00  0.00     0.131 A 
ATOM     63  C   UNL     1      11.765   9.142  12.495  1.00  0.00     0.055 A 
ATOM     64  C   UNL     1      10.446  11.119  12.144  1.00  0.00     0.041 A 
ATOM     65  F   UNL     1      10.795  12.430  10.236  1.00  0.00    -0.206 F 
ATOM     66  C   UNL     1      10.731   9.987  12.902  1.00  0.00     0.022 A 
BRANCH  63  67
ATOM     67  S   UNL     1      12.004   7.540  13.312  1.00  0.00     0.124 S 
ATOM     68  O   UNL     1      11.766   6.610  12.211  1.00  0.00    -0.237 OA
ATOM     69  O   UNL     1      13.380   7.630  13.787  1.00  0.00    -0.237 OA
ATOM     70  O   UNL     1      10.982   7.532  14.356  1.00  0.00    -0.744 OA
ENDBRANCH  63  67
ENDBRANCH  46  60
BRANCH  47  71
ATOM     71  C   UNL     1      16.671  12.123   1.708  1.00  0.00     0.023 A 
ATOM     72  C   UNL     1      18.053  12.340   1.586  1.00  0.00     0.031 A 
ATOM     73  C   UNL     1      15.887  12.207   0.543  1.00  0.00     0.131 A 
ATOM     74  C   UNL     1      18.601  12.681   0.340  1.00  0.00     0.055 A 
ATOM     75  C   UNL     1      16.446  12.487  -0.705  1.00  0.00     0.041 A 
ATOM     76  F   UNL     1      14.561  12.005   0.601  1.00  0.00    -0.206 F 
ATOM     77  C   UNL     1      17.809  12.741  -0.809  1.00  0.00     0.022 A 
BRANCH  74  78
ATOM     78  S   UNL     1      20.355  13.138   0.257  1.00  0.00     0.124 S 
ATOM     79  O   UNL     1      20.412  14.262   1.184  1.00  0.00    -0.237 OA
ATOM     80  O   UNL     1      21.009  11.909   0.696  1.00  0.00    -0.237 OA
ATOM     81  O   UNL     1      20.551  13.477  -1.151  1.00  0.00    -0.744 OA
ENDBRANCH  74  78
ENDBRANCH  47  71
BRANCH  59  82
ATOM     82  C   UNL     1      16.237  15.830   7.606  1.00  0.00     0.023 A 
ATOM     83  C   UNL     1      15.893  17.037   6.973  1.00  0.00     0.031 A 
ATOM     84  C   UNL     1      17.191  15.878   8.640  1.00  0.00     0.131 A 
ATOM     85  C   UNL     1      16.548  18.226   7.328  1.00  0.00     0.055 A 
ATOM     86  C   UNL     1      17.784  17.076   9.040  1.00  0.00     0.041 A 
ATOM     87  F   UNL     1      17.563  14.758   9.280  1.00  0.00    -0.206 F 
ATOM     88  C   UNL     1      17.477  18.256   8.372  1.00  0.00     0.022 A 
BRANCH  85  89
ATOM     89  S   UNL     1      16.262  19.711   6.327  1.00  0.00     0.124 S 
ATOM     90  O   UNL     1      16.616  19.248   4.989  1.00  0.00    -0.237 OA
ATOM     91  O   UNL     1      14.845  19.973   6.556  1.00  0.00    -0.237 OA
ATOM     92  O   UNL     1      17.175  20.696   6.904  1.00  0.00    -0.744 OA
ENDBRANCH  85  89
ENDBRANCH  59  82
ENDBRANCH  33  34
ENDBRANCH  25  28
ENDBRANCH  23  24
ENDBRANCH  22  23
ENDBRANCH  21  22
ENDBRANCH   1  21
TORSDOF 19
