REMARK SMILES CC[NH2+][C@@]1(C(=O)NCCCCCCNC(=O)c2ccc(-c3c4nc(c(-c5cc(S(=O)(=O)[O-])ccc5F)c5ccc([nH]5)c(-c5cc(S(=O)(=O)[O-])ccc5F)c5nc(c(-c6cc(S(=O)(=O)[O-])ccc6F)c6ccc3[nH]6)C=C5)C=C4)cc2)CC[C@@H]([N@@H+](C)Cc2nccn2C)C1
REMARK SMILES IDX 10 1 9 2 8 3 7 4 5 5 6 6 4 8 80 9 92 10 81 11 82 12 3 13
REMARK SMILES IDX 2 16 1 17 83 18 84 19 85 21 86 22 87 23 90 24 88 25 89 26
REMARK SMILES IDX 91 27 11 28 12 29 13 30 14 31 15 32 16 34 17 35 18 36 79 37
REMARK SMILES IDX 19 38 78 39 20 40 21 41 22 42 72 43 23 44 77 45 71 46 73 47
REMARK SMILES IDX 24 48 76 49 70 50 69 51 25 53 57 54 37 55 56 56 38 57 41 58
REMARK SMILES IDX 55 59 74 60 39 61 40 62 54 64 75 65 42 66 26 67 27 68 35 69
REMARK SMILES IDX 28 70 34 71 36 72 33 73 29 74 30 75 31 76 32 77 58 78 59 79
REMARK SMILES IDX 67 80 60 81 66 82 68 83 65 84 61 85 62 86 63 87 64 88 43 89
REMARK SMILES IDX 44 90 52 91 45 92 51 93 53 94 50 95 46 96 47 97 48 98 49 99
REMARK H PARENT 7 7 3 14 3 15 83 20 14 33 73 52 41 63
REMARK Flexibility Score: inf
ROOT
ATOM      1  C   UNL     1      -2.576   6.722   3.644  1.00  0.00     0.002 C 
ENDROOT
BRANCH   1   2
ATOM      2  C   UNL     1      -2.582   6.210   2.213  1.00  0.00     0.021 C 
BRANCH   2   3
ATOM      3  C   UNL     1      -1.222   5.811   1.691  1.00  0.00     0.116 C 
BRANCH   3   4
ATOM      4  N   UNL     1      -0.720   4.549   2.128  1.00  0.00    -0.351 N 
ATOM      5  C   UNL     1       0.190   3.756   1.506  1.00  0.00     0.281 C 
ATOM      6  O   UNL     1       0.814   3.015   2.283  1.00  0.00    -0.268 OA
ATOM      7  H   UNL     1      -1.075   4.213   2.982  1.00  0.00     0.163 HD
BRANCH   5   8
ATOM      8  C   UNL     1       0.567   3.802  -0.052  1.00  0.00     0.181 C 
ATOM      9  C   UNL     1       1.552   4.966  -0.258  1.00  0.00     0.085 C 
ATOM     10  C   UNL     1      -0.480   4.034  -1.179  1.00  0.00     0.144 C 
ATOM     11  C   UNL     1       0.759   6.133  -0.838  1.00  0.00     0.072 C 
ATOM     12  C   UNL     1      -0.455   5.537  -1.569  1.00  0.00     0.191 C 
BRANCH   8  13
ATOM     13  N   UNL     1       1.290   2.510  -0.377  1.00  0.00    -0.334 N 
ATOM     14  H   UNL     1       1.463   2.483  -1.382  1.00  0.00     0.347 HD
ATOM     15  H   UNL     1       2.152   2.507   0.167  1.00  0.00     0.347 HD
BRANCH  13  16
ATOM     16  C   UNL     1       0.538   1.298  -0.001  1.00  0.00     0.257 C 
ATOM     17  C   UNL     1       1.108   0.068  -0.693  1.00  0.00     0.071 C 
ENDBRANCH  13  16
ENDBRANCH   8  13
BRANCH  12  18
ATOM     18  N   UNL     1      -0.764   5.947  -2.949  1.00  0.00    -0.328 N 
ATOM     19  C   UNL     1      -1.180   7.361  -2.995  1.00  0.00     0.333 C 
ATOM     20  H   UNL     1      -1.533   5.321  -3.189  1.00  0.00     0.348 HD
BRANCH  18  21
ATOM     21  C   UNL     1       0.214   5.653  -4.012  1.00  0.00     0.338 C 
BRANCH  21  22
ATOM     22  C   UNL     1       1.565   6.290  -3.859  1.00  0.00     0.164 A 
ATOM     23  N   UNL     1       1.805   7.593  -3.858  1.00  0.00    -0.236 NA
ATOM     24  N   UNL     1       2.729   5.601  -3.604  1.00  0.00    -0.333 N 
ATOM     25  C   UNL     1       3.105   7.743  -3.458  1.00  0.00     0.131 A 
ATOM     26  C   UNL     1       3.695   6.517  -3.278  1.00  0.00     0.107 A 
ATOM     27  C   UNL     1       2.925   4.172  -3.593  1.00  0.00     0.151 C 
ENDBRANCH  21  22
ENDBRANCH  18  21
ENDBRANCH  12  18
ENDBRANCH   5   8
ENDBRANCH   3   4
ENDBRANCH   2   3
ENDBRANCH   1   2
BRANCH   1  28
ATOM     28  C   UNL     1      -1.594   7.865   3.928  1.00  0.00     0.002 C 
BRANCH  28  29
ATOM     29  C   UNL     1      -1.677   9.075   2.991  1.00  0.00     0.021 C 
BRANCH  29  30
ATOM     30  C   UNL     1      -3.074   9.659   2.806  1.00  0.00     0.116 C 
BRANCH  30  31
ATOM     31  N   UNL     1      -3.726   9.921   4.077  1.00  0.00    -0.352 N 
ATOM     32  C   UNL     1      -4.251  11.088   4.566  1.00  0.00     0.251 C 
ATOM     33  H   UNL     1      -3.803   9.143   4.676  1.00  0.00     0.163 HD
ATOM     34  O   UNL     1      -4.565  11.170   5.746  1.00  0.00    -0.269 OA
BRANCH  32  35
ATOM     35  C   UNL     1      -4.410  12.243   3.661  1.00  0.00     0.039 A 
ATOM     36  C   UNL     1      -3.988  13.500   4.096  1.00  0.00     0.014 A 
ATOM     37  C   UNL     1      -4.962  12.080   2.387  1.00  0.00     0.014 A 
ATOM     38  C   UNL     1      -4.066  14.588   3.226  1.00  0.00     0.010 A 
ATOM     39  C   UNL     1      -4.968  13.148   1.497  1.00  0.00     0.010 A 
ATOM     40  C   UNL     1      -4.521  14.412   1.908  1.00  0.00    -0.014 A 
BRANCH  40  41
ATOM     41  C   UNL     1      -4.528  15.543   0.946  1.00  0.00     0.031 A 
ATOM     42  C   UNL     1      -5.828  16.045   0.384  1.00  0.00     0.074 A 
ATOM     43  C   UNL     1      -3.358  16.075   0.543  1.00  0.00     0.049 A 
ATOM     44  N   UNL     1      -6.037  16.973  -0.513  1.00  0.00    -0.248 NA
ATOM     45  C   UNL     1      -7.054  15.399   0.878  1.00  0.00     0.031 C 
ATOM     46  C   UNL     1      -2.034  15.644   0.998  1.00  0.00     0.029 A 
ATOM     47  N   UNL     1      -3.089  17.088  -0.342  1.00  0.00    -0.354 N 
ATOM     48  C   UNL     1      -7.415  17.018  -0.698  1.00  0.00     0.074 A 
ATOM     49  C   UNL     1      -7.983  15.979   0.134  1.00  0.00     0.031 C 
ATOM     50  C   UNL     1      -1.097  16.405   0.411  1.00  0.00     0.029 A 
ATOM     51  C   UNL     1      -1.746  17.339  -0.503  1.00  0.00     0.049 A 
ATOM     52  H   UNL     1      -3.791  17.588  -0.818  1.00  0.00     0.167 HD
ATOM     53  C   UNL     1      -8.137  17.865  -1.473  1.00  0.00     0.034 A 
ATOM     54  C   UNL     1      -1.109  18.211  -1.310  1.00  0.00     0.034 A 
ATOM     55  C   UNL     1      -7.548  18.894  -2.295  1.00  0.00     0.049 A 
ATOM     56  C   UNL     1      -1.933  19.106  -2.202  1.00  0.00     0.074 A 
ATOM     57  C   UNL     1      -8.186  19.838  -3.081  1.00  0.00     0.029 A 
ATOM     58  N   UNL     1      -6.183  19.107  -2.450  1.00  0.00    -0.354 N 
ATOM     59  N   UNL     1      -3.239  19.174  -2.325  1.00  0.00    -0.248 NA
ATOM     60  C   UNL     1      -1.197  20.046  -3.056  1.00  0.00     0.031 C 
ATOM     61  C   UNL     1      -7.210  20.564  -3.772  1.00  0.00     0.029 A 
ATOM     62  C   UNL     1      -5.961  20.139  -3.350  1.00  0.00     0.049 A 
ATOM     63  H   UNL     1      -5.477  18.600  -1.988  1.00  0.00     0.167 HD
ATOM     64  C   UNL     1      -3.480  20.186  -3.250  1.00  0.00     0.074 A 
ATOM     65  C   UNL     1      -2.186  20.712  -3.634  1.00  0.00     0.031 C 
ATOM     66  C   UNL     1      -4.663  20.642  -3.736  1.00  0.00     0.034 A 
BRANCH  53  67
ATOM     67  C   UNL     1      -9.637  17.687  -1.487  1.00  0.00     0.023 A 
ATOM     68  C   UNL     1     -10.413  17.844  -0.325  1.00  0.00     0.031 A 
ATOM     69  C   UNL     1     -10.301  17.334  -2.675  1.00  0.00     0.131 A 
ATOM     70  C   UNL     1     -11.789  17.575  -0.358  1.00  0.00     0.055 A 
ATOM     71  C   UNL     1     -11.685  17.153  -2.721  1.00  0.00     0.041 A 
ATOM     72  F   UNL     1      -9.614  17.146  -3.813  1.00  0.00    -0.206 F 
ATOM     73  C   UNL     1     -12.436  17.258  -1.554  1.00  0.00     0.022 A 
BRANCH  70  74
ATOM     74  S   UNL     1     -12.694  17.497   1.212  1.00  0.00     0.124 S 
ATOM     75  O   UNL     1     -11.958  16.456   1.926  1.00  0.00    -0.237 OA
ATOM     76  O   UNL     1     -12.546  18.853   1.729  1.00  0.00    -0.237 OA
ATOM     77  O   UNL     1     -14.049  17.127   0.809  1.00  0.00    -0.744 OA
ENDBRANCH  70  74
ENDBRANCH  53  67
BRANCH  54  78
ATOM     78  C   UNL     1       0.382  18.271  -1.335  1.00  0.00     0.023 A 
ATOM     79  C   UNL     1       1.066  19.436  -0.956  1.00  0.00     0.031 A 
ATOM     80  C   UNL     1       1.144  17.177  -1.784  1.00  0.00     0.131 A 
ATOM     81  C   UNL     1       2.462  19.501  -1.082  1.00  0.00     0.055 A 
ATOM     82  C   UNL     1       2.538  17.225  -1.849  1.00  0.00     0.041 A 
ATOM     83  F   UNL     1       0.542  16.036  -2.157  1.00  0.00    -0.206 F 
ATOM     84  C   UNL     1       3.204  18.398  -1.511  1.00  0.00     0.022 A 
BRANCH  81  85
ATOM     85  S   UNL     1       3.289  21.085  -0.772  1.00  0.00     0.124 S 
ATOM     86  O   UNL     1       2.620  21.960  -1.728  1.00  0.00    -0.237 OA
ATOM     87  O   UNL     1       2.981  21.317   0.635  1.00  0.00    -0.237 OA
ATOM     88  O   UNL     1       4.692  20.799  -1.062  1.00  0.00    -0.744 OA
ENDBRANCH  81  85
ENDBRANCH  54  78
BRANCH  66  89
ATOM     89  C   UNL     1      -4.605  21.797  -4.709  1.00  0.00     0.023 A 
ATOM     90  C   UNL     1      -4.015  21.669  -5.978  1.00  0.00     0.031 A 
ATOM     91  C   UNL     1      -5.141  23.048  -4.353  1.00  0.00     0.131 A 
ATOM     92  C   UNL     1      -3.919  22.787  -6.820  1.00  0.00     0.055 A 
ATOM     93  C   UNL     1      -5.105  24.138  -5.223  1.00  0.00     0.041 A 
ATOM     94  F   UNL     1      -5.712  23.232  -3.152  1.00  0.00    -0.206 F 
ATOM     95  C   UNL     1      -4.479  24.015  -6.460  1.00  0.00     0.022 A 
BRANCH  92  96
ATOM     96  S   UNL     1      -2.959  22.642  -8.352  1.00  0.00     0.124 S 
ATOM     97  O   UNL     1      -1.646  22.249  -7.851  1.00  0.00    -0.237 OA
ATOM     98  O   UNL     1      -3.694  21.618  -9.087  1.00  0.00    -0.237 OA
ATOM     99  O   UNL     1      -3.026  23.985  -8.928  1.00  0.00    -0.744 OA
ENDBRANCH  92  96
ENDBRANCH  66  89
ENDBRANCH  40  41
ENDBRANCH  32  35
ENDBRANCH  30  31
ENDBRANCH  29  30
ENDBRANCH  28  29
ENDBRANCH   1  28
TORSDOF 21
