REMARK SMILES CC[C@H](NC(=O)N1CCO[C@@H](CC(=O)NCCCCCCNC(=O)c2ccc(-c3c4nc(c(-c5cc(S(=O)(=O)[O-])ccc5F)c5ccc([nH]5)c(-c5cc(S(=O)(=O)[O-])ccc5F)c5nc(c(-c6cc(S(=O)(=O)[O-])ccc6F)c6ccc3[nH]6)C=C5)C=C4)cc2)C1)c1cccs1
REMARK SMILES IDX 18 1 17 2 16 3 15 4 13 5 14 6 12 8 11 9 7 10 8 11 88 12 9 13
REMARK SMILES IDX 10 14 5 15 4 16 6 18 3 19 2 20 1 21 89 22 90 23 93 24 91 25
REMARK SMILES IDX 92 26 19 27 20 28 21 29 22 30 23 31 24 33 25 34 26 35 87 36
REMARK SMILES IDX 27 37 86 38 28 39 29 40 30 41 80 42 31 43 85 44 79 45 81 46
REMARK SMILES IDX 32 47 84 48 78 49 77 50 33 52 65 53 45 54 64 55 46 56 49 57
REMARK SMILES IDX 63 58 82 59 47 60 48 61 62 63 83 64 50 65 34 66 35 67 43 68
REMARK SMILES IDX 36 69 42 70 44 71 41 72 37 73 38 74 39 75 40 76 66 77 67 78
REMARK SMILES IDX 75 79 68 80 74 81 76 82 73 83 69 84 70 85 71 86 72 87 51 88
REMARK SMILES IDX 52 89 60 90 53 91 59 92 61 93 58 94 54 95 55 96 56 97 57 98
REMARK H PARENT 15 7 4 17 22 32 81 51 49 62
REMARK Flexibility Score: inf
ROOT
ATOM      1  C   UNL     1       0.380  -5.469   1.886  1.00  0.00     0.002 C 
ENDROOT
BRANCH   1   2
ATOM      2  C   UNL     1       1.062  -4.342   2.660  1.00  0.00     0.021 C 
BRANCH   2   3
ATOM      3  C   UNL     1       2.173  -4.794   3.613  1.00  0.00     0.116 C 
BRANCH   3   4
ATOM      4  N   UNL     1       3.474  -4.738   2.959  1.00  0.00    -0.356 N 
ATOM      5  C   UNL     1       4.529  -3.892   3.143  1.00  0.00     0.222 C 
ATOM      6  O   UNL     1       5.484  -3.968   2.367  1.00  0.00    -0.275 OA
ATOM      7  H   UNL     1       3.616  -5.425   2.268  1.00  0.00     0.163 HD
BRANCH   5   8
ATOM      8  C   UNL     1       4.524  -2.874   4.261  1.00  0.00     0.133 C 
BRANCH   8   9
ATOM      9  C   UNL     1       4.130  -1.475   3.781  1.00  0.00     0.147 C 
ATOM     10  N   UNL     1       2.101  -0.150   3.041  1.00  0.00    -0.320 N 
ATOM     11  C   UNL     1       2.398   0.791   4.123  1.00  0.00     0.150 C 
ATOM     12  C   UNL     1       2.693  -1.465   3.249  1.00  0.00     0.154 C 
ATOM     13  C   UNL     1       3.869   0.745   4.541  1.00  0.00     0.182 C 
ATOM     14  O   UNL     1       4.262  -0.583   4.905  1.00  0.00    -0.374 OA
BRANCH  10  15
ATOM     15  C   UNL     1       0.972  -0.159   2.262  1.00  0.00     0.318 C 
ATOM     16  N   UNL     1       0.348   0.958   1.867  1.00  0.00    -0.330 N 
ATOM     17  H   UNL     1      -0.528   0.781   1.454  1.00  0.00     0.166 HD
ATOM     18  O   UNL     1       0.467  -1.211   1.857  1.00  0.00    -0.249 OA
BRANCH  16  19
ATOM     19  C   UNL     1       0.675   2.371   1.912  1.00  0.00     0.124 C 
BRANCH  19  20
ATOM     20  C   UNL     1       0.185   3.074   0.633  1.00  0.00     0.027 C 
ATOM     21  C   UNL     1       0.781   2.463  -0.634  1.00  0.00     0.006 C 
ENDBRANCH  19  20
BRANCH  19  22
ATOM     22  C   UNL     1       0.045   2.954   3.161  1.00  0.00     0.027 A 
ATOM     23  C   UNL     1      -0.904   2.398   4.005  1.00  0.00     0.017 A 
ATOM     24  S   UNL     1       0.588   4.470   3.767  1.00  0.00    -0.147 S 
ATOM     25  C   UNL     1      -1.122   3.175   5.177  1.00  0.00     0.012 A 
ATOM     26  C   UNL     1      -0.372   4.327   5.175  1.00  0.00     0.065 A 
ENDBRANCH  19  22
ENDBRANCH  16  19
ENDBRANCH  10  15
ENDBRANCH   8   9
ENDBRANCH   5   8
ENDBRANCH   3   4
ENDBRANCH   2   3
ENDBRANCH   1   2
BRANCH   1  27
ATOM     27  C   UNL     1      -0.543  -6.360   2.719  1.00  0.00     0.002 C 
BRANCH  27  28
ATOM     28  C   UNL     1      -1.645  -5.635   3.500  1.00  0.00     0.021 C 
BRANCH  28  29
ATOM     29  C   UNL     1      -2.528  -4.697   2.676  1.00  0.00     0.116 C 
BRANCH  29  30
ATOM     30  N   UNL     1      -3.247  -5.404   1.629  1.00  0.00    -0.352 N 
ATOM     31  C   UNL     1      -4.590  -5.657   1.494  1.00  0.00     0.251 C 
ATOM     32  H   UNL     1      -2.683  -5.756   0.903  1.00  0.00     0.163 HD
ATOM     33  O   UNL     1      -4.970  -6.470   0.656  1.00  0.00    -0.269 OA
BRANCH  31  34
ATOM     34  C   UNL     1      -5.575  -4.971   2.361  1.00  0.00     0.039 A 
ATOM     35  C   UNL     1      -6.622  -5.714   2.914  1.00  0.00     0.014 A 
ATOM     36  C   UNL     1      -5.499  -3.595   2.593  1.00  0.00     0.014 A 
ATOM     37  C   UNL     1      -7.556  -5.091   3.747  1.00  0.00     0.010 A 
ATOM     38  C   UNL     1      -6.396  -2.986   3.472  1.00  0.00     0.010 A 
ATOM     39  C   UNL     1      -7.434  -3.727   4.058  1.00  0.00    -0.014 A 
BRANCH  39  40
ATOM     40  C   UNL     1      -8.390  -3.056   4.980  1.00  0.00     0.031 A 
ATOM     41  C   UNL     1      -9.305  -1.978   4.462  1.00  0.00     0.074 A 
ATOM     42  C   UNL     1      -8.402  -3.381   6.288  1.00  0.00     0.049 A 
ATOM     43  N   UNL     1     -10.136  -1.210   5.120  1.00  0.00    -0.248 NA
ATOM     44  C   UNL     1      -9.260  -1.716   3.016  1.00  0.00     0.031 C 
ATOM     45  C   UNL     1      -7.553  -4.398   6.914  1.00  0.00     0.029 A 
ATOM     46  N   UNL     1      -9.147  -2.888   7.330  1.00  0.00    -0.354 N 
ATOM     47  C   UNL     1     -10.711  -0.371   4.170  1.00  0.00     0.074 A 
ATOM     48  C   UNL     1     -10.088  -0.687   2.902  1.00  0.00     0.031 C 
ATOM     49  C   UNL     1      -7.838  -4.464   8.224  1.00  0.00     0.029 A 
ATOM     50  C   UNL     1      -8.855  -3.466   8.545  1.00  0.00     0.049 A 
ATOM     51  H   UNL     1      -9.827  -2.185   7.219  1.00  0.00     0.167 HD
ATOM     52  C   UNL     1     -11.685   0.559   4.335  1.00  0.00     0.034 A 
ATOM     53  C   UNL     1      -9.340  -3.212   9.777  1.00  0.00     0.034 A 
ATOM     54  C   UNL     1     -12.305   0.860   5.602  1.00  0.00     0.049 A 
ATOM     55  C   UNL     1     -10.391  -2.140   9.939  1.00  0.00     0.074 A 
ATOM     56  C   UNL     1     -13.309   1.773   5.878  1.00  0.00     0.029 A 
ATOM     57  N   UNL     1     -11.983   0.252   6.809  1.00  0.00    -0.354 N 
ATOM     58  N   UNL     1     -10.934  -1.369   9.026  1.00  0.00    -0.248 NA
ATOM     59  C   UNL     1     -10.901  -1.913  11.298  1.00  0.00     0.031 C 
ATOM     60  C   UNL     1     -13.557   1.754   7.255  1.00  0.00     0.029 A 
ATOM     61  C   UNL     1     -12.756   0.782   7.830  1.00  0.00     0.049 A 
ATOM     62  H   UNL     1     -11.305  -0.453   6.922  1.00  0.00     0.167 HD
ATOM     63  C   UNL     1     -11.879  -0.597   9.696  1.00  0.00     0.074 A 
ATOM     64  C   UNL     1     -11.839  -1.003  11.085  1.00  0.00     0.031 C 
ATOM     65  C   UNL     1     -12.708   0.361   9.210  1.00  0.00     0.034 A 
BRANCH  52  66
ATOM     66  C   UNL     1     -12.126   1.326   3.112  1.00  0.00     0.023 A 
ATOM     67  C   UNL     1     -12.761   0.685   2.034  1.00  0.00     0.031 A 
ATOM     68  C   UNL     1     -11.900   2.710   3.016  1.00  0.00     0.131 A 
ATOM     69  C   UNL     1     -13.089   1.413   0.881  1.00  0.00     0.055 A 
ATOM     70  C   UNL     1     -12.299   3.444   1.896  1.00  0.00     0.041 A 
ATOM     71  F   UNL     1     -11.281   3.373   4.005  1.00  0.00    -0.206 F 
ATOM     72  C   UNL     1     -12.886   2.793   0.815  1.00  0.00     0.022 A 
BRANCH  69  73
ATOM     73  S   UNL     1     -13.676   0.509  -0.577  1.00  0.00     0.124 S 
ATOM     74  O   UNL     1     -12.528  -0.344  -0.875  1.00  0.00    -0.237 OA
ATOM     75  O   UNL     1     -14.863  -0.170  -0.072  1.00  0.00    -0.237 OA
ATOM     76  O   UNL     1     -13.930   1.565  -1.555  1.00  0.00    -0.744 OA
ENDBRANCH  69  73
ENDBRANCH  52  66
BRANCH  53  77
ATOM     77  C   UNL     1      -8.841  -3.962  10.966  1.00  0.00     0.023 A 
ATOM     78  C   UNL     1      -9.708  -4.765  11.725  1.00  0.00     0.031 A 
ATOM     79  C   UNL     1      -7.514  -3.826  11.408  1.00  0.00     0.131 A 
ATOM     80  C   UNL     1      -9.258  -5.347  12.919  1.00  0.00     0.055 A 
ATOM     81  C   UNL     1      -7.054  -4.458  12.566  1.00  0.00     0.041 A 
ATOM     82  F   UNL     1      -6.641  -3.073  10.720  1.00  0.00    -0.206 F 
ATOM     83  C   UNL     1      -7.934  -5.209  13.339  1.00  0.00     0.022 A 
BRANCH  80  84
ATOM     84  S   UNL     1     -10.465  -6.187  13.982  1.00  0.00     0.124 S 
ATOM     85  O   UNL     1     -11.469  -5.146  14.172  1.00  0.00    -0.237 OA
ATOM     86  O   UNL     1     -10.862  -7.318  13.150  1.00  0.00    -0.237 OA
ATOM     87  O   UNL     1      -9.689  -6.531  15.171  1.00  0.00    -0.744 OA
ENDBRANCH  80  84
ENDBRANCH  53  77
BRANCH  65  88
ATOM     88  C   UNL     1     -13.680   0.983  10.181  1.00  0.00     0.023 A 
ATOM     89  C   UNL     1     -13.250   1.808  11.234  1.00  0.00     0.031 A 
ATOM     90  C   UNL     1     -15.058   0.728  10.058  1.00  0.00     0.131 A 
ATOM     91  C   UNL     1     -14.182   2.304  12.158  1.00  0.00     0.055 A 
ATOM     92  C   UNL     1     -15.987   1.270  10.947  1.00  0.00     0.041 A 
ATOM     93  F   UNL     1     -15.523  -0.053   9.070  1.00  0.00    -0.206 F 
ATOM     94  C   UNL     1     -15.549   2.053  12.012  1.00  0.00     0.022 A 
BRANCH  91  95
ATOM     95  S   UNL     1     -13.575   3.215  13.604  1.00  0.00     0.124 S 
ATOM     96  O   UNL     1     -12.705   2.232  14.240  1.00  0.00    -0.237 OA
ATOM     97  O   UNL     1     -12.905   4.359  12.993  1.00  0.00    -0.237 OA
ATOM     98  O   UNL     1     -14.794   3.536  14.344  1.00  0.00    -0.744 OA
ENDBRANCH  91  95
ENDBRANCH  65  88
ENDBRANCH  39  40
ENDBRANCH  31  34
ENDBRANCH  29  30
ENDBRANCH  28  29
ENDBRANCH  27  28
ENDBRANCH   1  27
TORSDOF 21
