REMARK SMILES O=C(CCC(=O)Nc1ccc(Br)c([N+](=O)[O-])c1)NCCCCCCNC(=O)c1ccc(-c2c3nc(c(-c4cc(S(=O)(=O)[O-])ccc4F)c4ccc([nH]4)c(-c4cc(S(=O)(=O)[O-])ccc4F)c4nc(c(-c5cc(S(=O)(=O)[O-])ccc5F)c5ccc2[nH]5)C=C4)C=C3)cc1
REMARK SMILES IDX 21 1 20 2 19 3 18 4 1 5 2 6 3 8 4 9 5 10 6 11 7 12 8 14 9 15
REMARK SMILES IDX 17 16 10 17 13 18 11 19 12 20 14 21 15 22 16 23 22 24 23 25
REMARK SMILES IDX 24 26 25 27 26 28 27 30 28 31 29 32 90 33 30 34 89 35 31 36
REMARK SMILES IDX 32 37 33 38 83 39 34 40 88 41 82 42 84 43 35 44 87 45 81 46
REMARK SMILES IDX 80 47 36 49 68 50 48 51 67 52 49 53 52 54 66 55 85 56 50 57
REMARK SMILES IDX 51 58 65 60 86 61 53 62 37 63 38 64 46 65 39 66 45 67 47 68
REMARK SMILES IDX 44 69 40 70 41 71 42 72 43 73 69 74 70 75 78 76 71 77 77 78
REMARK SMILES IDX 79 79 76 80 72 81 73 82 74 83 75 84 54 85 55 86 63 87 56 88
REMARK SMILES IDX 62 89 64 90 61 91 57 92 58 93 59 94 60 95
REMARK H PARENT 18 7 7 13 25 29 84 48 52 59
REMARK Flexibility Score: inf
ROOT
ATOM      1  C   UNL     1       4.639   0.452   3.950  1.00  0.00     0.002 C 
ENDROOT
BRANCH   1   2
ATOM      2  C   UNL     1       3.243  -0.161   3.794  1.00  0.00     0.021 C 
BRANCH   2   3
ATOM      3  C   UNL     1       2.583   0.069   2.441  1.00  0.00     0.116 C 
BRANCH   3   4
ATOM      4  N   UNL     1       3.392  -0.378   1.323  1.00  0.00    -0.356 N 
ATOM      5  O   UNL     1       1.684  -1.331   0.110  1.00  0.00    -0.275 OA
ATOM      6  C   UNL     1       2.851  -0.963   0.203  1.00  0.00     0.220 C 
ATOM      7  H   UNL     1       4.368  -0.258   1.369  1.00  0.00     0.163 HD
BRANCH   6   8
ATOM      8  C   UNL     1       3.799  -1.028  -0.975  1.00  0.00     0.110 C 
BRANCH   8   9
ATOM      9  C   UNL     1       3.898   0.296  -1.731  1.00  0.00     0.110 C 
BRANCH   9  10
ATOM     10  C   UNL     1       4.465   1.414  -0.893  1.00  0.00     0.224 C 
ATOM     11  O   UNL     1       5.680   1.421  -0.655  1.00  0.00    -0.275 OA
ATOM     12  N   UNL     1       3.728   2.415  -0.341  1.00  0.00    -0.326 N 
ATOM     13  H   UNL     1       4.286   3.167  -0.036  1.00  0.00     0.169 HD
BRANCH  12  14
ATOM     14  C   UNL     1       2.357   2.636  -0.099  1.00  0.00     0.048 A 
ATOM     15  C   UNL     1       1.317   1.787  -0.458  1.00  0.00     0.028 A 
ATOM     16  C   UNL     1       2.042   3.751   0.691  1.00  0.00     0.113 A 
ATOM     17  C   UNL     1       0.027   1.956   0.066  1.00  0.00     0.025 A 
ATOM     18  C   UNL     1       0.737   3.943   1.194  1.00  0.00     0.285 A 
ATOM     19  C   UNL     1      -0.270   3.017   0.922  1.00  0.00     0.095 A 
ATOM     20  Br  UNL     1      -1.998   3.000   1.703  1.00  0.00    -0.043 Br
BRANCH  18  21
ATOM     21  N   UNL     1       0.508   5.123   2.023  1.00  0.00     0.064 N 
ATOM     22  O   UNL     1       1.454   5.501   2.728  1.00  0.00    -0.258 OA
ATOM     23  O   UNL     1      -0.575   5.708   1.919  1.00  0.00    -0.258 OA
ENDBRANCH  18  21
ENDBRANCH  12  14
ENDBRANCH   9  10
ENDBRANCH   8   9
ENDBRANCH   6   8
ENDBRANCH   3   4
ENDBRANCH   2   3
ENDBRANCH   1   2
BRANCH   1  24
ATOM     24  C   UNL     1       4.724   1.974   3.799  1.00  0.00     0.002 C 
BRANCH  24  25
ATOM     25  C   UNL     1       3.925   2.793   4.815  1.00  0.00     0.021 C 
BRANCH  25  26
ATOM     26  C   UNL     1       4.128   2.415   6.281  1.00  0.00     0.116 C 
BRANCH  26  27
ATOM     27  N   UNL     1       5.523   2.439   6.689  1.00  0.00    -0.352 N 
ATOM     28  C   UNL     1       6.090   2.905   7.848  1.00  0.00     0.251 C 
ATOM     29  H   UNL     1       6.157   2.063   6.035  1.00  0.00     0.163 HD
ATOM     30  O   UNL     1       7.317   2.938   7.946  1.00  0.00    -0.269 OA
BRANCH  28  31
ATOM     31  C   UNL     1       5.243   3.401   8.956  1.00  0.00     0.039 A 
ATOM     32  C   UNL     1       5.629   4.568   9.621  1.00  0.00     0.014 A 
ATOM     33  C   UNL     1       4.082   2.728   9.347  1.00  0.00     0.014 A 
ATOM     34  C   UNL     1       4.820   5.091  10.633  1.00  0.00     0.010 A 
ATOM     35  C   UNL     1       3.237   3.294  10.301  1.00  0.00     0.010 A 
ATOM     36  C   UNL     1       3.597   4.481  10.956  1.00  0.00    -0.014 A 
BRANCH  36  37
ATOM     37  C   UNL     1       2.688   5.087  11.966  1.00  0.00     0.031 A 
ATOM     38  C   UNL     1       2.361   4.356  13.241  1.00  0.00     0.074 A 
ATOM     39  C   UNL     1       2.124   6.285  11.713  1.00  0.00     0.049 A 
ATOM     40  N   UNL     1       1.594   4.726  14.234  1.00  0.00    -0.248 NA
ATOM     41  C   UNL     1       2.954   3.022  13.405  1.00  0.00     0.031 C 
ATOM     42  C   UNL     1       2.328   7.071  10.494  1.00  0.00     0.029 A 
ATOM     43  N   UNL     1       1.274   7.056  12.465  1.00  0.00    -0.354 N 
ATOM     44  C   UNL     1       1.600   3.667  15.136  1.00  0.00     0.074 A 
ATOM     45  C   UNL     1       2.396   2.616  14.536  1.00  0.00     0.031 C 
ATOM     46  C   UNL     1       1.665   8.233  10.604  1.00  0.00     0.029 A 
ATOM     47  C   UNL     1       0.948   8.256  11.874  1.00  0.00     0.049 A 
ATOM     48  H   UNL     1       0.929   6.777  13.344  1.00  0.00     0.167 HD
ATOM     49  C   UNL     1       1.014   3.586  16.358  1.00  0.00     0.034 A 
ATOM     50  C   UNL     1       0.163   9.261  12.307  1.00  0.00     0.034 A 
ATOM     51  C   UNL     1       0.226   4.647  16.940  1.00  0.00     0.049 A 
ATOM     52  C   UNL     1      -0.504   9.135  13.653  1.00  0.00     0.074 A 
ATOM     53  C   UNL     1      -0.354   4.702  18.196  1.00  0.00     0.029 A 
ATOM     54  N   UNL     1      -0.112   5.835  16.300  1.00  0.00    -0.354 N 
ATOM     55  N   UNL     1      -0.429   8.157  14.527  1.00  0.00    -0.248 NA
ATOM     56  C   UNL     1      -1.353  10.256  14.073  1.00  0.00     0.031 C 
ATOM     57  C   UNL     1      -1.111   5.875  18.282  1.00  0.00     0.029 A 
ATOM     58  C   UNL     1      -0.930   6.604  17.117  1.00  0.00     0.049 A 
ATOM     59  H   UNL     1       0.186   6.093  15.398  1.00  0.00     0.167 HD
ATOM     60  C   UNL     1      -1.197   8.563  15.616  1.00  0.00     0.074 A 
ATOM     61  C   UNL     1      -1.704   9.882  15.293  1.00  0.00     0.031 C 
ATOM     62  C   UNL     1      -1.455   7.908  16.778  1.00  0.00     0.034 A 
BRANCH  49  63
ATOM     63  C   UNL     1       1.174   2.289  17.122  1.00  0.00     0.023 A 
ATOM     64  C   UNL     1       2.438   1.796  17.495  1.00  0.00     0.031 A 
ATOM     65  C   UNL     1       0.049   1.510  17.446  1.00  0.00     0.131 A 
ATOM     66  C   UNL     1       2.552   0.525  18.080  1.00  0.00     0.055 A 
ATOM     67  C   UNL     1       0.162   0.289  18.114  1.00  0.00     0.041 A 
ATOM     68  F   UNL     1      -1.185   1.913  17.100  1.00  0.00    -0.206 F 
ATOM     69  C   UNL     1       1.421  -0.220  18.417  1.00  0.00     0.022 A 
BRANCH  66  70
ATOM     70  S   UNL     1       4.202  -0.216  18.226  1.00  0.00     0.124 S 
ATOM     71  O   UNL     1       4.669  -0.173  16.842  1.00  0.00    -0.237 OA
ATOM     72  O   UNL     1       4.872   0.687  19.155  1.00  0.00    -0.237 OA
ATOM     73  O   UNL     1       3.932  -1.556  18.742  1.00  0.00    -0.744 OA
ENDBRANCH  66  70
ENDBRANCH  49  63
BRANCH  50  74
ATOM     74  C   UNL     1      -0.032  10.483  11.474  1.00  0.00     0.023 A 
ATOM     75  C   UNL     1       0.412  11.737  11.923  1.00  0.00     0.031 A 
ATOM     76  C   UNL     1      -0.697  10.424  10.237  1.00  0.00     0.131 A 
ATOM     77  C   UNL     1       0.147  12.887  11.164  1.00  0.00     0.055 A 
ATOM     78  C   UNL     1      -0.908  11.563   9.458  1.00  0.00     0.041 A 
ATOM     79  F   UNL     1      -1.141   9.250   9.760  1.00  0.00    -0.206 F 
ATOM     80  C   UNL     1      -0.496  12.807   9.927  1.00  0.00     0.022 A 
BRANCH  77  81
ATOM     81  S   UNL     1       0.585  14.505  11.857  1.00  0.00     0.124 S 
ATOM     82  O   UNL     1      -0.193  14.520  13.090  1.00  0.00    -0.237 OA
ATOM     83  O   UNL     1       2.031  14.389  12.012  1.00  0.00    -0.237 OA
ATOM     84  O   UNL     1       0.145  15.446  10.829  1.00  0.00    -0.744 OA
ENDBRANCH  77  81
ENDBRANCH  50  74
BRANCH  62  85
ATOM     85  C   UNL     1      -2.300   8.637  17.799  1.00  0.00     0.023 A 
ATOM     86  C   UNL     1      -3.635   8.994  17.537  1.00  0.00     0.031 A 
ATOM     87  C   UNL     1      -1.747   9.020  19.034  1.00  0.00     0.131 A 
ATOM     88  C   UNL     1      -4.344   9.778  18.460  1.00  0.00     0.055 A 
ATOM     89  C   UNL     1      -2.484   9.732  19.982  1.00  0.00     0.041 A 
ATOM     90  F   UNL     1      -0.476   8.713  19.340  1.00  0.00    -0.206 F 
ATOM     91  C   UNL     1      -3.784  10.133  19.689  1.00  0.00     0.022 A 
BRANCH  88  92
ATOM     92  S   UNL     1      -5.961  10.444  17.974  1.00  0.00     0.124 S 
ATOM     93  O   UNL     1      -5.633  11.171  16.752  1.00  0.00    -0.237 OA
ATOM     94  O   UNL     1      -6.757   9.233  17.802  1.00  0.00    -0.237 OA
ATOM     95  O   UNL     1      -6.343  11.280  19.110  1.00  0.00    -0.744 OA
ENDBRANCH  88  92
ENDBRANCH  62  85
ENDBRANCH  36  37
ENDBRANCH  28  31
ENDBRANCH  26  27
ENDBRANCH  25  26
ENDBRANCH  24  25
ENDBRANCH   1  24
TORSDOF 20
