REMARK SMILES CCc1nc(C)c(C(=O)NCCCCCCNC(=O)c2ccc(-c3c4nc(c(-c5cc(S(=O)(=O)[O-])ccc5F)c5ccc([nH]5)c(-c5cc(S(=O)(=O)[O-])ccc5F)c5nc(c(-c6cc(S(=O)(=O)[O-])ccc6F)c6ccc3[nH]6)C=C5)C=C4)cc2)c(SCc2cnc(Cl)s2)n1
REMARK SMILES IDX 13 1 12 2 11 3 10 4 8 5 9 6 7 8 3 9 4 10 92 11 5 12 83 13
REMARK SMILES IDX 6 14 2 15 1 16 84 17 85 18 86 19 87 20 91 21 88 22 89 23
REMARK SMILES IDX 90 24 14 25 15 26 16 27 17 28 18 29 19 31 20 32 21 33 82 34
REMARK SMILES IDX 22 35 81 36 23 37 24 38 25 39 75 40 26 41 80 42 74 43 76 44
REMARK SMILES IDX 27 45 79 46 73 47 72 48 28 50 60 51 40 52 59 53 41 54 44 55
REMARK SMILES IDX 58 56 77 57 42 58 43 59 57 61 78 62 45 63 29 64 30 65 38 66
REMARK SMILES IDX 31 67 37 68 39 69 36 70 32 71 33 72 34 73 35 74 61 75 62 76
REMARK SMILES IDX 70 77 63 78 69 79 71 80 68 81 64 82 65 83 66 84 67 85 46 86
REMARK SMILES IDX 47 87 55 88 48 89 54 90 56 91 53 92 49 93 50 94 51 95 52 96
REMARK H PARENT 10 7 17 30 76 49 44 60
REMARK Flexibility Score: inf
ROOT
ATOM      1  C   UNL     1       5.804   5.924   5.553  1.00  0.00     0.002 C 
ENDROOT
BRANCH   1   2
ATOM      2  C   UNL     1       5.060   4.732   4.946  1.00  0.00     0.021 C 
BRANCH   2   3
ATOM      3  C   UNL     1       3.531   4.832   5.077  1.00  0.00     0.116 C 
BRANCH   3   4
ATOM      4  N   UNL     1       3.025   5.451   3.866  1.00  0.00    -0.352 N 
ATOM      5  C   UNL     1       2.706   4.859   2.669  1.00  0.00     0.255 C 
ATOM      6  O   UNL     1       2.991   5.453   1.630  1.00  0.00    -0.269 OA
ATOM      7  H   UNL     1       2.891   6.426   3.909  1.00  0.00     0.163 HD
BRANCH   5   8
ATOM      8  C   UNL     1       1.897   3.637   2.569  1.00  0.00     0.093 A 
ATOM      9  C   UNL     1       0.554   1.370   1.850  1.00  0.00     0.129 A 
ATOM     10  N   UNL     1       1.710   1.235   2.501  1.00  0.00    -0.237 NA
ATOM     11  N   UNL     1      -0.010   2.549   1.584  1.00  0.00    -0.226 NA
ATOM     12  C   UNL     1       2.393   2.359   2.827  1.00  0.00     0.055 A 
ATOM     13  C   UNL     1       0.654   3.683   1.932  1.00  0.00     0.113 A 
ATOM     14  C   UNL     1       3.721   2.037   3.433  1.00  0.00     0.068 C 
BRANCH   9  15
ATOM     15  C   UNL     1      -0.024   0.142   1.206  1.00  0.00     0.074 C 
ATOM     16  C   UNL     1       0.642  -0.100  -0.143  1.00  0.00     0.012 C 
ENDBRANCH   9  15
BRANCH  13  17
ATOM     17  S   UNL     1      -0.319   5.067   1.344  1.00  0.00    -0.100 SA
BRANCH  17  18
ATOM     18  C   UNL     1       0.132   6.547   2.282  1.00  0.00     0.125 C 
BRANCH  18  19
ATOM     19  C   UNL     1      -0.068   6.517   3.760  1.00  0.00     0.036 A 
ATOM     20  C   UNL     1      -0.504   5.537   4.635  1.00  0.00     0.129 A 
ATOM     21  S   UNL     1       0.293   7.946   4.668  1.00  0.00    -0.107 S 
ATOM     22  N   UNL     1      -0.517   5.882   5.975  1.00  0.00    -0.233 NA
ATOM     23  C   UNL     1      -0.121   7.123   6.091  1.00  0.00     0.183 A 
ATOM     24  Cl  UNL     1      -0.007   7.923   7.603  1.00  0.00    -0.051 Cl
ENDBRANCH  18  19
ENDBRANCH  17  18
ENDBRANCH  13  17
ENDBRANCH   5   8
ENDBRANCH   3   4
ENDBRANCH   2   3
ENDBRANCH   1   2
BRANCH   1  25
ATOM     25  C   UNL     1       5.880   5.893   7.081  1.00  0.00     0.002 C 
BRANCH  25  26
ATOM     26  C   UNL     1       6.518   4.631   7.673  1.00  0.00     0.021 C 
BRANCH  26  27
ATOM     27  C   UNL     1       7.917   4.313   7.148  1.00  0.00     0.116 C 
BRANCH  27  28
ATOM     28  N   UNL     1       8.861   5.367   7.480  1.00  0.00    -0.352 N 
ATOM     29  C   UNL     1       9.975   5.306   8.274  1.00  0.00     0.251 C 
ATOM     30  H   UNL     1       8.674   6.247   7.079  1.00  0.00     0.163 HD
ATOM     31  O   UNL     1      10.489   6.357   8.681  1.00  0.00    -0.269 OA
BRANCH  29  32
ATOM     32  C   UNL     1      10.555   4.002   8.648  1.00  0.00     0.039 A 
ATOM     33  C   UNL     1      10.977   3.795   9.963  1.00  0.00     0.014 A 
ATOM     34  C   UNL     1      10.705   2.988   7.695  1.00  0.00     0.014 A 
ATOM     35  C   UNL     1      11.503   2.556  10.334  1.00  0.00     0.010 A 
ATOM     36  C   UNL     1      11.167   1.732   8.082  1.00  0.00     0.010 A 
ATOM     37  C   UNL     1      11.575   1.504   9.405  1.00  0.00    -0.014 A 
BRANCH  37  38
ATOM     38  C   UNL     1      12.070   0.162   9.808  1.00  0.00     0.031 A 
ATOM     39  C   UNL     1      13.338  -0.391   9.216  1.00  0.00     0.074 A 
ATOM     40  C   UNL     1      11.347  -0.575  10.674  1.00  0.00     0.049 A 
ATOM     41  N   UNL     1      13.907  -1.552   9.417  1.00  0.00    -0.248 NA
ATOM     42  C   UNL     1      14.043   0.464   8.249  1.00  0.00     0.031 C 
ATOM     43  C   UNL     1      10.078  -0.161  11.277  1.00  0.00     0.029 A 
ATOM     44  N   UNL     1      11.569  -1.824  11.196  1.00  0.00    -0.354 N 
ATOM     45  C   UNL     1      15.032  -1.571   8.599  1.00  0.00     0.074 A 
ATOM     46  C   UNL     1      15.026  -0.330   7.853  1.00  0.00     0.031 C 
ATOM     47  C   UNL     1       9.650  -1.126  12.108  1.00  0.00     0.029 A 
ATOM     48  C   UNL     1      10.588  -2.243  12.065  1.00  0.00     0.049 A 
ATOM     49  H   UNL     1      12.357  -2.369  10.970  1.00  0.00     0.167 HD
ATOM     50  C   UNL     1      15.992  -2.525   8.497  1.00  0.00     0.034 A 
ATOM     51  C   UNL     1      10.454  -3.399  12.744  1.00  0.00     0.034 A 
ATOM     52  C   UNL     1      15.983  -3.754   9.255  1.00  0.00     0.049 A 
ATOM     53  C   UNL     1      11.525  -4.450  12.602  1.00  0.00     0.074 A 
ATOM     54  C   UNL     1      16.930  -4.764   9.272  1.00  0.00     0.029 A 
ATOM     55  N   UNL     1      14.972  -4.148  10.123  1.00  0.00    -0.354 N 
ATOM     56  N   UNL     1      12.614  -4.427  11.868  1.00  0.00    -0.248 NA
ATOM     57  C   UNL     1      11.354  -5.676  13.391  1.00  0.00     0.031 C 
ATOM     58  C   UNL     1      16.459  -5.795  10.093  1.00  0.00     0.029 A 
ATOM     59  C   UNL     1      15.255  -5.398  10.653  1.00  0.00     0.049 A 
ATOM     60  H   UNL     1      14.170  -3.616  10.331  1.00  0.00     0.167 HD
ATOM     61  C   UNL     1      13.271  -5.627  12.128  1.00  0.00     0.074 A 
ATOM     62  C   UNL     1      12.467  -6.334  13.105  1.00  0.00     0.031 C 
ATOM     63  C   UNL     1      14.433  -6.102  11.609  1.00  0.00     0.034 A 
BRANCH  50  64
ATOM     64  C   UNL     1      17.114  -2.282   7.513  1.00  0.00     0.023 A 
ATOM     65  C   UNL     1      17.998  -1.196   7.652  1.00  0.00     0.031 A 
ATOM     66  C   UNL     1      17.290  -3.132   6.407  1.00  0.00     0.131 A 
ATOM     67  C   UNL     1      18.964  -0.947   6.666  1.00  0.00     0.055 A 
ATOM     68  C   UNL     1      18.308  -2.926   5.473  1.00  0.00     0.041 A 
ATOM     69  F   UNL     1      16.467  -4.173   6.207  1.00  0.00    -0.206 F 
ATOM     70  C   UNL     1      19.143  -1.819   5.590  1.00  0.00     0.022 A 
BRANCH  67  71
ATOM     71  S   UNL     1      19.888   0.613   6.733  1.00  0.00     0.124 S 
ATOM     72  O   UNL     1      18.809   1.597   6.674  1.00  0.00    -0.237 OA
ATOM     73  O   UNL     1      20.590   0.510   8.006  1.00  0.00    -0.237 OA
ATOM     74  O   UNL     1      20.737   0.560   5.545  1.00  0.00    -0.744 OA
ENDBRANCH  67  71
ENDBRANCH  50  64
BRANCH  51  75
ATOM     75  C   UNL     1       9.266  -3.632  13.614  1.00  0.00     0.023 A 
ATOM     76  C   UNL     1       9.405  -3.791  15.002  1.00  0.00     0.031 A 
ATOM     77  C   UNL     1       7.976  -3.741  13.065  1.00  0.00     0.131 A 
ATOM     78  C   UNL     1       8.283  -4.098  15.787  1.00  0.00     0.055 A 
ATOM     79  C   UNL     1       6.855  -3.992  13.857  1.00  0.00     0.041 A 
ATOM     80  F   UNL     1       7.786  -3.591  11.744  1.00  0.00    -0.206 F 
ATOM     81  C   UNL     1       7.007  -4.186  15.226  1.00  0.00     0.022 A 
BRANCH  78  82
ATOM     82  S   UNL     1       8.529  -4.468  17.546  1.00  0.00     0.124 S 
ATOM     83  O   UNL     1       9.466  -5.584  17.487  1.00  0.00    -0.237 OA
ATOM     84  O   UNL     1       9.064  -3.207  18.048  1.00  0.00    -0.237 OA
ATOM     85  O   UNL     1       7.186  -4.803  18.014  1.00  0.00    -0.744 OA
ENDBRANCH  78  82
ENDBRANCH  51  75
BRANCH  63  86
ATOM     86  C   UNL     1      14.908  -7.441  12.121  1.00  0.00     0.023 A 
ATOM     87  C   UNL     1      14.183  -8.622  11.880  1.00  0.00     0.031 A 
ATOM     88  C   UNL     1      16.082  -7.532  12.890  1.00  0.00     0.131 A 
ATOM     89  C   UNL     1      14.600  -9.829  12.462  1.00  0.00     0.055 A 
ATOM     90  C   UNL     1      16.529  -8.748  13.409  1.00  0.00     0.041 A 
ATOM     91  F   UNL     1      16.812  -6.437  13.154  1.00  0.00    -0.206 F 
ATOM     92  C   UNL     1      15.777  -9.903  13.210  1.00  0.00     0.022 A 
BRANCH  89  93
ATOM     93  S   UNL     1      13.517 -11.278  12.325  1.00  0.00     0.124 S 
ATOM     94  O   UNL     1      12.277 -10.787  12.915  1.00  0.00    -0.237 OA
ATOM     95  O   UNL     1      13.489 -11.512  10.885  1.00  0.00    -0.237 OA
ATOM     96  O   UNL     1      14.213 -12.301  13.105  1.00  0.00    -0.744 OA
ENDBRANCH  89  93
ENDBRANCH  63  86
ENDBRANCH  37  38
ENDBRANCH  29  32
ENDBRANCH  27  28
ENDBRANCH  26  27
ENDBRANCH  25  26
ENDBRANCH   1  25
TORSDOF 20
