REMARK SMILES C[C@@H](C(=O)NCCCCCCNC(=O)c1ccc(-c2c3nc(c(-c4cc(S(=O)(=O)[O-])ccc4F)c4ccc([nH]4)c(-c4cc(S(=O)(=O)[O-])ccc4F)c4nc(c(-c5cc(S(=O)(=O)[O-])ccc5F)c5ccc2[nH]5)C=C4)C=C3)cc1)c1ccc(C[C@@H]2CCC[C@@H]2O)cc1Br
REMARK SMILES IDX 8 1 7 2 6 3 5 4 3 5 4 6 2 8 1 9 78 10 79 11 90 12 80 13
REMARK SMILES IDX 89 14 91 15 81 16 82 17 83 18 84 19 87 20 85 21 86 22 88 23
REMARK SMILES IDX 9 25 10 26 11 27 12 28 13 29 14 31 15 32 16 33 77 34 17 35
REMARK SMILES IDX 76 36 18 37 19 38 20 39 70 40 21 41 75 42 69 43 71 44 22 45
REMARK SMILES IDX 74 46 68 47 67 48 23 50 55 51 35 52 54 53 36 54 39 55 53 56
REMARK SMILES IDX 72 57 37 58 38 59 52 61 73 62 40 63 24 64 25 65 33 66 26 67
REMARK SMILES IDX 32 68 34 69 31 70 27 71 28 72 29 73 30 74 56 75 57 76 65 77
REMARK SMILES IDX 58 78 64 79 66 80 63 81 59 82 60 83 61 84 62 85 41 86 42 87
REMARK SMILES IDX 50 88 43 89 49 90 51 91 48 92 44 93 45 94 46 95 47 96
REMARK H PARENT 5 7 88 24 12 30 71 49 39 60
REMARK Flexibility Score: inf
ROOT
ATOM      1  C   UNL     1     -12.760   6.418   7.040  1.00  0.00     0.002 C 
ENDROOT
BRANCH   1   2
ATOM      2  C   UNL     1     -11.330   5.864   7.111  1.00  0.00     0.021 C 
BRANCH   2   3
ATOM      3  C   UNL     1     -11.252   4.340   7.018  1.00  0.00     0.116 C 
BRANCH   3   4
ATOM      4  N   UNL     1     -11.772   3.875   5.752  1.00  0.00    -0.356 N 
ATOM      5  C   UNL     1     -11.141   3.369   4.659  1.00  0.00     0.227 C 
ATOM      6  O   UNL     1     -11.876   2.966   3.754  1.00  0.00    -0.274 OA
ATOM      7  H   UNL     1     -12.751   3.934   5.666  1.00  0.00     0.163 HD
BRANCH   5   8
ATOM      8  C   UNL     1      -9.613   3.198   4.641  1.00  0.00     0.106 C 
ATOM      9  C   UNL     1      -8.756   4.444   4.895  1.00  0.00     0.023 C 
BRANCH   8  10
ATOM     10  C   UNL     1      -9.113   2.501   3.374  1.00  0.00    -0.022 A 
ATOM     11  C   UNL     1      -8.457   1.266   3.536  1.00  0.00     0.006 A 
ATOM     12  C   UNL     1      -9.225   3.022   2.072  1.00  0.00     0.022 A 
ATOM     13  C   UNL     1      -7.873   0.610   2.453  1.00  0.00     0.004 A 
ATOM     14  C   UNL     1      -8.642   2.353   0.990  1.00  0.00     0.019 A 
ATOM     15  Br  UNL     1     -10.091   4.663   1.643  1.00  0.00    -0.051 Br
ATOM     16  C   UNL     1      -7.909   1.176   1.178  1.00  0.00    -0.047 A 
BRANCH  16  17
ATOM     17  C   UNL     1      -7.143   0.569   0.030  1.00  0.00     0.041 C 
BRANCH  17  18
ATOM     18  C   UNL     1      -5.615   0.812  -0.011  1.00  0.00     0.022 C 
ATOM     19  C   UNL     1      -4.825   0.196   1.151  1.00  0.00     0.007 C 
ATOM     20  C   UNL     1      -5.121   2.263  -0.008  1.00  0.00     0.117 C 
ATOM     21  C   UNL     1      -4.529   1.329   2.139  1.00  0.00     0.003 C 
ATOM     22  C   UNL     1      -4.963   2.626   1.464  1.00  0.00     0.032 C 
BRANCH  20  23
ATOM     23  O   UNL     1      -5.952   3.150  -0.728  1.00  0.00    -0.393 OA
ATOM     24  H   UNL     1      -6.840   3.150  -0.338  1.00  0.00     0.210 HD
ENDBRANCH  20  23
ENDBRANCH  17  18
ENDBRANCH  16  17
ENDBRANCH   8  10
ENDBRANCH   5   8
ENDBRANCH   3   4
ENDBRANCH   2   3
ENDBRANCH   1   2
BRANCH   1  25
ATOM     25  C   UNL     1     -13.741   5.808   8.046  1.00  0.00     0.002 C 
BRANCH  25  26
ATOM     26  C   UNL     1     -13.285   5.868   9.505  1.00  0.00     0.021 C 
BRANCH  26  27
ATOM     27  C   UNL     1     -13.031   7.277  10.023  1.00  0.00     0.116 C 
BRANCH  27  28
ATOM     28  N   UNL     1     -14.246   8.071  10.039  1.00  0.00    -0.352 N 
ATOM     29  C   UNL     1     -14.785   8.798  11.068  1.00  0.00     0.251 C 
ATOM     30  H   UNL     1     -14.752   8.090   9.195  1.00  0.00     0.163 HD
ATOM     31  O   UNL     1     -15.939   9.217  10.976  1.00  0.00    -0.269 OA
BRANCH  29  32
ATOM     32  C   UNL     1     -13.988   9.060  12.285  1.00  0.00     0.039 A 
ATOM     33  C   UNL     1     -14.612   8.989  13.532  1.00  0.00     0.014 A 
ATOM     34  C   UNL     1     -12.633   9.399  12.198  1.00  0.00     0.014 A 
ATOM     35  C   UNL     1     -13.872   9.233  14.691  1.00  0.00     0.010 A 
ATOM     36  C   UNL     1     -11.879   9.555  13.357  1.00  0.00     0.010 A 
ATOM     37  C   UNL     1     -12.496   9.503  14.615  1.00  0.00    -0.014 A 
BRANCH  37  38
ATOM     38  C   UNL     1     -11.705   9.799  15.838  1.00  0.00     0.031 A 
ATOM     39  C   UNL     1     -11.076  11.158  16.010  1.00  0.00     0.074 A 
ATOM     40  C   UNL     1     -11.526   8.845  16.772  1.00  0.00     0.049 A 
ATOM     41  N   UNL     1     -10.325  11.608  16.983  1.00  0.00    -0.248 NA
ATOM     42  C   UNL     1     -11.295  12.129  14.926  1.00  0.00     0.031 C 
ATOM     43  C   UNL     1     -12.056   7.482  16.699  1.00  0.00     0.029 A 
ATOM     44  N   UNL     1     -10.854   8.875  17.967  1.00  0.00    -0.354 N 
ATOM     45  C   UNL     1      -9.968  12.903  16.619  1.00  0.00     0.074 A 
ATOM     46  C   UNL     1     -10.526  13.137  15.305  1.00  0.00     0.031 C 
ATOM     47  C   UNL     1     -11.723   6.820  17.819  1.00  0.00     0.029 A 
ATOM     48  C   UNL     1     -10.919   7.693  18.669  1.00  0.00     0.049 A 
ATOM     49  H   UNL     1     -10.370   9.668  18.293  1.00  0.00     0.167 HD
ATOM     50  C   UNL     1      -9.264  13.821  17.326  1.00  0.00     0.034 A 
ATOM     51  C   UNL     1     -10.390   7.354  19.861  1.00  0.00     0.034 A 
ATOM     52  C   UNL     1      -8.734  13.575  18.645  1.00  0.00     0.049 A 
ATOM     53  C   UNL     1      -9.598   8.387  20.625  1.00  0.00     0.074 A 
ATOM     54  C   UNL     1      -8.056  14.447  19.479  1.00  0.00     0.029 A 
ATOM     55  N   UNL     1      -8.817  12.364  19.323  1.00  0.00    -0.354 N 
ATOM     56  N   UNL     1      -9.313   9.626  20.291  1.00  0.00    -0.248 NA
ATOM     57  C   UNL     1      -9.071   7.980  21.933  1.00  0.00     0.031 C 
ATOM     58  C   UNL     1      -7.661  13.745  20.622  1.00  0.00     0.029 A 
ATOM     59  C   UNL     1      -8.174  12.459  20.548  1.00  0.00     0.049 A 
ATOM     60  H   UNL     1      -9.266  11.557  18.983  1.00  0.00     0.167 HD
ATOM     61  C   UNL     1      -8.615  10.158  21.372  1.00  0.00     0.074 A 
ATOM     62  C   UNL     1      -8.532   9.109  22.367  1.00  0.00     0.031 C 
ATOM     63  C   UNL     1      -8.097  11.403  21.532  1.00  0.00     0.034 A 
BRANCH  50  64
ATOM     64  C   UNL     1      -9.004  15.158  16.669  1.00  0.00     0.023 A 
ATOM     65  C   UNL     1     -10.052  16.014  16.283  1.00  0.00     0.031 A 
ATOM     66  C   UNL     1      -7.688  15.569  16.391  1.00  0.00     0.131 A 
ATOM     67  C   UNL     1      -9.772  17.187  15.565  1.00  0.00     0.055 A 
ATOM     68  C   UNL     1      -7.412  16.784  15.759  1.00  0.00     0.041 A 
ATOM     69  F   UNL     1      -6.645  14.788  16.713  1.00  0.00    -0.206 F 
ATOM     70  C   UNL     1      -8.458  17.593  15.326  1.00  0.00     0.022 A 
BRANCH  67  71
ATOM     71  S   UNL     1     -11.152  18.088  14.806  1.00  0.00     0.124 S 
ATOM     72  O   UNL     1     -11.741  17.058  13.953  1.00  0.00    -0.237 OA
ATOM     73  O   UNL     1     -11.942  18.488  15.964  1.00  0.00    -0.237 OA
ATOM     74  O   UNL     1     -10.496  19.179  14.089  1.00  0.00    -0.744 OA
ENDBRANCH  67  71
ENDBRANCH  50  64
BRANCH  51  75
ATOM     75  C   UNL     1     -10.595   5.986  20.422  1.00  0.00     0.023 A 
ATOM     76  C   UNL     1     -11.299   5.796  21.622  1.00  0.00     0.031 A 
ATOM     77  C   UNL     1     -10.046   4.853  19.795  1.00  0.00     0.131 A 
ATOM     78  C   UNL     1     -11.389   4.514  22.186  1.00  0.00     0.055 A 
ATOM     79  C   UNL     1     -10.189   3.572  20.330  1.00  0.00     0.041 A 
ATOM     80  F   UNL     1      -9.367   4.976  18.643  1.00  0.00    -0.206 F 
ATOM     81  C   UNL     1     -10.851   3.399  21.541  1.00  0.00     0.022 A 
BRANCH  78  82
ATOM     82  S   UNL     1     -12.138   4.340  23.829  1.00  0.00     0.124 S 
ATOM     83  O   UNL     1     -11.295   5.218  24.633  1.00  0.00    -0.237 OA
ATOM     84  O   UNL     1     -13.502   4.799  23.591  1.00  0.00    -0.237 OA
ATOM     85  O   UNL     1     -12.003   2.913  24.114  1.00  0.00    -0.744 OA
ENDBRANCH  78  82
ENDBRANCH  51  75
BRANCH  63  86
ATOM     86  C   UNL     1      -7.454  11.716  22.864  1.00  0.00     0.023 A 
ATOM     87  C   UNL     1      -6.295  11.055  23.308  1.00  0.00     0.031 A 
ATOM     88  C   UNL     1      -8.030  12.678  23.713  1.00  0.00     0.131 A 
ATOM     89  C   UNL     1      -5.792  11.313  24.592  1.00  0.00     0.055 A 
ATOM     90  C   UNL     1      -7.481  12.984  24.959  1.00  0.00     0.041 A 
ATOM     91  F   UNL     1      -9.139  13.340  23.345  1.00  0.00    -0.206 F 
ATOM     92  C   UNL     1      -6.366  12.287  25.412  1.00  0.00     0.022 A 
BRANCH  89  93
ATOM     93  S   UNL     1      -4.448  10.271  25.225  1.00  0.00     0.124 S 
ATOM     94  O   UNL     1      -5.015   8.933  25.096  1.00  0.00    -0.237 OA
ATOM     95  O   UNL     1      -3.353  10.589  24.315  1.00  0.00    -0.237 OA
ATOM     96  O   UNL     1      -4.269  10.740  26.598  1.00  0.00    -0.744 OA
ENDBRANCH  89  93
ENDBRANCH  63  86
ENDBRANCH  37  38
ENDBRANCH  29  32
ENDBRANCH  27  28
ENDBRANCH  26  27
ENDBRANCH  25  26
ENDBRANCH   1  25
TORSDOF 20
