REMARK SMILES NS(=O)(=O)c1ccc(-n2ccnc2-c2ccc(O)c(C(=O)NCCCCCCNC(=O)c3ccc(-c4c5nc(c(-c6cc(S(=O)(=O)[O-])ccc6F)c6ccc([nH]6)c(-c6cc(S(=O)(=O)[O-])ccc6F)c6nc(c(-c7cc(S(=O)(=O)[O-])ccc7F)c7ccc4[nH]7)C=C6)C=C5)cc3)c2)cc1
REMARK SMILES IDX 25 1 24 2 23 3 22 4 20 5 21 6 19 8 14 9 15 10 95 11 16 12
REMARK SMILES IDX 17 13 13 14 9 15 10 16 11 17 12 18 8 19 5 20 6 21 97 22 7 23
REMARK SMILES IDX 96 24 2 25 3 26 4 27 1 28 18 31 26 33 27 34 28 35 29 36
REMARK SMILES IDX 30 37 31 39 32 40 33 41 94 42 34 43 93 44 35 45 36 46 37 47
REMARK SMILES IDX 87 48 38 49 92 50 86 51 88 52 39 53 91 54 85 55 84 56 40 58
REMARK SMILES IDX 72 59 52 60 71 61 53 62 56 63 70 64 89 65 54 66 55 67 69 69
REMARK SMILES IDX 90 70 57 71 41 72 42 73 50 74 43 75 49 76 51 77 48 78 44 79
REMARK SMILES IDX 45 80 46 81 47 82 73 83 74 84 82 85 75 86 81 87 83 88 80 89
REMARK SMILES IDX 76 90 77 91 78 92 79 93 58 94 59 95 67 96 60 97 66 98 68 99
REMARK SMILES IDX 65 100 61 101 62 102 63 103 64 104
REMARK H PARENT 22 7 1 29 1 30 18 32 29 38 88 57 56 68
REMARK Flexibility Score: inf
ROOT
ATOM      1  C   UNL     1       7.601   1.039   5.663  1.00  0.00     0.002 C 
ENDROOT
BRANCH   1   2
ATOM      2  C   UNL     1       6.845  -0.178   6.188  1.00  0.00     0.021 C 
BRANCH   2   3
ATOM      3  C   UNL     1       5.812  -0.808   5.261  1.00  0.00     0.116 C 
BRANCH   3   4
ATOM      4  N   UNL     1       6.348  -1.405   4.045  1.00  0.00    -0.352 N 
ATOM      5  C   UNL     1       6.044  -2.576   3.380  1.00  0.00     0.255 C 
ATOM      6  O   UNL     1       6.676  -2.850   2.356  1.00  0.00    -0.269 OA
ATOM      7  H   UNL     1       7.059  -0.875   3.618  1.00  0.00     0.163 HD
BRANCH   5   8
ATOM      8  C   UNL     1       5.031  -3.563   3.852  1.00  0.00     0.082 A 
ATOM      9  C   UNL     1       3.129  -4.139   5.284  1.00  0.00     0.019 A 
ATOM     10  C   UNL     1       3.299  -5.487   4.971  1.00  0.00     0.016 A 
ATOM     11  C   UNL     1       3.962  -3.193   4.663  1.00  0.00     0.029 A 
ATOM     12  C   UNL     1       4.269  -5.868   4.038  1.00  0.00     0.048 A 
ATOM     13  C   UNL     1       5.132  -4.914   3.491  1.00  0.00     0.128 A 
BRANCH   9  14
ATOM     14  C   UNL     1       2.201  -3.700   6.342  1.00  0.00     0.144 A 
ATOM     15  N   UNL     1       1.483  -2.501   6.340  1.00  0.00    -0.300 N 
ATOM     16  C   UNL     1       1.182  -2.227   7.654  1.00  0.00     0.113 A 
ATOM     17  C   UNL     1       1.539  -3.352   8.356  1.00  0.00     0.132 A 
ATOM     18  N   UNL     1       2.126  -4.272   7.531  1.00  0.00    -0.236 NA
BRANCH  15  19
ATOM     19  C   UNL     1       1.174  -1.686   5.220  1.00  0.00     0.047 A 
ATOM     20  C   UNL     1       0.742  -0.121   2.960  1.00  0.00     0.082 A 
ATOM     21  C   UNL     1       0.671  -1.511   2.856  1.00  0.00     0.024 A 
ATOM     22  C   UNL     1       1.018   0.494   4.187  1.00  0.00     0.024 A 
ATOM     23  C   UNL     1       0.891  -2.294   3.986  1.00  0.00     0.028 A 
ATOM     24  C   UNL     1       1.213  -0.290   5.328  1.00  0.00     0.028 A 
BRANCH  20  25
ATOM     25  S   UNL     1       0.508   0.873   1.518  1.00  0.00     0.238 S 
ATOM     26  O   UNL     1       1.293   2.083   1.649  1.00  0.00    -0.207 OA
ATOM     27  O   UNL     1      -0.895   0.881   1.191  1.00  0.00    -0.207 OA
BRANCH  25  28
ATOM     28  N   UNL     1       1.268  -0.009   0.306  1.00  0.00    -0.225 NA
ATOM     29  H   UNL     1       1.187   0.490  -0.580  1.00  0.00     0.137 HD
ATOM     30  H   UNL     1       0.826  -0.924   0.223  1.00  0.00     0.137 HD
ENDBRANCH  25  28
ENDBRANCH  20  25
ENDBRANCH  15  19
ENDBRANCH   9  14
BRANCH  13  31
ATOM     31  O   UNL     1       6.064  -5.382   2.601  1.00  0.00    -0.507 OA
ATOM     32  H   UNL     1       6.094  -6.294   2.390  1.00  0.00     0.293 HD
ENDBRANCH  13  31
ENDBRANCH   5   8
ENDBRANCH   3   4
ENDBRANCH   2   3
ENDBRANCH   1   2
BRANCH   1  33
ATOM     33  C   UNL     1       6.764   2.190   5.089  1.00  0.00     0.002 C 
BRANCH  33  34
ATOM     34  C   UNL     1       5.612   2.729   5.949  1.00  0.00     0.021 C 
BRANCH  34  35
ATOM     35  C   UNL     1       6.031   3.287   7.301  1.00  0.00     0.116 C 
BRANCH  35  36
ATOM     36  N   UNL     1       6.868   4.480   7.190  1.00  0.00    -0.352 N 
ATOM     37  C   UNL     1       7.397   5.247   8.212  1.00  0.00     0.251 C 
ATOM     38  H   UNL     1       7.083   4.773   6.275  1.00  0.00     0.163 HD
ATOM     39  O   UNL     1       7.748   6.403   8.005  1.00  0.00    -0.269 OA
BRANCH  37  40
ATOM     40  C   UNL     1       7.538   4.648   9.552  1.00  0.00     0.039 A 
ATOM     41  C   UNL     1       7.283   5.378  10.719  1.00  0.00     0.014 A 
ATOM     42  C   UNL     1       7.928   3.314   9.622  1.00  0.00     0.014 A 
ATOM     43  C   UNL     1       7.352   4.729  11.953  1.00  0.00     0.010 A 
ATOM     44  C   UNL     1       7.844   2.643  10.812  1.00  0.00     0.010 A 
ATOM     45  C   UNL     1       7.622   3.355  11.988  1.00  0.00    -0.014 A 
BRANCH  45  46
ATOM     46  C   UNL     1       7.533   2.578  13.223  1.00  0.00     0.031 A 
ATOM     47  C   UNL     1       6.176   2.579  13.841  1.00  0.00     0.074 A 
ATOM     48  C   UNL     1       8.501   1.690  13.550  1.00  0.00     0.049 A 
ATOM     49  N   UNL     1       5.836   2.986  15.019  1.00  0.00    -0.248 NA
ATOM     50  C   UNL     1       5.019   2.237  12.989  1.00  0.00     0.031 C 
ATOM     51  C   UNL     1       9.734   1.404  12.805  1.00  0.00     0.029 A 
ATOM     52  N   UNL     1       8.521   0.725  14.509  1.00  0.00    -0.354 N 
ATOM     53  C   UNL     1       4.480   2.693  15.146  1.00  0.00     0.074 A 
ATOM     54  C   UNL     1       3.998   2.487  13.810  1.00  0.00     0.031 C 
ATOM     55  C   UNL     1      10.205   0.189  13.157  1.00  0.00     0.029 A 
ATOM     56  C   UNL     1       9.398  -0.330  14.247  1.00  0.00     0.049 A 
ATOM     57  H   UNL     1       7.963   0.767  15.320  1.00  0.00     0.167 HD
ATOM     58  C   UNL     1       3.942   2.354  16.352  1.00  0.00     0.034 A 
ATOM     59  C   UNL     1       9.409  -1.565  14.826  1.00  0.00     0.034 A 
ATOM     60  C   UNL     1       4.829   2.736  17.432  1.00  0.00     0.049 A 
ATOM     61  C   UNL     1       8.671  -1.425  16.111  1.00  0.00     0.074 A 
ATOM     62  C   UNL     1       5.435   3.923  17.801  1.00  0.00     0.029 A 
ATOM     63  N   UNL     1       5.550   1.747  18.070  1.00  0.00    -0.354 N 
ATOM     64  N   UNL     1       9.079  -0.658  17.089  1.00  0.00    -0.248 NA
ATOM     65  C   UNL     1       7.240  -1.698  16.100  1.00  0.00     0.031 C 
ATOM     66  C   UNL     1       6.766   3.553  18.156  1.00  0.00     0.029 A 
ATOM     67  C   UNL     1       6.860   2.160  18.108  1.00  0.00     0.049 A 
ATOM     68  H   UNL     1       5.193   0.903  18.430  1.00  0.00     0.167 HD
ATOM     69  C   UNL     1       7.939  -0.001  17.530  1.00  0.00     0.074 A 
ATOM     70  C   UNL     1       6.824  -0.746  16.941  1.00  0.00     0.031 C 
ATOM     71  C   UNL     1       7.998   1.258  18.065  1.00  0.00     0.034 A 
BRANCH  58  72
ATOM     72  C   UNL     1       2.830   1.338  16.550  1.00  0.00     0.023 A 
ATOM     73  C   UNL     1       2.437   1.078  17.878  1.00  0.00     0.031 A 
ATOM     74  C   UNL     1       2.352   0.420  15.586  1.00  0.00     0.131 A 
ATOM     75  C   UNL     1       1.739  -0.096  18.212  1.00  0.00     0.055 A 
ATOM     76  C   UNL     1       1.595  -0.709  15.915  1.00  0.00     0.041 A 
ATOM     77  F   UNL     1       2.652   0.500  14.286  1.00  0.00    -0.206 F 
ATOM     78  C   UNL     1       1.318  -0.996  17.239  1.00  0.00     0.022 A 
BRANCH  75  79
ATOM     79  S   UNL     1       1.574  -0.520  19.964  1.00  0.00     0.124 S 
ATOM     80  O   UNL     1       2.962  -0.457  20.408  1.00  0.00    -0.237 OA
ATOM     81  O   UNL     1       0.694   0.540  20.444  1.00  0.00    -0.237 OA
ATOM     82  O   UNL     1       0.984  -1.856  19.934  1.00  0.00    -0.744 OA
ENDBRANCH  75  79
ENDBRANCH  58  72
BRANCH  59  83
ATOM     83  C   UNL     1       9.691  -2.877  14.152  1.00  0.00     0.023 A 
ATOM     84  C   UNL     1       9.938  -4.081  14.855  1.00  0.00     0.031 A 
ATOM     85  C   UNL     1       9.499  -3.009  12.754  1.00  0.00     0.131 A 
ATOM     86  C   UNL     1       9.993  -5.322  14.165  1.00  0.00     0.055 A 
ATOM     87  C   UNL     1       9.562  -4.232  12.080  1.00  0.00     0.041 A 
ATOM     88  F   UNL     1       9.155  -1.960  11.992  1.00  0.00    -0.206 F 
ATOM     89  C   UNL     1       9.800  -5.397  12.785  1.00  0.00     0.022 A 
BRANCH  86  90
ATOM     90  S   UNL     1      10.225  -6.896  15.065  1.00  0.00     0.124 S 
ATOM     91  O   UNL     1      11.628  -6.824  15.457  1.00  0.00    -0.237 OA
ATOM     92  O   UNL     1       9.243  -6.795  16.138  1.00  0.00    -0.237 OA
ATOM     93  O   UNL     1       9.923  -7.914  14.057  1.00  0.00    -0.744 OA
ENDBRANCH  86  90
ENDBRANCH  59  83
BRANCH  71  94
ATOM     94  C   UNL     1       9.345   1.849  18.444  1.00  0.00     0.023 A 
ATOM     95  C   UNL     1      10.452   1.997  17.574  1.00  0.00     0.031 A 
ATOM     96  C   UNL     1       9.448   2.425  19.724  1.00  0.00     0.131 A 
ATOM     97  C   UNL     1      11.600   2.696  18.005  1.00  0.00     0.055 A 
ATOM     98  C   UNL     1      10.573   3.137  20.136  1.00  0.00     0.041 A 
ATOM     99  F   UNL     1       8.426   2.342  20.592  1.00  0.00    -0.206 F 
ATOM    100  C   UNL     1      11.657   3.271  19.278  1.00  0.00     0.022 A 
BRANCH  97 101
ATOM    101  S   UNL     1      13.062   2.858  16.926  1.00  0.00     0.124 S 
ATOM    102  O   UNL     1      13.246   1.512  16.396  1.00  0.00    -0.237 OA
ATOM    103  O   UNL     1      12.636   3.872  15.965  1.00  0.00    -0.237 OA
ATOM    104  O   UNL     1      14.114   3.298  17.845  1.00  0.00    -0.744 OA
ENDBRANCH  97 101
ENDBRANCH  71  94
ENDBRANCH  45  46
ENDBRANCH  37  40
ENDBRANCH  35  36
ENDBRANCH  34  35
ENDBRANCH  33  34
ENDBRANCH   1  33
TORSDOF 21
