REMARK SMILES Cc1nsc(NC(=O)CC[C@H](C)CC[NH3+])c1C(=O)NCCCCCCNC(=O)c1ccc(-c2c3nc(c(-c4cc(S(=O)(=O)[O-])ccc4F)c4ccc([nH]4)c(-c4cc(S(=O)(=O)[O-])ccc4F)c4nc(c(-c5cc(S(=O)(=O)[O-])ccc5F)c5ccc2[nH]5)C=C4)C=C3)cc1
REMARK SMILES IDX 20 1 19 2 17 3 18 4 16 6 1 7 2 8 3 9 4 10 5 11 6 12 7 13
REMARK SMILES IDX 8 15 9 16 10 17 11 18 12 19 13 20 14 21 15 22 21 26 22 27
REMARK SMILES IDX 23 28 24 29 25 30 26 31 27 32 28 34 29 35 30 36 91 37 31 38
REMARK SMILES IDX 90 39 32 40 33 41 34 42 84 43 35 44 89 45 83 46 85 47 36 48
REMARK SMILES IDX 88 49 82 50 81 51 37 53 69 54 49 55 68 56 50 57 53 58 67 59
REMARK SMILES IDX 86 60 51 61 52 62 66 64 87 65 54 66 38 67 39 68 47 69 40 70
REMARK SMILES IDX 46 71 48 72 45 73 41 74 42 75 43 76 44 77 70 78 71 79 79 80
REMARK SMILES IDX 72 81 78 82 80 83 77 84 73 85 74 86 75 87 76 88 55 89 56 90
REMARK SMILES IDX 64 91 57 92 63 93 65 94 62 95 58 96 59 97 60 98 61 99
REMARK H PARENT 19 5 6 14 15 23 15 24 15 25 26 33 85 52 53 63
REMARK Flexibility Score: inf
ROOT
ATOM      1  C   UNL     1      -5.818  -1.752   6.592  1.00  0.00     0.116 C 
ENDROOT
BRANCH   1   2
ATOM      2  N   UNL     1      -4.605  -1.859   7.356  1.00  0.00    -0.352 N 
ATOM      3  C   UNL     1      -3.348  -1.349   7.164  1.00  0.00     0.256 C 
ATOM      4  O   UNL     1      -2.532  -1.669   8.037  1.00  0.00    -0.269 OA
ATOM      5  H   UNL     1      -4.695  -2.400   8.174  1.00  0.00     0.163 HD
BRANCH   3   6
ATOM      6  C   UNL     1      -2.908  -0.510   6.032  1.00  0.00     0.097 A 
ATOM      7  C   UNL     1      -5.014   0.568   4.736  1.00  0.00     0.069 C 
ATOM      8  C   UNL     1      -3.576   0.334   5.038  1.00  0.00     0.066 A 
ATOM      9  N   UNL     1      -2.774   1.030   4.227  1.00  0.00    -0.195 NA
ATOM     10  S   UNL     1      -1.214   0.747   4.611  1.00  0.00    -0.017 S 
ATOM     11  C   UNL     1      -1.536  -0.477   5.733  1.00  0.00     0.129 A 
BRANCH  11  12
ATOM     12  N   UNL     1      -0.511  -1.214   6.296  1.00  0.00    -0.316 N 
ATOM     13  C   UNL     1       0.617  -1.743   5.731  1.00  0.00     0.225 C 
ATOM     14  H   UNL     1      -0.610  -1.387   7.260  1.00  0.00     0.170 HD
ATOM     15  O   UNL     1       1.396  -2.359   6.469  1.00  0.00    -0.275 OA
BRANCH  13  16
ATOM     16  C   UNL     1       0.901  -1.701   4.237  1.00  0.00     0.101 C 
BRANCH  16  17
ATOM     17  C   UNL     1       0.257  -2.799   3.372  1.00  0.00     0.013 C 
BRANCH  17  18
ATOM     18  C   UNL     1      -1.268  -3.000   3.508  1.00  0.00    -0.008 C 
ATOM     19  C   UNL     1      -1.588  -3.997   4.633  1.00  0.00     0.008 C 
BRANCH  18  20
ATOM     20  C   UNL     1      -1.909  -3.488   2.187  1.00  0.00     0.064 C 
BRANCH  20  21
ATOM     21  C   UNL     1      -3.415  -3.184   2.101  1.00  0.00     0.259 C 
BRANCH  21  22
ATOM     22  N   UNL     1      -3.664  -1.782   1.778  1.00  0.00    -0.358 N 
ATOM     23  H   UNL     1      -3.272  -1.190   2.510  1.00  0.00     0.344 HD
ATOM     24  H   UNL     1      -4.669  -1.621   1.712  1.00  0.00     0.344 HD
ATOM     25  H   UNL     1      -3.224  -1.555   0.886  1.00  0.00     0.344 HD
ENDBRANCH  21  22
ENDBRANCH  20  21
ENDBRANCH  18  20
ENDBRANCH  17  18
ENDBRANCH  16  17
ENDBRANCH  13  16
ENDBRANCH  11  12
ENDBRANCH   3   6
ENDBRANCH   1   2
BRANCH   1  26
ATOM     26  C   UNL     1      -6.887  -2.790   6.923  1.00  0.00     0.021 C 
BRANCH  26  27
ATOM     27  C   UNL     1      -7.554  -2.666   8.298  1.00  0.00     0.002 C 
BRANCH  27  28
ATOM     28  C   UNL     1      -8.099  -1.288   8.704  1.00  0.00     0.002 C 
BRANCH  28  29
ATOM     29  C   UNL     1      -9.036  -0.576   7.720  1.00  0.00     0.021 C 
BRANCH  29  30
ATOM     30  C   UNL     1     -10.280  -1.361   7.327  1.00  0.00     0.116 C 
BRANCH  30  31
ATOM     31  N   UNL     1     -11.180  -1.607   8.444  1.00  0.00    -0.352 N 
ATOM     32  C   UNL     1     -12.407  -2.247   8.421  1.00  0.00     0.251 C 
ATOM     33  H   UNL     1     -10.879  -1.279   9.323  1.00  0.00     0.163 HD
ATOM     34  O   UNL     1     -13.202  -2.075   9.330  1.00  0.00    -0.269 OA
BRANCH  32  35
ATOM     35  C   UNL     1     -12.744  -3.114   7.269  1.00  0.00     0.039 A 
ATOM     36  C   UNL     1     -14.020  -3.071   6.704  1.00  0.00     0.014 A 
ATOM     37  C   UNL     1     -11.769  -3.960   6.741  1.00  0.00     0.014 A 
ATOM     38  C   UNL     1     -14.274  -3.808   5.546  1.00  0.00     0.010 A 
ATOM     39  C   UNL     1     -11.988  -4.606   5.540  1.00  0.00     0.010 A 
ATOM     40  C   UNL     1     -13.242  -4.548   4.939  1.00  0.00    -0.014 A 
BRANCH  40  41
ATOM     41  C   UNL     1     -13.431  -5.096   3.588  1.00  0.00     0.031 A 
ATOM     42  C   UNL     1     -13.936  -4.101   2.600  1.00  0.00     0.074 A 
ATOM     43  C   UNL     1     -13.005  -6.313   3.175  1.00  0.00     0.049 A 
ATOM     44  N   UNL     1     -15.094  -4.074   2.030  1.00  0.00    -0.248 NA
ATOM     45  C   UNL     1     -13.121  -2.904   2.330  1.00  0.00     0.031 C 
ATOM     46  C   UNL     1     -12.250  -7.300   3.955  1.00  0.00     0.029 A 
ATOM     47  N   UNL     1     -13.072  -6.898   1.938  1.00  0.00    -0.354 N 
ATOM     48  C   UNL     1     -15.057  -3.009   1.133  1.00  0.00     0.074 A 
ATOM     49  C   UNL     1     -13.920  -2.216   1.512  1.00  0.00     0.031 C 
ATOM     50  C   UNL     1     -11.741  -8.245   3.133  1.00  0.00     0.029 A 
ATOM     51  C   UNL     1     -12.283  -8.040   1.801  1.00  0.00     0.049 A 
ATOM     52  H   UNL     1     -13.629  -6.542   1.208  1.00  0.00     0.167 HD
ATOM     53  C   UNL     1     -15.805  -3.037  -0.006  1.00  0.00     0.034 A 
ATOM     54  C   UNL     1     -12.102  -8.811   0.697  1.00  0.00     0.034 A 
ATOM     55  C   UNL     1     -16.802  -4.080   0.073  1.00  0.00     0.049 A 
ATOM     56  C   UNL     1     -13.289  -8.627  -0.161  1.00  0.00     0.074 A 
ATOM     57  C   UNL     1     -17.980  -4.292   0.755  1.00  0.00     0.029 A 
ATOM     58  N   UNL     1     -16.379  -5.300  -0.394  1.00  0.00    -0.354 N 
ATOM     59  N   UNL     1     -14.483  -9.002   0.203  1.00  0.00    -0.248 NA
ATOM     60  C   UNL     1     -13.246  -7.699  -1.284  1.00  0.00     0.031 C 
ATOM     61  C   UNL     1     -18.098  -5.708   0.900  1.00  0.00     0.029 A 
ATOM     62  C   UNL     1     -17.018  -6.319   0.264  1.00  0.00     0.049 A 
ATOM     63  H   UNL     1     -15.710  -5.426  -1.105  1.00  0.00     0.167 HD
ATOM     64  C   UNL     1     -15.319  -8.036  -0.316  1.00  0.00     0.074 A 
ATOM     65  C   UNL     1     -14.544  -7.390  -1.368  1.00  0.00     0.031 C 
ATOM     66  C   UNL     1     -16.433  -7.644   0.364  1.00  0.00     0.034 A 
BRANCH  53  67
ATOM     67  C   UNL     1     -15.377  -2.488  -1.359  1.00  0.00     0.023 A 
ATOM     68  C   UNL     1     -16.255  -2.694  -2.448  1.00  0.00     0.031 A 
ATOM     69  C   UNL     1     -14.072  -2.071  -1.704  1.00  0.00     0.131 A 
ATOM     70  C   UNL     1     -15.807  -2.584  -3.778  1.00  0.00     0.055 A 
ATOM     71  C   UNL     1     -13.647  -1.912  -3.028  1.00  0.00     0.041 A 
ATOM     72  F   UNL     1     -13.106  -1.883  -0.799  1.00  0.00    -0.206 F 
ATOM     73  C   UNL     1     -14.505  -2.198  -4.075  1.00  0.00     0.022 A 
BRANCH  70  74
ATOM     74  S   UNL     1     -16.908  -3.115  -5.118  1.00  0.00     0.124 S 
ATOM     75  O   UNL     1     -17.244  -4.474  -4.709  1.00  0.00    -0.237 OA
ATOM     76  O   UNL     1     -17.980  -2.129  -5.034  1.00  0.00    -0.237 OA
ATOM     77  O   UNL     1     -16.064  -3.015  -6.307  1.00  0.00    -0.744 OA
ENDBRANCH  70  74
ENDBRANCH  53  67
BRANCH  54  78
ATOM     78  C   UNL     1     -10.894  -9.557   0.262  1.00  0.00     0.023 A 
ATOM     79  C   UNL     1     -10.940 -10.683  -0.589  1.00  0.00     0.031 A 
ATOM     80  C   UNL     1      -9.627  -8.975   0.483  1.00  0.00     0.131 A 
ATOM     81  C   UNL     1      -9.755 -11.167  -1.192  1.00  0.00     0.055 A 
ATOM     82  C   UNL     1      -8.461  -9.454  -0.119  1.00  0.00     0.041 A 
ATOM     83  F   UNL     1      -9.501  -7.861   1.224  1.00  0.00    -0.206 F 
ATOM     84  C   UNL     1      -8.523 -10.546  -0.970  1.00  0.00     0.022 A 
BRANCH  81  85
ATOM     85  S   UNL     1      -9.812 -12.570  -2.357  1.00  0.00     0.124 S 
ATOM     86  O   UNL     1     -10.233 -13.671  -1.499  1.00  0.00    -0.237 OA
ATOM     87  O   UNL     1     -10.778 -12.112  -3.348  1.00  0.00    -0.237 OA
ATOM     88  O   UNL     1      -8.435 -12.665  -2.845  1.00  0.00    -0.744 OA
ENDBRANCH  81  85
ENDBRANCH  54  78
BRANCH  66  89
ATOM     89  C   UNL     1     -16.993  -8.606   1.385  1.00  0.00     0.023 A 
ATOM     90  C   UNL     1     -16.320  -9.041   2.548  1.00  0.00     0.031 A 
ATOM     91  C   UNL     1     -18.298  -9.078   1.167  1.00  0.00     0.131 A 
ATOM     92  C   UNL     1     -16.955  -9.933   3.434  1.00  0.00     0.055 A 
ATOM     93  C   UNL     1     -18.931  -9.943   2.057  1.00  0.00     0.041 A 
ATOM     94  F   UNL     1     -18.991  -8.687   0.085  1.00  0.00    -0.206 F 
ATOM     95  C   UNL     1     -18.258 -10.380   3.192  1.00  0.00     0.022 A 
BRANCH  92  96
ATOM     96  S   UNL     1     -16.083 -10.546   4.913  1.00  0.00     0.124 S 
ATOM     97  O   UNL     1     -14.820 -11.046   4.382  1.00  0.00    -0.237 OA
ATOM     98  O   UNL     1     -15.995  -9.352   5.748  1.00  0.00    -0.237 OA
ATOM     99  O   UNL     1     -16.978 -11.583   5.431  1.00  0.00    -0.744 OA
ENDBRANCH  92  96
ENDBRANCH  66  89
ENDBRANCH  40  41
ENDBRANCH  32  35
ENDBRANCH  30  31
ENDBRANCH  29  30
ENDBRANCH  28  29
ENDBRANCH  27  28
ENDBRANCH  26  27
ENDBRANCH   1  26
TORSDOF 23
