REMARK SMILES O=C(CSc1ccnc(C(=O)NCCCCCCNC(=O)c2ccc(-c3c4nc(c(-c5cc(S(=O)(=O)[O-])ccc5F)c5ccc([nH]5)c(-c5cc(S(=O)(=O)[O-])ccc5F)c5nc(c(-c6cc(S(=O)(=O)[O-])ccc6F)c6ccc3[nH]6)C=C5)C=C4)cc2)c1)NNc1ccccn1
REMARK SMILES IDX 14 1 13 2 12 3 10 4 11 5 9 7 5 8 6 9 85 10 7 11 8 12 4 13
REMARK SMILES IDX 3 14 2 15 1 16 86 17 87 19 88 21 89 22 93 23 90 24 92 25
REMARK SMILES IDX 91 26 15 27 16 28 17 29 18 30 19 31 20 32 21 34 22 35 23 36
REMARK SMILES IDX 84 37 24 38 83 39 25 40 26 41 27 42 77 43 28 44 82 45 76 46
REMARK SMILES IDX 78 47 29 48 81 49 75 50 74 51 30 53 62 54 42 55 61 56 43 57
REMARK SMILES IDX 46 58 60 59 79 60 44 61 45 62 59 64 80 65 47 66 31 67 32 68
REMARK SMILES IDX 40 69 33 70 39 71 41 72 38 73 34 74 35 75 36 76 37 77 63 78
REMARK SMILES IDX 64 79 72 80 65 81 71 82 73 83 70 84 66 85 67 86 68 87 69 88
REMARK SMILES IDX 48 89 49 90 57 91 50 92 56 93 58 94 55 95 51 96 52 97 53 98
REMARK SMILES IDX 54 99
REMARK H PARENT 12 6 86 18 87 20 19 33 78 52 46 63
REMARK Flexibility Score: inf
ROOT
ATOM      1  C   UNL     1       6.169  -6.253   3.130  1.00  0.00     0.021 C 
ENDROOT
BRANCH   1   2
ATOM      2  C   UNL     1       5.661  -5.880   1.742  1.00  0.00     0.116 C 
BRANCH   2   3
ATOM      3  N   UNL     1       4.605  -6.750   1.254  1.00  0.00    -0.351 N 
ATOM      4  C   UNL     1       3.323  -6.522   0.793  1.00  0.00     0.269 C 
ATOM      5  O   UNL     1       2.672  -7.521   0.475  1.00  0.00    -0.268 OA
ATOM      6  H   UNL     1       4.855  -7.702   1.252  1.00  0.00     0.163 HD
BRANCH   4   7
ATOM      7  C   UNL     1       2.688  -5.157   0.698  1.00  0.00     0.129 A 
ATOM      8  C   UNL     1       2.762  -2.752   0.698  1.00  0.00     0.012 A 
ATOM      9  C   UNL     1       1.374  -2.739   0.757  1.00  0.00     0.035 A 
ATOM     10  C   UNL     1       3.410  -3.983   0.572  1.00  0.00     0.049 A 
ATOM     11  C   UNL     1       0.709  -3.953   0.739  1.00  0.00     0.113 A 
ATOM     12  N   UNL     1       1.331  -5.149   0.750  1.00  0.00    -0.251 NA
BRANCH   8  13
ATOM     13  S   UNL     1       3.849  -1.336   0.844  1.00  0.00    -0.116 SA
BRANCH  13  14
ATOM     14  C   UNL     1       2.723   0.096   0.960  1.00  0.00     0.176 C 
BRANCH  14  15
ATOM     15  C   UNL     1       1.990   0.328  -0.346  1.00  0.00     0.248 C 
ATOM     16  O   UNL     1       0.792   0.609  -0.378  1.00  0.00    -0.272 OA
ATOM     17  N   UNL     1       2.789   0.239  -1.469  1.00  0.00    -0.268 N 
ATOM     18  H   UNL     1       3.759   0.090  -1.390  1.00  0.00     0.191 HD
BRANCH  17  19
ATOM     19  N   UNL     1       2.187   0.366  -2.709  1.00  0.00    -0.282 N 
ATOM     20  H   UNL     1       1.206   0.406  -2.787  1.00  0.00     0.190 HD
BRANCH  19  21
ATOM     21  C   UNL     1       2.989   0.437  -3.847  1.00  0.00     0.144 A 
ATOM     22  C   UNL     1       4.136  -0.339  -4.008  1.00  0.00     0.048 A 
ATOM     23  N   UNL     1       2.573   1.293  -4.803  1.00  0.00    -0.238 NA
ATOM     24  C   UNL     1       4.889  -0.213  -5.174  1.00  0.00     0.005 A 
ATOM     25  C   UNL     1       3.325   1.407  -5.919  1.00  0.00     0.113 A 
ATOM     26  C   UNL     1       4.480   0.684  -6.149  1.00  0.00     0.020 A 
ENDBRANCH  19  21
ENDBRANCH  17  19
ENDBRANCH  14  15
ENDBRANCH  13  14
ENDBRANCH   8  13
ENDBRANCH   4   7
ENDBRANCH   2   3
ENDBRANCH   1   2
BRANCH   1  27
ATOM     27  C   UNL     1       7.069  -7.485   3.202  1.00  0.00     0.002 C 
BRANCH  27  28
ATOM     28  C   UNL     1       8.292  -7.478   2.279  1.00  0.00     0.002 C 
BRANCH  28  29
ATOM     29  C   UNL     1       9.164  -6.220   2.327  1.00  0.00     0.021 C 
BRANCH  29  30
ATOM     30  C   UNL     1       9.716  -5.861   3.703  1.00  0.00     0.116 C 
BRANCH  30  31
ATOM     31  N   UNL     1      10.570  -6.907   4.238  1.00  0.00    -0.352 N 
ATOM     32  C   UNL     1      11.879  -6.842   4.648  1.00  0.00     0.251 C 
ATOM     33  H   UNL     1      10.148  -7.793   4.318  1.00  0.00     0.163 HD
ATOM     34  O   UNL     1      12.500  -7.880   4.854  1.00  0.00    -0.269 OA
BRANCH  32  35
ATOM     35  C   UNL     1      12.539  -5.529   4.821  1.00  0.00     0.039 A 
ATOM     36  C   UNL     1      13.849  -5.365   4.365  1.00  0.00     0.014 A 
ATOM     37  C   UNL     1      11.879  -4.469   5.452  1.00  0.00     0.014 A 
ATOM     38  C   UNL     1      14.478  -4.124   4.493  1.00  0.00     0.010 A 
ATOM     39  C   UNL     1      12.480  -3.214   5.511  1.00  0.00     0.010 A 
ATOM     40  C   UNL     1      13.788  -3.029   5.038  1.00  0.00    -0.014 A 
BRANCH  40  41
ATOM     41  C   UNL     1      14.424  -1.688   5.133  1.00  0.00     0.031 A 
ATOM     42  C   UNL     1      14.672  -1.064   6.480  1.00  0.00     0.074 A 
ATOM     43  C   UNL     1      14.727  -1.012   4.007  1.00  0.00     0.049 A 
ATOM     44  N   UNL     1      15.149   0.120   6.770  1.00  0.00    -0.248 NA
ATOM     45  C   UNL     1      14.308  -1.869   7.655  1.00  0.00     0.031 C 
ATOM     46  C   UNL     1      14.502  -1.500   2.644  1.00  0.00     0.029 A 
ATOM     47  N   UNL     1      15.283   0.230   3.826  1.00  0.00    -0.354 N 
ATOM     48  C   UNL     1      15.132   0.206   8.158  1.00  0.00     0.074 A 
ATOM     49  C   UNL     1      14.534  -1.019   8.645  1.00  0.00     0.031 C 
ATOM     50  C   UNL     1      14.939  -0.579   1.770  1.00  0.00     0.029 A 
ATOM     51  C   UNL     1      15.428   0.584   2.504  1.00  0.00     0.049 A 
ATOM     52  H   UNL     1      15.552   0.813   4.572  1.00  0.00     0.167 HD
ATOM     53  C   UNL     1      15.594   1.204   8.953  1.00  0.00     0.034 A 
ATOM     54  C   UNL     1      15.890   1.721   1.946  1.00  0.00     0.034 A 
ATOM     55  C   UNL     1      16.193   2.416   8.448  1.00  0.00     0.049 A 
ATOM     56  C   UNL     1      16.364   2.832   2.848  1.00  0.00     0.074 A 
ATOM     57  C   UNL     1      16.740   3.469   9.160  1.00  0.00     0.029 A 
ATOM     58  N   UNL     1      16.316   2.744   7.103  1.00  0.00    -0.354 N 
ATOM     59  N   UNL     1      16.386   2.879   4.161  1.00  0.00    -0.248 NA
ATOM     60  C   UNL     1      16.887   4.038   2.194  1.00  0.00     0.031 C 
ATOM     61  C   UNL     1      17.121   4.463   8.252  1.00  0.00     0.029 A 
ATOM     62  C   UNL     1      16.895   3.997   6.967  1.00  0.00     0.049 A 
ATOM     63  H   UNL     1      16.033   2.169   6.355  1.00  0.00     0.167 HD
ATOM     64  C   UNL     1      16.954   4.107   4.487  1.00  0.00     0.074 A 
ATOM     65  C   UNL     1      17.274   4.761   3.235  1.00  0.00     0.031 C 
ATOM     66  C   UNL     1      17.196   4.644   5.711  1.00  0.00     0.034 A 
BRANCH  53  67
ATOM     67  C   UNL     1      15.440   1.031  10.447  1.00  0.00     0.023 A 
ATOM     68  C   UNL     1      16.058  -0.028  11.137  1.00  0.00     0.031 A 
ATOM     69  C   UNL     1      14.639   1.917  11.190  1.00  0.00     0.131 A 
ATOM     70  C   UNL     1      15.798  -0.223  12.501  1.00  0.00     0.055 A 
ATOM     71  C   UNL     1      14.457   1.770  12.566  1.00  0.00     0.041 A 
ATOM     72  F   UNL     1      14.005   2.935  10.587  1.00  0.00    -0.206 F 
ATOM     73  C   UNL     1      15.024   0.684  13.228  1.00  0.00     0.022 A 
BRANCH  70  74
ATOM     74  S   UNL     1      16.353  -1.768  13.274  1.00  0.00     0.124 S 
ATOM     75  O   UNL     1      15.686  -2.768  12.444  1.00  0.00    -0.237 OA
ATOM     76  O   UNL     1      17.802  -1.686  13.137  1.00  0.00    -0.237 OA
ATOM     77  O   UNL     1      15.847  -1.667  14.642  1.00  0.00    -0.744 OA
ENDBRANCH  70  74
ENDBRANCH  53  67
BRANCH  54  78
ATOM     78  C   UNL     1      15.916   1.877   0.463  1.00  0.00     0.023 A 
ATOM     79  C   UNL     1      17.129   2.026  -0.228  1.00  0.00     0.031 A 
ATOM     80  C   UNL     1      14.724   1.916  -0.283  1.00  0.00     0.131 A 
ATOM     81  C   UNL     1      17.122   2.255  -1.613  1.00  0.00     0.055 A 
ATOM     82  C   UNL     1      14.725   2.087  -1.668  1.00  0.00     0.041 A 
ATOM     83  F   UNL     1      13.536   1.774   0.327  1.00  0.00    -0.206 F 
ATOM     84  C   UNL     1      15.929   2.272  -2.340  1.00  0.00     0.022 A 
BRANCH  81  85
ATOM     85  S   UNL     1      18.693   2.620  -2.442  1.00  0.00     0.124 S 
ATOM     86  O   UNL     1      19.144   3.801  -1.714  1.00  0.00    -0.237 OA
ATOM     87  O   UNL     1      19.449   1.394  -2.210  1.00  0.00    -0.237 OA
ATOM     88  O   UNL     1      18.299   2.854  -3.829  1.00  0.00    -0.744 OA
ENDBRANCH  81  85
ENDBRANCH  54  78
BRANCH  66  89
ATOM     89  C   UNL     1      17.879   5.990   5.748  1.00  0.00     0.023 A 
ATOM     90  C   UNL     1      17.258   7.152   5.258  1.00  0.00     0.031 A 
ATOM     91  C   UNL     1      19.178   6.109   6.274  1.00  0.00     0.131 A 
ATOM     92  C   UNL     1      17.957   8.369   5.251  1.00  0.00     0.055 A 
ATOM     93  C   UNL     1      19.843   7.334   6.326  1.00  0.00     0.041 A 
ATOM     94  F   UNL     1      19.823   5.032   6.752  1.00  0.00    -0.206 F 
ATOM     95  C   UNL     1      19.238   8.471   5.799  1.00  0.00     0.022 A 
BRANCH  92  96
ATOM     96  S   UNL     1      17.207   9.798   4.422  1.00  0.00     0.124 S 
ATOM     97  O   UNL     1      17.013   9.295   3.067  1.00  0.00    -0.237 OA
ATOM     98  O   UNL     1      15.993  10.011   5.203  1.00  0.00    -0.237 OA
ATOM     99  O   UNL     1      18.221  10.843   4.556  1.00  0.00    -0.744 OA
ENDBRANCH  92  96
ENDBRANCH  66  89
ENDBRANCH  40  41
ENDBRANCH  32  35
ENDBRANCH  30  31
ENDBRANCH  29  30
ENDBRANCH  28  29
ENDBRANCH  27  28
ENDBRANCH   1  27
TORSDOF 21
