REMARK SMILES Cc1nn(-c2ccccc2)c(C)c1CNC(=O)[C@@H]1[C@@H](C(=O)NCCCCCCNC(=O)c2ccc(-c3c4nc(c(-c5cc(S(=O)(=O)[O-])ccc5F)c5ccc([nH]5)c(-c5cc(S(=O)(=O)[O-])ccc5F)c5nc(c(-c6cc(S(=O)(=O)[O-])ccc6F)c6ccc3[nH]6)C=C5)C=C4)cc2)[C@@H]2C=C[C@H]1C2
REMARK SMILES IDX 25 1 24 2 23 3 22 4 20 5 21 6 19 8 18 9 98 10 95 11 97 12
REMARK SMILES IDX 99 13 96 14 16 15 15 16 17 18 14 19 13 20 1 21 2 22 3 23
REMARK SMILES IDX 4 24 11 25 12 26 5 27 6 28 10 29 7 30 9 31 8 32 26 33 27 34
REMARK SMILES IDX 28 35 29 36 30 37 31 39 32 40 33 41 94 42 34 43 93 44 35 45
REMARK SMILES IDX 36 46 37 47 87 48 38 49 92 50 86 51 88 52 39 53 91 54 85 55
REMARK SMILES IDX 84 56 40 58 72 59 52 60 71 61 53 62 56 63 70 64 89 65 54 66
REMARK SMILES IDX 55 67 69 69 90 70 57 71 41 72 42 73 50 74 43 75 49 76 51 77
REMARK SMILES IDX 48 78 44 79 45 80 46 81 47 82 73 83 74 84 82 85 75 86 81 87
REMARK SMILES IDX 83 88 80 89 76 90 77 91 78 92 79 93 58 94 59 95 67 96 60 97
REMARK SMILES IDX 66 98 68 99 65 100 61 101 62 102 63 103 64 104
REMARK H PARENT 22 7 15 17 29 38 88 57 56 68
REMARK Flexibility Score: inf
ROOT
ATOM      1  C   UNL     1       0.444   8.142  -0.879  1.00  0.00     0.002 C 
ENDROOT
BRANCH   1   2
ATOM      2  C   UNL     1       1.863   7.687  -1.267  1.00  0.00     0.021 C 
BRANCH   2   3
ATOM      3  C   UNL     1       2.968   8.437  -0.536  1.00  0.00     0.116 C 
BRANCH   3   4
ATOM      4  N   UNL     1       2.880   8.252   0.905  1.00  0.00    -0.356 N 
ATOM      5  C   UNL     1       3.546   7.410   1.743  1.00  0.00     0.224 C 
ATOM      6  O   UNL     1       3.238   7.431   2.936  1.00  0.00    -0.275 OA
ATOM      7  H   UNL     1       2.225   8.836   1.351  1.00  0.00     0.163 HD
BRANCH   5   8
ATOM      8  C   UNL     1       4.623   6.485   1.207  1.00  0.00     0.098 C 
ATOM      9  C   UNL     1       4.171   4.981   1.221  1.00  0.00     0.098 C 
ATOM     10  C   UNL     1       5.336   4.295   1.981  1.00  0.00     0.025 C 
ATOM     11  C   UNL     1       5.850   6.466   2.163  1.00  0.00     0.025 C 
ATOM     12  C   UNL     1       6.654   4.513   1.267  1.00  0.00    -0.027 C 
ATOM     13  C   UNL     1       5.537   5.306   3.117  1.00  0.00     0.017 C 
ATOM     14  C   UNL     1       6.973   5.811   1.392  1.00  0.00    -0.027 C 
BRANCH   9  15
ATOM     15  C   UNL     1       3.921   4.408  -0.166  1.00  0.00     0.224 C 
ATOM     16  N   UNL     1       3.174   3.276  -0.315  1.00  0.00    -0.352 N 
ATOM     17  H   UNL     1       3.090   2.962  -1.244  1.00  0.00     0.163 HD
ATOM     18  O   UNL     1       4.355   4.955  -1.182  1.00  0.00    -0.275 OA
BRANCH  16  19
ATOM     19  C   UNL     1       2.479   2.452   0.665  1.00  0.00     0.155 C 
BRANCH  19  20
ATOM     20  C   UNL     1       1.004   2.495   0.416  1.00  0.00     0.016 A 
ATOM     21  C   UNL     1       0.312  -0.037   0.578  1.00  0.00     0.069 C 
ATOM     22  C   UNL     1       0.068   1.414   0.388  1.00  0.00     0.065 A 
ATOM     23  N   UNL     1      -1.197   1.840   0.256  1.00  0.00    -0.173 NA
ATOM     24  N   UNL     1      -1.082   3.149  -0.009  1.00  0.00    -0.237 N 
ATOM     25  C   UNL     1       0.187   3.605   0.297  1.00  0.00     0.046 A 
ATOM     26  C   UNL     1       0.444   5.040   0.497  1.00  0.00     0.067 C 
BRANCH  24  27
ATOM     27  C   UNL     1      -2.182   3.974  -0.334  1.00  0.00     0.065 A 
ATOM     28  C   UNL     1      -3.291   4.016   0.511  1.00  0.00     0.028 A 
ATOM     29  C   UNL     1      -2.066   4.875  -1.399  1.00  0.00     0.028 A 
ATOM     30  C   UNL     1      -4.253   5.013   0.324  1.00  0.00     0.002 A 
ATOM     31  C   UNL     1      -3.044   5.849  -1.586  1.00  0.00     0.002 A 
ATOM     32  C   UNL     1      -4.129   5.928  -0.721  1.00  0.00     0.000 A 
ENDBRANCH  24  27
ENDBRANCH  19  20
ENDBRANCH  16  19
ENDBRANCH   9  15
ENDBRANCH   5   8
ENDBRANCH   3   4
ENDBRANCH   2   3
ENDBRANCH   1   2
BRANCH   1  33
ATOM     33  C   UNL     1       0.036   9.548  -1.353  1.00  0.00     0.002 C 
BRANCH  33  34
ATOM     34  C   UNL     1       0.165   9.810  -2.862  1.00  0.00     0.021 C 
BRANCH  34  35
ATOM     35  C   UNL     1      -0.660   8.847  -3.702  1.00  0.00     0.116 C 
BRANCH  35  36
ATOM     36  N   UNL     1      -2.056   9.195  -3.855  1.00  0.00    -0.352 N 
ATOM     37  C   UNL     1      -3.051   8.597  -4.612  1.00  0.00     0.251 C 
ATOM     38  H   UNL     1      -2.345   9.983  -3.339  1.00  0.00     0.163 HD
ATOM     39  O   UNL     1      -4.090   9.221  -4.768  1.00  0.00    -0.269 OA
BRANCH  37  40
ATOM     40  C   UNL     1      -2.936   7.204  -5.158  1.00  0.00     0.039 A 
ATOM     41  C   UNL     1      -3.973   6.695  -5.959  1.00  0.00     0.014 A 
ATOM     42  C   UNL     1      -1.921   6.331  -4.780  1.00  0.00     0.014 A 
ATOM     43  C   UNL     1      -4.006   5.335  -6.301  1.00  0.00     0.010 A 
ATOM     44  C   UNL     1      -1.999   4.983  -5.021  1.00  0.00     0.010 A 
ATOM     45  C   UNL     1      -3.040   4.476  -5.778  1.00  0.00    -0.014 A 
BRANCH  45  46
ATOM     46  C   UNL     1      -2.843   3.098  -6.217  1.00  0.00     0.031 A 
ATOM     47  C   UNL     1      -2.114   3.041  -7.523  1.00  0.00     0.074 A 
ATOM     48  C   UNL     1      -2.874   2.051  -5.361  1.00  0.00     0.049 A 
ATOM     49  N   UNL     1      -2.568   2.715  -8.689  1.00  0.00    -0.248 NA
ATOM     50  C   UNL     1      -0.771   3.667  -7.584  1.00  0.00     0.031 C 
ATOM     51  C   UNL     1      -3.114   2.077  -3.913  1.00  0.00     0.029 A 
ATOM     52  N   UNL     1      -2.562   0.744  -5.580  1.00  0.00    -0.354 N 
ATOM     53  C   UNL     1      -1.478   2.835  -9.551  1.00  0.00     0.074 A 
ATOM     54  C   UNL     1      -0.567   3.721  -8.898  1.00  0.00     0.031 C 
ATOM     55  C   UNL     1      -2.729   0.898  -3.364  1.00  0.00     0.029 A 
ATOM     56  C   UNL     1      -2.359  -0.021  -4.429  1.00  0.00     0.049 A 
ATOM     57  H   UNL     1      -2.484   0.365  -6.486  1.00  0.00     0.167 HD
ATOM     58  C   UNL     1      -1.249   1.930 -10.544  1.00  0.00     0.034 A 
ATOM     59  C   UNL     1      -1.873  -1.296  -4.365  1.00  0.00     0.034 A 
ATOM     60  C   UNL     1      -2.437   1.131 -10.771  1.00  0.00     0.049 A 
ATOM     61  C   UNL     1      -1.945  -1.852  -5.740  1.00  0.00     0.074 A 
ATOM     62  C   UNL     1      -3.751   1.419 -11.088  1.00  0.00     0.029 A 
ATOM     63  N   UNL     1      -2.455  -0.147 -10.254  1.00  0.00    -0.354 N 
ATOM     64  N   UNL     1      -3.063  -2.075  -6.373  1.00  0.00    -0.248 NA
ATOM     65  C   UNL     1      -0.773  -1.696  -6.590  1.00  0.00     0.031 C 
ATOM     66  C   UNL     1      -4.526   0.524 -10.292  1.00  0.00     0.029 A 
ATOM     67  C   UNL     1      -3.653  -0.329  -9.612  1.00  0.00     0.049 A 
ATOM     68  H   UNL     1      -1.733  -0.813 -10.332  1.00  0.00     0.167 HD
ATOM     69  C   UNL     1      -2.826  -1.665  -7.676  1.00  0.00     0.074 A 
ATOM     70  C   UNL     1      -1.374  -1.526  -7.771  1.00  0.00     0.031 C 
ATOM     71  C   UNL     1      -3.839  -1.191  -8.459  1.00  0.00     0.034 A 
BRANCH  58  72
ATOM     72  C   UNL     1       0.132   1.464 -10.999  1.00  0.00     0.023 A 
ATOM     73  C   UNL     1       0.154   0.413 -11.936  1.00  0.00     0.031 A 
ATOM     74  C   UNL     1       1.383   1.760 -10.406  1.00  0.00     0.131 A 
ATOM     75  C   UNL     1       1.301  -0.377 -12.122  1.00  0.00     0.055 A 
ATOM     76  C   UNL     1       2.540   1.008 -10.641  1.00  0.00     0.041 A 
ATOM     77  F   UNL     1       1.570   2.740  -9.518  1.00  0.00    -0.206 F 
ATOM     78  C   UNL     1       2.495  -0.094 -11.471  1.00  0.00     0.022 A 
BRANCH  75  79
ATOM     79  S   UNL     1       1.135  -1.899 -13.084  1.00  0.00     0.124 S 
ATOM     80  O   UNL     1       0.014  -2.543 -12.409  1.00  0.00    -0.237 OA
ATOM     81  O   UNL     1       0.874  -1.377 -14.421  1.00  0.00    -0.237 OA
ATOM     82  O   UNL     1       2.431  -2.550 -12.909  1.00  0.00    -0.744 OA
ENDBRANCH  75  79
ENDBRANCH  58  72
BRANCH  59  83
ATOM     83  C   UNL     1      -0.930  -1.860  -3.351  1.00  0.00     0.023 A 
ATOM     84  C   UNL     1      -0.901  -3.220  -2.957  1.00  0.00     0.031 A 
ATOM     85  C   UNL     1       0.174  -1.067  -2.971  1.00  0.00     0.131 A 
ATOM     86  C   UNL     1       0.196  -3.722  -2.209  1.00  0.00     0.055 A 
ATOM     87  C   UNL     1       1.258  -1.573  -2.251  1.00  0.00     0.041 A 
ATOM     88  F   UNL     1       0.267   0.215  -3.361  1.00  0.00    -0.206 F 
ATOM     89  C   UNL     1       1.270  -2.901  -1.857  1.00  0.00     0.022 A 
BRANCH  86  90
ATOM     90  S   UNL     1       0.287  -5.473  -1.692  1.00  0.00     0.124 S 
ATOM     91  O   UNL     1      -1.059  -5.742  -1.203  1.00  0.00    -0.237 OA
ATOM     92  O   UNL     1       0.674  -6.137  -2.932  1.00  0.00    -0.237 OA
ATOM     93  O   UNL     1       1.321  -5.462  -0.655  1.00  0.00    -0.744 OA
ENDBRANCH  86  90
ENDBRANCH  59  83
BRANCH  71  94
ATOM     94  C   UNL     1      -5.268  -1.427  -8.012  1.00  0.00     0.023 A 
ATOM     95  C   UNL     1      -5.855  -0.928  -6.825  1.00  0.00     0.031 A 
ATOM     96  C   UNL     1      -6.103  -2.089  -8.928  1.00  0.00     0.131 A 
ATOM     97  C   UNL     1      -7.238  -1.103  -6.602  1.00  0.00     0.055 A 
ATOM     98  C   UNL     1      -7.470  -2.239  -8.713  1.00  0.00     0.041 A 
ATOM     99  F   UNL     1      -5.604  -2.567 -10.080  1.00  0.00    -0.206 F 
ATOM    100  C   UNL     1      -8.043  -1.747  -7.548  1.00  0.00     0.022 A 
BRANCH  97 101
ATOM    101  S   UNL     1      -8.028  -0.496  -5.073  1.00  0.00     0.124 S 
ATOM    102  O   UNL     1      -7.191  -1.052  -4.017  1.00  0.00    -0.237 OA
ATOM    103  O   UNL     1      -7.975   0.953  -5.241  1.00  0.00    -0.237 OA
ATOM    104  O   UNL     1      -9.378  -1.062  -5.139  1.00  0.00    -0.744 OA
ENDBRANCH  97 101
ENDBRANCH  71  94
ENDBRANCH  45  46
ENDBRANCH  37  40
ENDBRANCH  35  36
ENDBRANCH  34  35
ENDBRANCH  33  34
ENDBRANCH   1  33
TORSDOF 20
