REMARK SMILES O=C(NC[C@@H]1CCOC1)NC[C@@H]1CC[C@H](C(=O)NCCCCCCNC(=O)c2ccc(-c3c4nc(c(-c5cc(S(=O)(=O)[O-])ccc5F)c5ccc([nH]5)c(-c5cc(S(=O)(=O)[O-])ccc5F)c5nc(c(-c6cc(S(=O)(=O)[O-])ccc6F)c6ccc3[nH]6)C=C5)C=C4)cc2)O1
REMARK SMILES IDX 21 1 20 2 19 3 18 4 16 5 17 6 15 8 12 9 13 10 91 11 14 12
REMARK SMILES IDX 11 13 10 14 1 15 2 16 3 17 4 20 5 21 6 22 9 23 7 24 8 25
REMARK SMILES IDX 22 26 23 27 24 28 25 29 26 30 27 32 28 33 29 34 90 35 30 36
REMARK SMILES IDX 89 37 31 38 32 39 33 40 83 41 34 42 88 43 82 44 84 45 35 46
REMARK SMILES IDX 87 47 81 48 80 49 36 51 68 52 48 53 67 54 49 55 52 56 66 57
REMARK SMILES IDX 85 58 50 59 51 60 65 62 86 63 53 64 37 65 38 66 46 67 39 68
REMARK SMILES IDX 45 69 47 70 44 71 40 72 41 73 42 74 43 75 69 76 70 77 78 78
REMARK SMILES IDX 71 79 77 80 79 81 76 82 72 83 73 84 74 85 75 86 54 87 55 88
REMARK SMILES IDX 63 89 56 90 62 91 64 92 61 93 57 94 58 95 59 96 60 97
REMARK H PARENT 18 7 3 18 10 19 25 31 84 50 52 61
REMARK Flexibility Score: inf
ROOT
ATOM      1  C   UNL     1      -2.490  -4.459   2.985  1.00  0.00     0.002 C 
ENDROOT
BRANCH   1   2
ATOM      2  C   UNL     1      -1.215  -4.480   2.138  1.00  0.00     0.021 C 
BRANCH   2   3
ATOM      3  C   UNL     1       0.053  -4.234   2.950  1.00  0.00     0.116 C 
BRANCH   3   4
ATOM      4  N   UNL     1       0.596  -5.459   3.492  1.00  0.00    -0.354 N 
ATOM      5  C   UNL     1       1.755  -6.108   3.178  1.00  0.00     0.249 C 
ATOM      6  O   UNL     1       2.001  -7.160   3.778  1.00  0.00    -0.272 OA
ATOM      7  H   UNL     1       0.049  -5.889   4.189  1.00  0.00     0.163 HD
BRANCH   5   8
ATOM      8  C   UNL     1       2.721  -5.576   2.094  1.00  0.00     0.207 C 
ATOM      9  C   UNL     1       3.075  -3.509   1.041  1.00  0.00     0.138 C 
ATOM     10  C   UNL     1       2.176  -4.311   0.110  1.00  0.00     0.037 C 
ATOM     11  O   UNL     1       3.126  -4.223   2.290  1.00  0.00    -0.363 OA
ATOM     12  C   UNL     1       2.205  -5.717   0.671  1.00  0.00     0.045 C 
BRANCH   9  13
ATOM     13  C   UNL     1       2.571  -2.087   1.334  1.00  0.00     0.149 C 
BRANCH  13  14
ATOM     14  N   UNL     1       3.189  -1.060   0.528  1.00  0.00    -0.336 N 
ATOM     15  O   UNL     1       1.217  -0.156  -0.166  1.00  0.00    -0.249 OA
ATOM     16  C   UNL     1       2.446  -0.119  -0.107  1.00  0.00     0.314 C 
ATOM     17  N   UNL     1       3.111   0.899  -0.695  1.00  0.00    -0.338 N 
ATOM     18  H   UNL     1       2.530   1.568  -1.125  1.00  0.00     0.165 HD
ATOM     19  H   UNL     1       4.170  -1.042   0.439  1.00  0.00     0.165 HD
BRANCH  17  20
ATOM     20  C   UNL     1       4.532   1.181  -0.805  1.00  0.00     0.123 C 
BRANCH  20  21
ATOM     21  C   UNL     1       5.054   0.851  -2.208  1.00  0.00     0.036 C 
ATOM     22  C   UNL     1       5.194  -0.638  -2.464  1.00  0.00     0.036 C 
ATOM     23  C   UNL     1       6.494   1.306  -2.368  1.00  0.00     0.165 C 
ATOM     24  C   UNL     1       6.550  -0.968  -1.874  1.00  0.00     0.160 C 
ATOM     25  O   UNL     1       7.315   0.245  -1.857  1.00  0.00    -0.381 OA
ENDBRANCH  20  21
ENDBRANCH  17  20
ENDBRANCH  13  14
ENDBRANCH   9  13
ENDBRANCH   5   8
ENDBRANCH   3   4
ENDBRANCH   2   3
ENDBRANCH   1   2
BRANCH   1  26
ATOM     26  C   UNL     1      -2.791  -3.116   3.663  1.00  0.00     0.002 C 
BRANCH  26  27
ATOM     27  C   UNL     1      -2.880  -1.907   2.724  1.00  0.00     0.021 C 
BRANCH  27  28
ATOM     28  C   UNL     1      -3.951  -2.016   1.642  1.00  0.00     0.116 C 
BRANCH  28  29
ATOM     29  N   UNL     1      -5.282  -2.156   2.213  1.00  0.00    -0.352 N 
ATOM     30  C   UNL     1      -6.398  -1.382   2.027  1.00  0.00     0.251 C 
ATOM     31  H   UNL     1      -5.398  -2.920   2.823  1.00  0.00     0.163 HD
ATOM     32  O   UNL     1      -7.361  -1.516   2.780  1.00  0.00    -0.269 OA
BRANCH  30  33
ATOM     33  C   UNL     1      -6.440  -0.385   0.936  1.00  0.00     0.039 A 
ATOM     34  C   UNL     1      -6.979   0.879   1.192  1.00  0.00     0.014 A 
ATOM     35  C   UNL     1      -5.978  -0.704  -0.344  1.00  0.00     0.014 A 
ATOM     36  C   UNL     1      -7.006   1.840   0.178  1.00  0.00     0.010 A 
ATOM     37  C   UNL     1      -5.948   0.275  -1.335  1.00  0.00     0.010 A 
ATOM     38  C   UNL     1      -6.465   1.555  -1.086  1.00  0.00    -0.014 A 
BRANCH  38  39
ATOM     39  C   UNL     1      -6.436   2.579  -2.163  1.00  0.00     0.031 A 
ATOM     40  C   UNL     1      -7.226   2.365  -3.426  1.00  0.00     0.074 A 
ATOM     41  C   UNL     1      -5.640   3.660  -2.034  1.00  0.00     0.049 A 
ATOM     42  N   UNL     1      -7.253   3.084  -4.519  1.00  0.00    -0.248 NA
ATOM     43  C   UNL     1      -8.079   1.167  -3.475  1.00  0.00     0.031 C 
ATOM     44  C   UNL     1      -4.797   3.953  -0.872  1.00  0.00     0.029 A 
ATOM     45  N   UNL     1      -5.394   4.704  -2.891  1.00  0.00    -0.354 N 
ATOM     46  C   UNL     1      -8.103   2.416  -5.394  1.00  0.00     0.074 A 
ATOM     47  C   UNL     1      -8.536   1.211  -4.718  1.00  0.00     0.031 C 
ATOM     48  C   UNL     1      -4.135   5.101  -1.087  1.00  0.00     0.029 A 
ATOM     49  C   UNL     1      -4.467   5.603  -2.416  1.00  0.00     0.049 A 
ATOM     50  H   UNL     1      -5.839   4.800  -3.764  1.00  0.00     0.167 HD
ATOM     51  C   UNL     1      -8.495   2.783  -6.639  1.00  0.00     0.034 A 
ATOM     52  C   UNL     1      -3.929   6.696  -2.994  1.00  0.00     0.034 A 
ATOM     53  C   UNL     1      -8.070   4.000  -7.286  1.00  0.00     0.049 A 
ATOM     54  C   UNL     1      -4.383   7.083  -4.380  1.00  0.00     0.074 A 
ATOM     55  C   UNL     1      -8.463   4.504  -8.514  1.00  0.00     0.029 A 
ATOM     56  N   UNL     1      -7.152   4.902  -6.763  1.00  0.00    -0.354 N 
ATOM     57  N   UNL     1      -5.234   6.470  -5.171  1.00  0.00    -0.248 NA
ATOM     58  C   UNL     1      -3.816   8.314  -4.946  1.00  0.00     0.031 C 
ATOM     59  C   UNL     1      -7.733   5.671  -8.763  1.00  0.00     0.029 A 
ATOM     60  C   UNL     1      -6.943   5.941  -7.657  1.00  0.00     0.049 A 
ATOM     61  H   UNL     1      -6.714   4.816  -5.886  1.00  0.00     0.167 HD
ATOM     62  C   UNL     1      -5.329   7.262  -6.312  1.00  0.00     0.074 A 
ATOM     63  C   UNL     1      -4.460   8.401  -6.101  1.00  0.00     0.031 C 
ATOM     64  C   UNL     1      -6.070   7.069  -7.433  1.00  0.00     0.034 A 
BRANCH  51  65
ATOM     65  C   UNL     1      -9.405   1.843  -7.394  1.00  0.00     0.023 A 
ATOM     66  C   UNL     1     -10.707   1.552  -6.950  1.00  0.00     0.031 A 
ATOM     67  C   UNL     1      -8.961   1.228  -8.578  1.00  0.00     0.131 A 
ATOM     68  C   UNL     1     -11.495   0.625  -7.649  1.00  0.00     0.055 A 
ATOM     69  C   UNL     1      -9.778   0.365  -9.312  1.00  0.00     0.041 A 
ATOM     70  F   UNL     1      -7.721   1.451  -9.041  1.00  0.00    -0.206 F 
ATOM     71  C   UNL     1     -11.049   0.050  -8.841  1.00  0.00     0.022 A 
BRANCH  68  72
ATOM     72  S   UNL     1     -13.064   0.090  -6.915  1.00  0.00     0.124 S 
ATOM     73  O   UNL     1     -12.615  -0.490  -5.652  1.00  0.00    -0.237 OA
ATOM     74  O   UNL     1     -13.809   1.340  -6.814  1.00  0.00    -0.237 OA
ATOM     75  O   UNL     1     -13.586  -0.871  -7.884  1.00  0.00    -0.744 OA
ENDBRANCH  68  72
ENDBRANCH  51  65
BRANCH  52  76
ATOM     76  C   UNL     1      -2.887   7.494  -2.285  1.00  0.00     0.023 A 
ATOM     77  C   UNL     1      -3.116   8.831  -1.924  1.00  0.00     0.031 A 
ATOM     78  C   UNL     1      -1.622   6.945  -2.005  1.00  0.00     0.131 A 
ATOM     79  C   UNL     1      -2.081   9.591  -1.356  1.00  0.00     0.055 A 
ATOM     80  C   UNL     1      -0.615   7.687  -1.385  1.00  0.00     0.041 A 
ATOM     81  F   UNL     1      -1.348   5.671  -2.326  1.00  0.00    -0.206 F 
ATOM     82  C   UNL     1      -0.837   9.024  -1.072  1.00  0.00     0.022 A 
BRANCH  79  83
ATOM     83  S   UNL     1      -2.351  11.365  -1.092  1.00  0.00     0.124 S 
ATOM     84  O   UNL     1      -2.719  11.812  -2.430  1.00  0.00    -0.237 OA
ATOM     85  O   UNL     1      -3.420  11.363  -0.099  1.00  0.00    -0.237 OA
ATOM     86  O   UNL     1      -1.055  11.838  -0.610  1.00  0.00    -0.744 OA
ENDBRANCH  79  83
ENDBRANCH  52  76
BRANCH  64  87
ATOM     87  C   UNL     1      -6.012   8.144  -8.489  1.00  0.00     0.023 A 
ATOM     88  C   UNL     1      -4.843   8.399  -9.227  1.00  0.00     0.031 A 
ATOM     89  C   UNL     1      -7.147   8.930  -8.756  1.00  0.00     0.131 A 
ATOM     90  C   UNL     1      -4.819   9.448 -10.158  1.00  0.00     0.055 A 
ATOM     91  C   UNL     1      -7.136   9.933  -9.726  1.00  0.00     0.041 A 
ATOM     92  F   UNL     1      -8.290   8.732  -8.080  1.00  0.00    -0.206 F 
ATOM     93  C   UNL     1      -5.963  10.205 -10.424  1.00  0.00     0.022 A 
BRANCH  90  94
ATOM     94  S   UNL     1      -3.246   9.869 -10.957  1.00  0.00     0.124 S 
ATOM     95  O   UNL     1      -2.397  10.180  -9.812  1.00  0.00    -0.237 OA
ATOM     96  O   UNL     1      -2.922   8.640 -11.675  1.00  0.00    -0.237 OA
ATOM     97  O   UNL     1      -3.586  11.010 -11.805  1.00  0.00    -0.744 OA
ENDBRANCH  90  94
ENDBRANCH  64  87
ENDBRANCH  38  39
ENDBRANCH  30  33
ENDBRANCH  28  29
ENDBRANCH  27  28
ENDBRANCH  26  27
ENDBRANCH   1  26
TORSDOF 20
