REMARK SMILES CN(C)c1nccnc1N1CCC(Oc2ccc3ccccc3c2)(C(=O)NCCCCCCNC(=O)c2ccc(-c3c4nc(c(-c5cc(S(=O)(=O)[O-])ccc5F)c5ccc([nH]5)c(-c5cc(S(=O)(=O)[O-])ccc5F)c5nc(c(-c6cc(S(=O)(=O)[O-])ccc6F)c6ccc3[nH]6)C=C5)C=C4)cc2)CC1
REMARK SMILES IDX 31 1 30 2 29 3 28 4 27 5 25 6 26 7 13 9 10 10 11 11 101 12
REMARK SMILES IDX 12 13 100 14 9 15 4 16 5 17 6 18 8 19 7 20 2 21 1 22 3 23
REMARK SMILES IDX 14 24 15 25 16 26 24 27 17 28 23 29 18 30 22 31 19 32 21 33
REMARK SMILES IDX 20 34 32 35 33 36 34 37 35 38 36 40 37 41 38 42 99 43 39 44
REMARK SMILES IDX 98 45 40 46 41 47 42 48 92 49 43 50 97 51 91 52 93 53 44 54
REMARK SMILES IDX 96 55 90 56 89 57 45 59 77 60 57 61 76 62 58 63 61 64 75 65
REMARK SMILES IDX 94 66 59 67 60 68 74 70 95 71 62 72 46 73 47 74 55 75 48 76
REMARK SMILES IDX 54 77 56 78 53 79 49 80 50 81 51 82 52 83 78 84 79 85 87 86
REMARK SMILES IDX 80 87 86 88 88 89 85 90 81 91 82 92 83 93 84 94 63 95 64 96
REMARK SMILES IDX 72 97 65 98 71 99 73 100 70 101 66 102 67 103 68 104 69 105
REMARK H PARENT 27 8 34 39 93 58 61 69
REMARK Flexibility Score: inf
ROOT
ATOM      1  C   UNL     1      -7.551  -6.204  -3.056  1.00  0.00     0.002 C 
ENDROOT
BRANCH   1   2
ATOM      2  C   UNL     1      -6.041  -5.985  -2.913  1.00  0.00     0.002 C 
BRANCH   2   3
ATOM      3  C   UNL     1      -5.440  -4.985  -3.908  1.00  0.00     0.021 C 
BRANCH   3   4
ATOM      4  C   UNL     1      -6.081  -3.600  -3.845  1.00  0.00     0.116 C 
BRANCH   4   5
ATOM      5  N   UNL     1      -5.732  -2.942  -2.603  1.00  0.00    -0.353 N 
ATOM      6  C   UNL     1      -4.975  -1.831  -2.373  1.00  0.00     0.264 C 
ATOM      7  O   UNL     1      -4.874  -1.486  -1.191  1.00  0.00    -0.270 OA
ATOM      8  H   UNL     1      -6.100  -3.365  -1.793  1.00  0.00     0.163 HD
BRANCH   6   9
ATOM      9  C   UNL     1      -4.296  -1.054  -3.540  1.00  0.00     0.190 C 
ATOM     10  N   UNL     1      -1.540  -1.177  -2.803  1.00  0.00    -0.353 N 
ATOM     11  C   UNL     1      -2.141  -2.355  -3.378  1.00  0.00     0.123 C 
ATOM     12  C   UNL     1      -2.353  -0.189  -2.111  1.00  0.00     0.123 C 
ATOM     13  C   UNL     1      -3.272  -1.929  -4.287  1.00  0.00     0.080 C 
ATOM     14  C   UNL     1      -3.579   0.185  -2.955  1.00  0.00     0.080 C 
BRANCH  10  15
ATOM     15  C   UNL     1      -0.235  -0.855  -3.130  1.00  0.00     0.171 A 
ATOM     16  C   UNL     1       0.737  -0.549  -2.123  1.00  0.00     0.171 A 
ATOM     17  N   UNL     1       1.972  -0.101  -2.473  1.00  0.00    -0.234 NA
ATOM     18  C   UNL     1       2.230  -0.020  -3.796  1.00  0.00     0.134 A 
ATOM     19  N   UNL     1       0.064  -0.790  -4.453  1.00  0.00    -0.234 NA
ATOM     20  C   UNL     1       1.304  -0.362  -4.761  1.00  0.00     0.134 A 
BRANCH  16  21
ATOM     21  N   UNL     1       0.473  -0.752  -0.758  1.00  0.00    -0.360 N 
ATOM     22  C   UNL     1       1.269   0.015   0.175  1.00  0.00     0.145 C 
ATOM     23  C   UNL     1       0.086  -2.108  -0.389  1.00  0.00     0.145 C 
ENDBRANCH  16  21
ENDBRANCH  10  15
BRANCH   9  24
ATOM     24  O   UNL     1      -5.465  -0.669  -4.314  1.00  0.00    -0.477 OA
BRANCH  24  25
ATOM     25  C   UNL     1      -5.307   0.053  -5.457  1.00  0.00     0.121 A 
ATOM     26  C   UNL     1      -4.712  -0.469  -6.600  1.00  0.00     0.047 A 
ATOM     27  C   UNL     1      -5.927   1.301  -5.511  1.00  0.00     0.055 A 
ATOM     28  C   UNL     1      -4.614   0.302  -7.757  1.00  0.00     0.012 A 
ATOM     29  C   UNL     1      -5.885   2.072  -6.685  1.00  0.00    -0.015 A 
ATOM     30  C   UNL     1      -5.192   1.576  -7.813  1.00  0.00    -0.018 A 
ATOM     31  C   UNL     1      -6.529   3.316  -6.775  1.00  0.00     0.009 A 
ATOM     32  C   UNL     1      -5.122   2.348  -8.980  1.00  0.00     0.009 A 
ATOM     33  C   UNL     1      -6.472   4.064  -7.953  1.00  0.00     0.001 A 
ATOM     34  C   UNL     1      -5.760   3.586  -9.050  1.00  0.00     0.001 A 
ENDBRANCH  24  25
ENDBRANCH   9  24
ENDBRANCH   6   9
ENDBRANCH   4   5
ENDBRANCH   3   4
ENDBRANCH   2   3
ENDBRANCH   1   2
BRANCH   1  35
ATOM     35  C   UNL     1      -8.012  -6.584  -4.465  1.00  0.00     0.021 C 
BRANCH  35  36
ATOM     36  C   UNL     1      -7.380  -7.860  -5.008  1.00  0.00     0.116 C 
BRANCH  36  37
ATOM     37  N   UNL     1      -7.760  -9.025  -4.226  1.00  0.00    -0.352 N 
ATOM     38  C   UNL     1      -8.357 -10.188  -4.645  1.00  0.00     0.251 C 
ATOM     39  H   UNL     1      -7.561  -8.974  -3.263  1.00  0.00     0.163 HD
ATOM     40  O   UNL     1      -8.815 -10.974  -3.820  1.00  0.00    -0.269 OA
BRANCH  38  41
ATOM     41  C   UNL     1      -8.466 -10.469  -6.092  1.00  0.00     0.039 A 
ATOM     42  C   UNL     1      -9.682 -10.921  -6.608  1.00  0.00     0.014 A 
ATOM     43  C   UNL     1      -7.372 -10.268  -6.939  1.00  0.00     0.014 A 
ATOM     44  C   UNL     1      -9.819 -11.110  -7.985  1.00  0.00     0.010 A 
ATOM     45  C   UNL     1      -7.534 -10.383  -8.316  1.00  0.00     0.010 A 
ATOM     46  C   UNL     1      -8.759 -10.804  -8.855  1.00  0.00    -0.014 A 
BRANCH  46  47
ATOM     47  C   UNL     1      -8.912 -10.917 -10.330  1.00  0.00     0.031 A 
ATOM     48  C   UNL     1      -8.063 -11.889 -11.103  1.00  0.00     0.074 A 
ATOM     49  C   UNL     1      -9.765 -10.098 -10.977  1.00  0.00     0.049 A 
ATOM     50  N   UNL     1      -7.981 -12.071 -12.396  1.00  0.00    -0.248 NA
ATOM     51  C   UNL     1      -7.166 -12.750 -10.317  1.00  0.00     0.031 C 
ATOM     52  C   UNL     1     -10.617  -9.092 -10.340  1.00  0.00     0.029 A 
ATOM     53  N   UNL     1     -10.050  -9.972 -12.314  1.00  0.00    -0.354 N 
ATOM     54  C   UNL     1      -7.017 -13.057 -12.580  1.00  0.00     0.074 A 
ATOM     55  C   UNL     1      -6.500 -13.386 -11.269  1.00  0.00     0.031 C 
ATOM     56  C   UNL     1     -11.346  -8.471 -11.282  1.00  0.00     0.029 A 
ATOM     57  C   UNL     1     -10.975  -8.992 -12.594  1.00  0.00     0.049 A 
ATOM     58  H   UNL     1      -9.633 -10.531 -13.009  1.00  0.00     0.167 HD
ATOM     59  C   UNL     1      -6.618 -13.647 -13.734  1.00  0.00     0.034 A 
ATOM     60  C   UNL     1     -11.455  -8.547 -13.773  1.00  0.00     0.034 A 
ATOM     61  C   UNL     1      -7.151 -13.310 -15.032  1.00  0.00     0.049 A 
ATOM     62  C   UNL     1     -10.963  -9.189 -15.047  1.00  0.00     0.074 A 
ATOM     63  C   UNL     1      -6.856 -13.881 -16.258  1.00  0.00     0.029 A 
ATOM     64  N   UNL     1      -8.079 -12.305 -15.277  1.00  0.00    -0.354 N 
ATOM     65  N   UNL     1     -10.086 -10.154 -15.200  1.00  0.00    -0.248 NA
ATOM     66  C   UNL     1     -11.531  -8.687 -16.305  1.00  0.00     0.031 C 
ATOM     67  C   UNL     1      -7.541 -13.171 -17.249  1.00  0.00     0.029 A 
ATOM     68  C   UNL     1      -8.336 -12.215 -16.637  1.00  0.00     0.049 A 
ATOM     69  H   UNL     1      -8.493 -11.739 -14.586  1.00  0.00     0.167 HD
ATOM     70  C   UNL     1     -10.025 -10.397 -16.570  1.00  0.00     0.074 A 
ATOM     71  C   UNL     1     -10.963  -9.487 -17.195  1.00  0.00     0.031 C 
ATOM     72  C   UNL     1      -9.268 -11.296 -17.250  1.00  0.00     0.034 A 
BRANCH  59  73
ATOM     73  C   UNL     1      -5.532 -14.694 -13.643  1.00  0.00     0.023 A 
ATOM     74  C   UNL     1      -5.710 -15.885 -12.917  1.00  0.00     0.031 A 
ATOM     75  C   UNL     1      -4.292 -14.491 -14.275  1.00  0.00     0.131 A 
ATOM     76  C   UNL     1      -4.645 -16.787 -12.777  1.00  0.00     0.055 A 
ATOM     77  C   UNL     1      -3.265 -15.434 -14.205  1.00  0.00     0.041 A 
ATOM     78  F   UNL     1      -4.052 -13.364 -14.963  1.00  0.00    -0.206 F 
ATOM     79  C   UNL     1      -3.433 -16.584 -13.439  1.00  0.00     0.022 A 
BRANCH  76  80
ATOM     80  S   UNL     1      -4.817 -18.151 -11.593  1.00  0.00     0.124 S 
ATOM     81  O   UNL     1      -5.082 -17.430 -10.350  1.00  0.00    -0.237 OA
ATOM     82  O   UNL     1      -5.935 -18.908 -12.144  1.00  0.00    -0.237 OA
ATOM     83  O   UNL     1      -3.519 -18.821 -11.652  1.00  0.00    -0.744 OA
ENDBRANCH  76  80
ENDBRANCH  59  73
BRANCH  60  84
ATOM     84  C   UNL     1     -12.441  -7.428 -13.815  1.00  0.00     0.023 A 
ATOM     85  C   UNL     1     -13.734  -7.619 -14.326  1.00  0.00     0.031 A 
ATOM     86  C   UNL     1     -12.087  -6.134 -13.389  1.00  0.00     0.131 A 
ATOM     87  C   UNL     1     -14.609  -6.528 -14.445  1.00  0.00     0.055 A 
ATOM     88  C   UNL     1     -12.982  -5.065 -13.452  1.00  0.00     0.041 A 
ATOM     89  F   UNL     1     -10.863  -5.894 -12.891  1.00  0.00    -0.206 F 
ATOM     90  C   UNL     1     -14.248  -5.256 -13.997  1.00  0.00     0.022 A 
BRANCH  87  91
ATOM     91  S   UNL     1     -16.196  -6.776 -15.288  1.00  0.00     0.124 S 
ATOM     92  O   UNL     1     -15.764  -7.264 -16.593  1.00  0.00    -0.237 OA
ATOM     93  O   UNL     1     -16.850  -7.751 -14.422  1.00  0.00    -0.237 OA
ATOM     94  O   UNL     1     -16.794  -5.442 -15.286  1.00  0.00    -0.744 OA
ENDBRANCH  87  91
ENDBRANCH  60  84
BRANCH  72  95
ATOM     95  C   UNL     1      -9.463 -11.374 -18.745  1.00  0.00     0.023 A 
ATOM     96  C   UNL     1      -9.115 -10.313 -19.598  1.00  0.00     0.031 A 
ATOM     97  C   UNL     1     -10.007 -12.536 -19.325  1.00  0.00     0.131 A 
ATOM     98  C   UNL     1      -9.363 -10.413 -20.976  1.00  0.00     0.055 A 
ATOM     99  C   UNL     1     -10.190 -12.655 -20.703  1.00  0.00     0.041 A 
ATOM    100  F   UNL     1     -10.363 -13.579 -18.558  1.00  0.00    -0.206 F 
ATOM    101  C   UNL     1      -9.879 -11.585 -21.535  1.00  0.00     0.022 A 
BRANCH  98 102
ATOM    102  S   UNL     1      -9.088  -8.955 -22.020  1.00  0.00     0.124 S 
ATOM    103  O   UNL     1      -9.974  -7.971 -21.406  1.00  0.00    -0.237 OA
ATOM    104  O   UNL     1      -7.658  -8.716 -21.853  1.00  0.00    -0.237 OA
ATOM    105  O   UNL     1      -9.489  -9.405 -23.351  1.00  0.00    -0.744 OA
ENDBRANCH  98 102
ENDBRANCH  72  95
ENDBRANCH  46  47
ENDBRANCH  38  41
ENDBRANCH  36  37
ENDBRANCH  35  36
ENDBRANCH   1  35
TORSDOF 20
