REMARK SMILES CC[C@H]1CC[C@](NC(=O)C[NH2+]CC(F)(F)F)(C(=O)NCCCCCCNC(=O)c2ccc(-c3c4nc(c(-c5cc(S(=O)(=O)[O-])ccc5F)c5ccc([nH]5)c(-c5cc(S(=O)(=O)[O-])ccc5F)c5nc(c(-c6cc(S(=O)(=O)[O-])ccc6F)c6ccc3[nH]6)C=C5)C=C4)cc2)CC1
REMARK SMILES IDX 21 1 20 2 19 3 17 4 18 5 6 7 3 8 93 9 4 10 92 11 5 12 2 13
REMARK SMILES IDX 1 14 7 15 8 16 9 18 10 19 11 20 12 23 13 24 14 25 15 26
REMARK SMILES IDX 16 27 22 28 23 29 24 30 25 31 26 32 27 33 28 35 29 36 30 37
REMARK SMILES IDX 91 38 31 39 90 40 32 41 33 42 34 43 84 44 35 45 89 46 83 47
REMARK SMILES IDX 85 48 36 49 88 50 82 51 81 52 37 54 69 55 49 56 68 57 50 58
REMARK SMILES IDX 53 59 67 60 86 61 51 62 52 63 66 65 87 66 54 67 38 68 39 69
REMARK SMILES IDX 47 70 40 71 46 72 48 73 45 74 41 75 42 76 43 77 44 78 70 79
REMARK SMILES IDX 71 80 79 81 72 82 78 83 80 84 77 85 73 86 74 87 75 88 76 89
REMARK SMILES IDX 55 90 56 91 64 92 57 93 63 94 65 95 62 96 58 97 59 98 60 99
REMARK SMILES IDX 61 100
REMARK H PARENT 19 6 7 17 11 21 11 22 26 34 85 53 53 64
REMARK Flexibility Score: inf
ROOT
ATOM      1  C   UNL     1       1.231  -8.357  -2.788  1.00  0.00     0.021 C 
ENDROOT
BRANCH   1   2
ATOM      2  C   UNL     1       0.524  -7.581  -1.685  1.00  0.00     0.116 C 
BRANCH   2   3
ATOM      3  N   UNL     1       1.422  -7.345  -0.562  1.00  0.00    -0.354 N 
ATOM      4  C   UNL     1       1.438  -6.340   0.361  1.00  0.00     0.245 C 
ATOM      5  O   UNL     1       2.237  -6.442   1.297  1.00  0.00    -0.272 OA
ATOM      6  H   UNL     1       2.132  -8.019  -0.451  1.00  0.00     0.163 HD
BRANCH   4   7
ATOM      7  C   UNL     1       0.553  -5.075   0.169  1.00  0.00     0.119 C 
ATOM      8  C   UNL     1       0.807  -2.074  -0.253  1.00  0.00    -0.011 C 
ATOM      9  C   UNL     1       0.191  -2.650   1.034  1.00  0.00     0.006 C 
ATOM     10  C   UNL     1       0.544  -3.032  -1.409  1.00  0.00     0.006 C 
ATOM     11  C   UNL     1       0.700  -4.074   1.348  1.00  0.00     0.039 C 
ATOM     12  C   UNL     1       1.137  -4.392  -1.102  1.00  0.00     0.039 C 
BRANCH   8  13
ATOM     13  C   UNL     1       0.276  -0.683  -0.634  1.00  0.00    -0.000 C 
ATOM     14  C   UNL     1       0.836   0.429   0.236  1.00  0.00     0.004 C 
ENDBRANCH   8  13
BRANCH   7  15
ATOM     15  N   UNL     1      -0.872  -5.442  -0.004  1.00  0.00    -0.337 N 
ATOM     16  C   UNL     1      -1.695  -6.198   0.793  1.00  0.00     0.275 C 
ATOM     17  H   UNL     1      -1.296  -5.089  -0.819  1.00  0.00     0.164 HD
ATOM     18  O   UNL     1      -2.914  -6.088   0.624  1.00  0.00    -0.268 OA
BRANCH  16  19
ATOM     19  C   UNL     1      -1.139  -7.241   1.781  1.00  0.00     0.362 C 
BRANCH  19  20
ATOM     20  N   UNL     1      -1.036  -8.531   1.085  1.00  0.00    -0.331 N 
ATOM     21  H   UNL     1      -0.654  -8.361   0.154  1.00  0.00     0.346 HD
ATOM     22  H   UNL     1      -1.976  -8.925   1.065  1.00  0.00     0.346 HD
BRANCH  20  23
ATOM     23  C   UNL     1      -0.178  -9.527   1.759  1.00  0.00     0.378 C 
BRANCH  23  24
ATOM     24  C   UNL     1      -0.760 -10.945   1.934  1.00  0.00     0.438 C 
ATOM     25  F   UNL     1      -1.340 -11.392   0.799  1.00  0.00    -0.165 F 
ATOM     26  F   UNL     1       0.210 -11.824   2.273  1.00  0.00    -0.165 F 
ATOM     27  F   UNL     1      -1.693 -10.965   2.911  1.00  0.00    -0.165 F 
ENDBRANCH  23  24
ENDBRANCH  20  23
ENDBRANCH  19  20
ENDBRANCH  16  19
ENDBRANCH   7  15
ENDBRANCH   4   7
ENDBRANCH   2   3
ENDBRANCH   1   2
BRANCH   1  28
ATOM     28  C   UNL     1       1.523  -9.812  -2.409  1.00  0.00     0.002 C 
BRANCH  28  29
ATOM     29  C   UNL     1       0.286 -10.636  -2.035  1.00  0.00     0.002 C 
BRANCH  29  30
ATOM     30  C   UNL     1      -0.815 -10.671  -3.095  1.00  0.00     0.021 C 
BRANCH  30  31
ATOM     31  C   UNL     1      -0.346 -11.129  -4.467  1.00  0.00     0.116 C 
BRANCH  31  32
ATOM     32  N   UNL     1       0.260 -12.452  -4.434  1.00  0.00    -0.352 N 
ATOM     33  C   UNL     1       0.119 -13.474  -5.338  1.00  0.00     0.251 C 
ATOM     34  H   UNL     1       0.844 -12.637  -3.663  1.00  0.00     0.163 HD
ATOM     35  O   UNL     1       0.579 -14.585  -5.098  1.00  0.00    -0.269 OA
BRANCH  33  36
ATOM     36  C   UNL     1      -0.628 -13.215  -6.584  1.00  0.00     0.039 A 
ATOM     37  C   UNL     1      -1.667 -14.075  -6.941  1.00  0.00     0.014 A 
ATOM     38  C   UNL     1      -0.340 -12.084  -7.353  1.00  0.00     0.014 A 
ATOM     39  C   UNL     1      -2.466 -13.761  -8.041  1.00  0.00     0.010 A 
ATOM     40  C   UNL     1      -1.185 -11.733  -8.398  1.00  0.00     0.010 A 
ATOM     41  C   UNL     1      -2.256 -12.569  -8.753  1.00  0.00    -0.014 A 
BRANCH  41  42
ATOM     42  C   UNL     1      -3.137 -12.178  -9.882  1.00  0.00     0.031 A 
ATOM     43  C   UNL     1      -2.562 -12.051 -11.265  1.00  0.00     0.074 A 
ATOM     44  C   UNL     1      -4.427 -11.867  -9.646  1.00  0.00     0.049 A 
ATOM     45  N   UNL     1      -3.131 -11.627 -12.363  1.00  0.00    -0.248 NA
ATOM     46  C   UNL     1      -1.146 -12.418 -11.425  1.00  0.00     0.031 C 
ATOM     47  C   UNL     1      -5.082 -11.912  -8.336  1.00  0.00     0.029 A 
ATOM     48  N   UNL     1      -5.417 -11.441 -10.495  1.00  0.00    -0.354 N 
ATOM     49  C   UNL     1      -2.141 -11.660 -13.339  1.00  0.00     0.074 A 
ATOM     50  C   UNL     1      -0.921 -12.082 -12.685  1.00  0.00     0.031 C 
ATOM     51  C   UNL     1      -6.369 -11.553  -8.475  1.00  0.00     0.029 A 
ATOM     52  C   UNL     1      -6.619 -11.204  -9.870  1.00  0.00     0.049 A 
ATOM     53  H   UNL     1      -5.279 -11.316 -11.462  1.00  0.00     0.167 HD
ATOM     54  C   UNL     1      -2.247 -11.388 -14.663  1.00  0.00     0.034 A 
ATOM     55  C   UNL     1      -7.786 -10.745 -10.363  1.00  0.00     0.034 A 
ATOM     56  C   UNL     1      -3.478 -10.987 -15.298  1.00  0.00     0.049 A 
ATOM     57  C   UNL     1      -7.875 -10.425 -11.835  1.00  0.00     0.074 A 
ATOM     58  C   UNL     1      -3.718 -10.747 -16.639  1.00  0.00     0.029 A 
ATOM     59  N   UNL     1      -4.678 -10.761 -14.634  1.00  0.00    -0.354 N 
ATOM     60  N   UNL     1      -6.942 -10.511 -12.756  1.00  0.00    -0.248 NA
ATOM     61  C   UNL     1      -9.173  -9.954 -12.334  1.00  0.00     0.031 C 
ATOM     62  C   UNL     1      -5.040 -10.310 -16.777  1.00  0.00     0.029 A 
ATOM     63  C   UNL     1      -5.650 -10.351 -15.533  1.00  0.00     0.049 A 
ATOM     64  H   UNL     1      -4.817 -10.874 -13.666  1.00  0.00     0.167 HD
ATOM     65  C   UNL     1      -7.551 -10.133 -13.948  1.00  0.00     0.074 A 
ATOM     66  C   UNL     1      -8.933  -9.832 -13.631  1.00  0.00     0.031 C 
ATOM     67  C   UNL     1      -7.021 -10.044 -15.195  1.00  0.00     0.034 A 
BRANCH  54  68
ATOM     68  C   UNL     1      -0.993 -11.495 -15.497  1.00  0.00     0.023 A 
ATOM     69  C   UNL     1      -0.307 -12.714 -15.646  1.00  0.00     0.031 A 
ATOM     70  C   UNL     1      -0.456 -10.358 -16.126  1.00  0.00     0.131 A 
ATOM     71  C   UNL     1       0.915 -12.751 -16.334  1.00  0.00     0.055 A 
ATOM     72  C   UNL     1       0.717 -10.420 -16.881  1.00  0.00     0.041 A 
ATOM     73  F   UNL     1      -1.052  -9.162 -16.002  1.00  0.00    -0.206 F 
ATOM     74  C   UNL     1       1.419 -11.618 -16.975  1.00  0.00     0.022 A 
BRANCH  71  75
ATOM     75  S   UNL     1       1.909 -14.266 -16.249  1.00  0.00     0.124 S 
ATOM     76  O   UNL     1       2.117 -14.401 -14.809  1.00  0.00    -0.237 OA
ATOM     77  O   UNL     1       1.030 -15.255 -16.863  1.00  0.00    -0.237 OA
ATOM     78  O   UNL     1       3.107 -13.933 -17.016  1.00  0.00    -0.744 OA
ENDBRANCH  71  75
ENDBRANCH  54  68
BRANCH  55  79
ATOM     79  C   UNL     1      -8.961 -10.543  -9.467  1.00  0.00     0.023 A 
ATOM     80  C   UNL     1     -10.134 -11.296  -9.634  1.00  0.00     0.031 A 
ATOM     81  C   UNL     1      -8.944  -9.566  -8.456  1.00  0.00     0.131 A 
ATOM     82  C   UNL     1     -11.258 -11.028  -8.836  1.00  0.00     0.055 A 
ATOM     83  C   UNL     1     -10.046  -9.340  -7.629  1.00  0.00     0.041 A 
ATOM     84  F   UNL     1      -7.846  -8.820  -8.251  1.00  0.00    -0.206 F 
ATOM     85  C   UNL     1     -11.217 -10.065  -7.826  1.00  0.00     0.022 A 
BRANCH  82  86
ATOM     86  S   UNL     1     -12.806 -11.901  -9.197  1.00  0.00     0.124 S 
ATOM     87  O   UNL     1     -13.037 -11.533 -10.590  1.00  0.00    -0.237 OA
ATOM     88  O   UNL     1     -12.435 -13.290  -8.954  1.00  0.00    -0.237 OA
ATOM     89  O   UNL     1     -13.749 -11.332  -8.236  1.00  0.00    -0.744 OA
ENDBRANCH  82  86
ENDBRANCH  55  79
BRANCH  67  90
ATOM     90  C   UNL     1      -7.954  -9.644 -16.310  1.00  0.00     0.023 A 
ATOM     91  C   UNL     1      -8.503  -8.353 -16.387  1.00  0.00     0.031 A 
ATOM     92  C   UNL     1      -8.296 -10.572 -17.310  1.00  0.00     0.131 A 
ATOM     93  C   UNL     1      -9.404  -8.039 -17.415  1.00  0.00     0.055 A 
ATOM     94  C   UNL     1      -9.148 -10.236 -18.363  1.00  0.00     0.041 A 
ATOM     95  F   UNL     1      -7.802 -11.820 -17.283  1.00  0.00    -0.206 F 
ATOM     96  C   UNL     1      -9.716  -8.966 -18.413  1.00  0.00     0.022 A 
BRANCH  93  97
ATOM     97  S   UNL     1     -10.227  -6.423 -17.388  1.00  0.00     0.124 S 
ATOM     98  O   UNL     1     -10.933  -6.463 -16.112  1.00  0.00    -0.237 OA
ATOM     99  O   UNL     1      -9.102  -5.497 -17.465  1.00  0.00    -0.237 OA
ATOM    100  O   UNL     1     -11.084  -6.454 -18.573  1.00  0.00    -0.744 OA
ENDBRANCH  93  97
ENDBRANCH  67  90
ENDBRANCH  41  42
ENDBRANCH  33  36
ENDBRANCH  31  32
ENDBRANCH  30  31
ENDBRANCH  29  30
ENDBRANCH  28  29
ENDBRANCH   1  28
TORSDOF 22
