REMARK SMILES CCCC[C@@H](C(=O)NCCCCCCNC(=O)c1ccc(-c2c3nc(c(-c4cc(S(=O)(=O)[O-])ccc4F)c4ccc([nH]4)c(-c4cc(S(=O)(=O)[O-])ccc4F)c4nc(c(-c5cc(S(=O)(=O)[O-])ccc5F)c5ccc2[nH]5)C=C4)C=C3)cc1)[C@@H](O)c1cccc(C(F)(F)F)c1
REMARK SMILES IDX 11 1 10 2 9 3 8 4 6 5 7 6 5 8 4 9 3 10 2 11 1 12 81 13 82 14
REMARK SMILES IDX 83 16 84 17 92 18 85 19 87 20 86 21 88 22 89 23 90 24 91 25
REMARK SMILES IDX 12 26 13 27 14 28 15 29 16 30 17 32 18 33 19 34 80 35 20 36
REMARK SMILES IDX 79 37 21 38 22 39 23 40 73 41 24 42 78 43 72 44 74 45 25 46
REMARK SMILES IDX 77 47 71 48 70 49 26 51 58 52 38 53 57 54 39 55 42 56 56 57
REMARK SMILES IDX 75 58 40 59 41 60 55 62 76 63 43 64 27 65 28 66 36 67 29 68
REMARK SMILES IDX 35 69 37 70 34 71 30 72 31 73 32 74 33 75 59 76 60 77 68 78
REMARK SMILES IDX 61 79 67 80 69 81 66 82 62 83 63 84 64 85 65 86 44 87 45 88
REMARK SMILES IDX 53 89 46 90 52 91 54 92 51 93 47 94 48 95 49 96 50 97
REMARK H PARENT 8 7 82 15 15 31 74 50 42 61
REMARK Flexibility Score: inf
ROOT
ATOM      1  C   UNL     1      -0.035   6.100   0.273  1.00  0.00     0.002 C 
ENDROOT
BRANCH   1   2
ATOM      2  C   UNL     1       0.251   4.655  -0.142  1.00  0.00     0.021 C 
BRANCH   2   3
ATOM      3  C   UNL     1      -1.008   3.862  -0.511  1.00  0.00     0.116 C 
BRANCH   3   4
ATOM      4  N   UNL     1      -1.254   3.995  -1.933  1.00  0.00    -0.356 N 
ATOM      5  C   UNL     1      -1.039   3.116  -2.948  1.00  0.00     0.226 C 
ATOM      6  O   UNL     1      -0.985   3.591  -4.087  1.00  0.00    -0.275 OA
ATOM      7  H   UNL     1      -1.638   4.859  -2.208  1.00  0.00     0.163 HD
BRANCH   5   8
ATOM      8  C   UNL     1      -0.915   1.607  -2.703  1.00  0.00     0.111 C 
BRANCH   8   9
ATOM      9  C   UNL     1       0.580   1.181  -2.695  1.00  0.00     0.016 C 
BRANCH   9  10
ATOM     10  C   UNL     1       1.398   1.496  -1.438  1.00  0.00     0.001 C 
BRANCH  10  11
ATOM     11  C   UNL     1       0.973   0.754  -0.167  1.00  0.00    -0.003 C 
ATOM     12  C   UNL     1       1.405  -0.704  -0.148  1.00  0.00     0.004 C 
ENDBRANCH  10  11
ENDBRANCH   9  10
ENDBRANCH   8   9
BRANCH   8  13
ATOM     13  C   UNL     1      -1.691   0.902  -3.869  1.00  0.00     0.157 C 
BRANCH  13  14
ATOM     14  O   UNL     1      -1.213  -0.437  -4.070  1.00  0.00    -0.388 OA
ATOM     15  H   UNL     1      -1.401  -0.969  -3.280  1.00  0.00     0.211 HD
ENDBRANCH  13  14
BRANCH  13  16
ATOM     16  C   UNL     1      -3.207   0.839  -3.681  1.00  0.00    -0.018 A 
ATOM     17  C   UNL     1      -3.987   2.002  -3.775  1.00  0.00     0.006 A 
ATOM     18  C   UNL     1      -3.875  -0.386  -3.494  1.00  0.00     0.019 A 
ATOM     19  C   UNL     1      -5.379   1.949  -3.671  1.00  0.00     0.001 A 
ATOM     20  C   UNL     1      -5.277  -0.459  -3.424  1.00  0.00     0.056 A 
ATOM     21  C   UNL     1      -6.021   0.725  -3.500  1.00  0.00     0.013 A 
BRANCH  20  22
ATOM     22  C   UNL     1      -5.983  -1.785  -3.295  1.00  0.00     0.416 C 
ATOM     23  F   UNL     1      -6.669  -1.902  -2.124  1.00  0.00    -0.166 F 
ATOM     24  F   UNL     1      -6.904  -1.980  -4.283  1.00  0.00    -0.166 F 
ATOM     25  F   UNL     1      -5.153  -2.864  -3.351  1.00  0.00    -0.166 F 
ENDBRANCH  20  22
ENDBRANCH  13  16
ENDBRANCH   8  13
ENDBRANCH   5   8
ENDBRANCH   3   4
ENDBRANCH   2   3
ENDBRANCH   1   2
BRANCH   1  26
ATOM     26  C   UNL     1      -0.647   6.244   1.669  1.00  0.00     0.002 C 
BRANCH  26  27
ATOM     27  C   UNL     1       0.174   5.639   2.814  1.00  0.00     0.021 C 
BRANCH  27  28
ATOM     28  C   UNL     1       1.630   6.098   2.889  1.00  0.00     0.116 C 
BRANCH  28  29
ATOM     29  N   UNL     1       1.737   7.539   3.035  1.00  0.00    -0.352 N 
ATOM     30  C   UNL     1       2.304   8.284   4.038  1.00  0.00     0.251 C 
ATOM     31  H   UNL     1       1.341   8.062   2.301  1.00  0.00     0.163 HD
ATOM     32  O   UNL     1       2.079   9.490   4.087  1.00  0.00    -0.269 OA
BRANCH  30  33
ATOM     33  C   UNL     1       3.167   7.647   5.058  1.00  0.00     0.039 A 
ATOM     34  C   UNL     1       3.038   8.051   6.390  1.00  0.00     0.014 A 
ATOM     35  C   UNL     1       4.134   6.700   4.707  1.00  0.00     0.014 A 
ATOM     36  C   UNL     1       3.845   7.474   7.373  1.00  0.00     0.010 A 
ATOM     37  C   UNL     1       4.896   6.080   5.698  1.00  0.00     0.010 A 
ATOM     38  C   UNL     1       4.765   6.467   7.040  1.00  0.00    -0.014 A 
BRANCH  38  39
ATOM     39  C   UNL     1       5.593   5.820   8.092  1.00  0.00     0.031 A 
ATOM     40  C   UNL     1       7.087   6.008   8.110  1.00  0.00     0.074 A 
ATOM     41  C   UNL     1       4.999   5.032   9.010  1.00  0.00     0.049 A 
ATOM     42  N   UNL     1       7.973   5.515   8.936  1.00  0.00    -0.248 NA
ATOM     43  C   UNL     1       7.660   6.838   7.040  1.00  0.00     0.031 C 
ATOM     44  C   UNL     1       3.566   4.733   9.063  1.00  0.00     0.029 A 
ATOM     45  N   UNL     1       5.522   4.336  10.070  1.00  0.00    -0.354 N 
ATOM     46  C   UNL     1       9.209   5.965   8.484  1.00  0.00     0.074 A 
ATOM     47  C   UNL     1       8.959   6.724   7.276  1.00  0.00     0.031 C 
ATOM     48  C   UNL     1       3.322   3.934  10.114  1.00  0.00     0.029 A 
ATOM     49  C   UNL     1       4.581   3.638  10.791  1.00  0.00     0.049 A 
ATOM     50  H   UNL     1       6.481   4.337  10.295  1.00  0.00     0.167 HD
ATOM     51  C   UNL     1      10.435   5.780   9.035  1.00  0.00     0.034 A 
ATOM     52  C   UNL     1       4.717   2.846  11.873  1.00  0.00     0.034 A 
ATOM     53  C   UNL     1      10.666   5.032  10.248  1.00  0.00     0.049 A 
ATOM     54  C   UNL     1       6.087   2.665  12.474  1.00  0.00     0.074 A 
ATOM     55  C   UNL     1      11.855   4.833  10.928  1.00  0.00     0.029 A 
ATOM     56  N   UNL     1       9.687   4.349  10.960  1.00  0.00    -0.354 N 
ATOM     57  N   UNL     1       7.237   3.152  12.070  1.00  0.00    -0.248 NA
ATOM     58  C   UNL     1       6.171   1.844  13.688  1.00  0.00     0.031 C 
ATOM     59  C   UNL     1      11.607   3.983  12.012  1.00  0.00     0.029 A 
ATOM     60  C   UNL     1      10.250   3.707  12.053  1.00  0.00     0.049 A 
ATOM     61  H   UNL     1       8.732   4.325  10.723  1.00  0.00     0.167 HD
ATOM     62  C   UNL     1       8.179   2.714  12.996  1.00  0.00     0.074 A 
ATOM     63  C   UNL     1       7.457   1.946  13.990  1.00  0.00     0.031 C 
ATOM     64  C   UNL     1       9.520   2.927  13.025  1.00  0.00     0.034 A 
BRANCH  51  65
ATOM     65  C   UNL     1      11.620   6.379   8.314  1.00  0.00     0.023 A 
ATOM     66  C   UNL     1      11.760   7.768   8.146  1.00  0.00     0.031 A 
ATOM     67  C   UNL     1      12.615   5.548   7.767  1.00  0.00     0.131 A 
ATOM     68  C   UNL     1      12.826   8.280   7.389  1.00  0.00     0.055 A 
ATOM     69  C   UNL     1      13.716   6.069   7.082  1.00  0.00     0.041 A 
ATOM     70  F   UNL     1      12.528   4.213   7.878  1.00  0.00    -0.206 F 
ATOM     71  C   UNL     1      13.818   7.441   6.877  1.00  0.00     0.022 A 
BRANCH  68  72
ATOM     72  S   UNL     1      12.822  10.044   6.968  1.00  0.00     0.124 S 
ATOM     73  O   UNL     1      11.566  10.168   6.231  1.00  0.00    -0.237 OA
ATOM     74  O   UNL     1      12.859  10.682   8.279  1.00  0.00    -0.237 OA
ATOM     75  O   UNL     1      14.029  10.207   6.160  1.00  0.00    -0.744 OA
ENDBRANCH  68  72
ENDBRANCH  51  65
BRANCH  52  76
ATOM     76  C   UNL     1       3.530   2.161  12.460  1.00  0.00     0.023 A 
ATOM     77  C   UNL     1       3.073   2.482  13.748  1.00  0.00     0.031 A 
ATOM     78  C   UNL     1       2.860   1.147  11.755  1.00  0.00     0.131 A 
ATOM     79  C   UNL     1       2.007   1.762  14.311  1.00  0.00     0.055 A 
ATOM     80  C   UNL     1       1.768   0.468  12.299  1.00  0.00     0.041 A 
ATOM     81  F   UNL     1       3.251   0.808  10.516  1.00  0.00    -0.206 F 
ATOM     82  C   UNL     1       1.345   0.765  13.591  1.00  0.00     0.022 A 
BRANCH  79  83
ATOM     83  S   UNL     1       1.550   2.093  16.035  1.00  0.00     0.124 S 
ATOM     84  O   UNL     1       2.806   1.837  16.731  1.00  0.00    -0.237 OA
ATOM     85  O   UNL     1       1.124   3.487  15.971  1.00  0.00    -0.237 OA
ATOM     86  O   UNL     1       0.483   1.129  16.295  1.00  0.00    -0.744 OA
ENDBRANCH  79  83
ENDBRANCH  52  76
BRANCH  64  87
ATOM     87  C   UNL     1      10.275   2.339  14.192  1.00  0.00     0.023 A 
ATOM     88  C   UNL     1      10.391   0.949  14.370  1.00  0.00     0.031 A 
ATOM     89  C   UNL     1      10.854   3.180  15.159  1.00  0.00     0.131 A 
ATOM     90  C   UNL     1      11.008   0.441  15.523  1.00  0.00     0.055 A 
ATOM     91  C   UNL     1      11.523   2.668  16.272  1.00  0.00     0.041 A 
ATOM     92  F   UNL     1      10.773   4.515  15.040  1.00  0.00    -0.206 F 
ATOM     93  C   UNL     1      11.588   1.292  16.468  1.00  0.00     0.022 A 
BRANCH  90  94
ATOM     94  S   UNL     1      10.945  -1.346  15.827  1.00  0.00     0.124 S 
ATOM     95  O   UNL     1       9.509  -1.607  15.809  1.00  0.00    -0.237 OA
ATOM     96  O   UNL     1      11.704  -1.881  14.702  1.00  0.00    -0.237 OA
ATOM     97  O   UNL     1      11.585  -1.495  17.133  1.00  0.00    -0.744 OA
ENDBRANCH  90  94
ENDBRANCH  64  87
ENDBRANCH  38  39
ENDBRANCH  30  33
ENDBRANCH  28  29
ENDBRANCH  27  28
ENDBRANCH  26  27
ENDBRANCH   1  26
TORSDOF 23
