REMARK SMILES CC[C@H]([NH3+])[C@H](C(=O)NCCCCCCNC(=O)c1ccc(-c2c3nc(c(-c4cc(S(=O)(=O)[O-])ccc4F)c4ccc([nH]4)c(-c4cc(S(=O)(=O)[O-])ccc4F)c4nc(c(-c5cc(S(=O)(=O)[O-])ccc5F)c5ccc2[nH]5)C=C4)C=C3)cc1)C(=O)OCC1c2ccccc2-c2ccccc21
REMARK SMILES IDX 11 1 10 2 9 3 8 4 6 5 7 6 5 8 3 9 2 10 1 11 4 12 81 16 82 17
REMARK SMILES IDX 83 18 84 19 85 20 86 21 97 22 87 23 91 24 92 25 96 26 88 27
REMARK SMILES IDX 90 28 93 29 95 30 89 31 94 32 12 33 13 34 14 35 15 36 16 37
REMARK SMILES IDX 17 39 18 40 19 41 80 42 20 43 79 44 21 45 22 46 23 47 73 48
REMARK SMILES IDX 24 49 78 50 72 51 74 52 25 53 77 54 71 55 70 56 26 58 58 59
REMARK SMILES IDX 38 60 57 61 39 62 42 63 56 64 75 65 40 66 41 67 55 69 76 70
REMARK SMILES IDX 43 71 27 72 28 73 36 74 29 75 35 76 37 77 34 78 30 79 31 80
REMARK SMILES IDX 32 81 33 82 59 83 60 84 68 85 61 86 67 87 69 88 66 89 62 90
REMARK SMILES IDX 63 91 64 92 65 93 44 94 45 95 53 96 46 97 52 98 54 99 51 100
REMARK SMILES IDX 47 101 48 102 49 103 50 104
REMARK H PARENT 8 7 4 13 4 14 4 15 15 38 74 57 42 68
REMARK Flexibility Score: inf
ROOT
ATOM      1  C   UNL     1      -1.915   0.309  -0.695  1.00  0.00     0.002 C 
ENDROOT
BRANCH   1   2
ATOM      2  C   UNL     1      -2.076  -0.075   0.782  1.00  0.00     0.021 C 
BRANCH   2   3
ATOM      3  C   UNL     1      -0.873  -0.825   1.352  1.00  0.00     0.116 C 
BRANCH   3   4
ATOM      4  N   UNL     1       0.299   0.037   1.354  1.00  0.00    -0.355 N 
ATOM      5  C   UNL     1       0.955   0.619   2.403  1.00  0.00     0.240 C 
ATOM      6  O   UNL     1       1.822   1.452   2.138  1.00  0.00    -0.274 OA
ATOM      7  H   UNL     1       0.678   0.229   0.466  1.00  0.00     0.163 HD
BRANCH   5   8
ATOM      8  C   UNL     1       0.661   0.133   3.804  1.00  0.00     0.245 C 
BRANCH   8   9
ATOM      9  C   UNL     1       1.426  -1.190   4.062  1.00  0.00     0.204 C 
BRANCH   9  10
ATOM     10  C   UNL     1       1.039  -1.894   5.382  1.00  0.00     0.063 C 
ATOM     11  C   UNL     1       1.868  -1.531   6.608  1.00  0.00     0.010 C 
ENDBRANCH   9  10
BRANCH   9  12
ATOM     12  N   UNL     1       2.887  -1.117   3.907  1.00  0.00    -0.354 N 
ATOM     13  H   UNL     1       3.279  -0.537   4.649  1.00  0.00     0.344 HD
ATOM     14  H   UNL     1       3.113  -0.708   3.001  1.00  0.00     0.344 HD
ATOM     15  H   UNL     1       3.282  -2.055   3.964  1.00  0.00     0.344 HD
ENDBRANCH   9  12
ENDBRANCH   8   9
BRANCH   8  16
ATOM     16  C   UNL     1       0.797   1.144   4.905  1.00  0.00     0.324 C 
ATOM     17  O   UNL     1      -0.014   1.189   5.829  1.00  0.00    -0.251 OA
BRANCH  16  18
ATOM     18  O   UNL     1       1.907   1.926   4.841  1.00  0.00    -0.464 OA
BRANCH  18  19
ATOM     19  C   UNL     1       2.037   2.784   5.987  1.00  0.00     0.246 C 
BRANCH  19  20
ATOM     20  C   UNL     1       3.138   3.832   5.819  1.00  0.00     0.088 C 
ATOM     21  C   UNL     1       3.405   4.556   7.142  1.00  0.00    -0.029 A 
ATOM     22  C   UNL     1       2.810   5.007   4.898  1.00  0.00    -0.029 A 
ATOM     23  C   UNL     1       3.591   4.010   8.405  1.00  0.00     0.005 A 
ATOM     24  C   UNL     1       3.363   5.952   6.952  1.00  0.00    -0.014 A 
ATOM     25  C   UNL     1       3.050   6.229   5.568  1.00  0.00    -0.014 A 
ATOM     26  C   UNL     1       2.384   4.994   3.579  1.00  0.00     0.005 A 
ATOM     27  C   UNL     1       3.709   4.879   9.491  1.00  0.00     0.000 A 
ATOM     28  C   UNL     1       3.504   6.815   8.028  1.00  0.00     0.009 A 
ATOM     29  C   UNL     1       2.931   7.441   4.905  1.00  0.00     0.009 A 
ATOM     30  C   UNL     1       2.233   6.220   2.920  1.00  0.00     0.000 A 
ATOM     31  C   UNL     1       3.669   6.270   9.305  1.00  0.00     0.001 A 
ATOM     32  C   UNL     1       2.526   7.431   3.569  1.00  0.00     0.001 A 
ENDBRANCH  19  20
ENDBRANCH  18  19
ENDBRANCH  16  18
ENDBRANCH   8  16
ENDBRANCH   5   8
ENDBRANCH   3   4
ENDBRANCH   2   3
ENDBRANCH   1   2
BRANCH   1  33
ATOM     33  C   UNL     1      -1.623  -0.864  -1.636  1.00  0.00     0.002 C 
BRANCH  33  34
ATOM     34  C   UNL     1      -2.641  -2.006  -1.574  1.00  0.00     0.021 C 
BRANCH  34  35
ATOM     35  C   UNL     1      -4.077  -1.587  -1.866  1.00  0.00     0.116 C 
BRANCH  35  36
ATOM     36  N   UNL     1      -4.229  -1.065  -3.215  1.00  0.00    -0.352 N 
ATOM     37  C   UNL     1      -5.131  -1.432  -4.181  1.00  0.00     0.251 C 
ATOM     38  H   UNL     1      -3.599  -0.352  -3.469  1.00  0.00     0.163 HD
ATOM     39  O   UNL     1      -4.994  -1.028  -5.335  1.00  0.00    -0.269 OA
BRANCH  37  40
ATOM     40  C   UNL     1      -6.245  -2.335  -3.829  1.00  0.00     0.039 A 
ATOM     41  C   UNL     1      -6.500  -3.445  -4.636  1.00  0.00     0.014 A 
ATOM     42  C   UNL     1      -7.014  -2.100  -2.685  1.00  0.00     0.014 A 
ATOM     43  C   UNL     1      -7.484  -4.361  -4.257  1.00  0.00     0.010 A 
ATOM     44  C   UNL     1      -7.948  -3.047  -2.275  1.00  0.00     0.010 A 
ATOM     45  C   UNL     1      -8.187  -4.190  -3.053  1.00  0.00    -0.014 A 
BRANCH  45  46
ATOM     46  C   UNL     1      -9.166  -5.202  -2.580  1.00  0.00     0.031 A 
ATOM     47  C   UNL     1     -10.620  -4.841  -2.450  1.00  0.00     0.074 A 
ATOM     48  C   UNL     1      -8.731  -6.419  -2.197  1.00  0.00     0.049 A 
ATOM     49  N   UNL     1     -11.607  -5.547  -1.963  1.00  0.00    -0.248 NA
ATOM     50  C   UNL     1     -11.005  -3.496  -2.901  1.00  0.00     0.031 C 
ATOM     51  C   UNL     1      -7.338  -6.871  -2.244  1.00  0.00     0.029 A 
ATOM     52  N   UNL     1      -9.409  -7.493  -1.678  1.00  0.00    -0.354 N 
ATOM     53  C   UNL     1     -12.730  -4.731  -2.038  1.00  0.00     0.074 A 
ATOM     54  C   UNL     1     -12.286  -3.457  -2.563  1.00  0.00     0.031 C 
ATOM     55  C   UNL     1      -7.270  -8.133  -1.790  1.00  0.00     0.029 A 
ATOM     56  C   UNL     1      -8.600  -8.563  -1.372  1.00  0.00     0.049 A 
ATOM     57  H   UNL     1     -10.383  -7.498  -1.537  1.00  0.00     0.167 HD
ATOM     58  C   UNL     1     -14.015  -5.024  -1.717  1.00  0.00     0.034 A 
ATOM     59  C   UNL     1      -8.893  -9.749  -0.802  1.00  0.00     0.034 A 
ATOM     60  C   UNL     1     -14.440  -6.304  -1.203  1.00  0.00     0.049 A 
ATOM     61  C   UNL     1     -10.321 -10.038  -0.416  1.00  0.00     0.074 A 
ATOM     62  C   UNL     1     -15.723  -6.730  -0.907  1.00  0.00     0.029 A 
ATOM     63  N   UNL     1     -13.591  -7.361  -0.897  1.00  0.00    -0.354 N 
ATOM     64  N   UNL     1     -11.381  -9.273  -0.542  1.00  0.00    -0.248 NA
ATOM     65  C   UNL     1     -10.593 -11.350   0.185  1.00  0.00     0.031 C 
ATOM     66  C   UNL     1     -15.643  -8.015  -0.357  1.00  0.00     0.029 A 
ATOM     67  C   UNL     1     -14.319  -8.422  -0.379  1.00  0.00     0.049 A 
ATOM     68  H   UNL     1     -12.616  -7.356  -1.028  1.00  0.00     0.167 HD
ATOM     69  C   UNL     1     -12.449 -10.024  -0.059  1.00  0.00     0.074 A 
ATOM     70  C   UNL     1     -11.907 -11.305   0.346  1.00  0.00     0.031 C 
ATOM     71  C   UNL     1     -13.760  -9.687   0.038  1.00  0.00     0.034 A 
BRANCH  58  72
ATOM     72  C   UNL     1     -15.041  -3.930  -1.889  1.00  0.00     0.023 A 
ATOM     73  C   UNL     1     -15.335  -3.385  -3.151  1.00  0.00     0.031 A 
ATOM     74  C   UNL     1     -15.720  -3.409  -0.773  1.00  0.00     0.131 A 
ATOM     75  C   UNL     1     -16.221  -2.303  -3.258  1.00  0.00     0.055 A 
ATOM     76  C   UNL     1     -16.663  -2.386  -0.897  1.00  0.00     0.041 A 
ATOM     77  F   UNL     1     -15.468  -3.875   0.460  1.00  0.00    -0.206 F 
ATOM     78  C   UNL     1     -16.907  -1.816  -2.143  1.00  0.00     0.022 A 
BRANCH  75  79
ATOM     79  S   UNL     1     -16.355  -1.449  -4.853  1.00  0.00     0.124 S 
ATOM     80  O   UNL     1     -14.975  -1.025  -5.077  1.00  0.00    -0.237 OA
ATOM     81  O   UNL     1     -16.852  -2.500  -5.733  1.00  0.00    -0.237 OA
ATOM     82  O   UNL     1     -17.296  -0.364  -4.583  1.00  0.00    -0.744 OA
ENDBRANCH  75  79
ENDBRANCH  58  72
BRANCH  59  83
ATOM     83  C   UNL     1      -7.816 -10.746  -0.537  1.00  0.00     0.023 A 
ATOM     84  C   UNL     1      -7.805 -11.988  -1.189  1.00  0.00     0.031 A 
ATOM     85  C   UNL     1      -6.803 -10.485   0.404  1.00  0.00     0.131 A 
ATOM     86  C   UNL     1      -6.828 -12.941  -0.862  1.00  0.00     0.055 A 
ATOM     87  C   UNL     1      -5.804 -11.417   0.689  1.00  0.00     0.041 A 
ATOM     88  F   UNL     1      -6.764  -9.311   1.053  1.00  0.00    -0.206 F 
ATOM     89  C   UNL     1      -5.820 -12.660   0.063  1.00  0.00     0.022 A 
BRANCH  86  90
ATOM     90  S   UNL     1      -6.943 -14.592  -1.605  1.00  0.00     0.124 S 
ATOM     91  O   UNL     1      -8.268 -15.021  -1.172  1.00  0.00    -0.237 OA
ATOM     92  O   UNL     1      -6.797 -14.294  -3.026  1.00  0.00    -0.237 OA
ATOM     93  O   UNL     1      -5.824 -15.314  -1.003  1.00  0.00    -0.744 OA
ENDBRANCH  86  90
ENDBRANCH  59  83
BRANCH  71  94
ATOM     94  C   UNL     1     -14.699 -10.738   0.576  1.00  0.00     0.023 A 
ATOM     95  C   UNL     1     -14.648 -11.157   1.917  1.00  0.00     0.031 A 
ATOM     96  C   UNL     1     -15.655 -11.331  -0.268  1.00  0.00     0.131 A 
ATOM     97  C   UNL     1     -15.504 -12.175   2.363  1.00  0.00     0.055 A 
ATOM     98  C   UNL     1     -16.543 -12.302   0.197  1.00  0.00     0.041 A 
ATOM     99  F   UNL     1     -15.745 -10.970  -1.558  1.00  0.00    -0.206 F 
ATOM    100  C   UNL     1     -16.463 -12.737   1.516  1.00  0.00     0.022 A 
BRANCH  97 101
ATOM    101  S   UNL     1     -15.298 -12.809   4.050  1.00  0.00     0.124 S 
ATOM    102  O   UNL     1     -13.929 -13.313   4.019  1.00  0.00    -0.237 OA
ATOM    103  O   UNL     1     -15.521 -11.618   4.862  1.00  0.00    -0.237 OA
ATOM    104  O   UNL     1     -16.334 -13.835   4.159  1.00  0.00    -0.744 OA
ENDBRANCH  97 101
ENDBRANCH  71  94
ENDBRANCH  45  46
ENDBRANCH  37  40
ENDBRANCH  35  36
ENDBRANCH  34  35
ENDBRANCH  33  34
ENDBRANCH   1  33
TORSDOF 23
