REMARK SMILES CC1=C[C@H](C)[C@H](CN2C[C@@]34C=C[C@@H](O3)[C@H](C(=O)NCCCCCCNC(=O)c3ccc(-c5c6nc(c(-c7cc(S(=O)(=O)[O-])ccc7F)c7ccc([nH]7)c(-c7cc(S(=O)(=O)[O-])ccc7F)c7nc(c(-c8cc(S(=O)(=O)[O-])ccc8F)c8ccc5[nH]8)C=C7)C=C6)cc3)[C@@H]4C2=O)[C@H](C)C1
REMARK SMILES IDX 22 1 21 2 20 3 19 4 18 5 16 6 17 7 15 9 8 10 9 11 92 12
REMARK SMILES IDX 10 13 91 14 93 15 11 16 14 17 12 18 13 19 7 20 6 21 1 22
REMARK SMILES IDX 2 23 3 24 96 25 4 26 94 27 5 28 95 29 23 30 24 31 25 32
REMARK SMILES IDX 26 33 27 35 28 36 29 37 90 38 30 39 89 40 31 41 32 42 33 43
REMARK SMILES IDX 83 44 34 45 88 46 82 47 84 48 35 49 87 50 81 51 80 52 36 54
REMARK SMILES IDX 68 55 48 56 67 57 49 58 52 59 66 60 85 61 50 62 51 63 65 65
REMARK SMILES IDX 86 66 53 67 37 68 38 69 46 70 39 71 45 72 47 73 44 74 40 75
REMARK SMILES IDX 41 76 42 77 43 78 69 79 70 80 78 81 71 82 77 83 79 84 76 85
REMARK SMILES IDX 72 86 73 87 74 88 75 89 54 90 55 91 63 92 56 93 62 94 64 95
REMARK SMILES IDX 61 96 57 97 58 98 59 99 60 100
REMARK H PARENT 18 8 25 34 84 53 52 64
REMARK Flexibility Score: inf
ROOT
ATOM      1  C   UNL     1      -8.985  -2.376   7.287  1.00  0.00     0.002 C 
ENDROOT
BRANCH   1   2
ATOM      2  C   UNL     1      -8.401  -1.897   8.620  1.00  0.00     0.002 C 
BRANCH   2   3
ATOM      3  C   UNL     1      -6.873  -2.000   8.740  1.00  0.00     0.021 C 
BRANCH   3   4
ATOM      4  C   UNL     1      -6.112  -1.212   7.675  1.00  0.00     0.116 C 
BRANCH   4   5
ATOM      5  N   UNL     1      -6.356   0.205   7.836  1.00  0.00    -0.356 N 
ATOM      6  C   UNL     1      -5.584   1.252   8.171  1.00  0.00     0.227 C 
ATOM      7  O   UNL     1      -6.190   2.313   8.384  1.00  0.00    -0.275 OA
ATOM      8  H   UNL     1      -7.291   0.457   7.662  1.00  0.00     0.163 HD
BRANCH   6   9
ATOM      9  C   UNL     1      -4.081   1.258   8.287  1.00  0.00     0.127 C 
ATOM     10  N   UNL     1      -2.069  -0.486   5.606  1.00  0.00    -0.339 N 
ATOM     11  C   UNL     1      -1.184  -0.417   6.796  1.00  0.00     0.160 C 
ATOM     12  C   UNL     1      -3.410  -0.129   5.987  1.00  0.00     0.230 C 
ATOM     13  C   UNL     1      -2.159  -0.130   7.934  1.00  0.00     0.117 C 
ATOM     14  C   UNL     1      -3.202   0.707   7.194  1.00  0.00     0.132 C 
ATOM     15  O   UNL     1      -4.417  -0.185   5.293  1.00  0.00    -0.274 OA
ATOM     16  C   UNL     1      -2.733  -1.275   8.723  1.00  0.00     0.009 C 
ATOM     17  O   UNL     1      -1.926   0.795   9.012  1.00  0.00    -0.360 OA
ATOM     18  C   UNL     1      -3.452  -0.724   9.711  1.00  0.00     0.004 C 
ATOM     19  C   UNL     1      -3.335   0.754   9.532  1.00  0.00     0.155 C 
BRANCH  10  20
ATOM     20  C   UNL     1      -1.712   0.149   4.351  1.00  0.00     0.124 C 
BRANCH  20  21
ATOM     21  C   UNL     1      -0.332  -0.037   3.695  1.00  0.00     0.018 C 
ATOM     22  C   UNL     1       1.539  -0.217  -0.386  1.00  0.00     0.039 C 
ATOM     23  C   UNL     1       0.964  -0.205   1.002  1.00  0.00    -0.077 C 
ATOM     24  C   UNL     1       0.458  -1.309   1.567  1.00  0.00    -0.025 C 
ATOM     25  C   UNL     1       1.034   1.095   1.732  1.00  0.00     0.034 C 
ATOM     26  C   UNL     1      -0.139  -1.397   2.946  1.00  0.00     0.014 C 
ATOM     27  C   UNL     1       0.026   1.271   2.877  1.00  0.00    -0.005 C 
ATOM     28  C   UNL     1      -1.380  -2.296   2.863  1.00  0.00     0.012 C 
ATOM     29  C   UNL     1      -1.179   2.093   2.365  1.00  0.00     0.008 C 
ENDBRANCH  20  21
ENDBRANCH  10  20
ENDBRANCH   6   9
ENDBRANCH   4   5
ENDBRANCH   3   4
ENDBRANCH   2   3
ENDBRANCH   1   2
BRANCH   1  30
ATOM     30  C   UNL     1      -8.614  -3.806   6.891  1.00  0.00     0.021 C 
BRANCH  30  31
ATOM     31  C   UNL     1      -8.921  -4.870   7.941  1.00  0.00     0.116 C 
BRANCH  31  32
ATOM     32  N   UNL     1     -10.331  -4.923   8.290  1.00  0.00    -0.352 N 
ATOM     33  C   UNL     1     -11.148  -6.019   8.424  1.00  0.00     0.251 C 
ATOM     34  H   UNL     1     -10.760  -4.052   8.455  1.00  0.00     0.163 HD
ATOM     35  O   UNL     1     -12.353  -5.872   8.598  1.00  0.00    -0.269 OA
BRANCH  33  36
ATOM     36  C   UNL     1     -10.567  -7.374   8.318  1.00  0.00     0.039 A 
ATOM     37  C   UNL     1     -11.153  -8.292   7.443  1.00  0.00     0.014 A 
ATOM     38  C   UNL     1      -9.432  -7.725   9.056  1.00  0.00     0.014 A 
ATOM     39  C   UNL     1     -10.555  -9.538   7.248  1.00  0.00     0.010 A 
ATOM     40  C   UNL     1      -8.809  -8.948   8.822  1.00  0.00     0.010 A 
ATOM     41  C   UNL     1      -9.357  -9.859   7.905  1.00  0.00    -0.014 A 
BRANCH  41  42
ATOM     42  C   UNL     1      -8.640 -11.128   7.622  1.00  0.00     0.031 A 
ATOM     43  C   UNL     1      -8.519 -12.181   8.685  1.00  0.00     0.074 A 
ATOM     44  C   UNL     1      -8.027 -11.287   6.432  1.00  0.00     0.049 A 
ATOM     45  N   UNL     1      -7.844 -13.301   8.666  1.00  0.00    -0.248 NA
ATOM     46  C   UNL     1      -9.231 -11.926   9.945  1.00  0.00     0.031 C 
ATOM     47  C   UNL     1      -8.043 -10.315   5.336  1.00  0.00     0.029 A 
ATOM     48  N   UNL     1      -7.253 -12.314   5.953  1.00  0.00    -0.354 N 
ATOM     49  C   UNL     1      -8.039 -13.882   9.914  1.00  0.00     0.074 A 
ATOM     50  C   UNL     1      -8.858 -12.964  10.679  1.00  0.00     0.031 C 
ATOM     51  C   UNL     1      -7.316 -10.794   4.313  1.00  0.00     0.029 A 
ATOM     52  C   UNL     1      -6.750 -12.084   4.694  1.00  0.00     0.049 A 
ATOM     53  H   UNL     1      -7.075 -13.137   6.462  1.00  0.00     0.167 HD
ATOM     54  C   UNL     1      -7.589 -15.077  10.370  1.00  0.00     0.034 A 
ATOM     55  C   UNL     1      -5.908 -12.818   3.940  1.00  0.00     0.034 A 
ATOM     56  C   UNL     1      -6.785 -15.986   9.590  1.00  0.00     0.049 A 
ATOM     57  C   UNL     1      -5.392 -14.124   4.483  1.00  0.00     0.074 A 
ATOM     58  C   UNL     1      -6.348 -17.256   9.923  1.00  0.00     0.029 A 
ATOM     59  N   UNL     1      -6.282 -15.714   8.324  1.00  0.00    -0.354 N 
ATOM     60  N   UNL     1      -5.631 -14.685   5.645  1.00  0.00    -0.248 NA
ATOM     61  C   UNL     1      -4.495 -14.893   3.612  1.00  0.00     0.031 C 
ATOM     62  C   UNL     1      -5.533 -17.727   8.886  1.00  0.00     0.029 A 
ATOM     63  C   UNL     1      -5.508 -16.775   7.880  1.00  0.00     0.049 A 
ATOM     64  H   UNL     1      -6.450 -14.887   7.816  1.00  0.00     0.167 HD
ATOM     65  C   UNL     1      -4.921 -15.882   5.639  1.00  0.00     0.074 A 
ATOM     66  C   UNL     1      -4.260 -15.967   4.353  1.00  0.00     0.031 C 
ATOM     67  C   UNL     1      -4.828 -16.828   6.608  1.00  0.00     0.034 A 
BRANCH  54  68
ATOM     68  C   UNL     1      -7.938 -15.450  11.790  1.00  0.00     0.023 A 
ATOM     69  C   UNL     1      -9.267 -15.676  12.187  1.00  0.00     0.031 A 
ATOM     70  C   UNL     1      -6.930 -15.555  12.764  1.00  0.00     0.131 A 
ATOM     71  C   UNL     1      -9.561 -15.925  13.537  1.00  0.00     0.055 A 
ATOM     72  C   UNL     1      -7.222 -15.874  14.092  1.00  0.00     0.041 A 
ATOM     73  F   UNL     1      -5.646 -15.332  12.445  1.00  0.00    -0.206 F 
ATOM     74  C   UNL     1      -8.545 -16.047  14.488  1.00  0.00     0.022 A 
BRANCH  71  75
ATOM     75  S   UNL     1     -11.299 -15.957  14.053  1.00  0.00     0.124 S 
ATOM     76  O   UNL     1     -11.745 -14.619  13.673  1.00  0.00    -0.237 OA
ATOM     77  O   UNL     1     -11.841 -17.059  13.266  1.00  0.00    -0.237 OA
ATOM     78  O   UNL     1     -11.225 -16.196  15.493  1.00  0.00    -0.744 OA
ENDBRANCH  71  75
ENDBRANCH  54  68
BRANCH  55  79
ATOM     79  C   UNL     1      -5.468 -12.322   2.607  1.00  0.00     0.023 A 
ATOM     80  C   UNL     1      -5.864 -12.971   1.428  1.00  0.00     0.031 A 
ATOM     81  C   UNL     1      -4.616 -11.209   2.498  1.00  0.00     0.131 A 
ATOM     82  C   UNL     1      -5.381 -12.522   0.190  1.00  0.00     0.055 A 
ATOM     83  C   UNL     1      -4.170 -10.742   1.261  1.00  0.00     0.041 A 
ATOM     84  F   UNL     1      -4.214 -10.551   3.598  1.00  0.00    -0.206 F 
ATOM     85  C   UNL     1      -4.545 -11.406   0.097  1.00  0.00     0.022 A 
BRANCH  82  86
ATOM     86  S   UNL     1      -5.812 -13.460  -1.302  1.00  0.00     0.124 S 
ATOM     87  O   UNL     1      -5.282 -14.782  -0.986  1.00  0.00    -0.237 OA
ATOM     88  O   UNL     1      -7.266 -13.340  -1.325  1.00  0.00    -0.237 OA
ATOM     89  O   UNL     1      -5.113 -12.745  -2.367  1.00  0.00    -0.744 OA
ENDBRANCH  82  86
ENDBRANCH  55  79
BRANCH  67  90
ATOM     90  C   UNL     1      -3.988 -18.037   6.292  1.00  0.00     0.023 A 
ATOM     91  C   UNL     1      -2.588 -17.952   6.202  1.00  0.00     0.031 A 
ATOM     92  C   UNL     1      -4.596 -19.282   6.056  1.00  0.00     0.131 A 
ATOM     93  C   UNL     1      -1.843 -19.084   5.840  1.00  0.00     0.055 A 
ATOM     94  C   UNL     1      -3.846 -20.416   5.743  1.00  0.00     0.041 A 
ATOM     95  F   UNL     1      -5.931 -19.414   6.126  1.00  0.00    -0.206 F 
ATOM     96  C   UNL     1      -2.462 -20.318   5.623  1.00  0.00     0.022 A 
BRANCH  93  97
ATOM     97  S   UNL     1      -0.056 -18.907   5.588  1.00  0.00     0.124 S 
ATOM     98  O   UNL     1       0.002 -17.957   4.481  1.00  0.00    -0.237 OA
ATOM     99  O   UNL     1       0.396 -18.407   6.882  1.00  0.00    -0.237 OA
ATOM    100  O   UNL     1       0.381 -20.264   5.263  1.00  0.00    -0.744 OA
ENDBRANCH  93  97
ENDBRANCH  67  90
ENDBRANCH  41  42
ENDBRANCH  33  36
ENDBRANCH  31  32
ENDBRANCH  30  31
ENDBRANCH   1  30
TORSDOF 18
