REMARK SMILES C[C@H](C(=O)NCCCCCCNC(=O)c1ccc(-c2c3nc(c(-c4cc(S(=O)(=O)[O-])ccc4F)c4ccc([nH]4)c(-c4cc(S(=O)(=O)[O-])ccc4F)c4nc(c(-c5cc(S(=O)(=O)[O-])ccc5F)c5ccc2[nH]5)C=C4)C=C3)cc1)N1CCc2ccccc21
REMARK SMILES IDX 9 1 8 2 7 3 6 4 5 5 3 6 4 7 2 9 1 10 78 11 79 12 86 13 80 14
REMARK SMILES IDX 81 15 85 16 82 17 84 18 83 19 10 20 11 21 12 22 13 23 14 25
REMARK SMILES IDX 15 26 16 27 77 28 17 29 76 30 18 31 19 32 20 33 70 34 21 35
REMARK SMILES IDX 75 36 69 37 71 38 22 39 74 40 68 41 67 42 23 44 55 45 35 46
REMARK SMILES IDX 54 47 36 48 39 49 53 50 72 51 37 52 38 53 52 55 73 56 40 57
REMARK SMILES IDX 24 58 25 59 33 60 26 61 32 62 34 63 31 64 27 65 28 66 29 67
REMARK SMILES IDX 30 68 56 69 57 70 65 71 58 72 64 73 66 74 63 75 59 76 60 77
REMARK SMILES IDX 61 78 62 79 41 80 42 81 50 82 43 83 49 84 51 85 48 86 44 87
REMARK SMILES IDX 45 88 46 89 47 90
REMARK H PARENT 5 8 12 24 71 43 39 54
REMARK Flexibility Score: inf
ROOT
ATOM      1  C   UNL     1      -1.498   4.428   0.603  1.00  0.00     0.002 C 
ENDROOT
BRANCH   1   2
ATOM      2  C   UNL     1      -1.065   3.295   1.538  1.00  0.00     0.002 C 
BRANCH   2   3
ATOM      3  C   UNL     1      -1.492   1.893   1.097  1.00  0.00     0.021 C 
BRANCH   3   4
ATOM      4  C   UNL     1      -1.068   1.528  -0.324  1.00  0.00     0.116 C 
BRANCH   4   5
ATOM      5  N   UNL     1       0.369   1.387  -0.450  1.00  0.00    -0.354 N 
ATOM      6  C   UNL     1       1.094   0.223  -0.466  1.00  0.00     0.242 C 
ATOM      7  O   UNL     1       2.318   0.298  -0.591  1.00  0.00    -0.273 OA
ATOM      8  H   UNL     1       0.883   2.223  -0.534  1.00  0.00     0.163 HD
BRANCH   6   9
ATOM      9  C   UNL     1       0.330  -1.117  -0.366  1.00  0.00     0.168 C 
ATOM     10  C   UNL     1       1.214  -2.311  -0.744  1.00  0.00     0.042 C 
BRANCH   9  11
ATOM     11  N   UNL     1      -0.302  -1.272   0.967  1.00  0.00    -0.359 N 
ATOM     12  C   UNL     1      -1.623  -1.909   1.082  1.00  0.00     0.122 C 
ATOM     13  C   UNL     1       0.467  -1.819   2.003  1.00  0.00     0.041 A 
ATOM     14  C   UNL     1      -1.471  -3.171   1.949  1.00  0.00     0.059 C 
ATOM     15  C   UNL     1      -0.112  -2.973   2.532  1.00  0.00    -0.023 A 
ATOM     16  C   UNL     1       1.730  -1.420   2.408  1.00  0.00     0.026 A 
ATOM     17  C   UNL     1       0.600  -3.820   3.363  1.00  0.00     0.006 A 
ATOM     18  C   UNL     1       2.454  -2.252   3.262  1.00  0.00     0.002 A 
ATOM     19  C   UNL     1       1.904  -3.462   3.710  1.00  0.00     0.000 A 
ENDBRANCH   9  11
ENDBRANCH   6   9
ENDBRANCH   4   5
ENDBRANCH   3   4
ENDBRANCH   2   3
ENDBRANCH   1   2
BRANCH   1  20
ATOM     20  C   UNL     1      -2.995   4.465   0.288  1.00  0.00     0.021 C 
BRANCH  20  21
ATOM     21  C   UNL     1      -3.887   4.636   1.512  1.00  0.00     0.116 C 
BRANCH  21  22
ATOM     22  N   UNL     1      -3.661   5.918   2.164  1.00  0.00    -0.352 N 
ATOM     23  C   UNL     1      -4.551   6.944   2.380  1.00  0.00     0.251 C 
ATOM     24  H   UNL     1      -2.747   6.071   2.495  1.00  0.00     0.163 HD
ATOM     25  O   UNL     1      -4.151   8.047   2.720  1.00  0.00    -0.269 OA
BRANCH  23  26
ATOM     26  C   UNL     1      -5.994   6.691   2.176  1.00  0.00     0.039 A 
ATOM     27  C   UNL     1      -6.753   7.600   1.435  1.00  0.00     0.014 A 
ATOM     28  C   UNL     1      -6.582   5.540   2.704  1.00  0.00     0.014 A 
ATOM     29  C   UNL     1      -8.096   7.319   1.168  1.00  0.00     0.010 A 
ATOM     30  C   UNL     1      -7.894   5.225   2.372  1.00  0.00     0.010 A 
ATOM     31  C   UNL     1      -8.666   6.113   1.606  1.00  0.00    -0.014 A 
BRANCH  31  32
ATOM     32  C   UNL     1     -10.079   5.755   1.319  1.00  0.00     0.031 A 
ATOM     33  C   UNL     1     -11.033   5.560   2.464  1.00  0.00     0.074 A 
ATOM     34  C   UNL     1     -10.472   5.498   0.057  1.00  0.00     0.049 A 
ATOM     35  N   UNL     1     -12.241   5.058   2.465  1.00  0.00    -0.248 NA
ATOM     36  C   UNL     1     -10.535   5.941   3.793  1.00  0.00     0.031 C 
ATOM     37  C   UNL     1      -9.632   5.630  -1.134  1.00  0.00     0.029 A 
ATOM     38  N   UNL     1     -11.672   5.040  -0.431  1.00  0.00    -0.354 N 
ATOM     39  C   UNL     1     -12.635   5.033   3.799  1.00  0.00     0.074 A 
ATOM     40  C   UNL     1     -11.510   5.509   4.576  1.00  0.00     0.031 C 
ATOM     41  C   UNL     1     -10.341   5.263  -2.213  1.00  0.00     0.029 A 
ATOM     42  C   UNL     1     -11.664   4.813  -1.787  1.00  0.00     0.049 A 
ATOM     43  H   UNL     1     -12.462   4.889   0.137  1.00  0.00     0.167 HD
ATOM     44  C   UNL     1     -13.832   4.665   4.322  1.00  0.00     0.034 A 
ATOM     45  C   UNL     1     -12.601   4.272  -2.592  1.00  0.00     0.034 A 
ATOM     46  C   UNL     1     -14.939   4.200   3.523  1.00  0.00     0.049 A 
ATOM     47  C   UNL     1     -13.913   3.833  -1.995  1.00  0.00     0.074 A 
ATOM     48  C   UNL     1     -16.213   3.852   3.934  1.00  0.00     0.029 A 
ATOM     49  N   UNL     1     -14.899   4.004   2.147  1.00  0.00    -0.354 N 
ATOM     50  N   UNL     1     -14.290   3.843  -0.737  1.00  0.00    -0.248 NA
ATOM     51  C   UNL     1     -14.928   3.316  -2.922  1.00  0.00     0.031 C 
ATOM     52  C   UNL     1     -16.915   3.369   2.824  1.00  0.00     0.029 A 
ATOM     53  C   UNL     1     -16.114   3.507   1.701  1.00  0.00     0.049 A 
ATOM     54  H   UNL     1     -14.122   4.192   1.572  1.00  0.00     0.167 HD
ATOM     55  C   UNL     1     -15.601   3.373  -0.727  1.00  0.00     0.074 A 
ATOM     56  C   UNL     1     -15.945   3.079  -2.104  1.00  0.00     0.031 C 
ATOM     57  C   UNL     1     -16.446   3.216   0.324  1.00  0.00     0.034 A 
BRANCH  44  58
ATOM     58  C   UNL     1     -13.971   4.711   5.827  1.00  0.00     0.023 A 
ATOM     59  C   UNL     1     -13.786   5.902   6.552  1.00  0.00     0.031 A 
ATOM     60  C   UNL     1     -14.220   3.535   6.558  1.00  0.00     0.131 A 
ATOM     61  C   UNL     1     -13.733   5.870   7.953  1.00  0.00     0.055 A 
ATOM     62  C   UNL     1     -14.275   3.531   7.953  1.00  0.00     0.041 A 
ATOM     63  F   UNL     1     -14.387   2.361   5.929  1.00  0.00    -0.206 F 
ATOM     64  C   UNL     1     -14.005   4.698   8.660  1.00  0.00     0.022 A 
BRANCH  61  65
ATOM     65  S   UNL     1     -13.099   7.331   8.823  1.00  0.00     0.124 S 
ATOM     66  O   UNL     1     -11.795   7.508   8.187  1.00  0.00    -0.237 OA
ATOM     67  O   UNL     1     -14.103   8.342   8.514  1.00  0.00    -0.237 OA
ATOM     68  O   UNL     1     -13.049   6.904  10.219  1.00  0.00    -0.744 OA
ENDBRANCH  61  65
ENDBRANCH  44  58
BRANCH  45  69
ATOM     69  C   UNL     1     -12.315   4.095  -4.044  1.00  0.00     0.023 A 
ATOM     70  C   UNL     1     -13.005   4.834  -5.018  1.00  0.00     0.031 A 
ATOM     71  C   UNL     1     -11.334   3.184  -4.479  1.00  0.00     0.131 A 
ATOM     72  C   UNL     1     -12.722   4.631  -6.378  1.00  0.00     0.055 A 
ATOM     73  C   UNL     1     -11.023   3.022  -5.830  1.00  0.00     0.041 A 
ATOM     74  F   UNL     1     -10.640   2.458  -3.587  1.00  0.00    -0.206 F 
ATOM     75  C   UNL     1     -11.725   3.743  -6.790  1.00  0.00     0.022 A 
BRANCH  72  76
ATOM     76  S   UNL     1     -13.716   5.512  -7.614  1.00  0.00     0.124 S 
ATOM     77  O   UNL     1     -15.055   5.012  -7.328  1.00  0.00    -0.237 OA
ATOM     78  O   UNL     1     -13.462   6.907  -7.270  1.00  0.00    -0.237 OA
ATOM     79  O   UNL     1     -13.143   5.073  -8.886  1.00  0.00    -0.744 OA
ENDBRANCH  72  76
ENDBRANCH  45  69
BRANCH  57  80
ATOM     80  C   UNL     1     -17.859   2.774   0.027  1.00  0.00     0.023 A 
ATOM     81  C   UNL     1     -18.163   1.479  -0.423  1.00  0.00     0.031 A 
ATOM     82  C   UNL     1     -18.925   3.666   0.250  1.00  0.00     0.131 A 
ATOM     83  C   UNL     1     -19.500   1.120  -0.661  1.00  0.00     0.055 A 
ATOM     84  C   UNL     1     -20.254   3.286   0.065  1.00  0.00     0.041 A 
ATOM     85  F   UNL     1     -18.689   4.918   0.675  1.00  0.00    -0.206 F 
ATOM     86  C   UNL     1     -20.547   2.008  -0.399  1.00  0.00     0.022 A 
BRANCH  83  87
ATOM     87  S   UNL     1     -19.858  -0.511  -1.371  1.00  0.00     0.124 S 
ATOM     88  O   UNL     1     -19.147  -0.449  -2.644  1.00  0.00    -0.237 OA
ATOM     89  O   UNL     1     -19.301  -1.417  -0.373  1.00  0.00    -0.237 OA
ATOM     90  O   UNL     1     -21.316  -0.527  -1.476  1.00  0.00    -0.744 OA
ENDBRANCH  83  87
ENDBRANCH  57  80
ENDBRANCH  31  32
ENDBRANCH  23  26
ENDBRANCH  21  22
ENDBRANCH  20  21
ENDBRANCH   1  20
TORSDOF 17
