REMARK SMILES CNC(=O)c1cccc(-c2cnc(O)c(C(=O)NCCCCCCNC(=O)c3ccc(-c4c5nc(c(-c6cc(S(=O)(=O)[O-])ccc6F)c6ccc([nH]6)c(-c6cc(S(=O)(=O)[O-])ccc6F)c6nc(c(-c7cc(S(=O)(=O)[O-])ccc7F)c7ccc4[nH]7)C=C6)C=C5)cc3)c2)c1
REMARK SMILES IDX 22 1 21 2 20 3 19 4 18 5 16 6 17 7 15 9 10 10 11 11 91 12
REMARK SMILES IDX 12 13 13 14 9 15 5 16 6 17 92 18 7 19 8 20 3 21 1 22 2 23
REMARK SMILES IDX 4 25 14 26 23 28 24 29 25 30 26 31 27 33 28 34 29 35 90 36
REMARK SMILES IDX 30 37 89 38 31 39 32 40 33 41 83 42 34 43 88 44 82 45 84 46
REMARK SMILES IDX 35 47 87 48 81 49 80 50 36 52 68 53 48 54 67 55 49 56 52 57
REMARK SMILES IDX 66 58 85 59 50 60 51 61 65 63 86 64 53 65 37 66 38 67 46 68
REMARK SMILES IDX 39 69 45 70 47 71 44 72 40 73 41 74 42 75 43 76 69 77 70 78
REMARK SMILES IDX 78 79 71 80 77 81 79 82 76 83 72 84 73 85 74 86 75 87 54 88
REMARK SMILES IDX 55 89 63 90 56 91 62 92 64 93 61 94 57 95 58 96 59 97 60 98
REMARK H PARENT 18 8 2 24 14 27 25 32 84 51 52 62
REMARK Flexibility Score: inf
ROOT
ATOM      1  C   UNL     1      -7.385  -1.316  -0.167  1.00  0.00     0.002 C 
ENDROOT
BRANCH   1   2
ATOM      2  C   UNL     1      -7.409  -0.172  -1.189  1.00  0.00     0.002 C 
BRANCH   2   3
ATOM      3  C   UNL     1      -6.036   0.448  -1.489  1.00  0.00     0.021 C 
BRANCH   3   4
ATOM      4  C   UNL     1      -5.055  -0.547  -2.112  1.00  0.00     0.116 C 
BRANCH   4   5
ATOM      5  N   UNL     1      -5.340  -0.705  -3.528  1.00  0.00    -0.352 N 
ATOM      6  C   UNL     1      -4.746  -0.222  -4.663  1.00  0.00     0.256 C 
ATOM      7  O   UNL     1      -5.233  -0.554  -5.748  1.00  0.00    -0.269 OA
ATOM      8  H   UNL     1      -6.121  -1.277  -3.708  1.00  0.00     0.163 HD
BRANCH   6   9
ATOM      9  C   UNL     1      -3.516   0.604  -4.683  1.00  0.00     0.102 A 
ATOM     10  C   UNL     1      -1.831   2.025  -3.654  1.00  0.00     0.001 A 
ATOM     11  C   UNL     1      -1.104   1.914  -4.834  1.00  0.00     0.124 A 
ATOM     12  C   UNL     1      -3.087   1.404  -3.623  1.00  0.00     0.029 A 
ATOM     13  N   UNL     1      -1.523   1.230  -5.922  1.00  0.00    -0.221 NA
ATOM     14  C   UNL     1      -2.707   0.586  -5.823  1.00  0.00     0.223 A 
BRANCH  10  15
ATOM     15  C   UNL     1      -1.293   2.684  -2.463  1.00  0.00    -0.016 A 
ATOM     16  C   UNL     1      -0.500   2.535  -0.162  1.00  0.00     0.040 A 
ATOM     17  C   UNL     1      -0.335   3.922  -0.125  1.00  0.00     0.014 A 
ATOM     18  C   UNL     1      -0.997   1.923  -1.316  1.00  0.00     0.022 A 
ATOM     19  C   UNL     1      -0.619   4.686  -1.256  1.00  0.00     0.001 A 
ATOM     20  C   UNL     1      -1.087   4.071  -2.421  1.00  0.00     0.009 A 
BRANCH  16  21
ATOM     21  C   UNL     1      -0.250   1.761   1.072  1.00  0.00     0.251 C 
ATOM     22  C   UNL     1       1.275   0.030  -0.014  1.00  0.00     0.143 C 
ATOM     23  N   UNL     1       0.487   0.607   1.050  1.00  0.00    -0.355 N 
ATOM     24  H   UNL     1       0.477   0.091   1.888  1.00  0.00     0.163 HD
ATOM     25  O   UNL     1      -0.716   2.169   2.134  1.00  0.00    -0.269 OA
ENDBRANCH  16  21
ENDBRANCH  10  15
BRANCH  14  26
ATOM     26  O   UNL     1      -3.037  -0.099  -6.960  1.00  0.00    -0.493 OA
ATOM     27  H   UNL     1      -2.463  -0.082  -7.701  1.00  0.00     0.295 HD
ENDBRANCH  14  26
ENDBRANCH   6   9
ENDBRANCH   4   5
ENDBRANCH   3   4
ENDBRANCH   2   3
ENDBRANCH   1   2
BRANCH   1  28
ATOM     28  C   UNL     1      -6.731  -0.970   1.173  1.00  0.00     0.021 C 
BRANCH  28  29
ATOM     29  C   UNL     1      -7.422   0.156   1.935  1.00  0.00     0.116 C 
BRANCH  29  30
ATOM     30  N   UNL     1      -8.773  -0.217   2.318  1.00  0.00    -0.352 N 
ATOM     31  C   UNL     1      -9.355  -0.215   3.560  1.00  0.00     0.251 C 
ATOM     32  H   UNL     1      -9.354  -0.513   1.581  1.00  0.00     0.163 HD
ATOM     33  O   UNL     1     -10.414  -0.814   3.729  1.00  0.00    -0.269 OA
BRANCH  31  34
ATOM     34  C   UNL     1      -8.709   0.497   4.685  1.00  0.00     0.039 A 
ATOM     35  C   UNL     1      -8.748  -0.078   5.957  1.00  0.00     0.014 A 
ATOM     36  C   UNL     1      -8.113   1.749   4.500  1.00  0.00     0.014 A 
ATOM     37  C   UNL     1      -8.171   0.591   7.038  1.00  0.00     0.010 A 
ATOM     38  C   UNL     1      -7.471   2.378   5.563  1.00  0.00     0.010 A 
ATOM     39  C   UNL     1      -7.517   1.820   6.849  1.00  0.00    -0.014 A 
BRANCH  39  40
ATOM     40  C   UNL     1      -6.931   2.556   7.999  1.00  0.00     0.031 A 
ATOM     41  C   UNL     1      -7.504   3.889   8.406  1.00  0.00     0.074 A 
ATOM     42  C   UNL     1      -5.876   2.039   8.658  1.00  0.00     0.049 A 
ATOM     43  N   UNL     1      -7.126   4.697   9.364  1.00  0.00    -0.248 NA
ATOM     44  C   UNL     1      -8.632   4.393   7.608  1.00  0.00     0.031 C 
ATOM     45  C   UNL     1      -5.210   0.778   8.326  1.00  0.00     0.029 A 
ATOM     46  N   UNL     1      -5.179   2.507   9.742  1.00  0.00    -0.354 N 
ATOM     47  C   UNL     1      -7.961   5.806   9.276  1.00  0.00     0.074 A 
ATOM     48  C   UNL     1      -8.814   5.597   8.127  1.00  0.00     0.031 C 
ATOM     49  C   UNL     1      -4.222   0.558   9.209  1.00  0.00     0.029 A 
ATOM     50  C   UNL     1      -4.160   1.676  10.145  1.00  0.00     0.049 A 
ATOM     51  H   UNL     1      -5.388   3.358  10.190  1.00  0.00     0.167 HD
ATOM     52  C   UNL     1      -8.030   6.886  10.095  1.00  0.00     0.034 A 
ATOM     53  C   UNL     1      -3.276   1.803  11.155  1.00  0.00     0.034 A 
ATOM     54  C   UNL     1      -7.177   7.072  11.244  1.00  0.00     0.049 A 
ATOM     55  C   UNL     1      -3.372   3.011  12.052  1.00  0.00     0.074 A 
ATOM     56  C   UNL     1      -7.178   8.106  12.164  1.00  0.00     0.029 A 
ATOM     57  N   UNL     1      -6.165   6.201  11.631  1.00  0.00    -0.354 N 
ATOM     58  N   UNL     1      -4.199   4.030  11.986  1.00  0.00    -0.248 NA
ATOM     59  C   UNL     1      -2.430   3.072  13.176  1.00  0.00     0.031 C 
ATOM     60  C   UNL     1      -6.131   7.893  13.068  1.00  0.00     0.029 A 
ATOM     61  C   UNL     1      -5.525   6.684  12.763  1.00  0.00     0.049 A 
ATOM     62  H   UNL     1      -5.935   5.363  11.169  1.00  0.00     0.167 HD
ATOM     63  C   UNL     1      -3.899   4.833  13.083  1.00  0.00     0.074 A 
ATOM     64  C   UNL     1      -2.831   4.168  13.801  1.00  0.00     0.031 C 
ATOM     65  C   UNL     1      -4.456   6.012  13.465  1.00  0.00     0.034 A 
BRANCH  52  66
ATOM     66  C   UNL     1      -9.048   7.952   9.753  1.00  0.00     0.023 A 
ATOM     67  C   UNL     1     -10.427   7.675   9.725  1.00  0.00     0.031 A 
ATOM     68  C   UNL     1      -8.635   9.251   9.409  1.00  0.00     0.131 A 
ATOM     69  C   UNL     1     -11.332   8.652   9.281  1.00  0.00     0.055 A 
ATOM     70  C   UNL     1      -9.549  10.246   9.054  1.00  0.00     0.041 A 
ATOM     71  F   UNL     1      -7.332   9.574   9.395  1.00  0.00    -0.206 F 
ATOM     72  C   UNL     1     -10.905   9.944   8.971  1.00  0.00     0.022 A 
BRANCH  69  73
ATOM     73  S   UNL     1     -13.049   8.161   8.963  1.00  0.00     0.124 S 
ATOM     74  O   UNL     1     -12.875   7.117   7.956  1.00  0.00    -0.237 OA
ATOM     75  O   UNL     1     -13.499   7.715  10.276  1.00  0.00    -0.237 OA
ATOM     76  O   UNL     1     -13.671   9.390   8.473  1.00  0.00    -0.744 OA
ENDBRANCH  69  73
ENDBRANCH  52  66
BRANCH  53  77
ATOM     77  C   UNL     1      -2.235   0.761  11.386  1.00  0.00     0.023 A 
ATOM     78  C   UNL     1      -2.224  -0.004  12.563  1.00  0.00     0.031 A 
ATOM     79  C   UNL     1      -1.205   0.548  10.453  1.00  0.00     0.131 A 
ATOM     80  C   UNL     1      -1.175  -0.906  12.803  1.00  0.00     0.055 A 
ATOM     81  C   UNL     1      -0.195  -0.391  10.670  1.00  0.00     0.041 A 
ATOM     82  F   UNL     1      -1.171   1.246   9.306  1.00  0.00    -0.206 F 
ATOM     83  C   UNL     1      -0.168  -1.114  11.859  1.00  0.00     0.022 A 
BRANCH  80  84
ATOM     84  S   UNL     1      -1.099  -1.741  14.412  1.00  0.00     0.124 S 
ATOM     85  O   UNL     1      -1.056  -0.610  15.332  1.00  0.00    -0.237 OA
ATOM     86  O   UNL     1      -2.333  -2.519  14.408  1.00  0.00    -0.237 OA
ATOM     87  O   UNL     1       0.131  -2.526  14.329  1.00  0.00    -0.744 OA
ENDBRANCH  80  84
ENDBRANCH  53  77
BRANCH  65  88
ATOM     88  C   UNL     1      -3.950   6.618  14.754  1.00  0.00     0.023 A 
ATOM     89  C   UNL     1      -2.622   7.057  14.898  1.00  0.00     0.031 A 
ATOM     90  C   UNL     1      -4.803   6.718  15.868  1.00  0.00     0.131 A 
ATOM     91  C   UNL     1      -2.163   7.498  16.148  1.00  0.00     0.055 A 
ATOM     92  C   UNL     1      -4.360   7.226  17.090  1.00  0.00     0.041 A 
ATOM     93  F   UNL     1      -6.080   6.313  15.791  1.00  0.00    -0.206 F 
ATOM     94  C   UNL     1      -3.028   7.602  17.241  1.00  0.00     0.022 A 
BRANCH  91  95
ATOM     95  S   UNL     1      -0.389   7.810  16.362  1.00  0.00     0.124 S 
ATOM     96  O   UNL     1       0.196   6.543  15.935  1.00  0.00    -0.237 OA
ATOM     97  O   UNL     1      -0.164   8.947  15.476  1.00  0.00    -0.237 OA
ATOM     98  O   UNL     1      -0.262   8.102  17.789  1.00  0.00    -0.744 OA
ENDBRANCH  91  95
ENDBRANCH  65  88
ENDBRANCH  39  40
ENDBRANCH  31  34
ENDBRANCH  29  30
ENDBRANCH  28  29
ENDBRANCH   1  28
TORSDOF 19
