REMARK SMILES Cc1c(CC(=O)N[C@@H](CCO)C(=O)NCCCCCCNC(=O)c2ccc(-c3c4nc(c(-c5cc(S(=O)(=O)[O-])ccc5F)c5ccc([nH]5)c(-c5cc(S(=O)(=O)[O-])ccc5F)c5nc(c(-c6cc(S(=O)(=O)[O-])ccc6F)c6ccc3[nH]6)C=C5)C=C4)cc2)cc(-c2ccc(S(C)(=O)=O)cc2)n1-c1ccc(F)cc1
REMARK SMILES IDX 16 1 15 2 14 3 12 4 13 5 8 7 7 8 5 9 6 10 4 12 3 13 1 14
REMARK SMILES IDX 2 15 99 16 87 17 88 18 100 19 101 20 106 21 102 22 105 23
REMARK SMILES IDX 103 24 104 25 89 26 90 27 98 28 91 29 97 30 92 31 93 32
REMARK SMILES IDX 94 33 95 34 96 35 9 36 10 37 11 38 17 40 18 41 19 42 20 43
REMARK SMILES IDX 21 44 22 45 23 47 24 48 25 49 86 50 26 51 85 52 27 53 28 54
REMARK SMILES IDX 29 55 79 56 30 57 84 58 78 59 80 60 31 61 83 62 77 63 76 64
REMARK SMILES IDX 32 66 64 67 44 68 63 69 45 70 48 71 62 72 81 73 46 74 47 75
REMARK SMILES IDX 61 77 82 78 49 79 33 80 34 81 42 82 35 83 41 84 43 85 40 86
REMARK SMILES IDX 36 87 37 88 38 89 39 90 65 91 66 92 74 93 67 94 73 95 75 96
REMARK SMILES IDX 72 97 68 98 69 99 70 100 71 101 50 102 51 103 59 104 52 105
REMARK SMILES IDX 58 106 60 107 57 108 53 109 54 110 55 111 56 112
REMARK H PARENT 14 6 7 11 11 39 21 46 80 65 48 76
REMARK Flexibility Score: inf
ROOT
ATOM      1  C   UNL     1       6.131  -4.556  -2.926  1.00  0.00     0.021 C 
ENDROOT
BRANCH   1   2
ATOM      2  C   UNL     1       5.584  -3.332  -3.631  1.00  0.00     0.116 C 
BRANCH   2   3
ATOM      3  N   UNL     1       4.515  -3.660  -4.549  1.00  0.00    -0.354 N 
ATOM      4  C   UNL     1       3.244  -3.188  -4.651  1.00  0.00     0.242 C 
ATOM      5  O   UNL     1       2.591  -3.563  -5.630  1.00  0.00    -0.273 OA
ATOM      6  H   UNL     1       4.749  -4.345  -5.216  1.00  0.00     0.163 HD
BRANCH   4   7
ATOM      7  C   UNL     1       2.674  -2.114  -3.705  1.00  0.00     0.173 C 
BRANCH   7   8
ATOM      8  N   UNL     1       2.795  -2.448  -2.283  1.00  0.00    -0.344 N 
ATOM      9  C   UNL     1       1.798  -2.683  -1.376  1.00  0.00     0.225 C 
ATOM     10  O   UNL     1       2.122  -3.127  -0.273  1.00  0.00    -0.275 OA
ATOM     11  H   UNL     1       3.713  -2.511  -1.934  1.00  0.00     0.164 HD
BRANCH   9  12
ATOM     12  C   UNL     1       0.341  -2.412  -1.724  1.00  0.00     0.137 C 
BRANCH  12  13
ATOM     13  C   UNL     1       0.102  -0.974  -2.079  1.00  0.00    -0.017 A 
ATOM     14  C   UNL     1       0.990   0.194   0.056  1.00  0.00     0.065 C 
ATOM     15  C   UNL     1       0.439   0.149  -1.335  1.00  0.00     0.024 A 
ATOM     16  N   UNL     1       0.150   1.279  -2.093  1.00  0.00    -0.314 N 
ATOM     17  C   UNL     1      -0.480  -0.508  -3.286  1.00  0.00     0.033 A 
ATOM     18  C   UNL     1      -0.380   0.870  -3.318  1.00  0.00     0.053 A 
BRANCH  16  19
ATOM     19  C   UNL     1       0.378   2.630  -1.713  1.00  0.00     0.046 A 
ATOM     20  C   UNL     1      -0.647   3.570  -1.888  1.00  0.00     0.029 A 
ATOM     21  C   UNL     1       1.632   3.023  -1.227  1.00  0.00     0.029 A 
ATOM     22  C   UNL     1      -0.414   4.909  -1.579  1.00  0.00     0.041 A 
ATOM     23  C   UNL     1       1.861   4.369  -0.937  1.00  0.00     0.041 A 
ATOM     24  C   UNL     1       0.838   5.297  -1.115  1.00  0.00     0.123 A 
ATOM     25  F   UNL     1       1.066   6.589  -0.847  1.00  0.00    -0.207 F 
ENDBRANCH  16  19
BRANCH  18  26
ATOM     26  C   UNL     1      -0.627   1.742  -4.473  1.00  0.00    -0.001 A 
ATOM     27  C   UNL     1       0.404   2.527  -5.014  1.00  0.00     0.011 A 
ATOM     28  C   UNL     1      -1.891   1.765  -5.075  1.00  0.00     0.011 A 
ATOM     29  C   UNL     1       0.171   3.346  -6.122  1.00  0.00     0.021 A 
ATOM     30  C   UNL     1      -2.133   2.584  -6.181  1.00  0.00     0.021 A 
ATOM     31  C   UNL     1      -1.104   3.376  -6.692  1.00  0.00     0.067 A 
BRANCH  31  32
ATOM     32  S   UNL     1      -1.384   4.394  -8.122  1.00  0.00     0.175 S 
ATOM     33  C   UNL     1      -1.163   6.051  -7.533  1.00  0.00     0.163 C 
ATOM     34  O   UNL     1      -0.345   4.101  -9.070  1.00  0.00    -0.224 OA
ATOM     35  O   UNL     1      -2.796   4.256  -8.487  1.00  0.00    -0.224 OA
ENDBRANCH  31  32
ENDBRANCH  18  26
ENDBRANCH  12  13
ENDBRANCH   9  12
ENDBRANCH   7   8
BRANCH   7  36
ATOM     36  C   UNL     1       3.064  -0.661  -4.047  1.00  0.00     0.063 C 
BRANCH  36  37
ATOM     37  C   UNL     1       4.532  -0.288  -4.192  1.00  0.00     0.158 C 
BRANCH  37  38
ATOM     38  O   UNL     1       5.079  -0.701  -5.435  1.00  0.00    -0.396 OA
ATOM     39  H   UNL     1       5.029  -1.667  -5.505  1.00  0.00     0.210 HD
ENDBRANCH  37  38
ENDBRANCH  36  37
ENDBRANCH   7  36
ENDBRANCH   4   7
ENDBRANCH   2   3
ENDBRANCH   1   2
BRANCH   1  40
ATOM     40  C   UNL     1       7.115  -5.382  -3.759  1.00  0.00     0.002 C 
BRANCH  40  41
ATOM     41  C   UNL     1       8.322  -4.643  -4.353  1.00  0.00     0.002 C 
BRANCH  41  42
ATOM     42  C   UNL     1       9.097  -3.652  -3.459  1.00  0.00     0.021 C 
BRANCH  42  43
ATOM     43  C   UNL     1       9.235  -3.949  -1.951  1.00  0.00     0.116 C 
BRANCH  43  44
ATOM     44  N   UNL     1      10.492  -4.503  -1.530  1.00  0.00    -0.352 N 
ATOM     45  C   UNL     1      11.002  -4.551  -0.239  1.00  0.00     0.251 C 
ATOM     46  H   UNL     1      11.055  -4.893  -2.237  1.00  0.00     0.163 HD
ATOM     47  O   UNL     1      12.078  -5.128  -0.090  1.00  0.00    -0.269 OA
BRANCH  45  48
ATOM     48  C   UNL     1      10.345  -3.847   0.940  1.00  0.00     0.039 A 
ATOM     49  C   UNL     1      10.830  -2.601   1.320  1.00  0.00     0.014 A 
ATOM     50  C   UNL     1       9.472  -4.460   1.858  1.00  0.00     0.014 A 
ATOM     51  C   UNL     1      10.418  -1.973   2.550  1.00  0.00     0.010 A 
ATOM     52  C   UNL     1       9.111  -3.847   3.146  1.00  0.00     0.010 A 
ATOM     53  C   UNL     1       9.576  -2.573   3.560  1.00  0.00    -0.014 A 
BRANCH  53  54
ATOM     54  C   UNL     1       9.879  -2.113   5.119  1.00  0.00     0.031 A 
ATOM     55  C   UNL     1      11.359  -2.324   5.162  1.00  0.00     0.074 A 
ATOM     56  C   UNL     1       9.295  -1.715   6.338  1.00  0.00     0.049 A 
ATOM     57  N   UNL     1      11.847  -3.492   4.845  1.00  0.00    -0.248 NA
ATOM     58  C   UNL     1      12.324  -1.226   5.090  1.00  0.00     0.031 C 
ATOM     59  C   UNL     1       7.860  -1.609   6.668  1.00  0.00     0.029 A 
ATOM     60  N   UNL     1       9.840  -1.298   7.616  1.00  0.00    -0.354 N 
ATOM     61  C   UNL     1      13.213  -3.364   4.856  1.00  0.00     0.074 A 
ATOM     62  C   UNL     1      13.422  -1.920   4.764  1.00  0.00     0.031 C 
ATOM     63  C   UNL     1       7.645  -1.047   7.900  1.00  0.00     0.029 A 
ATOM     64  C   UNL     1       8.902  -0.759   8.602  1.00  0.00     0.049 A 
ATOM     65  H   UNL     1      10.802  -1.375   7.812  1.00  0.00     0.167 HD
ATOM     66  C   UNL     1      13.850  -4.238   5.691  1.00  0.00     0.034 A 
ATOM     67  C   UNL     1       9.088  -0.206   9.889  1.00  0.00     0.034 A 
ATOM     68  C   UNL     1      14.047  -3.665   6.997  1.00  0.00     0.049 A 
ATOM     69  C   UNL     1      10.314  -0.796  10.417  1.00  0.00     0.074 A 
ATOM     70  C   UNL     1      14.524  -2.436   7.405  1.00  0.00     0.029 A 
ATOM     71  N   UNL     1      13.294  -4.173   8.037  1.00  0.00    -0.354 N 
ATOM     72  N   UNL     1      10.352  -2.011  10.862  1.00  0.00    -0.248 NA
ATOM     73  C   UNL     1      11.553  -0.038  10.520  1.00  0.00     0.031 C 
ATOM     74  C   UNL     1      13.629  -2.039   8.417  1.00  0.00     0.029 A 
ATOM     75  C   UNL     1      12.960  -3.158   8.906  1.00  0.00     0.049 A 
ATOM     76  H   UNL     1      13.036  -5.118   8.142  1.00  0.00     0.167 HD
ATOM     77  C   UNL     1      11.669  -2.319  10.726  1.00  0.00     0.074 A 
ATOM     78  C   UNL     1      12.370  -1.048  10.821  1.00  0.00     0.031 C 
ATOM     79  C   UNL     1      11.947  -3.377   9.920  1.00  0.00     0.034 A 
BRANCH  66  80
ATOM     80  C   UNL     1      13.494  -5.681   5.469  1.00  0.00     0.023 A 
ATOM     81  C   UNL     1      14.475  -6.540   4.964  1.00  0.00     0.031 A 
ATOM     82  C   UNL     1      12.202  -6.211   5.687  1.00  0.00     0.131 A 
ATOM     83  C   UNL     1      14.142  -7.866   4.643  1.00  0.00     0.055 A 
ATOM     84  C   UNL     1      11.862  -7.510   5.316  1.00  0.00     0.041 A 
ATOM     85  F   UNL     1      11.250  -5.489   6.299  1.00  0.00    -0.206 F 
ATOM     86  C   UNL     1      12.836  -8.346   4.786  1.00  0.00     0.022 A 
BRANCH  83  87
ATOM     87  S   UNL     1      15.458  -8.976   4.082  1.00  0.00     0.124 S 
ATOM     88  O   UNL     1      15.839  -8.390   2.800  1.00  0.00    -0.237 OA
ATOM     89  O   UNL     1      16.447  -8.851   5.149  1.00  0.00    -0.237 OA
ATOM     90  O   UNL     1      14.802 -10.280   4.000  1.00  0.00    -0.744 OA
ENDBRANCH  83  87
ENDBRANCH  66  80
BRANCH  67  91
ATOM     91  C   UNL     1       8.458   0.666  11.051  1.00  0.00     0.023 A 
ATOM     92  C   UNL     1       8.835   0.529  12.462  1.00  0.00     0.031 A 
ATOM     93  C   UNL     1       7.866   1.899  10.748  1.00  0.00     0.131 A 
ATOM     94  C   UNL     1       8.656   1.577  13.427  1.00  0.00     0.055 A 
ATOM     95  C   UNL     1       7.692   2.930  11.709  1.00  0.00     0.041 A 
ATOM     96  F   UNL     1       7.546   2.197   9.481  1.00  0.00    -0.206 F 
ATOM     97  C   UNL     1       8.097   2.784  13.035  1.00  0.00     0.022 A 
BRANCH  94  98
ATOM     98  S   UNL     1       9.297   1.493  15.172  1.00  0.00     0.124 S 
ATOM     99  O   UNL     1       8.376   0.567  15.817  1.00  0.00    -0.237 OA
ATOM    100  O   UNL     1      10.671   1.037  14.996  1.00  0.00    -0.237 OA
ATOM    101  O   UNL     1       9.188   2.877  15.646  1.00  0.00    -0.744 OA
ENDBRANCH  94  98
ENDBRANCH  67  91
BRANCH  79 102
ATOM    102  C   UNL     1      11.070  -4.620  10.080  1.00  0.00     0.023 A 
ATOM    103  C   UNL     1       9.651  -4.650  10.195  1.00  0.00     0.031 A 
ATOM    104  C   UNL     1      11.728  -5.849  10.243  1.00  0.00     0.131 A 
ATOM    105  C   UNL     1       8.968  -5.848  10.501  1.00  0.00     0.055 A 
ATOM    106  C   UNL     1      11.050  -7.041  10.509  1.00  0.00     0.041 A 
ATOM    107  F   UNL     1      13.067  -5.912  10.170  1.00  0.00    -0.206 F 
ATOM    108  C   UNL     1       9.669  -7.042  10.657  1.00  0.00     0.022 A 
BRANCH 105 109
ATOM    109  S   UNL     1       7.164  -5.855  10.802  1.00  0.00     0.124 S 
ATOM    110  O   UNL     1       6.945  -4.671  11.623  1.00  0.00    -0.237 OA
ATOM    111  O   UNL     1       6.618  -5.800   9.449  1.00  0.00    -0.237 OA
ATOM    112  O   UNL     1       6.942  -7.125  11.498  1.00  0.00    -0.744 OA
ENDBRANCH 105 109
ENDBRANCH  79 102
ENDBRANCH  53  54
ENDBRANCH  45  48
ENDBRANCH  43  44
ENDBRANCH  42  43
ENDBRANCH  41  42
ENDBRANCH  40  41
ENDBRANCH   1  40
TORSDOF 25
