REMARK SMILES CC(C)C[C@H](NC(=O)CNC(=O)[C@@H](NC(=O)OCc1ccccc1)C(C)C)C(=O)NCCCCCCNC(=O)c1ccc(-c2c3nc(c(-c4cc(S(=O)(=O)[O-])ccc4F)c4ccc([nH]4)c(-c4cc(S(=O)(=O)[O-])ccc4F)c4nc(c(-c5cc(S(=O)(=O)[O-])ccc5F)c5ccc2[nH]5)C=C4)C=C3)cc1
REMARK SMILES IDX 31 1 30 2 28 3 29 4 5 6 4 7 2 8 1 9 3 10 6 11 7 12 8 14 9 15
REMARK SMILES IDX 10 16 11 17 12 19 13 20 14 21 15 22 16 24 17 25 18 26 19 27
REMARK SMILES IDX 20 28 24 29 21 30 23 31 22 32 25 33 26 34 27 35 32 36 33 37
REMARK SMILES IDX 34 38 35 39 36 40 37 41 38 42 39 44 40 45 41 46 102 47 42 48
REMARK SMILES IDX 101 49 43 50 44 51 45 52 95 53 46 54 100 55 94 56 96 57
REMARK SMILES IDX 47 58 99 59 93 60 92 61 48 63 80 64 60 65 79 66 61 67 64 68
REMARK SMILES IDX 78 69 97 70 62 71 63 72 77 74 98 75 65 76 49 77 50 78 58 79
REMARK SMILES IDX 51 80 57 81 59 82 56 83 52 84 53 85 54 86 55 87 81 88 82 89
REMARK SMILES IDX 90 90 83 91 89 92 91 93 88 94 84 95 85 96 86 97 87 98 66 99
REMARK SMILES IDX 67 100 75 101 68 102 74 103 76 104 73 105 69 106 70 107
REMARK SMILES IDX 71 108 72 109
REMARK H PARENT 30 5 6 13 10 18 14 23 37 43 96 62 64 73
REMARK Flexibility Score: inf
ROOT
ATOM      1  C   UNL     1      -3.497   3.274  -0.070  1.00  0.00     0.116 C 
ENDROOT
BRANCH   1   2
ATOM      2  N   UNL     1      -4.034   1.932   0.060  1.00  0.00    -0.354 N 
ATOM      3  C   UNL     1      -3.452   0.848   0.654  1.00  0.00     0.242 C 
ATOM      4  O   UNL     1      -4.083  -0.206   0.727  1.00  0.00    -0.273 OA
ATOM      5  H   UNL     1      -4.927   1.784  -0.328  1.00  0.00     0.163 HD
BRANCH   3   6
ATOM      6  C   UNL     1      -2.040   1.000   1.249  1.00  0.00     0.171 C 
BRANCH   6   7
ATOM      7  C   UNL     1      -2.062   1.987   2.412  1.00  0.00     0.038 C 
BRANCH   7   8
ATOM      8  C   UNL     1      -3.277   2.086   3.354  1.00  0.00    -0.015 C 
ATOM      9  C   UNL     1      -3.606   0.772   4.058  1.00  0.00     0.007 C 
ATOM     10  C   UNL     1      -2.967   3.164   4.405  1.00  0.00     0.007 C 
ENDBRANCH   7   8
ENDBRANCH   6   7
BRANCH   6  11
ATOM     11  N   UNL     1      -1.166   1.323   0.093  1.00  0.00    -0.343 N 
ATOM     12  C   UNL     1      -0.007   1.937  -0.217  1.00  0.00     0.240 C 
ATOM     13  H   UNL     1      -1.573   0.967  -0.730  1.00  0.00     0.164 HD
ATOM     14  O   UNL     1       0.299   1.865  -1.419  1.00  0.00    -0.273 OA
BRANCH  12  15
ATOM     15  C   UNL     1       1.007   2.587   0.733  1.00  0.00     0.216 C 
BRANCH  15  16
ATOM     16  N   UNL     1       0.595   3.307   1.909  1.00  0.00    -0.345 N 
ATOM     17  C   UNL     1       0.701   3.042   3.232  1.00  0.00     0.243 C 
ATOM     18  H   UNL     1       0.148   4.162   1.712  1.00  0.00     0.164 HD
ATOM     19  O   UNL     1       0.353   3.959   3.987  1.00  0.00    -0.273 OA
BRANCH  17  20
ATOM     20  C   UNL     1       1.251   1.716   3.837  1.00  0.00     0.177 C 
BRANCH  20  21
ATOM     21  N   UNL     1       0.888   0.490   3.110  1.00  0.00    -0.309 N 
ATOM     22  C   UNL     1       1.537  -0.251   2.175  1.00  0.00     0.408 C 
ATOM     23  H   UNL     1       0.001   0.137   3.348  1.00  0.00     0.167 HD
ATOM     24  O   UNL     1       0.935  -1.099   1.539  1.00  0.00    -0.225 OA
BRANCH  22  25
ATOM     25  O   UNL     1       2.844   0.065   2.051  1.00  0.00    -0.445 OA
BRANCH  25  26
ATOM     26  C   UNL     1       3.608  -0.744   1.147  1.00  0.00     0.270 C 
BRANCH  26  27
ATOM     27  C   UNL     1       3.689  -2.176   1.612  1.00  0.00    -0.011 A 
ATOM     28  C   UNL     1       4.164  -2.489   2.893  1.00  0.00     0.007 A 
ATOM     29  C   UNL     1       3.214  -3.205   0.790  1.00  0.00     0.007 A 
ATOM     30  C   UNL     1       4.134  -3.805   3.354  1.00  0.00     0.000 A 
ATOM     31  C   UNL     1       3.193  -4.521   1.248  1.00  0.00     0.000 A 
ATOM     32  C   UNL     1       3.647  -4.819   2.531  1.00  0.00     0.000 A 
ENDBRANCH  26  27
ENDBRANCH  25  26
ENDBRANCH  22  25
ENDBRANCH  20  21
BRANCH  20  33
ATOM     33  C   UNL     1       2.720   1.837   4.292  1.00  0.00     0.015 C 
ATOM     34  C   UNL     1       2.961   3.087   5.150  1.00  0.00     0.010 C 
ATOM     35  C   UNL     1       3.134   0.613   5.119  1.00  0.00     0.010 C 
ENDBRANCH  20  33
ENDBRANCH  17  20
ENDBRANCH  15  16
ENDBRANCH  12  15
ENDBRANCH   6  11
ENDBRANCH   3   6
ENDBRANCH   1   2
BRANCH   1  36
ATOM     36  C   UNL     1      -4.117   4.014  -1.236  1.00  0.00     0.021 C 
BRANCH  36  37
ATOM     37  C   UNL     1      -5.582   4.372  -0.993  1.00  0.00     0.002 C 
BRANCH  37  38
ATOM     38  C   UNL     1      -5.831   5.211   0.267  1.00  0.00     0.002 C 
BRANCH  38  39
ATOM     39  C   UNL     1      -5.005   6.497   0.353  1.00  0.00     0.021 C 
BRANCH  39  40
ATOM     40  C   UNL     1      -5.076   7.368  -0.894  1.00  0.00     0.116 C 
BRANCH  40  41
ATOM     41  N   UNL     1      -6.447   7.684  -1.255  1.00  0.00    -0.352 N 
ATOM     42  C   UNL     1      -6.985   8.893  -1.605  1.00  0.00     0.251 C 
ATOM     43  H   UNL     1      -7.075   6.925  -1.246  1.00  0.00     0.163 HD
ATOM     44  O   UNL     1      -8.201   9.027  -1.687  1.00  0.00    -0.269 OA
BRANCH  42  45
ATOM     45  C   UNL     1      -6.077  10.029  -1.853  1.00  0.00     0.039 A 
ATOM     46  C   UNL     1      -6.362  11.259  -1.260  1.00  0.00     0.014 A 
ATOM     47  C   UNL     1      -4.934   9.864  -2.641  1.00  0.00     0.014 A 
ATOM     48  C   UNL     1      -5.470  12.317  -1.422  1.00  0.00     0.010 A 
ATOM     49  C   UNL     1      -4.007  10.895  -2.732  1.00  0.00     0.010 A 
ATOM     50  C   UNL     1      -4.271  12.135  -2.132  1.00  0.00    -0.014 A 
BRANCH  50  51
ATOM     51  C   UNL     1      -3.290  13.240  -2.271  1.00  0.00     0.031 A 
ATOM     52  C   UNL     1      -2.973  13.791  -3.634  1.00  0.00     0.074 A 
ATOM     53  C   UNL     1      -2.658  13.711  -1.179  1.00  0.00     0.049 A 
ATOM     54  N   UNL     1      -2.108  14.711  -3.973  1.00  0.00    -0.248 NA
ATOM     55  C   UNL     1      -3.705  13.208  -4.769  1.00  0.00     0.031 C 
ATOM     56  C   UNL     1      -2.863  13.227   0.189  1.00  0.00     0.029 A 
ATOM     57  N   UNL     1      -1.715  14.697  -1.043  1.00  0.00    -0.354 N 
ATOM     58  C   UNL     1      -2.185  14.812  -5.357  1.00  0.00     0.074 A 
ATOM     59  C   UNL     1      -3.130  13.809  -5.799  1.00  0.00     0.031 C 
ATOM     60  C   UNL     1      -2.094  13.941   1.027  1.00  0.00     0.029 A 
ATOM     61  C   UNL     1      -1.301  14.892   0.255  1.00  0.00     0.049 A 
ATOM     62  H   UNL     1      -1.366  15.216  -1.803  1.00  0.00     0.167 HD
ATOM     63  C   UNL     1      -1.546  15.679  -6.180  1.00  0.00     0.034 A 
ATOM     64  C   UNL     1      -0.377  15.732   0.762  1.00  0.00     0.034 A 
ATOM     65  C   UNL     1      -0.611  16.675  -5.717  1.00  0.00     0.049 A 
ATOM     66  C   UNL     1       0.354  16.657  -0.179  1.00  0.00     0.074 A 
ATOM     67  C   UNL     1       0.059  17.635  -6.455  1.00  0.00     0.029 A 
ATOM     68  N   UNL     1      -0.204  16.834  -4.398  1.00  0.00    -0.354 N 
ATOM     69  N   UNL     1       0.234  16.774  -1.482  1.00  0.00    -0.248 NA
ATOM     70  C   UNL     1       1.337  17.569   0.419  1.00  0.00     0.031 C 
ATOM     71  C   UNL     1       0.930  18.317  -5.599  1.00  0.00     0.029 A 
ATOM     72  C   UNL     1       0.736  17.849  -4.308  1.00  0.00     0.049 A 
ATOM     73  H   UNL     1      -0.534  16.302  -3.638  1.00  0.00     0.167 HD
ATOM     74  C   UNL     1       1.101  17.799  -1.852  1.00  0.00     0.074 A 
ATOM     75  C   UNL     1       1.724  18.274  -0.633  1.00  0.00     0.031 C 
ATOM     76  C   UNL     1       1.356  18.306  -3.086  1.00  0.00     0.034 A 
BRANCH  63  77
ATOM     77  C   UNL     1      -1.818  15.563  -7.662  1.00  0.00     0.023 A 
ATOM     78  C   UNL     1      -3.104  15.756  -8.196  1.00  0.00     0.031 A 
ATOM     79  C   UNL     1      -0.782  15.230  -8.552  1.00  0.00     0.131 A 
ATOM     80  C   UNL     1      -3.336  15.540  -9.563  1.00  0.00     0.055 A 
ATOM     81  C   UNL     1      -1.001  15.104  -9.925  1.00  0.00     0.041 A 
ATOM     82  F   UNL     1       0.463  15.008  -8.101  1.00  0.00    -0.206 F 
ATOM     83  C   UNL     1      -2.288  15.243 -10.436  1.00  0.00     0.022 A 
BRANCH  80  84
ATOM     84  S   UNL     1      -5.051  15.498 -10.153  1.00  0.00     0.124 S 
ATOM     85  O   UNL     1      -5.619  14.430  -9.334  1.00  0.00    -0.237 OA
ATOM     86  O   UNL     1      -5.519  16.847  -9.858  1.00  0.00    -0.237 OA
ATOM     87  O   UNL     1      -4.917  15.179 -11.573  1.00  0.00    -0.744 OA
ENDBRANCH  80  84
ENDBRANCH  63  77
BRANCH  64  88
ATOM     88  C   UNL     1      -0.076  15.734   2.223  1.00  0.00     0.023 A 
ATOM     89  C   UNL     1      -0.303  16.875   3.008  1.00  0.00     0.031 A 
ATOM     90  C   UNL     1       0.491  14.608   2.848  1.00  0.00     0.131 A 
ATOM     91  C   UNL     1       0.084  16.885   4.358  1.00  0.00     0.055 A 
ATOM     92  C   UNL     1       0.815  14.602   4.206  1.00  0.00     0.041 A 
ATOM     93  F   UNL     1       0.729  13.489   2.146  1.00  0.00    -0.206 F 
ATOM     94  C   UNL     1       0.626  15.751   4.965  1.00  0.00     0.022 A 
BRANCH  91  95
ATOM     95  S   UNL     1      -0.037  18.441   5.283  1.00  0.00     0.124 S 
ATOM     96  O   UNL     1       0.789  19.330   4.475  1.00  0.00    -0.237 OA
ATOM     97  O   UNL     1      -1.473  18.698   5.257  1.00  0.00    -0.237 OA
ATOM     98  O   UNL     1       0.509  18.099   6.595  1.00  0.00    -0.744 OA
ENDBRANCH  91  95
ENDBRANCH  64  88
BRANCH  76  99
ATOM     99  C   UNL     1       2.315  19.470  -3.167  1.00  0.00     0.023 A 
ATOM    100  C   UNL     1       3.674  19.340  -2.831  1.00  0.00     0.031 A 
ATOM    101  C   UNL     1       1.857  20.733  -3.584  1.00  0.00     0.131 A 
ATOM    102  C   UNL     1       4.511  20.465  -2.858  1.00  0.00     0.055 A 
ATOM    103  C   UNL     1       2.710  21.832  -3.678  1.00  0.00     0.041 A 
ATOM    104  F   UNL     1       0.568  20.918  -3.913  1.00  0.00    -0.206 F 
ATOM    105  C   UNL     1       4.043  21.706  -3.300  1.00  0.00     0.022 A 
BRANCH 102 106
ATOM    106  S   UNL     1       6.198  20.312  -2.208  1.00  0.00     0.124 S 
ATOM    107  O   UNL     1       5.955  19.863  -0.841  1.00  0.00    -0.237 OA
ATOM    108  O   UNL     1       6.790  19.326  -3.107  1.00  0.00    -0.237 OA
ATOM    109  O   UNL     1       6.737  21.665  -2.330  1.00  0.00    -0.744 OA
ENDBRANCH 102 106
ENDBRANCH  76  99
ENDBRANCH  50  51
ENDBRANCH  42  45
ENDBRANCH  40  41
ENDBRANCH  39  40
ENDBRANCH  38  39
ENDBRANCH  37  38
ENDBRANCH  36  37
ENDBRANCH   1  36
TORSDOF 27
