REMARK SMILES Cn1cncc1COc1c(F)cc(C(=O)NCCCCCCNC(=O)c2ccc(-c3c4nc(c(-c5cc(S(=O)(=O)[O-])ccc5F)c5ccc([nH]5)c(-c5cc(S(=O)(=O)[O-])ccc5F)c5nc(c(-c6cc(S(=O)(=O)[O-])ccc6F)c6ccc3[nH]6)C=C5)C=C4)cc2)cc1F
REMARK SMILES IDX 19 1 18 2 17 3 16 4 14 5 15 6 13 8 9 9 10 10 90 11 11 12
REMARK SMILES IDX 12 13 89 14 91 15 8 16 7 17 6 18 1 19 2 20 3 21 4 22 5 23
REMARK SMILES IDX 20 24 21 25 22 26 23 27 24 28 25 30 26 31 27 32 88 33 28 34
REMARK SMILES IDX 87 35 29 36 30 37 31 38 81 39 32 40 86 41 80 42 82 43 33 44
REMARK SMILES IDX 85 45 79 46 78 47 34 49 66 50 46 51 65 52 47 53 50 54 64 55
REMARK SMILES IDX 83 56 48 57 49 58 63 60 84 61 51 62 35 63 36 64 44 65 37 66
REMARK SMILES IDX 43 67 45 68 42 69 38 70 39 71 40 72 41 73 67 74 68 75 76 76
REMARK SMILES IDX 69 77 75 78 77 79 74 80 70 81 71 82 72 83 73 84 52 85 53 86
REMARK SMILES IDX 61 87 54 88 60 89 62 90 59 91 55 92 56 93 57 94 58 95
REMARK H PARENT 16 7 23 29 82 48 50 59
REMARK Flexibility Score: inf
ROOT
ATOM      1  C   UNL     1      -0.535   2.657   7.537  1.00  0.00     0.002 C 
ENDROOT
BRANCH   1   2
ATOM      2  C   UNL     1      -0.472   1.785   6.279  1.00  0.00     0.021 C 
BRANCH   2   3
ATOM      3  C   UNL     1       0.883   1.101   6.072  1.00  0.00     0.116 C 
BRANCH   3   4
ATOM      4  N   UNL     1       0.955  -0.151   6.809  1.00  0.00    -0.352 N 
ATOM      5  C   UNL     1       0.852  -1.462   6.416  1.00  0.00     0.251 C 
ATOM      6  O   UNL     1       1.062  -2.338   7.255  1.00  0.00    -0.269 OA
ATOM      7  H   UNL     1       1.106  -0.036   7.775  1.00  0.00     0.163 HD
BRANCH   5   8
ATOM      8  C   UNL     1       0.528  -1.872   5.022  1.00  0.00     0.045 A 
ATOM      9  C   UNL     1      -0.015  -2.745   2.389  1.00  0.00     0.191 A 
ATOM     10  C   UNL     1      -0.483  -1.523   2.859  1.00  0.00     0.168 A 
ATOM     11  C   UNL     1       0.651  -3.573   3.287  1.00  0.00     0.168 A 
ATOM     12  F   UNL     1      -1.247  -0.732   2.100  1.00  0.00    -0.203 F 
ATOM     13  C   UNL     1      -0.223  -1.089   4.152  1.00  0.00     0.057 A 
ATOM     14  C   UNL     1       0.928  -3.147   4.590  1.00  0.00     0.057 A 
ATOM     15  F   UNL     1       1.028  -4.805   2.916  1.00  0.00    -0.203 F 
BRANCH   9  16
ATOM     16  O   UNL     1      -0.331  -3.194   1.134  1.00  0.00    -0.481 OA
BRANCH  16  17
ATOM     17  C   UNL     1       0.519  -2.655   0.103  1.00  0.00     0.285 C 
BRANCH  17  18
ATOM     18  C   UNL     1       0.004  -1.328  -0.328  1.00  0.00     0.075 A 
ATOM     19  C   UNL     1       2.152  -0.011  -0.154  1.00  0.00     0.151 C 
ATOM     20  N   UNL     1       0.738  -0.166  -0.384  1.00  0.00    -0.335 N 
ATOM     21  C   UNL     1      -0.117   0.854  -0.697  1.00  0.00     0.199 A 
ATOM     22  N   UNL     1      -1.331   0.411  -0.921  1.00  0.00    -0.245 NA
ATOM     23  C   UNL     1      -1.269  -0.939  -0.705  1.00  0.00     0.138 A 
ENDBRANCH  17  18
ENDBRANCH  16  17
ENDBRANCH   9  16
ENDBRANCH   5   8
ENDBRANCH   3   4
ENDBRANCH   2   3
ENDBRANCH   1   2
BRANCH   1  24
ATOM     24  C   UNL     1       0.434   3.846   7.544  1.00  0.00     0.002 C 
BRANCH  24  25
ATOM     25  C   UNL     1       0.296   4.800   6.355  1.00  0.00     0.021 C 
BRANCH  25  26
ATOM     26  C   UNL     1      -1.061   5.494   6.265  1.00  0.00     0.116 C 
BRANCH  26  27
ATOM     27  N   UNL     1      -1.303   6.341   7.423  1.00  0.00    -0.352 N 
ATOM     28  C   UNL     1      -1.439   7.707   7.489  1.00  0.00     0.251 C 
ATOM     29  H   UNL     1      -1.379   5.868   8.283  1.00  0.00     0.163 HD
ATOM     30  O   UNL     1      -1.358   8.280   8.568  1.00  0.00    -0.269 OA
BRANCH  28  31
ATOM     31  C   UNL     1      -1.666   8.474   6.245  1.00  0.00     0.039 A 
ATOM     32  C   UNL     1      -0.936   9.642   6.020  1.00  0.00     0.014 A 
ATOM     33  C   UNL     1      -2.596   8.028   5.302  1.00  0.00     0.014 A 
ATOM     34  C   UNL     1      -1.085  10.324   4.809  1.00  0.00     0.010 A 
ATOM     35  C   UNL     1      -2.689   8.666   4.069  1.00  0.00     0.010 A 
ATOM     36  C   UNL     1      -1.929   9.816   3.807  1.00  0.00    -0.014 A 
BRANCH  36  37
ATOM     37  C   UNL     1      -2.018  10.459   2.471  1.00  0.00     0.031 A 
ATOM     38  C   UNL     1      -3.321  11.043   2.001  1.00  0.00     0.074 A 
ATOM     39  C   UNL     1      -0.946  10.445   1.655  1.00  0.00     0.049 A 
ATOM     40  N   UNL     1      -3.627  11.552   0.836  1.00  0.00    -0.248 NA
ATOM     41  C   UNL     1      -4.434  11.029   2.963  1.00  0.00     0.031 C 
ATOM     42  C   UNL     1       0.364   9.880   1.991  1.00  0.00     0.029 A 
ATOM     43  N   UNL     1      -0.785  10.905   0.371  1.00  0.00    -0.354 N 
ATOM     44  C   UNL     1      -4.969  11.909   0.918  1.00  0.00     0.074 A 
ATOM     45  C   UNL     1      -5.430  11.503   2.229  1.00  0.00     0.031 C 
ATOM     46  C   UNL     1       1.196  10.047   0.951  1.00  0.00     0.029 A 
ATOM     47  C   UNL     1       0.468  10.675  -0.147  1.00  0.00     0.049 A 
ATOM     48  H   UNL     1      -1.501  11.358  -0.131  1.00  0.00     0.167 HD
ATOM     49  C   UNL     1      -5.736  12.537  -0.007  1.00  0.00     0.034 A 
ATOM     50  C   UNL     1       0.969  10.918  -1.375  1.00  0.00     0.034 A 
ATOM     51  C   UNL     1      -5.257  12.934  -1.308  1.00  0.00     0.049 A 
ATOM     52  C   UNL     1       0.076  11.560  -2.408  1.00  0.00     0.074 A 
ATOM     53  C   UNL     1      -5.932  13.622  -2.301  1.00  0.00     0.029 A 
ATOM     54  N   UNL     1      -3.988  12.663  -1.807  1.00  0.00    -0.354 N 
ATOM     55  N   UNL     1      -1.175  11.942  -2.296  1.00  0.00    -0.248 NA
ATOM     56  C   UNL     1       0.664  11.807  -3.731  1.00  0.00     0.031 C 
ATOM     57  C   UNL     1      -5.104  13.694  -3.426  1.00  0.00     0.029 A 
ATOM     58  C   UNL     1      -3.878  13.131  -3.108  1.00  0.00     0.049 A 
ATOM     59  H   UNL     1      -3.272  12.206  -1.309  1.00  0.00     0.167 HD
ATOM     60  C   UNL     1      -1.514  12.499  -3.526  1.00  0.00     0.074 A 
ATOM     61  C   UNL     1      -0.331  12.419  -4.357  1.00  0.00     0.031 C 
ATOM     62  C   UNL     1      -2.695  13.031  -3.931  1.00  0.00     0.034 A 
BRANCH  49  63
ATOM     63  C   UNL     1      -7.180  12.802   0.349  1.00  0.00     0.023 A 
ATOM     64  C   UNL     1      -7.536  13.633   1.426  1.00  0.00     0.031 A 
ATOM     65  C   UNL     1      -8.218  12.202  -0.387  1.00  0.00     0.131 A 
ATOM     66  C   UNL     1      -8.884  13.779   1.784  1.00  0.00     0.055 A 
ATOM     67  C   UNL     1      -9.562  12.421  -0.079  1.00  0.00     0.041 A 
ATOM     68  F   UNL     1      -7.942  11.381  -1.413  1.00  0.00    -0.206 F 
ATOM     69  C   UNL     1      -9.902  13.201   1.022  1.00  0.00     0.022 A 
BRANCH  66  70
ATOM     70  S   UNL     1      -9.279  14.613   3.345  1.00  0.00     0.124 S 
ATOM     71  O   UNL     1      -8.549  13.793   4.310  1.00  0.00    -0.237 OA
ATOM     72  O   UNL     1      -8.759  15.957   3.126  1.00  0.00    -0.237 OA
ATOM     73  O   UNL     1     -10.735  14.512   3.429  1.00  0.00    -0.744 OA
ENDBRANCH  66  70
ENDBRANCH  49  63
BRANCH  50  74
ATOM     74  C   UNL     1       2.370  10.532  -1.712  1.00  0.00     0.023 A 
ATOM     75  C   UNL     1       3.322  11.501  -2.065  1.00  0.00     0.031 A 
ATOM     76  C   UNL     1       2.767   9.182  -1.733  1.00  0.00     0.131 A 
ATOM     77  C   UNL     1       4.607  11.106  -2.470  1.00  0.00     0.055 A 
ATOM     78  C   UNL     1       4.064   8.799  -2.078  1.00  0.00     0.041 A 
ATOM     79  F   UNL     1       1.899   8.213  -1.403  1.00  0.00    -0.206 F 
ATOM     80  C   UNL     1       4.989   9.763  -2.464  1.00  0.00     0.022 A 
BRANCH  77  81
ATOM     81  S   UNL     1       5.745  12.370  -3.102  1.00  0.00     0.124 S 
ATOM     82  O   UNL     1       4.981  12.928  -4.212  1.00  0.00    -0.237 OA
ATOM     83  O   UNL     1       5.914  13.233  -1.938  1.00  0.00    -0.237 OA
ATOM     84  O   UNL     1       6.928  11.601  -3.482  1.00  0.00    -0.744 OA
ENDBRANCH  77  81
ENDBRANCH  50  74
BRANCH  62  85
ATOM     85  C   UNL     1      -2.751  13.604  -5.327  1.00  0.00     0.023 A 
ATOM     86  C   UNL     1      -2.638  12.789  -6.467  1.00  0.00     0.031 A 
ATOM     87  C   UNL     1      -2.926  14.986  -5.518  1.00  0.00     0.131 A 
ATOM     88  C   UNL     1      -2.654  13.368  -7.745  1.00  0.00     0.055 A 
ATOM     89  C   UNL     1      -3.006  15.549  -6.793  1.00  0.00     0.041 A 
ATOM     90  F   UNL     1      -3.033  15.814  -4.466  1.00  0.00    -0.206 F 
ATOM     91  C   UNL     1      -2.858  14.740  -7.915  1.00  0.00     0.022 A 
BRANCH  88  92
ATOM     92  S   UNL     1      -2.317  12.316  -9.183  1.00  0.00     0.124 S 
ATOM     93  O   UNL     1      -0.981  11.811  -8.883  1.00  0.00    -0.237 OA
ATOM     94  O   UNL     1      -3.398  11.338  -9.116  1.00  0.00    -0.237 OA
ATOM     95  O   UNL     1      -2.391  13.243 -10.311  1.00  0.00    -0.744 OA
ENDBRANCH  88  92
ENDBRANCH  62  85
ENDBRANCH  36  37
ENDBRANCH  28  31
ENDBRANCH  26  27
ENDBRANCH  25  26
ENDBRANCH  24  25
ENDBRANCH   1  24
TORSDOF 19
