REMARK SMILES C[NH2+][C@]1(C(=O)NCCCCCCNC(=O)c2ccc(-c3c4nc(c(-c5cc(S(=O)(=O)[O-])ccc5F)c5ccc([nH]5)c(-c5cc(S(=O)(=O)[O-])ccc5F)c5nc(c(-c6cc(S(=O)(=O)[O-])ccc6F)c6ccc3[nH]6)C=C5)C=C4)cc2)CCC[C@@H]1CCn1nc(C)c(Cl)c1C
REMARK SMILES IDX 9 1 8 2 7 3 6 4 4 5 5 6 3 8 79 9 82 10 80 11 81 12 2 13 1 14
REMARK SMILES IDX 83 17 84 18 85 19 86 20 91 21 87 22 89 23 92 24 88 25 90 26
REMARK SMILES IDX 10 27 11 28 12 29 13 30 14 31 15 33 16 34 17 35 78 36 18 37
REMARK SMILES IDX 77 38 19 39 20 40 21 41 71 42 22 43 76 44 70 45 72 46 23 47
REMARK SMILES IDX 75 48 69 49 68 50 24 52 56 53 36 54 55 55 37 56 40 57 54 58
REMARK SMILES IDX 73 59 38 60 39 61 53 63 74 64 41 65 25 66 26 67 34 68 27 69
REMARK SMILES IDX 33 70 35 71 32 72 28 73 29 74 30 75 31 76 57 77 58 78 66 79
REMARK SMILES IDX 59 80 65 81 67 82 64 83 60 84 61 85 62 86 63 87 42 88 43 89
REMARK SMILES IDX 51 90 44 91 50 92 52 93 49 94 45 95 46 96 47 97 48 98
REMARK H PARENT 6 7 2 15 2 16 13 32 72 51 40 62
REMARK Flexibility Score: inf
ROOT
ATOM      1  C   UNL     1       2.916   0.314  -5.255  1.00  0.00     0.002 C 
ENDROOT
BRANCH   1   2
ATOM      2  C   UNL     1       1.422   0.592  -5.066  1.00  0.00     0.021 C 
BRANCH   2   3
ATOM      3  C   UNL     1       0.728  -0.336  -4.077  1.00  0.00     0.116 C 
BRANCH   3   4
ATOM      4  N   UNL     1       1.264  -0.182  -2.737  1.00  0.00    -0.351 N 
ATOM      5  C   UNL     1       0.705  -0.050  -1.503  1.00  0.00     0.281 C 
ATOM      6  O   UNL     1       1.538   0.086  -0.599  1.00  0.00    -0.268 OA
ATOM      7  H   UNL     1       2.248  -0.171  -2.716  1.00  0.00     0.163 HD
BRANCH   5   8
ATOM      8  C   UNL     1      -0.848  -0.094  -1.266  1.00  0.00     0.178 C 
ATOM      9  C   UNL     1      -1.558   1.061  -2.005  1.00  0.00     0.079 C 
ATOM     10  C   UNL     1      -1.496  -1.345  -1.928  1.00  0.00     0.062 C 
ATOM     11  C   UNL     1      -2.976   0.566  -2.300  1.00  0.00     0.008 C 
ATOM     12  C   UNL     1      -2.964  -0.957  -2.145  1.00  0.00     0.011 C 
BRANCH   8  13
ATOM     13  N   UNL     1      -1.319   0.057   0.148  1.00  0.00    -0.336 N 
ATOM     14  C   UNL     1      -0.365  -0.112   1.225  1.00  0.00     0.331 C 
ATOM     15  H   UNL     1      -1.707   0.996   0.236  1.00  0.00     0.346 HD
ATOM     16  H   UNL     1      -1.971  -0.717   0.274  1.00  0.00     0.346 HD
ENDBRANCH   8  13
BRANCH  10  17
ATOM     17  C   UNL     1      -1.272  -2.670  -1.185  1.00  0.00     0.034 C 
BRANCH  17  18
ATOM     18  C   UNL     1      -1.508  -3.914  -2.053  1.00  0.00     0.145 C 
BRANCH  18  19
ATOM     19  N   UNL     1      -0.579  -4.074  -3.163  1.00  0.00    -0.268 N 
ATOM     20  N   UNL     1       0.672  -4.509  -2.894  1.00  0.00    -0.176 NA
ATOM     21  C   UNL     1      -0.816  -3.918  -4.509  1.00  0.00     0.054 A 
ATOM     22  C   UNL     1       1.206  -4.752  -4.100  1.00  0.00     0.078 A 
ATOM     23  C   UNL     1       0.295  -4.446  -5.134  1.00  0.00     0.084 A 
ATOM     24  C   UNL     1      -2.025  -3.296  -5.102  1.00  0.00     0.068 C 
ATOM     25  C   UNL     1       2.589  -5.276  -4.217  1.00  0.00     0.070 C 
ATOM     26  Cl  UNL     1       0.545  -4.655  -6.799  1.00  0.00    -0.080 Cl
ENDBRANCH  18  19
ENDBRANCH  17  18
ENDBRANCH  10  17
ENDBRANCH   5   8
ENDBRANCH   3   4
ENDBRANCH   2   3
ENDBRANCH   1   2
BRANCH   1  27
ATOM     27  C   UNL     1       3.270  -1.125  -5.640  1.00  0.00     0.002 C 
BRANCH  27  28
ATOM     28  C   UNL     1       2.518  -1.674  -6.851  1.00  0.00     0.021 C 
BRANCH  28  29
ATOM     29  C   UNL     1       2.614  -0.827  -8.112  1.00  0.00     0.116 C 
BRANCH  29  30
ATOM     30  N   UNL     1       3.980  -0.713  -8.589  1.00  0.00    -0.352 N 
ATOM     31  C   UNL     1       4.487  -1.004  -9.829  1.00  0.00     0.251 C 
ATOM     32  H   UNL     1       4.633  -0.381  -7.931  1.00  0.00     0.163 HD
ATOM     33  O   UNL     1       5.705  -1.052  -9.992  1.00  0.00    -0.269 OA
BRANCH  31  34
ATOM     34  C   UNL     1       3.569  -1.284 -10.954  1.00  0.00     0.039 A 
ATOM     35  C   UNL     1       3.857  -2.347 -11.813  1.00  0.00     0.014 A 
ATOM     36  C   UNL     1       2.427  -0.504 -11.164  1.00  0.00     0.014 A 
ATOM     37  C   UNL     1       2.974  -2.660 -12.848  1.00  0.00     0.010 A 
ATOM     38  C   UNL     1       1.507  -0.869 -12.143  1.00  0.00     0.010 A 
ATOM     39  C   UNL     1       1.774  -1.945 -13.002  1.00  0.00    -0.014 A 
BRANCH  39  40
ATOM     40  C   UNL     1       0.798  -2.301 -14.066  1.00  0.00     0.031 A 
ATOM     41  C   UNL     1       0.468  -1.310 -15.150  1.00  0.00     0.074 A 
ATOM     42  C   UNL     1       0.171  -3.494 -14.026  1.00  0.00     0.049 A 
ATOM     43  N   UNL     1      -0.400  -1.405 -16.124  1.00  0.00    -0.248 NA
ATOM     44  C   UNL     1       1.190  -0.029 -15.113  1.00  0.00     0.031 C 
ATOM     45  C   UNL     1       0.376  -4.521 -13.002  1.00  0.00     0.029 A 
ATOM     46  N   UNL     1      -0.771  -4.043 -14.860  1.00  0.00    -0.354 N 
ATOM     47  C   UNL     1      -0.339  -0.195 -16.807  1.00  0.00     0.074 A 
ATOM     48  C   UNL     1       0.603   0.641 -16.092  1.00  0.00     0.031 C 
ATOM     49  C   UNL     1      -0.395  -5.583 -13.284  1.00  0.00     0.029 A 
ATOM     50  C   UNL     1      -1.190  -5.296 -14.474  1.00  0.00     0.049 A 
ATOM     51  H   UNL     1      -1.115  -3.583 -15.660  1.00  0.00     0.167 HD
ATOM     52  C   UNL     1      -0.988   0.176 -17.939  1.00  0.00     0.034 A 
ATOM     53  C   UNL     1      -2.120  -6.114 -15.006  1.00  0.00     0.034 A 
ATOM     54  C   UNL     1      -1.918  -0.676 -18.642  1.00  0.00     0.049 A 
ATOM     55  C   UNL     1      -2.855  -5.669 -16.246  1.00  0.00     0.074 A 
ATOM     56  C   UNL     1      -2.588  -0.426 -19.827  1.00  0.00     0.029 A 
ATOM     57  N   UNL     1      -2.320  -1.937 -18.219  1.00  0.00    -0.354 N 
ATOM     58  N   UNL     1      -2.743  -4.543 -16.914  1.00  0.00    -0.248 NA
ATOM     59  C   UNL     1      -3.831  -6.608 -16.810  1.00  0.00     0.031 C 
ATOM     60  C   UNL     1      -3.454  -1.496 -20.075  1.00  0.00     0.029 A 
ATOM     61  C   UNL     1      -3.259  -2.458 -19.097  1.00  0.00     0.049 A 
ATOM     62  H   UNL     1      -1.988  -2.394 -17.413  1.00  0.00     0.167 HD
ATOM     63  C   UNL     1      -3.614  -4.655 -17.995  1.00  0.00     0.074 A 
ATOM     64  C   UNL     1      -4.228  -5.963 -17.897  1.00  0.00     0.031 C 
ATOM     65  C   UNL     1      -3.877  -3.760 -18.982  1.00  0.00     0.034 A 
BRANCH  52  66
ATOM     66  C   UNL     1      -0.736   1.572 -18.462  1.00  0.00     0.023 A 
ATOM     67  C   UNL     1       0.545   1.995 -18.859  1.00  0.00     0.031 A 
ATOM     68  C   UNL     1      -1.786   2.505 -18.537  1.00  0.00     0.131 A 
ATOM     69  C   UNL     1       0.760   3.332 -19.227  1.00  0.00     0.055 A 
ATOM     70  C   UNL     1      -1.583   3.809 -18.993  1.00  0.00     0.041 A 
ATOM     71  F   UNL     1      -3.028   2.171 -18.152  1.00  0.00    -0.206 F 
ATOM     72  C   UNL     1      -0.300   4.235 -19.325  1.00  0.00     0.022 A 
BRANCH  69  73
ATOM     73  S   UNL     1       2.468   3.913 -19.417  1.00  0.00     0.124 S 
ATOM     74  O   UNL     1       3.032   3.603 -18.105  1.00  0.00    -0.237 OA
ATOM     75  O   UNL     1       2.954   3.105 -20.529  1.00  0.00    -0.237 OA
ATOM     76  O   UNL     1       2.316   5.339 -19.699  1.00  0.00    -0.744 OA
ENDBRANCH  69  73
ENDBRANCH  52  66
BRANCH  53  77
ATOM     77  C   UNL     1      -2.429  -7.424 -14.362  1.00  0.00     0.023 A 
ATOM     78  C   UNL     1      -2.196  -8.636 -15.030  1.00  0.00     0.031 A 
ATOM     79  C   UNL     1      -3.001  -7.480 -13.078  1.00  0.00     0.131 A 
ATOM     80  C   UNL     1      -2.576  -9.849 -14.433  1.00  0.00     0.055 A 
ATOM     81  C   UNL     1      -3.321  -8.691 -12.463  1.00  0.00     0.041 A 
ATOM     82  F   UNL     1      -3.245  -6.351 -12.393  1.00  0.00    -0.206 F 
ATOM     83  C   UNL     1      -3.122  -9.886 -13.148  1.00  0.00     0.022 A 
BRANCH  80  84
ATOM     84  S   UNL     1      -2.434 -11.377 -15.400  1.00  0.00     0.124 S 
ATOM     85  O   UNL     1      -3.260 -11.070 -16.562  1.00  0.00    -0.237 OA
ATOM     86  O   UNL     1      -0.996 -11.453 -15.637  1.00  0.00    -0.237 OA
ATOM     87  O   UNL     1      -2.971 -12.398 -14.504  1.00  0.00    -0.744 OA
ENDBRANCH  80  84
ENDBRANCH  53  77
BRANCH  65  88
ATOM     88  C   UNL     1      -4.843  -4.189 -20.061  1.00  0.00     0.023 A 
ATOM     89  C   UNL     1      -6.200  -4.435 -19.790  1.00  0.00     0.031 A 
ATOM     90  C   UNL     1      -4.392  -4.361 -21.383  1.00  0.00     0.131 A 
ATOM     91  C   UNL     1      -7.045  -4.895 -20.812  1.00  0.00     0.055 A 
ATOM     92  C   UNL     1      -5.253  -4.753 -22.409  1.00  0.00     0.041 A 
ATOM     93  F   UNL     1      -3.105  -4.146 -21.700  1.00  0.00    -0.206 F 
ATOM     94  C   UNL     1      -6.585  -5.036 -22.123  1.00  0.00     0.022 A 
BRANCH  91  95
ATOM     95  S   UNL     1      -8.732  -5.406 -20.383  1.00  0.00     0.124 S 
ATOM     96  O   UNL     1      -8.490  -6.447 -19.389  1.00  0.00    -0.237 OA
ATOM     97  O   UNL     1      -9.315  -4.167 -19.880  1.00  0.00    -0.237 OA
ATOM     98  O   UNL     1      -9.281  -5.878 -21.653  1.00  0.00    -0.744 OA
ENDBRANCH  91  95
ENDBRANCH  65  88
ENDBRANCH  39  40
ENDBRANCH  31  34
ENDBRANCH  29  30
ENDBRANCH  28  29
ENDBRANCH  27  28
ENDBRANCH   1  27
TORSDOF 20
