REMARK SMILES CC[NH+](CC)CCS[C@H](F)C(=O)NCCCCCCNC(=O)c1ccc(-c2c3nc(c(-c4cc(S(=O)(=O)[O-])ccc4F)c4ccc([nH]4)c(-c4cc(S(=O)(=O)[O-])ccc4F)c4nc(c(-c5cc(S(=O)(=O)[O-])ccc5F)c5ccc2[nH]5)C=C4)C=C3)cc1
REMARK SMILES IDX 15 1 14 2 13 3 11 4 12 5 9 7 10 8 8 9 7 10 6 11 3 12 2 14
REMARK SMILES IDX 1 15 4 16 5 17 16 18 17 19 18 20 19 21 20 22 21 23 22 25
REMARK SMILES IDX 23 26 24 27 85 28 25 29 84 30 26 31 27 32 28 33 78 34 29 35
REMARK SMILES IDX 83 36 77 37 79 38 30 39 82 40 76 41 75 42 31 44 63 45 43 46
REMARK SMILES IDX 62 47 44 48 47 49 61 50 80 51 45 52 46 53 60 55 81 56 48 57
REMARK SMILES IDX 32 58 33 59 41 60 34 61 40 62 42 63 39 64 35 65 36 66 37 67
REMARK SMILES IDX 38 68 64 69 65 70 73 71 66 72 72 73 74 74 71 75 67 76 68 77
REMARK SMILES IDX 69 78 70 79 49 80 50 81 58 82 51 83 57 84 59 85 56 86 52 87
REMARK SMILES IDX 53 88 54 89 55 90
REMARK H PARENT 13 6 3 13 20 24 79 43 47 54
REMARK Flexibility Score: inf
ROOT
ATOM      1  C   UNL     1       3.193   2.266   1.905  1.00  0.00     0.021 C 
ENDROOT
BRANCH   1   2
ATOM      2  C   UNL     1       2.458   0.970   2.221  1.00  0.00     0.116 C 
BRANCH   2   3
ATOM      3  N   UNL     1       1.511   0.586   1.195  1.00  0.00    -0.353 N 
ATOM      4  C   UNL     1       0.927  -0.633   0.979  1.00  0.00     0.265 C 
ATOM      5  O   UNL     1       0.139  -0.717   0.029  1.00  0.00    -0.271 OA
ATOM      6  H   UNL     1       1.253   1.298   0.567  1.00  0.00     0.163 HD
BRANCH   4   7
ATOM      7  C   UNL     1       1.213  -1.836   1.886  1.00  0.00     0.313 C 
ATOM      8  F   UNL     1       2.390  -1.776   2.567  1.00  0.00    -0.225 F 
BRANCH   7   9
ATOM      9  S   UNL     1      -0.141  -2.165   3.055  1.00  0.00    -0.110 SA
BRANCH   9  10
ATOM     10  C   UNL     1       0.145  -0.868   4.311  1.00  0.00     0.134 C 
BRANCH  10  11
ATOM     11  C   UNL     1      -0.605   0.477   4.140  1.00  0.00     0.273 C 
BRANCH  11  12
ATOM     12  N   UNL     1      -2.059   0.593   4.319  1.00  0.00    -0.335 N 
ATOM     13  H   UNL     1      -2.212   1.523   3.931  1.00  0.00     0.348 HD
BRANCH  12  14
ATOM     14  C   UNL     1      -2.900  -0.256   3.477  1.00  0.00     0.258 C 
ATOM     15  C   UNL     1      -2.753   0.049   1.989  1.00  0.00     0.071 C 
ENDBRANCH  12  14
BRANCH  12  16
ATOM     16  C   UNL     1      -2.520   0.680   5.707  1.00  0.00     0.258 C 
ATOM     17  C   UNL     1      -2.204  -0.497   6.618  1.00  0.00     0.071 C 
ENDBRANCH  12  16
ENDBRANCH  11  12
ENDBRANCH  10  11
ENDBRANCH   9  10
ENDBRANCH   7   9
ENDBRANCH   4   7
ENDBRANCH   2   3
ENDBRANCH   1   2
BRANCH   1  18
ATOM     18  C   UNL     1       2.324   3.520   1.775  1.00  0.00     0.002 C 
BRANCH  18  19
ATOM     19  C   UNL     1       1.405   3.857   2.952  1.00  0.00     0.002 C 
BRANCH  19  20
ATOM     20  C   UNL     1       2.053   3.925   4.335  1.00  0.00     0.021 C 
BRANCH  20  21
ATOM     21  C   UNL     1       3.321   4.765   4.444  1.00  0.00     0.116 C 
BRANCH  21  22
ATOM     22  N   UNL     1       3.145   6.144   4.029  1.00  0.00    -0.352 N 
ATOM     23  C   UNL     1       3.688   7.285   4.569  1.00  0.00     0.251 C 
ATOM     24  H   UNL     1       2.555   6.280   3.253  1.00  0.00     0.163 HD
ATOM     25  O   UNL     1       3.353   8.382   4.128  1.00  0.00    -0.269 OA
BRANCH  23  26
ATOM     26  C   UNL     1       4.631   7.196   5.709  1.00  0.00     0.039 A 
ATOM     27  C   UNL     1       4.461   8.069   6.786  1.00  0.00     0.014 A 
ATOM     28  C   UNL     1       5.667   6.257   5.731  1.00  0.00     0.014 A 
ATOM     29  C   UNL     1       5.283   7.956   7.911  1.00  0.00     0.010 A 
ATOM     30  C   UNL     1       6.436   6.096   6.883  1.00  0.00     0.010 A 
ATOM     31  C   UNL     1       6.252   6.942   7.987  1.00  0.00    -0.014 A 
BRANCH  31  32
ATOM     32  C   UNL     1       7.076   6.758   9.212  1.00  0.00     0.031 A 
ATOM     33  C   UNL     1       8.570   6.936   9.156  1.00  0.00     0.074 A 
ATOM     34  C   UNL     1       6.484   6.380  10.364  1.00  0.00     0.049 A 
ATOM     35  N   UNL     1       9.461   6.763  10.098  1.00  0.00    -0.248 NA
ATOM     36  C   UNL     1       9.138   7.337   7.860  1.00  0.00     0.031 C 
ATOM     37  C   UNL     1       5.050   6.138  10.536  1.00  0.00     0.029 A 
ATOM     38  N   UNL     1       7.011   6.127  11.606  1.00  0.00    -0.354 N 
ATOM     39  C   UNL     1      10.694   7.023   9.509  1.00  0.00     0.074 A 
ATOM     40  C   UNL     1      10.438   7.303   8.112  1.00  0.00     0.031 C 
ATOM     41  C   UNL     1       4.810   5.801  11.813  1.00  0.00     0.029 A 
ATOM     42  C   UNL     1       6.073   5.751  12.541  1.00  0.00     0.049 A 
ATOM     43  H   UNL     1       7.971   6.207  11.810  1.00  0.00     0.167 HD
ATOM     44  C   UNL     1      11.922   7.048  10.084  1.00  0.00     0.034 A 
ATOM     45  C   UNL     1       6.215   5.393  13.833  1.00  0.00     0.034 A 
ATOM     46  C   UNL     1      12.159   6.776  11.482  1.00  0.00     0.049 A 
ATOM     47  C   UNL     1       7.595   5.398  14.443  1.00  0.00     0.074 A 
ATOM     48  C   UNL     1      13.354   6.826  12.178  1.00  0.00     0.029 A 
ATOM     49  N   UNL     1      11.185   6.392  12.396  1.00  0.00    -0.354 N 
ATOM     50  N   UNL     1       8.745   5.697  13.883  1.00  0.00    -0.248 NA
ATOM     51  C   UNL     1       7.695   5.028  15.860  1.00  0.00     0.031 C 
ATOM     52  C   UNL     1      13.118   6.399  13.489  1.00  0.00     0.029 A 
ATOM     53  C   UNL     1      11.760   6.167  13.639  1.00  0.00     0.049 A 
ATOM     54  H   UNL     1      10.227   6.293  12.191  1.00  0.00     0.167 HD
ATOM     55  C   UNL     1       9.698   5.585  14.892  1.00  0.00     0.074 A 
ATOM     56  C   UNL     1       8.986   5.207  16.095  1.00  0.00     0.031 C 
ATOM     57  C   UNL     1      11.041   5.780  14.830  1.00  0.00     0.034 A 
BRANCH  44  58
ATOM     58  C   UNL     1      13.104   7.356   9.194  1.00  0.00     0.023 A 
ATOM     59  C   UNL     1      13.229   8.589   8.530  1.00  0.00     0.031 A 
ATOM     60  C   UNL     1      14.114   6.398   8.993  1.00  0.00     0.131 A 
ATOM     61  C   UNL     1      14.294   8.803   7.641  1.00  0.00     0.055 A 
ATOM     62  C   UNL     1      15.216   6.650   8.175  1.00  0.00     0.041 A 
ATOM     63  F   UNL     1      14.040   5.194   9.582  1.00  0.00    -0.206 F 
ATOM     64  C   UNL     1      15.304   7.853   7.480  1.00  0.00     0.022 A 
BRANCH  61  65
ATOM     65  S   UNL     1      14.261  10.281   6.590  1.00  0.00     0.124 S 
ATOM     66  O   UNL     1      13.000  10.104   5.873  1.00  0.00    -0.237 OA
ATOM     67  O   UNL     1      14.296  11.364   7.566  1.00  0.00    -0.237 OA
ATOM     68  O   UNL     1      15.461  10.143   5.767  1.00  0.00    -0.744 OA
ENDBRANCH  61  65
ENDBRANCH  44  58
BRANCH  45  69
ATOM     69  C   UNL     1       5.028   4.984  14.642  1.00  0.00     0.023 A 
ATOM     70  C   UNL     1       4.632   5.719  15.771  1.00  0.00     0.031 A 
ATOM     71  C   UNL     1       4.303   3.821  14.327  1.00  0.00     0.131 A 
ATOM     72  C   UNL     1       3.579   5.255  16.575  1.00  0.00     0.055 A 
ATOM     73  C   UNL     1       3.217   3.397  15.095  1.00  0.00     0.041 A 
ATOM     74  F   UNL     1       4.636   3.081  13.258  1.00  0.00    -0.206 F 
ATOM     75  C   UNL     1       2.859   4.107  16.236  1.00  0.00     0.022 A 
BRANCH  72  76
ATOM     76  S   UNL     1       3.226   6.121  18.130  1.00  0.00     0.124 S 
ATOM     77  O   UNL     1       4.511   6.034  18.814  1.00  0.00    -0.237 OA
ATOM     78  O   UNL     1       2.838   7.445  17.657  1.00  0.00    -0.237 OA
ATOM     79  O   UNL     1       2.148   5.331  18.721  1.00  0.00    -0.744 OA
ENDBRANCH  72  76
ENDBRANCH  45  69
BRANCH  57  80
ATOM     80  C   UNL     1      11.816   5.636  16.118  1.00  0.00     0.023 A 
ATOM     81  C   UNL     1      11.930   4.402  16.783  1.00  0.00     0.031 A 
ATOM     82  C   UNL     1      12.442   6.756  16.695  1.00  0.00     0.131 A 
ATOM     83  C   UNL     1      12.599   4.330  18.014  1.00  0.00     0.055 A 
ATOM     84  C   UNL     1      13.164   6.664  17.886  1.00  0.00     0.041 A 
ATOM     85  F   UNL     1      12.364   7.960  16.107  1.00  0.00    -0.206 F 
ATOM     86  C   UNL     1      13.233   5.449  18.560  1.00  0.00     0.022 A 
BRANCH  83  87
ATOM     87  S   UNL     1      12.543   2.775  18.946  1.00  0.00     0.124 S 
ATOM     88  O   UNL     1      11.107   2.571  19.110  1.00  0.00    -0.237 OA
ATOM     89  O   UNL     1      13.220   1.847  18.046  1.00  0.00    -0.237 OA
ATOM     90  O   UNL     1      13.270   3.085  20.176  1.00  0.00    -0.744 OA
ENDBRANCH  83  87
ENDBRANCH  57  80
ENDBRANCH  31  32
ENDBRANCH  23  26
ENDBRANCH  21  22
ENDBRANCH  20  21
ENDBRANCH  19  20
ENDBRANCH  18  19
ENDBRANCH   1  18
TORSDOF 22
