REMARK SMILES O=C(Cn1cccc1C(=O)NCCC(=O)NC1CC1)NCCCCCCNC(=O)c1ccc(-c2c3nc(c(-c4cc(S(=O)(=O)[O-])ccc4F)c4ccc([nH]4)c(-c4cc(S(=O)(=O)[O-])ccc4F)c4nc(c(-c5cc(S(=O)(=O)[O-])ccc5F)c5ccc2[nH]5)C=C4)C=C3)cc1
REMARK SMILES IDX 22 1 21 2 20 3 1 4 2 5 3 7 4 8 5 9 8 10 6 11 7 12 9 13 10 14
REMARK SMILES IDX 11 15 12 17 13 18 14 19 15 20 16 21 17 23 18 24 19 25 23 26
REMARK SMILES IDX 24 27 25 28 26 29 27 30 28 31 29 33 30 34 31 35 92 36 32 37
REMARK SMILES IDX 91 38 33 39 34 40 35 41 85 42 36 43 90 44 84 45 86 46 37 47
REMARK SMILES IDX 89 48 83 49 82 50 38 52 70 53 50 54 69 55 51 56 54 57 68 58
REMARK SMILES IDX 87 59 52 60 53 61 67 63 88 64 55 65 39 66 40 67 48 68 41 69
REMARK SMILES IDX 47 70 49 71 46 72 42 73 43 74 44 75 45 76 71 77 72 78 80 79
REMARK SMILES IDX 73 80 79 81 81 82 78 83 74 84 75 85 76 86 77 87 56 88 57 89
REMARK SMILES IDX 65 90 58 91 64 92 66 93 63 94 59 95 60 96 61 97 62 98
REMARK H PARENT 20 6 11 16 16 22 27 32 86 51 54 62
REMARK Flexibility Score: inf
ROOT
ATOM      1  C   UNL     1       4.148  -0.916  -3.007  1.00  0.00     0.021 C 
ENDROOT
BRANCH   1   2
ATOM      2  C   UNL     1       4.089  -0.951  -1.489  1.00  0.00     0.116 C 
BRANCH   2   3
ATOM      3  N   UNL     1       4.602   0.207  -0.801  1.00  0.00    -0.355 N 
ATOM      4  O   UNL     1       2.906   1.744  -1.060  1.00  0.00    -0.273 OA
ATOM      5  C   UNL     1       3.733   1.178  -0.352  1.00  0.00     0.239 C 
ATOM      6  H   UNL     1       5.570   0.304  -0.653  1.00  0.00     0.163 HD
BRANCH   5   7
ATOM      7  C   UNL     1       3.876   1.543   1.092  1.00  0.00     0.222 C 
BRANCH   7   8
ATOM      8  N   UNL     1       4.011   0.418   2.013  1.00  0.00    -0.334 N 
ATOM      9  C   UNL     1       5.005   0.507   2.986  1.00  0.00     0.087 A 
ATOM     10  C   UNL     1       3.372  -0.816   2.109  1.00  0.00     0.107 A 
ATOM     11  C   UNL     1       5.133  -0.696   3.616  1.00  0.00     0.020 A 
ATOM     12  C   UNL     1       4.137  -1.510   3.069  1.00  0.00     0.033 A 
BRANCH  10  13
ATOM     13  C   UNL     1       2.263  -1.551   1.491  1.00  0.00     0.267 C 
ATOM     14  O   UNL     1       2.117  -2.746   1.805  1.00  0.00    -0.268 OA
ATOM     15  N   UNL     1       1.284  -1.218   0.610  1.00  0.00    -0.350 N 
ATOM     16  H   UNL     1       0.862  -2.054   0.305  1.00  0.00     0.163 HD
BRANCH  15  17
ATOM     17  C   UNL     1       0.614  -0.120  -0.058  1.00  0.00     0.126 C 
BRANCH  17  18
ATOM     18  C   UNL     1       0.677  -0.067  -1.590  1.00  0.00     0.121 C 
BRANCH  18  19
ATOM     19  C   UNL     1       0.162  -1.084  -2.599  1.00  0.00     0.221 C 
ATOM     20  O   UNL     1      -0.360  -0.660  -3.642  1.00  0.00    -0.275 OA
ATOM     21  N   UNL     1       0.366  -2.426  -2.574  1.00  0.00    -0.353 N 
ATOM     22  H   UNL     1       0.298  -2.845  -3.461  1.00  0.00     0.163 HD
BRANCH  21  23
ATOM     23  C   UNL     1       0.655  -3.350  -1.539  1.00  0.00     0.082 C 
ATOM     24  C   UNL     1       1.121  -4.732  -1.956  1.00  0.00     0.027 C 
ATOM     25  C   UNL     1       2.026  -3.841  -1.175  1.00  0.00     0.027 C 
ENDBRANCH  21  23
ENDBRANCH  18  19
ENDBRANCH  17  18
ENDBRANCH  15  17
ENDBRANCH  10  13
ENDBRANCH   7   8
ENDBRANCH   5   7
ENDBRANCH   2   3
ENDBRANCH   1   2
BRANCH   1  26
ATOM     26  C   UNL     1       5.408  -1.591  -3.547  1.00  0.00     0.002 C 
BRANCH  26  27
ATOM     27  C   UNL     1       5.523  -3.089  -3.214  1.00  0.00     0.002 C 
BRANCH  27  28
ATOM     28  C   UNL     1       4.484  -4.002  -3.882  1.00  0.00     0.021 C 
BRANCH  28  29
ATOM     29  C   UNL     1       4.647  -4.108  -5.386  1.00  0.00     0.116 C 
BRANCH  29  30
ATOM     30  N   UNL     1       5.951  -4.647  -5.721  1.00  0.00    -0.352 N 
ATOM     31  C   UNL     1       6.463  -4.979  -6.947  1.00  0.00     0.251 C 
ATOM     32  H   UNL     1       6.554  -4.795  -4.958  1.00  0.00     0.163 HD
ATOM     33  O   UNL     1       7.426  -5.725  -7.014  1.00  0.00    -0.269 OA
BRANCH  31  34
ATOM     34  C   UNL     1       5.838  -4.450  -8.174  1.00  0.00     0.039 A 
ATOM     35  C   UNL     1       5.777  -5.291  -9.290  1.00  0.00     0.014 A 
ATOM     36  C   UNL     1       5.390  -3.126  -8.246  1.00  0.00     0.014 A 
ATOM     37  C   UNL     1       5.228  -4.813 -10.469  1.00  0.00     0.010 A 
ATOM     38  C   UNL     1       4.795  -2.660  -9.403  1.00  0.00     0.010 A 
ATOM     39  C   UNL     1       4.727  -3.505 -10.512  1.00  0.00    -0.014 A 
BRANCH  39  40
ATOM     40  C   UNL     1       4.021  -3.055 -11.723  1.00  0.00     0.031 A 
ATOM     41  C   UNL     1       2.588  -3.648 -11.768  1.00  0.00     0.074 A 
ATOM     42  C   UNL     1       4.765  -2.259 -12.556  1.00  0.00     0.049 A 
ATOM     43  N   UNL     1       1.845  -3.986 -12.775  1.00  0.00    -0.248 NA
ATOM     44  C   UNL     1       1.917  -4.023 -10.485  1.00  0.00     0.031 C 
ATOM     45  C   UNL     1       6.144  -1.769 -12.275  1.00  0.00     0.029 A 
ATOM     46  N   UNL     1       4.547  -1.695 -13.791  1.00  0.00    -0.354 N 
ATOM     47  C   UNL     1       0.569  -4.358 -12.274  1.00  0.00     0.074 A 
ATOM     48  C   UNL     1       0.728  -4.504 -10.861  1.00  0.00     0.031 C 
ATOM     49  C   UNL     1       6.651  -1.082 -13.325  1.00  0.00     0.029 A 
ATOM     50  C   UNL     1       5.670  -1.045 -14.388  1.00  0.00     0.049 A 
ATOM     51  H   UNL     1       3.670  -1.736 -14.237  1.00  0.00     0.167 HD
ATOM     52  C   UNL     1      -0.562  -4.370 -13.049  1.00  0.00     0.034 A 
ATOM     53  C   UNL     1       5.807  -0.570 -15.668  1.00  0.00     0.034 A 
ATOM     54  C   UNL     1      -0.211  -3.991 -14.376  1.00  0.00     0.049 A 
ATOM     55  C   UNL     1       4.465  -0.747 -16.241  1.00  0.00     0.074 A 
ATOM     56  C   UNL     1       0.460  -4.647 -15.372  1.00  0.00     0.029 A 
ATOM     57  N   UNL     1      -0.267  -2.648 -14.672  1.00  0.00    -0.354 N 
ATOM     58  N   UNL     1       3.435  -0.020 -15.941  1.00  0.00    -0.248 NA
ATOM     59  C   UNL     1       4.220  -1.893 -17.124  1.00  0.00     0.031 C 
ATOM     60  C   UNL     1       1.245  -3.622 -15.934  1.00  0.00     0.029 A 
ATOM     61  C   UNL     1       0.823  -2.372 -15.457  1.00  0.00     0.049 A 
ATOM     62  H   UNL     1      -0.956  -2.009 -14.377  1.00  0.00     0.167 HD
ATOM     63  C   UNL     1       2.385  -0.812 -16.327  1.00  0.00     0.074 A 
ATOM     64  C   UNL     1       2.912  -1.735 -17.310  1.00  0.00     0.031 C 
ATOM     65  C   UNL     1       1.351  -1.024 -15.469  1.00  0.00     0.034 A 
BRANCH  52  66
ATOM     66  C   UNL     1      -2.045  -4.458 -12.768  1.00  0.00     0.023 A 
ATOM     67  C   UNL     1      -2.885  -4.598 -13.906  1.00  0.00     0.031 A 
ATOM     68  C   UNL     1      -2.683  -4.109 -11.573  1.00  0.00     0.131 A 
ATOM     69  C   UNL     1      -4.236  -4.231 -13.880  1.00  0.00     0.055 A 
ATOM     70  C   UNL     1      -4.058  -3.814 -11.531  1.00  0.00     0.041 A 
ATOM     71  F   UNL     1      -2.001  -3.959 -10.431  1.00  0.00    -0.206 F 
ATOM     72  C   UNL     1      -4.832  -3.831 -12.692  1.00  0.00     0.022 A 
BRANCH  69  73
ATOM     73  S   UNL     1      -5.117  -4.101 -15.465  1.00  0.00     0.124 S 
ATOM     74  O   UNL     1      -4.257  -3.200 -16.223  1.00  0.00    -0.237 OA
ATOM     75  O   UNL     1      -5.143  -5.489 -15.915  1.00  0.00    -0.237 OA
ATOM     76  O   UNL     1      -6.416  -3.547 -15.086  1.00  0.00    -0.744 OA
ENDBRANCH  69  73
ENDBRANCH  52  66
BRANCH  53  77
ATOM     77  C   UNL     1       6.873  -0.059 -16.628  1.00  0.00     0.023 A 
ATOM     78  C   UNL     1       8.209   0.269 -16.330  1.00  0.00     0.031 A 
ATOM     79  C   UNL     1       6.541   0.043 -18.019  1.00  0.00     0.131 A 
ATOM     80  C   UNL     1       9.127   0.570 -17.383  1.00  0.00     0.055 A 
ATOM     81  C   UNL     1       7.460   0.242 -19.047  1.00  0.00     0.041 A 
ATOM     82  F   UNL     1       5.281  -0.057 -18.464  1.00  0.00    -0.206 F 
ATOM     83  C   UNL     1       8.771   0.489 -18.733  1.00  0.00     0.022 A 
BRANCH  80  84
ATOM     84  S   UNL     1      10.846   1.067 -17.048  1.00  0.00     0.124 S 
ATOM     85  O   UNL     1      10.722   2.515 -16.916  1.00  0.00    -0.237 OA
ATOM     86  O   UNL     1      11.169   0.335 -15.829  1.00  0.00    -0.237 OA
ATOM     87  O   UNL     1      11.564   0.616 -18.241  1.00  0.00    -0.744 OA
ENDBRANCH  80  84
ENDBRANCH  53  77
BRANCH  65  88
ATOM     88  C   UNL     1       1.192   0.049 -14.383  1.00  0.00     0.023 A 
ATOM     89  C   UNL     1       1.151   1.413 -14.743  1.00  0.00     0.031 A 
ATOM     90  C   UNL     1       1.211  -0.210 -12.999  1.00  0.00     0.131 A 
ATOM     91  C   UNL     1       1.188   2.431 -13.768  1.00  0.00     0.055 A 
ATOM     92  C   UNL     1       1.232   0.800 -12.025  1.00  0.00     0.041 A 
ATOM     93  F   UNL     1       1.221  -1.457 -12.530  1.00  0.00    -0.206 F 
ATOM     94  C   UNL     1       1.229   2.132 -12.408  1.00  0.00     0.022 A 
BRANCH  91  95
ATOM     95  S   UNL     1       1.178   4.166 -14.300  1.00  0.00     0.124 S 
ATOM     96  O   UNL     1       2.495   4.324 -14.906  1.00  0.00    -0.237 OA
ATOM     97  O   UNL     1       0.042   4.209 -15.216  1.00  0.00    -0.237 OA
ATOM     98  O   UNL     1       0.983   4.905 -13.052  1.00  0.00    -0.744 OA
ENDBRANCH  91  95
ENDBRANCH  65  88
ENDBRANCH  39  40
ENDBRANCH  31  34
ENDBRANCH  29  30
ENDBRANCH  28  29
ENDBRANCH  27  28
ENDBRANCH  26  27
ENDBRANCH   1  26
TORSDOF 22
