REMARK SMILES O=C(CCSC1=NC=NC2=[NH+]C=N[C@@H]12)NCCCCCCNC(=O)c1ccc(-c2c3nc(c(-c4cc(S(=O)(=O)[O-])ccc4F)c4ccc([nH]4)c(-c4cc(S(=O)(=O)[O-])ccc4F)c4nc(c(-c5cc(S(=O)(=O)[O-])ccc5F)c5ccc2[nH]5)C=C4)C=C3)cc1
REMARK SMILES IDX 18 1 17 2 16 3 15 4 1 5 2 6 3 8 4 9 5 10 6 11 7 12 14 13
REMARK SMILES IDX 8 14 10 15 13 16 9 17 11 18 12 19 19 21 20 22 21 23 22 24
REMARK SMILES IDX 23 25 24 27 25 28 26 29 87 30 27 31 86 32 28 33 29 34 30 35
REMARK SMILES IDX 80 36 31 37 85 38 79 39 81 40 32 41 84 42 78 43 77 44 33 46
REMARK SMILES IDX 65 47 45 48 64 49 46 50 49 51 63 52 82 53 47 54 48 55 62 57
REMARK SMILES IDX 83 58 50 59 34 60 35 61 43 62 36 63 42 64 44 65 41 66 37 67
REMARK SMILES IDX 38 68 39 69 40 70 66 71 67 72 75 73 68 74 74 75 76 76 73 77
REMARK SMILES IDX 69 78 70 79 71 80 72 81 51 82 52 83 60 84 53 85 59 86 61 87
REMARK SMILES IDX 58 88 54 89 55 90 56 91 57 92
REMARK H PARENT 15 7 11 20 22 26 81 45 49 56
REMARK Flexibility Score: inf
ROOT
ATOM      1  C   UNL     1       3.374   3.889  -2.079  1.00  0.00     0.002 C 
ENDROOT
BRANCH   1   2
ATOM      2  C   UNL     1       2.005   3.522  -1.491  1.00  0.00     0.021 C 
BRANCH   2   3
ATOM      3  C   UNL     1       1.705   2.025  -1.360  1.00  0.00     0.116 C 
BRANCH   3   4
ATOM      4  N   UNL     1       2.534   1.318  -0.398  1.00  0.00    -0.356 N 
ATOM      5  O   UNL     1       1.138  -0.502  -0.312  1.00  0.00    -0.275 OA
ATOM      6  C   UNL     1       2.173   0.060   0.040  1.00  0.00     0.220 C 
ATOM      7  H   UNL     1       3.357   1.739  -0.057  1.00  0.00     0.163 HD
BRANCH   6   8
ATOM      8  C   UNL     1       3.131  -0.587   1.021  1.00  0.00     0.111 C 
BRANCH   8   9
ATOM      9  C   UNL     1       3.497  -2.008   0.590  1.00  0.00     0.086 C 
BRANCH   9  10
ATOM     10  S   UNL     1       5.181  -2.143  -0.096  1.00  0.00    -0.106 SA
BRANCH  10  11
ATOM     11  C   UNL     1       5.023  -1.187  -1.551  1.00  0.00     0.128 C 
ATOM     12  N   UNL     1       3.923  -1.218  -2.234  1.00  0.00    -0.214 NA
ATOM     13  C   UNL     1       6.223  -0.428  -2.012  1.00  0.00     0.340 C 
ATOM     14  C   UNL     1       3.858  -0.487  -3.396  1.00  0.00     0.320 C 
ATOM     15  C   UNL     1       5.695   0.651  -2.864  1.00  0.00     0.285 C 
ATOM     16  N   UNL     1       6.931   0.358  -0.973  1.00  0.00    -0.130 NA
ATOM     17  N   UNL     1       4.716   0.410  -3.766  1.00  0.00    -0.092 NA
ATOM     18  N   UNL     1       6.158   1.809  -2.562  1.00  0.00    -0.248 N 
ATOM     19  C   UNL     1       6.891   1.576  -1.428  1.00  0.00     0.362 C 
ATOM     20  H   UNL     1       6.020   2.663  -3.033  1.00  0.00     0.266 HD
ENDBRANCH  10  11
ENDBRANCH   9  10
ENDBRANCH   8   9
ENDBRANCH   6   8
ENDBRANCH   3   4
ENDBRANCH   2   3
ENDBRANCH   1   2
BRANCH   1  21
ATOM     21  C   UNL     1       3.600   3.490  -3.545  1.00  0.00     0.002 C 
BRANCH  21  22
ATOM     22  C   UNL     1       3.018   4.398  -4.630  1.00  0.00     0.021 C 
BRANCH  22  23
ATOM     23  C   UNL     1       3.671   5.773  -4.716  1.00  0.00     0.116 C 
BRANCH  23  24
ATOM     24  N   UNL     1       5.086   5.744  -5.096  1.00  0.00    -0.352 N 
ATOM     25  C   UNL     1       5.936   6.834  -5.176  1.00  0.00     0.251 C 
ATOM     26  H   UNL     1       5.469   4.864  -5.315  1.00  0.00     0.163 HD
ATOM     27  O   UNL     1       7.002   6.782  -5.777  1.00  0.00    -0.269 OA
BRANCH  25  28
ATOM     28  C   UNL     1       5.495   8.073  -4.511  1.00  0.00     0.039 A 
ATOM     29  C   UNL     1       5.237   9.225  -5.252  1.00  0.00     0.014 A 
ATOM     30  C   UNL     1       5.139   7.977  -3.165  1.00  0.00     0.014 A 
ATOM     31  C   UNL     1       4.480  10.235  -4.663  1.00  0.00     0.010 A 
ATOM     32  C   UNL     1       4.308   8.935  -2.621  1.00  0.00     0.010 A 
ATOM     33  C   UNL     1       3.956  10.061  -3.367  1.00  0.00    -0.014 A 
BRANCH  33  34
ATOM     34  C   UNL     1       2.867  10.935  -2.905  1.00  0.00     0.031 A 
ATOM     35  C   UNL     1       1.749  11.097  -3.883  1.00  0.00     0.074 A 
ATOM     36  C   UNL     1       2.719  11.397  -1.644  1.00  0.00     0.049 A 
ATOM     37  N   UNL     1       1.448  12.150  -4.568  1.00  0.00    -0.248 NA
ATOM     38  C   UNL     1       0.968   9.909  -4.265  1.00  0.00     0.031 C 
ATOM     39  C   UNL     1       3.554  11.094  -0.479  1.00  0.00     0.029 A 
ATOM     40  N   UNL     1       1.723  12.167  -1.111  1.00  0.00    -0.354 N 
ATOM     41  C   UNL     1       0.289  11.840  -5.278  1.00  0.00     0.074 A 
ATOM     42  C   UNL     1       0.170  10.409  -5.212  1.00  0.00     0.031 C 
ATOM     43  C   UNL     1       2.922  11.482   0.650  1.00  0.00     0.029 A 
ATOM     44  C   UNL     1       1.730  12.225   0.281  1.00  0.00     0.049 A 
ATOM     45  H   UNL     1       1.059  12.640  -1.663  1.00  0.00     0.167 HD
ATOM     46  C   UNL     1      -0.590  12.820  -5.640  1.00  0.00     0.034 A 
ATOM     47  C   UNL     1       0.848  12.858   1.096  1.00  0.00     0.034 A 
ATOM     48  C   UNL     1       0.019  14.122  -5.468  1.00  0.00     0.049 A 
ATOM     49  C   UNL     1       0.230  13.940   0.302  1.00  0.00     0.074 A 
ATOM     50  C   UNL     1       1.067  14.810  -6.042  1.00  0.00     0.029 A 
ATOM     51  N   UNL     1      -0.265  14.758  -4.282  1.00  0.00    -0.354 N 
ATOM     52  N   UNL     1       0.906  14.952  -0.164  1.00  0.00    -0.248 NA
ATOM     53  C   UNL     1      -1.067  13.726  -0.322  1.00  0.00     0.031 C 
ATOM     54  C   UNL     1       1.619  15.603  -4.991  1.00  0.00     0.029 A 
ATOM     55  C   UNL     1       0.848  15.422  -3.840  1.00  0.00     0.049 A 
ATOM     56  H   UNL     1      -1.135  14.738  -3.822  1.00  0.00     0.167 HD
ATOM     57  C   UNL     1       0.350  15.207  -1.404  1.00  0.00     0.074 A 
ATOM     58  C   UNL     1      -0.953  14.553  -1.366  1.00  0.00     0.031 C 
ATOM     59  C   UNL     1       1.122  15.666  -2.432  1.00  0.00     0.034 A 
BRANCH  46  60
ATOM     60  C   UNL     1      -2.106  12.682  -5.715  1.00  0.00     0.023 A 
ATOM     61  C   UNL     1      -2.845  13.870  -5.921  1.00  0.00     0.031 A 
ATOM     62  C   UNL     1      -2.867  11.565  -5.309  1.00  0.00     0.131 A 
ATOM     63  C   UNL     1      -4.210  13.951  -5.591  1.00  0.00     0.055 A 
ATOM     64  C   UNL     1      -4.239  11.636  -5.034  1.00  0.00     0.041 A 
ATOM     65  F   UNL     1      -2.331  10.363  -5.080  1.00  0.00    -0.206 F 
ATOM     66  C   UNL     1      -4.911  12.841  -5.137  1.00  0.00     0.022 A 
BRANCH  63  67
ATOM     67  S   UNL     1      -5.004  15.581  -5.587  1.00  0.00     0.124 S 
ATOM     68  O   UNL     1      -4.126  16.331  -4.696  1.00  0.00    -0.237 OA
ATOM     69  O   UNL     1      -4.954  15.942  -7.000  1.00  0.00    -0.237 OA
ATOM     70  O   UNL     1      -6.339  15.306  -5.061  1.00  0.00    -0.744 OA
ENDBRANCH  63  67
ENDBRANCH  46  60
BRANCH  47  71
ATOM     71  C   UNL     1       0.376  12.439   2.441  1.00  0.00     0.023 A 
ATOM     72  C   UNL     1      -0.177  13.335   3.380  1.00  0.00     0.031 A 
ATOM     73  C   UNL     1       0.237  11.060   2.717  1.00  0.00     0.131 A 
ATOM     74  C   UNL     1      -0.845  12.840   4.526  1.00  0.00     0.055 A 
ATOM     75  C   UNL     1      -0.423  10.578   3.848  1.00  0.00     0.041 A 
ATOM     76  F   UNL     1       0.667  10.134   1.845  1.00  0.00    -0.206 F 
ATOM     77  C   UNL     1      -0.979  11.468   4.753  1.00  0.00     0.022 A 
BRANCH  74  78
ATOM     78  S   UNL     1      -1.642  13.986   5.699  1.00  0.00     0.124 S 
ATOM     79  O   UNL     1      -0.499  14.672   6.290  1.00  0.00    -0.237 OA
ATOM     80  O   UNL     1      -2.499  14.781   4.827  1.00  0.00    -0.237 OA
ATOM     81  O   UNL     1      -2.360  13.095   6.612  1.00  0.00    -0.744 OA
ENDBRANCH  74  78
ENDBRANCH  47  71
BRANCH  59  82
ATOM     82  C   UNL     1       2.436  16.334  -2.080  1.00  0.00     0.023 A 
ATOM     83  C   UNL     1       3.502  15.727  -1.379  1.00  0.00     0.031 A 
ATOM     84  C   UNL     1       2.626  17.646  -2.550  1.00  0.00     0.131 A 
ATOM     85  C   UNL     1       4.697  16.442  -1.161  1.00  0.00     0.055 A 
ATOM     86  C   UNL     1       3.817  18.340  -2.354  1.00  0.00     0.041 A 
ATOM     87  F   UNL     1       1.655  18.270  -3.238  1.00  0.00    -0.206 F 
ATOM     88  C   UNL     1       4.856  17.742  -1.652  1.00  0.00     0.022 A 
BRANCH  85  89
ATOM     89  S   UNL     1       6.062  15.704  -0.205  1.00  0.00     0.124 S 
ATOM     90  O   UNL     1       5.402  15.159   0.975  1.00  0.00    -0.237 OA
ATOM     91  O   UNL     1       6.609  14.724  -1.140  1.00  0.00    -0.237 OA
ATOM     92  O   UNL     1       6.943  16.843   0.062  1.00  0.00    -0.744 OA
ENDBRANCH  85  89
ENDBRANCH  59  82
ENDBRANCH  33  34
ENDBRANCH  25  28
ENDBRANCH  23  24
ENDBRANCH  22  23
ENDBRANCH  21  22
ENDBRANCH   1  21
TORSDOF 19
