REMARK SMILES CC(C)[C@@H](CO)Nc1ccc(C(=O)NCCCCCCNC(=O)c2ccc(-c3c4nc(c(-c5cc(S(=O)(=O)[O-])ccc5F)c5ccc([nH]5)c(-c5cc(S(=O)(=O)[O-])ccc5F)c5nc(c(-c6cc(S(=O)(=O)[O-])ccc6F)c6ccc3[nH]6)C=C5)C=C4)cc2)nn1
REMARK SMILES IDX 17 1 16 2 15 3 14 4 12 5 13 6 11 8 8 9 9 10 88 11 10 12
REMARK SMILES IDX 87 13 7 14 4 16 2 17 1 18 3 19 5 20 6 21 18 23 19 24 20 25
REMARK SMILES IDX 21 26 22 27 23 29 24 30 25 31 86 32 26 33 85 34 27 35 28 36
REMARK SMILES IDX 29 37 79 38 30 39 84 40 78 41 80 42 31 43 83 44 77 45 76 46
REMARK SMILES IDX 32 48 64 49 44 50 63 51 45 52 48 53 62 54 81 55 46 56 47 57
REMARK SMILES IDX 61 59 82 60 49 61 33 62 34 63 42 64 35 65 41 66 43 67 40 68
REMARK SMILES IDX 36 69 37 70 38 71 39 72 65 73 66 74 74 75 67 76 73 77 75 78
REMARK SMILES IDX 72 79 68 80 69 81 70 82 71 83 50 84 51 85 59 86 52 87 58 88
REMARK SMILES IDX 60 89 57 90 53 91 54 92 55 93 56 94
REMARK H PARENT 14 7 7 15 6 22 21 28 80 47 48 58
REMARK Flexibility Score: inf
ROOT
ATOM      1  C   UNL     1      -8.357  -1.907   5.875  1.00  0.00     0.002 C 
ENDROOT
BRANCH   1   2
ATOM      2  C   UNL     1      -7.298  -1.824   4.767  1.00  0.00     0.021 C 
BRANCH   2   3
ATOM      3  C   UNL     1      -5.875  -1.661   5.308  1.00  0.00     0.116 C 
BRANCH   3   4
ATOM      4  N   UNL     1      -5.334  -2.953   5.681  1.00  0.00    -0.351 N 
ATOM      5  C   UNL     1      -4.455  -3.819   5.072  1.00  0.00     0.271 C 
ATOM      6  O   UNL     1      -4.218  -4.865   5.681  1.00  0.00    -0.267 OA
ATOM      7  H   UNL     1      -5.664  -3.277   6.550  1.00  0.00     0.163 HD
BRANCH   5   8
ATOM      8  C   UNL     1      -3.761  -3.542   3.774  1.00  0.00     0.150 A 
ATOM      9  C   UNL     1      -2.169  -3.123   1.560  1.00  0.00     0.148 A 
ATOM     10  C   UNL     1      -3.350  -2.415   1.702  1.00  0.00     0.051 A 
ATOM     11  N   UNL     1      -1.845  -4.059   2.468  1.00  0.00    -0.132 NA
ATOM     12  C   UNL     1      -4.179  -2.655   2.800  1.00  0.00     0.040 A 
ATOM     13  N   UNL     1      -2.625  -4.253   3.594  1.00  0.00    -0.143 NA
BRANCH   9  14
ATOM     14  N   UNL     1      -1.287  -2.902   0.523  1.00  0.00    -0.363 N 
ATOM     15  H   UNL     1      -0.948  -3.661  -0.004  1.00  0.00     0.162 HD
BRANCH  14  16
ATOM     16  C   UNL     1      -0.853  -1.537   0.205  1.00  0.00     0.108 C 
BRANCH  16  17
ATOM     17  C   UNL     1       0.701  -1.460   0.312  1.00  0.00     0.007 C 
ATOM     18  C   UNL     1       1.227  -0.059  -0.018  1.00  0.00     0.009 C 
ATOM     19  C   UNL     1       1.194  -1.845   1.716  1.00  0.00     0.009 C 
ENDBRANCH  16  17
BRANCH  16  20
ATOM     20  C   UNL     1      -1.404  -1.151  -1.190  1.00  0.00     0.181 C 
BRANCH  20  21
ATOM     21  O   UNL     1      -0.871  -1.948  -2.246  1.00  0.00    -0.394 OA
ATOM     22  H   UNL     1       0.089  -1.824  -2.293  1.00  0.00     0.210 HD
ENDBRANCH  20  21
ENDBRANCH  16  20
ENDBRANCH  14  16
ENDBRANCH   9  14
ENDBRANCH   5   8
ENDBRANCH   3   4
ENDBRANCH   2   3
ENDBRANCH   1   2
BRANCH   1  23
ATOM     23  C   UNL     1      -8.464  -0.656   6.757  1.00  0.00     0.002 C 
BRANCH  23  24
ATOM     24  C   UNL     1      -8.681   0.654   5.994  1.00  0.00     0.021 C 
BRANCH  24  25
ATOM     25  C   UNL     1      -9.970   0.695   5.178  1.00  0.00     0.116 C 
BRANCH  25  26
ATOM     26  N   UNL     1     -11.143   0.602   6.034  1.00  0.00    -0.352 N 
ATOM     27  C   UNL     1     -12.150   1.514   6.229  1.00  0.00     0.251 C 
ATOM     28  H   UNL     1     -11.226  -0.234   6.546  1.00  0.00     0.163 HD
ATOM     29  O   UNL     1     -12.906   1.392   7.187  1.00  0.00    -0.269 OA
BRANCH  27  30
ATOM     30  C   UNL     1     -12.308   2.645   5.289  1.00  0.00     0.039 A 
ATOM     31  C   UNL     1     -12.558   3.921   5.796  1.00  0.00     0.014 A 
ATOM     32  C   UNL     1     -12.220   2.440   3.909  1.00  0.00     0.014 A 
ATOM     33  C   UNL     1     -12.658   5.005   4.921  1.00  0.00     0.010 A 
ATOM     34  C   UNL     1     -12.248   3.530   3.044  1.00  0.00     0.010 A 
ATOM     35  C   UNL     1     -12.467   4.824   3.541  1.00  0.00    -0.014 A 
BRANCH  35  36
ATOM     36  C   UNL     1     -12.487   5.976   2.602  1.00  0.00     0.031 A 
ATOM     37  C   UNL     1     -13.545   6.064   1.536  1.00  0.00     0.074 A 
ATOM     38  C   UNL     1     -11.512   6.905   2.672  1.00  0.00     0.049 A 
ATOM     39  N   UNL     1     -13.678   6.941   0.574  1.00  0.00    -0.248 NA
ATOM     40  C   UNL     1     -14.571   5.011   1.537  1.00  0.00     0.031 C 
ATOM     41  C   UNL     1     -10.414   6.905   3.642  1.00  0.00     0.029 A 
ATOM     42  N   UNL     1     -11.278   8.022   1.909  1.00  0.00    -0.354 N 
ATOM     43  C   UNL     1     -14.796   6.541  -0.151  1.00  0.00     0.074 A 
ATOM     44  C   UNL     1     -15.265   5.310   0.449  1.00  0.00     0.031 C 
ATOM     45  C   UNL     1      -9.638   7.979   3.428  1.00  0.00     0.029 A 
ATOM     46  C   UNL     1     -10.147   8.715   2.276  1.00  0.00     0.049 A 
ATOM     47  H   UNL     1     -11.864   8.300   1.169  1.00  0.00     0.167 HD
ATOM     48  C   UNL     1     -15.384   7.155  -1.207  1.00  0.00     0.034 A 
ATOM     49  C   UNL     1      -9.574   9.809   1.734  1.00  0.00     0.034 A 
ATOM     50  C   UNL     1     -14.905   8.387  -1.786  1.00  0.00     0.049 A 
ATOM     51  C   UNL     1     -10.228  10.453   0.537  1.00  0.00     0.074 A 
ATOM     52  C   UNL     1     -15.458   9.125  -2.819  1.00  0.00     0.029 A 
ATOM     53  N   UNL     1     -13.754   9.058  -1.393  1.00  0.00    -0.354 N 
ATOM     54  N   UNL     1     -11.316  10.091  -0.105  1.00  0.00    -0.248 NA
ATOM     55  C   UNL     1      -9.584  11.657  -0.002  1.00  0.00     0.031 C 
ATOM     56  C   UNL     1     -14.602  10.194  -3.101  1.00  0.00     0.029 A 
ATOM     57  C   UNL     1     -13.559  10.178  -2.188  1.00  0.00     0.049 A 
ATOM     58  H   UNL     1     -13.163   8.780  -0.656  1.00  0.00     0.167 HD
ATOM     59  C   UNL     1     -11.501  11.043  -1.104  1.00  0.00     0.074 A 
ATOM     60  C   UNL     1     -10.424  12.002  -0.966  1.00  0.00     0.031 C 
ATOM     61  C   UNL     1     -12.473  11.119  -2.049  1.00  0.00     0.034 A 
BRANCH  48  62
ATOM     62  C   UNL     1     -16.592   6.486  -1.821  1.00  0.00     0.023 A 
ATOM     63  C   UNL     1     -17.781   6.292  -1.095  1.00  0.00     0.031 A 
ATOM     64  C   UNL     1     -16.551   6.024  -3.149  1.00  0.00     0.131 A 
ATOM     65  C   UNL     1     -18.851   5.593  -1.675  1.00  0.00     0.055 A 
ATOM     66  C   UNL     1     -17.649   5.404  -3.748  1.00  0.00     0.041 A 
ATOM     67  F   UNL     1     -15.438   6.160  -3.886  1.00  0.00    -0.206 F 
ATOM     68  C   UNL     1     -18.803   5.172  -3.006  1.00  0.00     0.022 A 
BRANCH  65  69
ATOM     69  S   UNL     1     -20.249   5.120  -0.622  1.00  0.00     0.124 S 
ATOM     70  O   UNL     1     -19.586   4.317   0.404  1.00  0.00    -0.237 OA
ATOM     71  O   UNL     1     -20.767   6.411  -0.186  1.00  0.00    -0.237 OA
ATOM     72  O   UNL     1     -21.119   4.369  -1.524  1.00  0.00    -0.744 OA
ENDBRANCH  65  69
ENDBRANCH  48  62
BRANCH  49  73
ATOM     73  C   UNL     1      -8.303  10.354   2.294  1.00  0.00     0.023 A 
ATOM     74  C   UNL     1      -8.249  11.645   2.844  1.00  0.00     0.031 A 
ATOM     75  C   UNL     1      -7.110   9.611   2.240  1.00  0.00     0.131 A 
ATOM     76  C   UNL     1      -7.019  12.174   3.268  1.00  0.00     0.055 A 
ATOM     77  C   UNL     1      -5.901  10.119   2.720  1.00  0.00     0.041 A 
ATOM     78  F   UNL     1      -7.104   8.371   1.727  1.00  0.00    -0.206 F 
ATOM     79  C   UNL     1      -5.848  11.415   3.223  1.00  0.00     0.022 A 
BRANCH  76  80
ATOM     80  S   UNL     1      -6.955  13.911   3.785  1.00  0.00     0.124 S 
ATOM     81  O   UNL     1      -7.465  14.592   2.600  1.00  0.00    -0.237 OA
ATOM     82  O   UNL     1      -7.829  13.911   4.953  1.00  0.00    -0.237 OA
ATOM     83  O   UNL     1      -5.538  14.128   4.069  1.00  0.00    -0.744 OA
ENDBRANCH  76  80
ENDBRANCH  49  73
BRANCH  61  84
ATOM     84  C   UNL     1     -12.434  12.308  -2.979  1.00  0.00     0.023 A 
ATOM     85  C   UNL     1     -11.389  12.493  -3.901  1.00  0.00     0.031 A 
ATOM     86  C   UNL     1     -13.452  13.277  -2.932  1.00  0.00     0.131 A 
ATOM     87  C   UNL     1     -11.354  13.649  -4.695  1.00  0.00     0.055 A 
ATOM     88  C   UNL     1     -13.447  14.391  -3.772  1.00  0.00     0.041 A 
ATOM     89  F   UNL     1     -14.473  13.155  -2.068  1.00  0.00    -0.206 F 
ATOM     90  C   UNL     1     -12.387  14.589  -4.651  1.00  0.00     0.022 A 
BRANCH  87  91
ATOM     91  S   UNL     1      -9.887  13.959  -5.717  1.00  0.00     0.124 S 
ATOM     92  O   UNL     1      -8.822  13.976  -4.720  1.00  0.00    -0.237 OA
ATOM     93  O   UNL     1      -9.892  12.817  -6.625  1.00  0.00    -0.237 OA
ATOM     94  O   UNL     1     -10.172  15.249  -6.343  1.00  0.00    -0.744 OA
ENDBRANCH  87  91
ENDBRANCH  61  84
ENDBRANCH  35  36
ENDBRANCH  27  30
ENDBRANCH  25  26
ENDBRANCH  24  25
ENDBRANCH  23  24
ENDBRANCH   1  23
TORSDOF 21
