REMARK SMILES Cc1nc2cc(S(=O)(=O)N3CCC(C(=O)NCCCCCCNC(=O)c4ccc(-c5c6nc(c(-c7cc(S(=O)(=O)[O-])ccc7F)c7ccc([nH]7)c(-c7cc(S(=O)(=O)[O-])ccc7F)c7nc(c(-c8cc(S(=O)(=O)[O-])ccc8F)c8ccc5[nH]8)C=C7)C=C6)cc4)CC3)ccc2n1C1CCCC1
REMARK SMILES IDX 19 1 18 2 17 3 16 4 14 5 15 6 13 8 10 9 11 10 90 11 12 12
REMARK SMILES IDX 89 13 7 14 8 15 9 16 6 17 1 18 2 19 3 20 94 21 4 22 93 23
REMARK SMILES IDX 5 24 92 25 91 26 95 27 96 28 99 29 97 30 98 31 20 32 21 33
REMARK SMILES IDX 22 34 23 35 24 36 25 38 26 39 27 40 88 41 28 42 87 43 29 44
REMARK SMILES IDX 30 45 31 46 81 47 32 48 86 49 80 50 82 51 33 52 85 53 79 54
REMARK SMILES IDX 78 55 34 57 66 58 46 59 65 60 47 61 50 62 64 63 83 64 48 65
REMARK SMILES IDX 49 66 63 68 84 69 51 70 35 71 36 72 44 73 37 74 43 75 45 76
REMARK SMILES IDX 42 77 38 78 39 79 40 80 41 81 67 82 68 83 76 84 69 85 75 86
REMARK SMILES IDX 77 87 74 88 70 89 71 90 72 91 73 92 52 93 53 94 61 95 54 96
REMARK SMILES IDX 60 97 62 98 59 99 55 100 56 101 57 102 58 103
REMARK H PARENT 16 7 23 37 82 56 50 67
REMARK Flexibility Score: inf
ROOT
ATOM      1  C   UNL     1      -2.107   2.631  14.493  1.00  0.00     0.002 C 
ENDROOT
BRANCH   1   2
ATOM      2  C   UNL     1      -1.756   2.006  13.144  1.00  0.00     0.021 C 
BRANCH   2   3
ATOM      3  C   UNL     1      -2.721   2.402  12.034  1.00  0.00     0.116 C 
BRANCH   3   4
ATOM      4  N   UNL     1      -2.502   3.781  11.618  1.00  0.00    -0.356 N 
ATOM      5  C   UNL     1      -2.059   4.284  10.433  1.00  0.00     0.223 C 
ATOM      6  O   UNL     1      -1.887   5.500  10.329  1.00  0.00    -0.275 OA
ATOM      7  H   UNL     1      -2.705   4.457  12.304  1.00  0.00     0.163 HD
BRANCH   5   8
ATOM      8  C   UNL     1      -1.790   3.364   9.253  1.00  0.00     0.081 C 
ATOM      9  N   UNL     1      -1.722   0.694   8.117  1.00  0.00    -0.198 NA
ATOM     10  C   UNL     1      -0.450   1.311   8.559  1.00  0.00     0.103 C 
ATOM     11  C   UNL     1      -2.907   1.544   7.847  1.00  0.00     0.103 C 
ATOM     12  C   UNL     1      -0.626   2.429   9.558  1.00  0.00     0.030 C 
ATOM     13  C   UNL     1      -3.086   2.687   8.818  1.00  0.00     0.030 C 
BRANCH   9  14
ATOM     14  S   UNL     1      -1.521  -0.607   7.001  1.00  0.00     0.243 S 
ATOM     15  O   UNL     1      -2.830  -1.161   6.726  1.00  0.00    -0.207 OA
ATOM     16  O   UNL     1      -0.429  -1.425   7.480  1.00  0.00    -0.207 OA
BRANCH  14  17
ATOM     17  C   UNL     1      -0.959   0.139   5.479  1.00  0.00     0.085 A 
ATOM     18  C   UNL     1       1.021   0.017  -0.158  1.00  0.00     0.088 C 
ATOM     19  C   UNL     1       0.540   0.219   1.231  1.00  0.00     0.106 A 
ATOM     20  N   UNL     1       0.173  -0.752   2.044  1.00  0.00    -0.233 NA
ATOM     21  N   UNL     1       0.433   1.448   1.848  1.00  0.00    -0.325 N 
ATOM     22  C   UNL     1      -0.189  -0.151   3.218  1.00  0.00     0.090 A 
ATOM     23  C   UNL     1      -0.032   1.227   3.125  1.00  0.00     0.068 A 
ATOM     24  C   UNL     1      -0.656  -0.721   4.413  1.00  0.00     0.052 A 
ATOM     25  C   UNL     1      -0.319   2.089   4.179  1.00  0.00     0.030 A 
ATOM     26  C   UNL     1      -0.797   1.520   5.348  1.00  0.00     0.024 A 
BRANCH  21  27
ATOM     27  C   UNL     1       0.753   2.746   1.282  1.00  0.00     0.089 C 
ATOM     28  C   UNL     1      -0.413   3.740   1.270  1.00  0.00     0.025 C 
ATOM     29  C   UNL     1       1.881   3.484   2.012  1.00  0.00     0.025 C 
ATOM     30  C   UNL     1       0.251   5.103   1.144  1.00  0.00     0.002 C 
ATOM     31  C   UNL     1       1.644   4.968   1.751  1.00  0.00     0.002 C 
ENDBRANCH  21  27
ENDBRANCH  14  17
ENDBRANCH   9  14
ENDBRANCH   5   8
ENDBRANCH   3   4
ENDBRANCH   2   3
ENDBRANCH   1   2
BRANCH   1  32
ATOM     32  C   UNL     1      -3.494   2.252  15.024  1.00  0.00     0.002 C 
BRANCH  32  33
ATOM     33  C   UNL     1      -3.768   0.743  15.105  1.00  0.00     0.021 C 
BRANCH  33  34
ATOM     34  C   UNL     1      -2.696  -0.042  15.862  1.00  0.00     0.116 C 
BRANCH  34  35
ATOM     35  N   UNL     1      -2.461   0.470  17.194  1.00  0.00    -0.352 N 
ATOM     36  C   UNL     1      -3.014   0.256  18.422  1.00  0.00     0.251 C 
ATOM     37  H   UNL     1      -1.728   1.128  17.220  1.00  0.00     0.163 HD
ATOM     38  O   UNL     1      -2.491   0.871  19.355  1.00  0.00    -0.269 OA
BRANCH  36  39
ATOM     39  C   UNL     1      -4.209  -0.588  18.688  1.00  0.00     0.039 A 
ATOM     40  C   UNL     1      -4.906  -1.339  17.741  1.00  0.00     0.014 A 
ATOM     41  C   UNL     1      -4.698  -0.548  20.007  1.00  0.00     0.014 A 
ATOM     42  C   UNL     1      -6.125  -1.919  18.066  1.00  0.00     0.010 A 
ATOM     43  C   UNL     1      -5.901  -1.150  20.345  1.00  0.00     0.010 A 
ATOM     44  C   UNL     1      -6.647  -1.771  19.352  1.00  0.00    -0.014 A 
BRANCH  44  45
ATOM     45  C   UNL     1      -7.969  -2.331  19.616  1.00  0.00     0.031 A 
ATOM     46  C   UNL     1      -8.076  -3.799  19.390  1.00  0.00     0.074 A 
ATOM     47  C   UNL     1      -8.990  -1.595  20.098  1.00  0.00     0.049 A 
ATOM     48  N   UNL     1      -8.753  -4.430  18.485  1.00  0.00    -0.248 NA
ATOM     49  C   UNL     1      -7.184  -4.660  20.180  1.00  0.00     0.031 C 
ATOM     50  C   UNL     1      -8.947  -0.226  20.627  1.00  0.00     0.029 A 
ATOM     51  N   UNL     1     -10.285  -1.958  20.305  1.00  0.00    -0.354 N 
ATOM     52  C   UNL     1      -8.534  -5.787  18.727  1.00  0.00     0.074 A 
ATOM     53  C   UNL     1      -7.433  -5.857  19.652  1.00  0.00     0.031 C 
ATOM     54  C   UNL     1     -10.087   0.028  21.308  1.00  0.00     0.029 A 
ATOM     55  C   UNL     1     -10.999  -1.084  21.112  1.00  0.00     0.049 A 
ATOM     56  H   UNL     1     -10.681  -2.771  19.915  1.00  0.00     0.167 HD
ATOM     57  C   UNL     1      -9.422  -6.746  18.336  1.00  0.00     0.034 A 
ATOM     58  C   UNL     1     -12.231  -1.288  21.638  1.00  0.00     0.034 A 
ATOM     59  C   UNL     1     -10.341  -6.240  17.355  1.00  0.00     0.049 A 
ATOM     60  C   UNL     1     -12.887  -2.345  20.837  1.00  0.00     0.074 A 
ATOM     61  C   UNL     1     -10.265  -5.836  16.041  1.00  0.00     0.029 A 
ATOM     62  N   UNL     1     -11.535  -5.774  17.842  1.00  0.00    -0.354 N 
ATOM     63  N   UNL     1     -13.245  -2.205  19.591  1.00  0.00    -0.248 NA
ATOM     64  C   UNL     1     -12.801  -3.717  21.314  1.00  0.00     0.031 C 
ATOM     65  C   UNL     1     -11.242  -4.808  15.910  1.00  0.00     0.029 A 
ATOM     66  C   UNL     1     -11.897  -4.660  17.136  1.00  0.00     0.049 A 
ATOM     67  H   UNL     1     -12.048  -6.176  18.580  1.00  0.00     0.167 HD
ATOM     68  C   UNL     1     -12.999  -3.443  19.019  1.00  0.00     0.074 A 
ATOM     69  C   UNL     1     -12.871  -4.361  20.147  1.00  0.00     0.031 C 
ATOM     70  C   UNL     1     -12.647  -3.554  17.705  1.00  0.00     0.034 A 
BRANCH  57  71
ATOM     71  C   UNL     1      -9.717  -7.995  19.143  1.00  0.00     0.023 A 
ATOM     72  C   UNL     1      -9.251  -8.179  20.458  1.00  0.00     0.031 A 
ATOM     73  C   UNL     1     -10.688  -8.921  18.707  1.00  0.00     0.131 A 
ATOM     74  C   UNL     1      -9.716  -9.220  21.272  1.00  0.00     0.055 A 
ATOM     75  C   UNL     1     -11.206  -9.921  19.543  1.00  0.00     0.041 A 
ATOM     76  F   UNL     1     -11.215  -8.843  17.475  1.00  0.00    -0.206 F 
ATOM     77  C   UNL     1     -10.720 -10.074  20.836  1.00  0.00     0.022 A 
BRANCH  74  78
ATOM     78  S   UNL     1      -9.020  -9.459  22.930  1.00  0.00     0.124 S 
ATOM     79  O   UNL     1     -10.193  -9.275  23.776  1.00  0.00    -0.237 OA
ATOM     80  O   UNL     1      -8.510 -10.825  22.840  1.00  0.00    -0.237 OA
ATOM     81  O   UNL     1      -7.994  -8.424  23.021  1.00  0.00    -0.744 OA
ENDBRANCH  74  78
ENDBRANCH  57  71
BRANCH  58  82
ATOM     82  C   UNL     1     -12.607  -1.043  23.051  1.00  0.00     0.023 A 
ATOM     83  C   UNL     1     -11.629  -1.162  24.058  1.00  0.00     0.031 A 
ATOM     84  C   UNL     1     -13.953  -1.026  23.454  1.00  0.00     0.131 A 
ATOM     85  C   UNL     1     -12.003  -1.314  25.399  1.00  0.00     0.055 A 
ATOM     86  C   UNL     1     -14.324  -1.160  24.798  1.00  0.00     0.041 A 
ATOM     87  F   UNL     1     -14.934  -0.955  22.542  1.00  0.00    -0.206 F 
ATOM     88  C   UNL     1     -13.347  -1.322  25.776  1.00  0.00     0.022 A 
BRANCH  85  89
ATOM     89  S   UNL     1     -10.748  -1.608  26.675  1.00  0.00     0.124 S 
ATOM     90  O   UNL     1     -11.101  -0.612  27.685  1.00  0.00    -0.237 OA
ATOM     91  O   UNL     1     -11.017  -2.994  27.041  1.00  0.00    -0.237 OA
ATOM     92  O   UNL     1      -9.489  -1.362  25.980  1.00  0.00    -0.744 OA
ENDBRANCH  85  89
ENDBRANCH  58  82
BRANCH  70  93
ATOM     93  C   UNL     1     -12.836  -2.357  16.801  1.00  0.00     0.023 A 
ATOM     94  C   UNL     1     -13.568  -2.565  15.620  1.00  0.00     0.031 A 
ATOM     95  C   UNL     1     -12.143  -1.139  16.933  1.00  0.00     0.131 A 
ATOM     96  C   UNL     1     -13.538  -1.615  14.594  1.00  0.00     0.055 A 
ATOM     97  C   UNL     1     -12.179  -0.158  15.936  1.00  0.00     0.041 A 
ATOM     98  F   UNL     1     -11.346  -0.898  17.981  1.00  0.00    -0.206 F 
ATOM     99  C   UNL     1     -12.862  -0.403  14.749  1.00  0.00     0.022 A 
BRANCH  96 100
ATOM    100  S   UNL     1     -14.235  -2.010  12.971  1.00  0.00     0.124 S 
ATOM    101  O   UNL     1     -15.242  -0.965  12.802  1.00  0.00    -0.237 OA
ATOM    102  O   UNL     1     -13.066  -1.899  12.101  1.00  0.00    -0.237 OA
ATOM    103  O   UNL     1     -14.761  -3.363  13.129  1.00  0.00    -0.744 OA
ENDBRANCH  96 100
ENDBRANCH  70  93
ENDBRANCH  44  45
ENDBRANCH  36  39
ENDBRANCH  34  35
ENDBRANCH  33  34
ENDBRANCH  32  33
ENDBRANCH   1  32
TORSDOF 19
