REMARK SMILES C[C@]([NH3+])(C(=O)N[C@H]1CCCCC[C@@H]1C(=O)NCCCCCCNC(=O)c1ccc(-c2c3nc(c(-c4cc(S(=O)(=O)[O-])ccc4F)c4ccc([nH]4)c(-c4cc(S(=O)(=O)[O-])ccc4F)c4nc(c(-c5cc(S(=O)(=O)[O-])ccc5F)c5ccc2[nH]5)C=C4)C=C3)cc1)C(F)(F)F
REMARK SMILES IDX 19 1 18 2 17 3 16 4 14 5 15 6 13 8 7 9 6 10 4 11 5 12 2 14
REMARK SMILES IDX 1 15 89 16 90 17 91 18 92 19 3 20 8 24 12 26 11 27 10 28
REMARK SMILES IDX 9 29 20 31 21 32 22 33 23 34 24 35 25 37 26 38 27 39 88 40
REMARK SMILES IDX 28 41 87 42 29 43 30 44 31 45 81 46 32 47 86 48 80 49 82 50
REMARK SMILES IDX 33 51 85 52 79 53 78 54 34 56 66 57 46 58 65 59 47 60 50 61
REMARK SMILES IDX 64 62 83 63 48 64 49 65 63 67 84 68 51 69 35 70 36 71 44 72
REMARK SMILES IDX 37 73 43 74 45 75 42 76 38 77 39 78 40 79 41 80 67 81 68 82
REMARK SMILES IDX 76 83 69 84 75 85 77 86 74 87 70 88 71 89 72 90 73 91 52 92
REMARK SMILES IDX 53 93 61 94 54 95 60 96 62 97 59 98 55 99 56 100 57 101
REMARK SMILES IDX 58 102
REMARK H PARENT 16 7 6 13 3 21 3 22 3 23 23 36 82 55 50 66
REMARK Flexibility Score: 100.00
ROOT
ATOM      1  C   UNL     1      -2.191   5.943  -4.655  1.00  0.00     0.002 C 
ENDROOT
BRANCH   1   2
ATOM      2  C   UNL     1      -1.010   4.982  -4.846  1.00  0.00     0.021 C 
BRANCH   2   3
ATOM      3  C   UNL     1       0.089   5.046  -3.784  1.00  0.00     0.116 C 
BRANCH   3   4
ATOM      4  N   UNL     1      -0.376   4.743  -2.443  1.00  0.00    -0.356 N 
ATOM      5  C   UNL     1      -0.378   3.555  -1.772  1.00  0.00     0.225 C 
ATOM      6  O   UNL     1      -0.709   3.547  -0.585  1.00  0.00    -0.275 OA
ATOM      7  H   UNL     1      -0.745   5.507  -1.944  1.00  0.00     0.163 HD
BRANCH   5   8
ATOM      8  C   UNL     1       0.073   2.284  -2.484  1.00  0.00     0.101 C 
BRANCH   8   9
ATOM      9  C   UNL     1      -0.854   1.094  -2.087  1.00  0.00     0.094 C 
BRANCH   9  10
ATOM     10  N   UNL     1      -1.905   0.814  -3.110  1.00  0.00    -0.347 N 
ATOM     11  C   UNL     1      -3.264   0.940  -3.211  1.00  0.00     0.290 C 
ATOM     12  O   UNL     1      -3.765   0.221  -4.083  1.00  0.00    -0.267 OA
ATOM     13  H   UNL     1      -1.517   0.437  -3.932  1.00  0.00     0.164 HD
BRANCH  11  14
ATOM     14  C   UNL     1      -4.143   1.887  -2.356  1.00  0.00     0.266 C 
ATOM     15  C   UNL     1      -3.652   3.318  -2.496  1.00  0.00     0.100 C 
BRANCH  14  16
ATOM     16  C   UNL     1      -5.579   1.876  -2.966  1.00  0.00     0.453 C 
ATOM     17  F   UNL     1      -6.191   0.678  -2.823  1.00  0.00    -0.164 F 
ATOM     18  F   UNL     1      -6.371   2.788  -2.334  1.00  0.00    -0.164 F 
ATOM     19  F   UNL     1      -5.595   2.214  -4.276  1.00  0.00    -0.164 F 
ENDBRANCH  14  16
BRANCH  14  20
ATOM     20  N   UNL     1      -4.123   1.476  -0.917  1.00  0.00    -0.337 N 
ATOM     21  H   UNL     1      -4.453   0.515  -0.833  1.00  0.00     0.345 HD
ATOM     22  H   UNL     1      -4.731   2.093  -0.379  1.00  0.00     0.345 HD
ATOM     23  H   UNL     1      -3.170   1.541  -0.558  1.00  0.00     0.345 HD
ENDBRANCH  14  20
ENDBRANCH  11  14
ENDBRANCH   9  10
BRANCH   9  24
ATOM     24  C   UNL     1      -0.100  -0.239  -1.845  1.00  0.00     0.026 CG0
ATOM     25  G   UNL     1       0.836  -0.686  -2.979  1.00  0.00     0.000 G0
ENDBRANCH   9  24
ENDBRANCH   8   9
BRANCH   8  26
ATOM     26  C   UNL     1       1.558   2.161  -2.076  1.00  0.00     0.015 C 
BRANCH  26  27
ATOM     27  C   UNL     1       2.402   1.334  -3.035  1.00  0.00     0.001 C 
BRANCH  27  28
ATOM     28  C   UNL     1       2.262  -0.167  -2.838  1.00  0.00     0.000 C 
BRANCH  28  29
ATOM     29  C   UNL     1       0.836  -0.686  -2.979  1.00  0.00     0.002 CG0
ATOM     30  G   UNL     1      -0.100  -0.239  -1.845  1.00  0.00     0.000 G0
ENDBRANCH  28  29
ENDBRANCH  27  28
ENDBRANCH  26  27
ENDBRANCH   8  26
ENDBRANCH   5   8
ENDBRANCH   3   4
ENDBRANCH   2   3
ENDBRANCH   1   2
BRANCH   1  31
ATOM     31  C   UNL     1      -1.857   7.411  -4.394  1.00  0.00     0.002 C 
BRANCH  31  32
ATOM     32  C   UNL     1      -0.953   8.087  -5.423  1.00  0.00     0.021 C 
BRANCH  32  33
ATOM     33  C   UNL     1      -1.487   8.114  -6.851  1.00  0.00     0.116 C 
BRANCH  33  34
ATOM     34  N   UNL     1      -2.707   8.891  -6.980  1.00  0.00    -0.352 N 
ATOM     35  C   UNL     1      -3.004   9.945  -7.806  1.00  0.00     0.251 C 
ATOM     36  H   UNL     1      -3.437   8.618  -6.379  1.00  0.00     0.163 HD
ATOM     37  O   UNL     1      -4.054  10.568  -7.619  1.00  0.00    -0.269 OA
BRANCH  35  38
ATOM     38  C   UNL     1      -2.082  10.367  -8.888  1.00  0.00     0.039 A 
ATOM     39  C   UNL     1      -1.939  11.733  -9.146  1.00  0.00     0.014 A 
ATOM     40  C   UNL     1      -1.386   9.443  -9.674  1.00  0.00     0.014 A 
ATOM     41  C   UNL     1      -1.062  12.169 -10.144  1.00  0.00     0.010 A 
ATOM     42  C   UNL     1      -0.449   9.882 -10.613  1.00  0.00     0.010 A 
ATOM     43  C   UNL     1      -0.279  11.251 -10.863  1.00  0.00    -0.014 A 
BRANCH  43  44
ATOM     44  C   UNL     1       0.720  11.732 -11.858  1.00  0.00     0.031 A 
ATOM     45  C   UNL     1       0.582  11.395 -13.320  1.00  0.00     0.074 A 
ATOM     46  C   UNL     1       1.765  12.472 -11.436  1.00  0.00     0.049 A 
ATOM     47  N   UNL     1       1.328  11.772 -14.329  1.00  0.00    -0.248 NA
ATOM     48  C   UNL     1      -0.520  10.497 -13.694  1.00  0.00     0.031 C 
ATOM     49  C   UNL     1       2.044  12.816 -10.039  1.00  0.00     0.029 A 
ATOM     50  N   UNL     1       2.780  13.081 -12.133  1.00  0.00    -0.354 N 
ATOM     51  C   UNL     1       0.786  11.160 -15.456  1.00  0.00     0.074 A 
ATOM     52  C   UNL     1      -0.306  10.331 -14.992  1.00  0.00     0.031 C 
ATOM     53  C   UNL     1       3.122  13.612  -9.988  1.00  0.00     0.029 A 
ATOM     54  C   UNL     1       3.639  13.805 -11.338  1.00  0.00     0.049 A 
ATOM     55  H   UNL     1       2.883  13.006 -13.109  1.00  0.00     0.167 HD
ATOM     56  C   UNL     1       1.147  11.297 -16.757  1.00  0.00     0.034 A 
ATOM     57  C   UNL     1       4.719  14.546 -11.659  1.00  0.00     0.034 A 
ATOM     58  C   UNL     1       2.240  12.130 -17.205  1.00  0.00     0.049 A 
ATOM     59  C   UNL     1       5.103  14.678 -13.110  1.00  0.00     0.074 A 
ATOM     60  C   UNL     1       2.658  12.382 -18.501  1.00  0.00     0.029 A 
ATOM     61  N   UNL     1       3.099  12.837 -16.371  1.00  0.00    -0.354 N 
ATOM     62  N   UNL     1       4.534  14.150 -14.169  1.00  0.00    -0.248 NA
ATOM     63  C   UNL     1       6.265  15.524 -13.408  1.00  0.00     0.031 C 
ATOM     64  C   UNL     1       3.809  13.177 -18.447  1.00  0.00     0.029 A 
ATOM     65  C   UNL     1       4.063  13.495 -17.123  1.00  0.00     0.049 A 
ATOM     66  H   UNL     1       3.032  12.868 -15.390  1.00  0.00     0.167 HD
ATOM     67  C   UNL     1       5.258  14.620 -15.262  1.00  0.00     0.074 A 
ATOM     68  C   UNL     1       6.278  15.502 -14.731  1.00  0.00     0.031 C 
ATOM     69  C   UNL     1       5.098  14.348 -16.583  1.00  0.00     0.034 A 
BRANCH  56  70
ATOM     70  C   UNL     1       0.365  10.510 -17.785  1.00  0.00     0.023 A 
ATOM     71  C   UNL     1      -1.013  10.715 -17.983  1.00  0.00     0.031 A 
ATOM     72  C   UNL     1       0.998   9.527 -18.566  1.00  0.00     0.131 A 
ATOM     73  C   UNL     1      -1.724   9.901 -18.878  1.00  0.00     0.055 A 
ATOM     74  C   UNL     1       0.301   8.778 -19.518  1.00  0.00     0.041 A 
ATOM     75  F   UNL     1       2.306   9.268 -18.411  1.00  0.00    -0.206 F 
ATOM     76  C   UNL     1      -1.071   8.952 -19.667  1.00  0.00     0.022 A 
BRANCH  73  77
ATOM     77  S   UNL     1      -3.535   9.999 -18.888  1.00  0.00     0.124 S 
ATOM     78  O   UNL     1      -3.855   9.678 -17.499  1.00  0.00    -0.237 OA
ATOM     79  O   UNL     1      -3.774  11.378 -19.296  1.00  0.00    -0.237 OA
ATOM     80  O   UNL     1      -3.928   8.982 -19.860  1.00  0.00    -0.744 OA
ENDBRANCH  73  77
ENDBRANCH  56  70
BRANCH  57  81
ATOM     81  C   UNL     1       5.515  15.225 -10.595  1.00  0.00     0.023 A 
ATOM     82  C   UNL     1       5.615  16.625 -10.543  1.00  0.00     0.031 A 
ATOM     83  C   UNL     1       6.227  14.480  -9.639  1.00  0.00     0.131 A 
ATOM     84  C   UNL     1       6.449  17.234  -9.592  1.00  0.00     0.055 A 
ATOM     85  C   UNL     1       7.009  15.092  -8.657  1.00  0.00     0.041 A 
ATOM     86  F   UNL     1       6.164  13.138  -9.638  1.00  0.00    -0.206 F 
ATOM     87  C   UNL     1       7.135  16.477  -8.640  1.00  0.00     0.022 A 
BRANCH  84  88
ATOM     88  S   UNL     1       6.699  19.029  -9.676  1.00  0.00     0.124 S 
ATOM     89  O   UNL     1       7.218  19.194 -11.029  1.00  0.00    -0.237 OA
ATOM     90  O   UNL     1       5.350  19.533  -9.440  1.00  0.00    -0.237 OA
ATOM     91  O   UNL     1       7.656  19.289  -8.603  1.00  0.00    -0.744 OA
ENDBRANCH  84  88
ENDBRANCH  57  81
BRANCH  69  92
ATOM     92  C   UNL     1       6.046  15.038 -17.538  1.00  0.00     0.023 A 
ATOM     93  C   UNL     1       7.433  14.806 -17.495  1.00  0.00     0.031 A 
ATOM     94  C   UNL     1       5.566  15.983 -18.462  1.00  0.00     0.131 A 
ATOM     95  C   UNL     1       8.297  15.573 -18.290  1.00  0.00     0.055 A 
ATOM     96  C   UNL     1       6.425  16.687 -19.308  1.00  0.00     0.041 A 
ATOM     97  F   UNL     1       4.253  16.251 -18.549  1.00  0.00    -0.206 F 
ATOM     98  C   UNL     1       7.801  16.500 -19.209  1.00  0.00     0.022 A 
BRANCH  95  99
ATOM     99  S   UNL     1      10.083  15.448 -17.998  1.00  0.00     0.124 S 
ATOM    100  O   UNL     1      10.179  15.753 -16.574  1.00  0.00    -0.237 OA
ATOM    101  O   UNL     1      10.364  14.067 -18.374  1.00  0.00    -0.237 OA
ATOM    102  O   UNL     1      10.648  16.461 -18.888  1.00  0.00    -0.744 OA
ENDBRANCH  95  99
ENDBRANCH  69  92
ENDBRANCH  43  44
ENDBRANCH  35  38
ENDBRANCH  33  34
ENDBRANCH  32  33
ENDBRANCH  31  32
ENDBRANCH   1  31
TORSDOF 20
