REMARK SMILES CCc1cc(N2CCC(O)(C(=O)NCCCCCCNC(=O)c3ccc(-c4c5nc(c(-c6cc(S(=O)(=O)[O-])ccc6F)c6ccc([nH]6)c(-c6cc(S(=O)(=O)[O-])ccc6F)c6nc(c(-c7cc(S(=O)(=O)[O-])ccc7F)c7ccc4[nH]7)C=C6)C=C5)cc3)CC2)nc(N2CCOCC2)n1
REMARK SMILES IDX 17 1 16 2 15 3 14 4 13 5 11 6 12 7 9 9 6 10 7 11 87 12 8 13
REMARK SMILES IDX 86 14 5 15 3 16 4 17 96 18 89 19 88 20 2 21 1 22 90 23 91 24
REMARK SMILES IDX 95 25 92 26 94 27 93 28 10 29 18 31 19 32 20 33 21 34 22 36
REMARK SMILES IDX 23 37 24 38 85 39 25 40 84 41 26 42 27 43 28 44 78 45 29 46
REMARK SMILES IDX 83 47 77 48 79 49 30 50 82 51 76 52 75 53 31 55 63 56 43 57
REMARK SMILES IDX 62 58 44 59 47 60 61 61 80 62 45 63 46 64 60 66 81 67 48 68
REMARK SMILES IDX 32 69 33 70 41 71 34 72 40 73 42 74 39 75 35 76 36 77 37 78
REMARK SMILES IDX 38 79 64 80 65 81 73 82 66 83 72 84 74 85 71 86 67 87 68 88
REMARK SMILES IDX 69 89 70 90 49 91 50 92 58 93 51 94 57 95 59 96 56 97 52 98
REMARK SMILES IDX 53 99 54 100 55 101
REMARK H PARENT 13 8 10 30 20 35 79 54 47 65
REMARK Flexibility Score: inf
ROOT
ATOM      1  C   UNL     1      -3.592   8.125   8.750  1.00  0.00     0.002 C 
ENDROOT
BRANCH   1   2
ATOM      2  C   UNL     1      -3.391   6.617   8.569  1.00  0.00     0.002 C 
BRANCH   2   3
ATOM      3  C   UNL     1      -2.834   6.208   7.200  1.00  0.00     0.021 C 
BRANCH   3   4
ATOM      4  C   UNL     1      -1.488   6.855   6.872  1.00  0.00     0.116 C 
BRANCH   4   5
ATOM      5  N   UNL     1      -0.456   6.325   7.741  1.00  0.00    -0.354 N 
ATOM      6  C   UNL     1       0.574   5.473   7.465  1.00  0.00     0.252 C 
ATOM      7  O   UNL     1       1.272   5.118   8.419  1.00  0.00    -0.272 OA
ATOM      8  H   UNL     1      -0.505   6.628   8.676  1.00  0.00     0.163 HD
BRANCH   6   9
ATOM      9  C   UNL     1       0.843   4.995   6.011  1.00  0.00     0.146 C 
ATOM     10  N   UNL     1       1.284   2.891   4.120  1.00  0.00    -0.356 N 
ATOM     11  C   UNL     1       0.011   3.582   4.093  1.00  0.00     0.121 C 
ATOM     12  C   UNL     1       2.459   3.548   4.664  1.00  0.00     0.121 C 
ATOM     13  C   UNL     1      -0.300   4.114   5.485  1.00  0.00     0.067 C 
ATOM     14  C   UNL     1       2.157   4.187   6.010  1.00  0.00     0.067 C 
BRANCH  10  15
ATOM     15  C   UNL     1       1.310   1.527   3.912  1.00  0.00     0.134 A 
ATOM     16  C   UNL     1       1.050  -0.319   2.478  1.00  0.00     0.048 A 
ATOM     17  C   UNL     1       0.872   1.026   2.706  1.00  0.00     0.071 A 
ATOM     18  N   UNL     1       1.579  -1.130   3.414  1.00  0.00    -0.218 NA
ATOM     19  C   UNL     1       1.884  -0.585   4.602  1.00  0.00     0.227 A 
ATOM     20  N   UNL     1       1.790   0.725   4.870  1.00  0.00    -0.196 NA
BRANCH  16  21
ATOM     21  C   UNL     1       0.624  -0.946   1.176  1.00  0.00     0.053 C 
ATOM     22  C   UNL     1       1.141  -0.213  -0.057  1.00  0.00     0.011 C 
ENDBRANCH  16  21
BRANCH  19  23
ATOM     23  N   UNL     1       2.313  -1.410   5.597  1.00  0.00    -0.336 N 
ATOM     24  C   UNL     1       1.660  -1.422   6.893  1.00  0.00     0.148 C 
ATOM     25  C   UNL     1       3.456  -2.277   5.405  1.00  0.00     0.148 C 
ATOM     26  C   UNL     1       2.708  -1.290   8.007  1.00  0.00     0.181 C 
ATOM     27  C   UNL     1       4.431  -2.052   6.576  1.00  0.00     0.181 C 
ATOM     28  O   UNL     1       3.781  -2.241   7.849  1.00  0.00    -0.378 OA
ENDBRANCH  19  23
ENDBRANCH  10  15
BRANCH   9  29
ATOM     29  O   UNL     1       0.985   6.163   5.187  1.00  0.00    -0.380 OA
ATOM     30  H   UNL     1       0.156   6.666   5.193  1.00  0.00     0.212 HD
ENDBRANCH   9  29
ENDBRANCH   6   9
ENDBRANCH   4   5
ENDBRANCH   3   4
ENDBRANCH   2   3
ENDBRANCH   1   2
BRANCH   1  31
ATOM     31  C   UNL     1      -4.468   8.784   7.681  1.00  0.00     0.021 C 
BRANCH  31  32
ATOM     32  C   UNL     1      -5.881   8.218   7.598  1.00  0.00     0.116 C 
BRANCH  32  33
ATOM     33  N   UNL     1      -6.625   8.447   8.827  1.00  0.00    -0.352 N 
ATOM     34  C   UNL     1      -7.819   9.100   9.005  1.00  0.00     0.251 C 
ATOM     35  H   UNL     1      -6.215   8.082   9.644  1.00  0.00     0.163 HD
ATOM     36  O   UNL     1      -8.185   9.409  10.137  1.00  0.00    -0.269 OA
BRANCH  34  37
ATOM     37  C   UNL     1      -8.643   9.446   7.829  1.00  0.00     0.039 A 
ATOM     38  C   UNL     1      -9.194  10.726   7.737  1.00  0.00     0.014 A 
ATOM     39  C   UNL     1      -8.858   8.511   6.812  1.00  0.00     0.014 A 
ATOM     40  C   UNL     1      -9.905  11.089   6.592  1.00  0.00     0.010 A 
ATOM     41  C   UNL     1      -9.501   8.899   5.641  1.00  0.00     0.010 A 
ATOM     42  C   UNL     1     -10.029  10.193   5.517  1.00  0.00    -0.014 A 
BRANCH  42  43
ATOM     43  C   UNL     1     -10.697  10.594   4.250  1.00  0.00     0.031 A 
ATOM     44  C   UNL     1     -11.944   9.886   3.798  1.00  0.00     0.074 A 
ATOM     45  C   UNL     1     -10.140  11.548   3.478  1.00  0.00     0.049 A 
ATOM     46  N   UNL     1     -12.618  10.027   2.686  1.00  0.00    -0.248 NA
ATOM     47  C   UNL     1     -12.488   8.864   4.705  1.00  0.00     0.031 C 
ATOM     48  C   UNL     1      -8.914  12.284   3.796  1.00  0.00     0.029 A 
ATOM     49  N   UNL     1     -10.523  12.058   2.262  1.00  0.00    -0.354 N 
ATOM     50  C   UNL     1     -13.659   9.107   2.753  1.00  0.00     0.074 A 
ATOM     51  C   UNL     1     -13.487   8.371   3.988  1.00  0.00     0.031 C 
ATOM     52  C   UNL     1      -8.661  13.164   2.816  1.00  0.00     0.029 A 
ATOM     53  C   UNL     1      -9.669  13.019   1.770  1.00  0.00     0.049 A 
ATOM     54  H   UNL     1     -11.333  11.764   1.786  1.00  0.00     0.167 HD
ATOM     55  C   UNL     1     -14.674   8.909   1.875  1.00  0.00     0.034 A 
ATOM     56  C   UNL     1      -9.682  13.692   0.602  1.00  0.00     0.034 A 
ATOM     57  C   UNL     1     -14.830   9.657   0.651  1.00  0.00     0.049 A 
ATOM     58  C   UNL     1     -10.794  13.419  -0.381  1.00  0.00     0.074 A 
ATOM     59  C   UNL     1     -15.850   9.577  -0.281  1.00  0.00     0.029 A 
ATOM     60  N   UNL     1     -13.937  10.611   0.179  1.00  0.00    -0.354 N 
ATOM     61  N   UNL     1     -11.800  12.581  -0.279  1.00  0.00    -0.248 NA
ATOM     62  C   UNL     1     -10.775  14.187  -1.633  1.00  0.00     0.031 C 
ATOM     63  C   UNL     1     -15.532  10.417  -1.353  1.00  0.00     0.029 A 
ATOM     64  C   UNL     1     -14.361  11.094  -1.050  1.00  0.00     0.049 A 
ATOM     65  H   UNL     1     -13.123  10.902   0.649  1.00  0.00     0.167 HD
ATOM     66  C   UNL     1     -12.550  12.745  -1.440  1.00  0.00     0.074 A 
ATOM     67  C   UNL     1     -11.889  13.772  -2.219  1.00  0.00     0.031 C 
ATOM     68  C   UNL     1     -13.686  12.109  -1.825  1.00  0.00     0.034 A 
BRANCH  55  69
ATOM     69  C   UNL     1     -15.672   7.821   2.195  1.00  0.00     0.023 A 
ATOM     70  C   UNL     1     -16.477   7.870   3.347  1.00  0.00     0.031 A 
ATOM     71  C   UNL     1     -15.810   6.709   1.346  1.00  0.00     0.131 A 
ATOM     72  C   UNL     1     -17.324   6.795   3.657  1.00  0.00     0.055 A 
ATOM     73  C   UNL     1     -16.719   5.684   1.614  1.00  0.00     0.041 A 
ATOM     74  F   UNL     1     -15.054   6.593   0.243  1.00  0.00    -0.206 F 
ATOM     75  C   UNL     1     -17.472   5.715   2.784  1.00  0.00     0.022 A 
BRANCH  72  76
ATOM     76  S   UNL     1     -18.113   6.758   5.290  1.00  0.00     0.124 S 
ATOM     77  O   UNL     1     -16.953   6.812   6.178  1.00  0.00    -0.237 OA
ATOM     78  O   UNL     1     -18.952   7.950   5.262  1.00  0.00    -0.237 OA
ATOM     79  O   UNL     1     -18.832   5.487   5.294  1.00  0.00    -0.744 OA
ENDBRANCH  72  76
ENDBRANCH  55  69
BRANCH  56  80
ATOM     80  C   UNL     1      -8.602  14.669   0.280  1.00  0.00     0.023 A 
ATOM     81  C   UNL     1      -8.889  16.030   0.089  1.00  0.00     0.031 A 
ATOM     82  C   UNL     1      -7.270  14.249   0.112  1.00  0.00     0.131 A 
ATOM     83  C   UNL     1      -7.871  16.912  -0.307  1.00  0.00     0.055 A 
ATOM     84  C   UNL     1      -6.249  15.141  -0.221  1.00  0.00     0.041 A 
ATOM     85  F   UNL     1      -6.938  12.959   0.282  1.00  0.00    -0.206 F 
ATOM     86  C   UNL     1      -6.551  16.480  -0.447  1.00  0.00     0.022 A 
BRANCH  83  87
ATOM     87  S   UNL     1      -8.318  18.617  -0.734  1.00  0.00     0.124 S 
ATOM     88  O   UNL     1      -9.293  18.410  -1.798  1.00  0.00    -0.237 OA
ATOM     89  O   UNL     1      -8.843  19.119   0.531  1.00  0.00    -0.237 OA
ATOM     90  O   UNL     1      -7.048  19.205  -1.156  1.00  0.00    -0.744 OA
ENDBRANCH  83  87
ENDBRANCH  56  80
BRANCH  68  91
ATOM     91  C   UNL     1     -14.310  12.540  -3.131  1.00  0.00     0.023 A 
ATOM     92  C   UNL     1     -13.673  12.325  -4.365  1.00  0.00     0.031 A 
ATOM     93  C   UNL     1     -15.566  13.174  -3.138  1.00  0.00     0.131 A 
ATOM     94  C   UNL     1     -14.269  12.785  -5.549  1.00  0.00     0.055 A 
ATOM     95  C   UNL     1     -16.184  13.570  -4.324  1.00  0.00     0.041 A 
ATOM     96  F   UNL     1     -16.219  13.411  -1.988  1.00  0.00    -0.206 F 
ATOM     97  C   UNL     1     -15.530  13.388  -5.538  1.00  0.00     0.022 A 
BRANCH  94  98
ATOM     98  S   UNL     1     -13.334  12.667  -7.099  1.00  0.00     0.124 S 
ATOM     99  O   UNL     1     -12.140  13.449  -6.793  1.00  0.00    -0.237 OA
ATOM    100  O   UNL     1     -13.134  11.228  -7.235  1.00  0.00    -0.237 OA
ATOM    101  O   UNL     1     -14.230  13.264  -8.087  1.00  0.00    -0.744 OA
ENDBRANCH  94  98
ENDBRANCH  68  91
ENDBRANCH  42  43
ENDBRANCH  34  37
ENDBRANCH  32  33
ENDBRANCH  31  32
ENDBRANCH   1  31
TORSDOF 20
