REMARK SMILES CC[NH+]1CCC2(CC1)OC[C@H](C(=O)NCCCCCCNC(=O)c1ccc(-c3c4nc(c(-c5cc(S(=O)(=O)[O-])ccc5F)c5ccc([nH]5)c(-c5cc(S(=O)(=O)[O-])ccc5F)c5nc(c(-c6cc(S(=O)(=O)[O-])ccc6F)c6ccc3[nH]6)C=C5)C=C4)cc1)N2C(=O)c1ccccc1
REMARK SMILES IDX 18 1 17 2 16 3 15 4 14 5 12 6 13 7 11 9 3 10 4 11 8 12 5 14
REMARK SMILES IDX 7 15 6 16 9 17 87 18 10 19 2 20 1 21 88 22 89 23 90 24 91 25
REMARK SMILES IDX 95 26 92 27 94 28 93 29 19 30 20 31 21 32 22 33 23 35 24 36
REMARK SMILES IDX 25 37 86 38 26 39 85 40 27 41 28 42 29 43 79 44 30 45 84 46
REMARK SMILES IDX 78 47 80 48 31 49 83 50 77 51 76 52 32 54 64 55 44 56 63 57
REMARK SMILES IDX 45 58 48 59 62 60 81 61 46 62 47 63 61 65 82 66 49 67 33 68
REMARK SMILES IDX 34 69 42 70 35 71 41 72 43 73 40 74 36 75 37 76 38 77 39 78
REMARK SMILES IDX 65 79 66 80 74 81 67 82 73 83 75 84 72 85 68 86 69 87 70 88
REMARK SMILES IDX 71 89 50 90 51 91 59 92 52 93 58 94 60 95 57 96 53 97 54 98
REMARK SMILES IDX 55 99 56 100
REMARK H PARENT 14 8 3 13 21 34 80 53 48 64
REMARK Flexibility Score: inf
ROOT
ATOM      1  C   UNL     1       5.237  -7.381   2.490  1.00  0.00     0.002 C 
ENDROOT
BRANCH   1   2
ATOM      2  C   UNL     1       4.509  -6.114   2.026  1.00  0.00     0.002 C 
BRANCH   2   3
ATOM      3  C   UNL     1       3.955  -6.173   0.596  1.00  0.00     0.021 C 
BRANCH   3   4
ATOM      4  C   UNL     1       3.003  -7.343   0.360  1.00  0.00     0.116 C 
BRANCH   4   5
ATOM      5  N   UNL     1       1.745  -7.125   1.039  1.00  0.00    -0.354 N 
ATOM      6  C   UNL     1       0.529  -6.792   0.522  1.00  0.00     0.245 C 
ATOM      7  O   UNL     1      -0.386  -6.631   1.336  1.00  0.00    -0.273 OA
ATOM      8  H   UNL     1       1.770  -7.232   2.017  1.00  0.00     0.163 HD
BRANCH   6   9
ATOM      9  C   UNL     1       0.340  -6.602  -1.004  1.00  0.00     0.203 C 
ATOM     10  N   UNL     1       0.274  -1.515  -1.194  1.00  0.00    -0.335 N 
ATOM     11  C   UNL     1       0.441  -2.377  -0.046  1.00  0.00     0.267 C 
ATOM     12  C   UNL     1      -0.178  -2.044  -2.470  1.00  0.00     0.267 C 
ATOM     13  H   UNL     1       1.284  -1.552  -1.331  1.00  0.00     0.348 HD
ATOM     14  C   UNL     1      -0.460  -3.584  -0.044  1.00  0.00     0.120 C 
ATOM     15  C   UNL     1      -0.784  -3.445  -2.510  1.00  0.00     0.120 C 
ATOM     16  C   UNL     1      -0.417  -4.368  -1.353  1.00  0.00     0.155 C 
ATOM     17  O   UNL     1      -1.575  -5.267  -1.254  1.00  0.00    -0.352 OA
ATOM     18  N   UNL     1       0.727  -5.286  -1.511  1.00  0.00    -0.295 N 
ATOM     19  C   UNL     1      -1.131  -6.626  -1.340  1.00  0.00     0.198 C 
BRANCH  10  20
ATOM     20  C   UNL     1       0.016  -0.097  -0.998  1.00  0.00     0.258 C 
ATOM     21  C   UNL     1       0.791   0.563   0.137  1.00  0.00     0.071 C 
ENDBRANCH  10  20
BRANCH  18  22
ATOM     22  C   UNL     1       1.910  -5.202  -2.237  1.00  0.00     0.256 C 
ATOM     23  O   UNL     1       2.591  -6.194  -2.503  1.00  0.00    -0.269 OA
BRANCH  22  24
ATOM     24  C   UNL     1       2.436  -3.954  -2.801  1.00  0.00     0.040 A 
ATOM     25  C   UNL     1       2.412  -3.780  -4.190  1.00  0.00     0.014 A 
ATOM     26  C   UNL     1       3.137  -3.048  -2.002  1.00  0.00     0.014 A 
ATOM     27  C   UNL     1       2.969  -2.631  -4.758  1.00  0.00     0.001 A 
ATOM     28  C   UNL     1       3.667  -1.885  -2.567  1.00  0.00     0.001 A 
ATOM     29  C   UNL     1       3.567  -1.670  -3.942  1.00  0.00     0.000 A 
ENDBRANCH  22  24
ENDBRANCH  18  22
ENDBRANCH   6   9
ENDBRANCH   4   5
ENDBRANCH   3   4
ENDBRANCH   2   3
ENDBRANCH   1   2
BRANCH   1  30
ATOM     30  C   UNL     1       6.364  -7.849   1.567  1.00  0.00     0.021 C 
BRANCH  30  31
ATOM     31  C   UNL     1       7.488  -6.833   1.385  1.00  0.00     0.116 C 
BRANCH  31  32
ATOM     32  N   UNL     1       8.173  -6.558   2.639  1.00  0.00    -0.352 N 
ATOM     33  C   UNL     1       9.493  -6.739   2.967  1.00  0.00     0.251 C 
ATOM     34  H   UNL     1       7.607  -6.190   3.356  1.00  0.00     0.163 HD
ATOM     35  O   UNL     1       9.844  -6.676   4.145  1.00  0.00    -0.269 OA
BRANCH  33  36
ATOM     36  C   UNL     1      10.481  -7.032   1.908  1.00  0.00     0.039 A 
ATOM     37  C   UNL     1      11.405  -8.059   2.110  1.00  0.00     0.014 A 
ATOM     38  C   UNL     1      10.484  -6.306   0.713  1.00  0.00     0.014 A 
ATOM     39  C   UNL     1      12.280  -8.411   1.080  1.00  0.00     0.010 A 
ATOM     40  C   UNL     1      11.309  -6.704  -0.336  1.00  0.00     0.010 A 
ATOM     41  C   UNL     1      12.205  -7.771  -0.169  1.00  0.00    -0.014 A 
BRANCH  41  42
ATOM     42  C   UNL     1      13.018  -8.241  -1.322  1.00  0.00     0.031 A 
ATOM     43  C   UNL     1      14.050  -7.343  -1.946  1.00  0.00     0.074 A 
ATOM     44  C   UNL     1      12.770  -9.458  -1.847  1.00  0.00     0.049 A 
ATOM     45  N   UNL     1      14.799  -7.554  -2.998  1.00  0.00    -0.248 NA
ATOM     46  C   UNL     1      14.251  -6.029  -1.319  1.00  0.00     0.031 C 
ATOM     47  C   UNL     1      11.765 -10.402  -1.349  1.00  0.00     0.029 A 
ATOM     48  N   UNL     1      13.330 -10.110  -2.917  1.00  0.00    -0.354 N 
ATOM     49  C   UNL     1      15.554  -6.399  -3.166  1.00  0.00     0.074 A 
ATOM     50  C   UNL     1      15.135  -5.472  -2.135  1.00  0.00     0.031 C 
ATOM     51  C   UNL     1      11.795 -11.514  -2.098  1.00  0.00     0.029 A 
ATOM     52  C   UNL     1      12.776 -11.346  -3.165  1.00  0.00     0.049 A 
ATOM     53  H   UNL     1      14.059  -9.729  -3.458  1.00  0.00     0.167 HD
ATOM     54  C   UNL     1      16.517  -6.144  -4.086  1.00  0.00     0.034 A 
ATOM     55  C   UNL     1      13.011 -12.233  -4.152  1.00  0.00     0.034 A 
ATOM     56  C   UNL     1      16.923  -7.083  -5.104  1.00  0.00     0.049 A 
ATOM     57  C   UNL     1      14.055 -11.904  -5.190  1.00  0.00     0.074 A 
ATOM     58  C   UNL     1      17.934  -6.952  -6.041  1.00  0.00     0.029 A 
ATOM     59  N   UNL     1      16.329  -8.318  -5.336  1.00  0.00    -0.354 N 
ATOM     60  N   UNL     1      14.809 -10.834  -5.292  1.00  0.00    -0.248 NA
ATOM     61  C   UNL     1      14.284 -12.904  -6.241  1.00  0.00     0.031 C 
ATOM     62  C   UNL     1      17.894  -8.062  -6.889  1.00  0.00     0.029 A 
ATOM     63  C   UNL     1      16.919  -8.933  -6.430  1.00  0.00     0.049 A 
ATOM     64  H   UNL     1      15.596  -8.700  -4.802  1.00  0.00     0.167 HD
ATOM     65  C   UNL     1      15.617 -11.045  -6.405  1.00  0.00     0.074 A 
ATOM     66  C   UNL     1      15.276 -12.353  -6.924  1.00  0.00     0.031 C 
ATOM     67  C   UNL     1      16.557 -10.231  -6.951  1.00  0.00     0.034 A 
BRANCH  54  68
ATOM     68  C   UNL     1      17.177  -4.786  -4.055  1.00  0.00     0.023 A 
ATOM     69  C   UNL     1      17.945  -4.357  -2.959  1.00  0.00     0.031 A 
ATOM     70  C   UNL     1      17.044  -3.909  -5.147  1.00  0.00     0.131 A 
ATOM     71  C   UNL     1      18.498  -3.067  -2.952  1.00  0.00     0.055 A 
ATOM     72  C   UNL     1      17.662  -2.657  -5.167  1.00  0.00     0.041 A 
ATOM     73  F   UNL     1      16.305  -4.253  -6.213  1.00  0.00    -0.206 F 
ATOM     74  C   UNL     1      18.385  -2.225  -4.060  1.00  0.00     0.022 A 
BRANCH  71  75
ATOM     75  S   UNL     1      19.261  -2.458  -1.423  1.00  0.00     0.124 S 
ATOM     76  O   UNL     1      18.152  -2.565  -0.477  1.00  0.00    -0.237 OA
ATOM     77  O   UNL     1      20.362  -3.392  -1.225  1.00  0.00    -0.237 OA
ATOM     78  O   UNL     1      19.654  -1.090  -1.758  1.00  0.00    -0.744 OA
ENDBRANCH  71  75
ENDBRANCH  54  68
BRANCH  55  79
ATOM     79  C   UNL     1      12.224 -13.499  -4.238  1.00  0.00     0.023 A 
ATOM     80  C   UNL     1      12.851 -14.752  -4.146  1.00  0.00     0.031 A 
ATOM     81  C   UNL     1      10.836 -13.475  -4.470  1.00  0.00     0.131 A 
ATOM     82  C   UNL     1      12.104 -15.925  -4.341  1.00  0.00     0.055 A 
ATOM     83  C   UNL     1      10.087 -14.645  -4.598  1.00  0.00     0.041 A 
ATOM     84  F   UNL     1      10.184 -12.305  -4.568  1.00  0.00    -0.206 F 
ATOM     85  C   UNL     1      10.724 -15.880  -4.549  1.00  0.00     0.022 A 
BRANCH  82  86
ATOM     86  S   UNL     1      12.984 -17.509  -4.427  1.00  0.00     0.124 S 
ATOM     87  O   UNL     1      13.927 -17.265  -5.512  1.00  0.00    -0.237 OA
ATOM     88  O   UNL     1      13.556 -17.610  -3.089  1.00  0.00    -0.237 OA
ATOM     89  O   UNL     1      11.924 -18.470  -4.725  1.00  0.00    -0.744 OA
ENDBRANCH  82  86
ENDBRANCH  55  79
BRANCH  67  90
ATOM     90  C   UNL     1      17.301 -10.753  -8.156  1.00  0.00     0.023 A 
ATOM     91  C   UNL     1      16.652 -10.988  -9.381  1.00  0.00     0.031 A 
ATOM     92  C   UNL     1      18.678 -11.028  -8.076  1.00  0.00     0.131 A 
ATOM     93  C   UNL     1      17.366 -11.536 -10.457  1.00  0.00     0.055 A 
ATOM     94  C   UNL     1      19.398 -11.508  -9.171  1.00  0.00     0.041 A 
ATOM     95  F   UNL     1      19.350 -10.828  -6.931  1.00  0.00    -0.206 F 
ATOM     96  C   UNL     1      18.739 -11.778 -10.367  1.00  0.00     0.022 A 
BRANCH  93  97
ATOM     97  S   UNL     1      16.455 -12.020 -11.950  1.00  0.00     0.124 S 
ATOM     98  O   UNL     1      15.504 -12.993 -11.422  1.00  0.00    -0.237 OA
ATOM     99  O   UNL     1      15.889 -10.752 -12.396  1.00  0.00    -0.237 OA
ATOM    100  O   UNL     1      17.492 -12.575 -12.819  1.00  0.00    -0.744 OA
ENDBRANCH  93  97
ENDBRANCH  67  90
ENDBRANCH  41  42
ENDBRANCH  33  36
ENDBRANCH  31  32
ENDBRANCH  30  31
ENDBRANCH   1  30
TORSDOF 19
