REMARK SMILES CC1(C)S[C@@H]2c3ccccc3C(=O)N2[C@H]1C(=O)N[C@H](Cc1c[nH]c2ccccc12)C(=O)NCCCCCCNC(=O)c1ccc(-c2c3nc(c(-c4cc(S(=O)(=O)[O-])ccc4F)c4ccc([nH]4)c(-c4cc(S(=O)(=O)[O-])ccc4F)c4nc(c(-c5cc(S(=O)(=O)[O-])ccc5F)c5ccc2[nH]5)C=C4)C=C3)cc1
REMARK SMILES IDX 36 1 35 2 34 3 33 4 32 5 30 6 31 7 19 9 18 10 16 11 17 12
REMARK SMILES IDX 15 14 1 15 2 16 3 17 4 18 5 19 14 20 6 21 12 22 7 23 11 24
REMARK SMILES IDX 13 25 8 26 10 27 9 28 20 29 21 30 22 31 29 32 23 33 24 34
REMARK SMILES IDX 28 35 25 37 27 38 26 39 37 40 38 41 39 42 40 43 41 45 42 46
REMARK SMILES IDX 43 47 104 48 44 49 103 50 45 51 46 52 47 53 97 54 48 55
REMARK SMILES IDX 102 56 96 57 98 58 49 59 101 60 95 61 94 62 50 64 82 65
REMARK SMILES IDX 62 66 81 67 63 68 66 69 80 70 99 71 64 72 65 73 79 75 100 76
REMARK SMILES IDX 67 77 51 78 52 79 60 80 53 81 59 82 61 83 58 84 54 85 55 86
REMARK SMILES IDX 56 87 57 88 83 89 84 90 92 91 85 92 91 93 93 94 90 95 86 96
REMARK SMILES IDX 87 97 88 98 89 99 68 100 69 101 77 102 70 103 76 104 78 105
REMARK SMILES IDX 75 106 71 107 72 108 73 109 74 110
REMARK H PARENT 32 8 18 13 23 36 39 44 98 63 66 74
REMARK Flexibility Score: inf
ROOT
ATOM      1  C   UNL     1       6.838  -1.918   5.890  1.00  0.00     0.002 C 
ENDROOT
BRANCH   1   2
ATOM      2  C   UNL     1       5.451  -1.429   5.485  1.00  0.00     0.002 C 
BRANCH   2   3
ATOM      3  C   UNL     1       5.274  -0.860   4.079  1.00  0.00     0.021 C 
BRANCH   3   4
ATOM      4  C   UNL     1       6.240  -1.326   2.990  1.00  0.00     0.116 C 
BRANCH   4   5
ATOM      5  N   UNL     1       6.131  -2.705   2.504  1.00  0.00    -0.354 N 
ATOM      6  C   UNL     1       5.230  -3.352   1.698  1.00  0.00     0.242 C 
ATOM      7  O   UNL     1       5.555  -4.437   1.206  1.00  0.00    -0.273 OA
ATOM      8  H   UNL     1       6.857  -3.289   2.823  1.00  0.00     0.163 HD
BRANCH   6   9
ATOM      9  C   UNL     1       3.796  -2.828   1.509  1.00  0.00     0.175 C 
BRANCH   9  10
ATOM     10  N   UNL     1       3.978  -1.377   1.213  1.00  0.00    -0.342 N 
ATOM     11  C   UNL     1       3.540  -0.154   0.896  1.00  0.00     0.244 C 
ATOM     12  O   UNL     1       4.406   0.479   0.261  1.00  0.00    -0.273 OA
ATOM     13  H   UNL     1       4.951  -1.251   1.298  1.00  0.00     0.164 HD
BRANCH  11  14
ATOM     14  C   UNL     1       2.187   0.529   1.076  1.00  0.00     0.191 C 
ATOM     15  C   UNL     1       1.503  -0.683  -1.097  1.00  0.00     0.026 C 
ATOM     16  C   UNL     1       1.038   0.046   0.166  1.00  0.00     0.042 C 
ATOM     17  C   UNL     1       0.148   1.235  -0.243  1.00  0.00     0.026 C 
ATOM     18  S   UNL     1      -0.005  -1.049   1.257  1.00  0.00    -0.123 SA
ATOM     19  C   UNL     1       0.942  -0.706   2.729  1.00  0.00     0.176 C 
ATOM     20  N   UNL     1       1.725   0.434   2.432  1.00  0.00    -0.309 N 
ATOM     21  C   UNL     1       0.321  -0.359   4.029  1.00  0.00    -0.002 A 
ATOM     22  C   UNL     1       1.782   1.352   3.447  1.00  0.00     0.256 C 
ATOM     23  C   UNL     1      -0.494  -1.122   4.843  1.00  0.00     0.007 A 
ATOM     24  C   UNL     1       0.925   0.808   4.515  1.00  0.00     0.046 A 
ATOM     25  O   UNL     1       2.364   2.417   3.474  1.00  0.00    -0.269 OA
ATOM     26  C   UNL     1      -0.644  -0.723   6.173  1.00  0.00     0.000 A 
ATOM     27  C   UNL     1       0.759   1.243   5.814  1.00  0.00     0.014 A 
ATOM     28  C   UNL     1      -0.021   0.446   6.655  1.00  0.00     0.001 A 
ENDBRANCH  11  14
ENDBRANCH   9  10
BRANCH   9  29
ATOM     29  C   UNL     1       2.866  -3.634   2.467  1.00  0.00     0.072 C 
BRANCH  29  30
ATOM     30  C   UNL     1       3.119  -3.864   3.956  1.00  0.00    -0.020 A 
ATOM     31  C   UNL     1       2.213  -3.522   4.948  1.00  0.00     0.087 A 
ATOM     32  C   UNL     1       4.171  -4.592   4.658  1.00  0.00     0.003 A 
ATOM     33  N   UNL     1       2.681  -3.915   6.171  1.00  0.00    -0.361 N 
ATOM     34  C   UNL     1       3.900  -4.525   6.033  1.00  0.00     0.046 A 
ATOM     35  C   UNL     1       5.355  -5.274   4.295  1.00  0.00     0.010 A 
ATOM     36  H   UNL     1       2.211  -3.780   7.025  1.00  0.00     0.166 HD
ATOM     37  C   UNL     1       4.785  -4.971   7.027  1.00  0.00     0.026 A 
ATOM     38  C   UNL     1       6.278  -5.681   5.272  1.00  0.00     0.001 A 
ATOM     39  C   UNL     1       6.003  -5.512   6.622  1.00  0.00     0.002 A 
ENDBRANCH  29  30
ENDBRANCH   9  29
ENDBRANCH   6   9
ENDBRANCH   4   5
ENDBRANCH   3   4
ENDBRANCH   2   3
ENDBRANCH   1   2
BRANCH   1  40
ATOM     40  C   UNL     1       7.725  -0.789   6.385  1.00  0.00     0.021 C 
BRANCH  40  41
ATOM     41  C   UNL     1       7.355  -0.352   7.794  1.00  0.00     0.116 C 
BRANCH  41  42
ATOM     42  N   UNL     1       7.703  -1.340   8.817  1.00  0.00    -0.352 N 
ATOM     43  C   UNL     1       8.284  -1.099  10.045  1.00  0.00     0.251 C 
ATOM     44  H   UNL     1       7.500  -2.279   8.605  1.00  0.00     0.163 HD
ATOM     45  O   UNL     1       8.607  -2.008  10.797  1.00  0.00    -0.269 OA
BRANCH  43  46
ATOM     46  C   UNL     1       8.542   0.314  10.382  1.00  0.00     0.039 A 
ATOM     47  C   UNL     1       7.475   1.210  10.313  1.00  0.00     0.014 A 
ATOM     48  C   UNL     1       9.861   0.761  10.467  1.00  0.00     0.014 A 
ATOM     49  C   UNL     1       7.749   2.550  10.090  1.00  0.00     0.010 A 
ATOM     50  C   UNL     1      10.119   2.130  10.373  1.00  0.00     0.010 A 
ATOM     51  C   UNL     1       9.072   3.030  10.111  1.00  0.00    -0.014 A 
BRANCH  51  52
ATOM     52  C   UNL     1       9.336   4.471   9.849  1.00  0.00     0.031 A 
ATOM     53  C   UNL     1      10.224   4.912   8.712  1.00  0.00     0.074 A 
ATOM     54  C   UNL     1       8.733   5.389  10.631  1.00  0.00     0.049 A 
ATOM     55  N   UNL     1      10.607   6.122   8.392  1.00  0.00    -0.248 NA
ATOM     56  C   UNL     1      10.758   3.867   7.822  1.00  0.00     0.031 C 
ATOM     57  C   UNL     1       7.832   5.074  11.742  1.00  0.00     0.029 A 
ATOM     58  N   UNL     1       8.762   6.760  10.608  1.00  0.00    -0.354 N 
ATOM     59  C   UNL     1      11.451   5.983   7.293  1.00  0.00     0.074 A 
ATOM     60  C   UNL     1      11.545   4.568   7.014  1.00  0.00     0.031 C 
ATOM     61  C   UNL     1       7.347   6.211  12.251  1.00  0.00     0.029 A 
ATOM     62  C   UNL     1       7.989   7.340  11.588  1.00  0.00     0.049 A 
ATOM     63  H   UNL     1       9.285   7.278   9.954  1.00  0.00     0.167 HD
ATOM     64  C   UNL     1      12.077   6.953   6.583  1.00  0.00     0.034 A 
ATOM     65  C   UNL     1       7.839   8.630  11.948  1.00  0.00     0.034 A 
ATOM     66  C   UNL     1      11.932   8.362   6.858  1.00  0.00     0.049 A 
ATOM     67  C   UNL     1       8.578   9.682  11.168  1.00  0.00     0.074 A 
ATOM     68  C   UNL     1      12.499   9.426   6.178  1.00  0.00     0.029 A 
ATOM     69  N   UNL     1      11.165   8.907   7.878  1.00  0.00    -0.354 N 
ATOM     70  N   UNL     1       9.359   9.534  10.123  1.00  0.00    -0.248 NA
ATOM     71  C   UNL     1       8.423  11.073  11.608  1.00  0.00     0.031 C 
ATOM     72  C   UNL     1      12.140  10.604   6.831  1.00  0.00     0.029 A 
ATOM     73  C   UNL     1      11.271  10.289   7.864  1.00  0.00     0.049 A 
ATOM     74  H   UNL     1      10.624   8.389   8.518  1.00  0.00     0.167 HD
ATOM     75  C   UNL     1       9.769  10.814   9.768  1.00  0.00     0.074 A 
ATOM     76  C   UNL     1       9.126  11.726  10.691  1.00  0.00     0.031 C 
ATOM     77  C   UNL     1      10.607  11.195   8.772  1.00  0.00     0.034 A 
BRANCH  64  78
ATOM     78  C   UNL     1      12.975   6.567   5.428  1.00  0.00     0.023 A 
ATOM     79  C   UNL     1      14.338   6.928   5.450  1.00  0.00     0.031 A 
ATOM     80  C   UNL     1      12.461   6.005   4.246  1.00  0.00     0.131 A 
ATOM     81  C   UNL     1      15.123   6.774   4.300  1.00  0.00     0.055 A 
ATOM     82  C   UNL     1      13.261   5.807   3.118  1.00  0.00     0.041 A 
ATOM     83  F   UNL     1      11.170   5.646   4.167  1.00  0.00    -0.206 F 
ATOM     84  C   UNL     1      14.594   6.209   3.136  1.00  0.00     0.022 A 
BRANCH  81  85
ATOM     85  S   UNL     1      16.832   7.382   4.240  1.00  0.00     0.124 S 
ATOM     86  O   UNL     1      17.572   6.165   3.909  1.00  0.00    -0.237 OA
ATOM     87  O   UNL     1      16.764   8.379   3.175  1.00  0.00    -0.237 OA
ATOM     88  O   UNL     1      17.067   7.904   5.582  1.00  0.00    -0.744 OA
ENDBRANCH  81  85
ENDBRANCH  64  78
BRANCH  65  89
ATOM     89  C   UNL     1       6.935   8.963  13.088  1.00  0.00     0.023 A 
ATOM     90  C   UNL     1       7.157   8.420  14.369  1.00  0.00     0.031 A 
ATOM     91  C   UNL     1       5.768   9.717  12.886  1.00  0.00     0.131 A 
ATOM     92  C   UNL     1       6.184   8.561  15.366  1.00  0.00     0.055 A 
ATOM     93  C   UNL     1       4.844   9.931  13.910  1.00  0.00     0.041 A 
ATOM     94  F   UNL     1       5.503  10.243  11.680  1.00  0.00    -0.206 F 
ATOM     95  C   UNL     1       5.038   9.332  15.151  1.00  0.00     0.022 A 
BRANCH  92  96
ATOM     96  S   UNL     1       6.295   7.615  16.911  1.00  0.00     0.124 S 
ATOM     97  O   UNL     1       6.347   8.674  17.913  1.00  0.00    -0.237 OA
ATOM     98  O   UNL     1       5.057   6.839  16.874  1.00  0.00    -0.237 OA
ATOM     99  O   UNL     1       7.518   6.835  16.751  1.00  0.00    -0.744 OA
ENDBRANCH  92  96
ENDBRANCH  65  89
BRANCH  77 100
ATOM    100  C   UNL     1      10.889  12.667   8.586  1.00  0.00     0.023 A 
ATOM    101  C   UNL     1      10.554  13.294   7.370  1.00  0.00     0.031 A 
ATOM    102  C   UNL     1      11.632  13.398   9.529  1.00  0.00     0.131 A 
ATOM    103  C   UNL     1      11.011  14.590   7.105  1.00  0.00     0.055 A 
ATOM    104  C   UNL     1      12.033  14.712   9.284  1.00  0.00     0.041 A 
ATOM    105  F   UNL     1      11.985  12.842  10.698  1.00  0.00    -0.206 F 
ATOM    106  C   UNL     1      11.739  15.307   8.060  1.00  0.00     0.022 A 
BRANCH 103 107
ATOM    107  S   UNL     1      10.774  15.351   5.475  1.00  0.00     0.124 S 
ATOM    108  O   UNL     1      10.011  16.551   5.810  1.00  0.00    -0.237 OA
ATOM    109  O   UNL     1      12.149  15.586   5.044  1.00  0.00    -0.237 OA
ATOM    110  O   UNL     1      10.041  14.341   4.718  1.00  0.00    -0.744 OA
ENDBRANCH 103 107
ENDBRANCH  77 100
ENDBRANCH  51  52
ENDBRANCH  43  46
ENDBRANCH  41  42
ENDBRANCH  40  41
ENDBRANCH   1  40
TORSDOF 20
