REMARK SMILES NS(=O)(=O)c1ccc(-n2nc(C(=O)NCCCCCCCCCCC(=O)NCCCCCCNC(=O)c3ccc(-c4c5nc(c(-c6cc(S(=O)(=O)[O-])ccc6F)c6ccc([nH]6)c(-c6cc(S(=O)(=O)[O-])ccc6F)c6nc(c(-c7cc(S(=O)(=O)[O-])ccc7F)c7ccc4[nH]7)C=C6)C=C5)cc3)cc2-c2ccccc2)cc1
REMARK SMILES IDX 23 1 22 2 21 3 20 4 19 5 18 6 17 7 16 8 15 9 14 10 12 11
REMARK SMILES IDX 13 12 11 14 9 15 10 16 101 17 100 18 8 19 5 20 6 21 109 22
REMARK SMILES IDX 7 23 108 24 2 25 3 26 4 27 1 28 102 31 103 32 107 33 104 34
REMARK SMILES IDX 106 35 105 36 24 37 25 38 26 39 27 40 28 42 29 43 30 44
REMARK SMILES IDX 31 45 32 46 33 47 34 48 35 49 36 51 37 52 38 53 99 54 39 55
REMARK SMILES IDX 98 56 40 57 41 58 42 59 92 60 43 61 97 62 91 63 93 64 44 65
REMARK SMILES IDX 96 66 90 67 89 68 45 70 77 71 57 72 76 73 58 74 61 75 75 76
REMARK SMILES IDX 94 77 59 78 60 79 74 81 95 82 62 83 46 84 47 85 55 86 48 87
REMARK SMILES IDX 54 88 56 89 53 90 49 91 50 92 51 93 52 94 78 95 79 96 87 97
REMARK SMILES IDX 80 98 86 99 88 100 85 101 81 102 82 103 83 104 84 105 63 106
REMARK SMILES IDX 64 107 72 108 65 109 71 110 73 111 70 112 66 113 67 114
REMARK SMILES IDX 68 115 69 116
REMARK H PARENT 14 13 1 29 1 30 27 41 34 50 93 69 61 80
REMARK Flexibility Score: inf
ROOT
ATOM      1  C   UNL     1       1.242   7.663 -17.224  1.00  0.00     0.010 C 
ENDROOT
BRANCH   1   2
ATOM      2  C   UNL     1       2.005   7.813 -15.913  1.00  0.00     0.001 C 
BRANCH   2   3
ATOM      3  C   UNL     1       1.105   8.047 -14.692  1.00  0.00     0.000 C 
BRANCH   3   4
ATOM      4  C   UNL     1       0.981   6.820 -13.800  1.00  0.00     0.000 C 
BRANCH   4   5
ATOM      5  C   UNL     1       2.311   6.408 -13.169  1.00  0.00     0.000 C 
BRANCH   5   6
ATOM      6  C   UNL     1       2.983   7.526 -12.357  1.00  0.00     0.000 C 
BRANCH   6   7
ATOM      7  C   UNL     1       2.179   7.977 -11.129  1.00  0.00     0.002 C 
BRANCH   7   8
ATOM      8  C   UNL     1       1.691   6.818 -10.262  1.00  0.00     0.021 C 
BRANCH   8   9
ATOM      9  C   UNL     1       2.831   5.882  -9.875  1.00  0.00     0.116 C 
BRANCH   9  10
ATOM     10  N   UNL     1       3.368   6.227  -8.588  1.00  0.00    -0.351 N 
ATOM     11  C   UNL     1       3.188   5.693  -7.337  1.00  0.00     0.271 C 
ATOM     12  O   UNL     1       3.655   6.355  -6.407  1.00  0.00    -0.267 OA
ATOM     13  H   UNL     1       3.984   6.994  -8.607  1.00  0.00     0.163 HD
BRANCH  11  14
ATOM     14  C   UNL     1       2.504   4.400  -7.122  1.00  0.00     0.151 A 
ATOM     15  N   UNL     1       1.876   2.690  -5.982  1.00  0.00    -0.232 N 
ATOM     16  N   UNL     1       2.275   3.973  -5.863  1.00  0.00    -0.162 NA
ATOM     17  C   UNL     1       1.585   2.352  -7.287  1.00  0.00     0.075 A 
ATOM     18  C   UNL     1       1.994   3.438  -8.025  1.00  0.00     0.065 A 
BRANCH  15  19
ATOM     19  C   UNL     1       1.704   1.883  -4.841  1.00  0.00     0.065 A 
ATOM     20  C   UNL     1       1.022   0.235  -2.739  1.00  0.00     0.082 A 
ATOM     21  C   UNL     1       1.711  -0.303  -3.828  1.00  0.00     0.024 A 
ATOM     22  C   UNL     1       0.725   1.602  -2.666  1.00  0.00     0.024 A 
ATOM     23  C   UNL     1       2.045   0.525  -4.892  1.00  0.00     0.030 A 
ATOM     24  C   UNL     1       1.099   2.441  -3.710  1.00  0.00     0.030 A 
BRANCH  20  25
ATOM     25  S   UNL     1       0.511  -0.831  -1.432  1.00  0.00     0.238 S 
ATOM     26  O   UNL     1       1.137  -2.115  -1.573  1.00  0.00    -0.207 OA
ATOM     27  O   UNL     1      -0.923  -0.679  -1.256  1.00  0.00    -0.207 OA
BRANCH  25  28
ATOM     28  N   UNL     1       1.226  -0.116  -0.097  1.00  0.00    -0.225 NA
ATOM     29  H   UNL     1       0.999  -0.653   0.740  1.00  0.00     0.137 HD
ATOM     30  H   UNL     1       0.878   0.837   0.006  1.00  0.00     0.137 HD
ENDBRANCH  25  28
ENDBRANCH  20  25
ENDBRANCH  15  19
BRANCH  17  31
ATOM     31  C   UNL     1       0.887   1.168  -7.778  1.00  0.00     0.000 A 
ATOM     32  C   UNL     1      -0.357   0.797  -7.254  1.00  0.00     0.010 A 
ATOM     33  C   UNL     1       1.420   0.446  -8.854  1.00  0.00     0.010 A 
ATOM     34  C   UNL     1      -1.050  -0.290  -7.787  1.00  0.00     0.001 A 
ATOM     35  C   UNL     1       0.724  -0.636  -9.390  1.00  0.00     0.001 A 
ATOM     36  C   UNL     1      -0.510  -1.004  -8.856  1.00  0.00     0.000 A 
ENDBRANCH  17  31
ENDBRANCH  11  14
ENDBRANCH   9  10
ENDBRANCH   8   9
ENDBRANCH   7   8
ENDBRANCH   6   7
ENDBRANCH   5   6
ENDBRANCH   4   5
ENDBRANCH   3   4
ENDBRANCH   2   3
ENDBRANCH   1   2
BRANCH   1  37
ATOM     37  C   UNL     1       0.349   8.841 -17.615  1.00  0.00     0.100 C 
BRANCH  37  38
ATOM     38  C   UNL     1       1.066   9.968 -18.330  1.00  0.00     0.219 C 
ATOM     39  O   UNL     1       1.072  10.023 -19.562  1.00  0.00    -0.275 OA
ATOM     40  N   UNL     1       1.682  10.966 -17.639  1.00  0.00    -0.356 N 
ATOM     41  H   UNL     1       2.100  11.658 -18.201  1.00  0.00     0.163 HD
BRANCH  40  42
ATOM     42  C   UNL     1       1.823  11.179 -16.211  1.00  0.00     0.116 C 
BRANCH  42  43
ATOM     43  C   UNL     1       3.294  11.135 -15.778  1.00  0.00     0.021 C 
BRANCH  43  44
ATOM     44  C   UNL     1       4.011  12.484 -15.850  1.00  0.00     0.002 C 
BRANCH  44  45
ATOM     45  C   UNL     1       3.436  13.584 -14.945  1.00  0.00     0.002 C 
BRANCH  45  46
ATOM     46  C   UNL     1       3.362  13.268 -13.443  1.00  0.00     0.021 C 
BRANCH  46  47
ATOM     47  C   UNL     1       4.724  13.124 -12.782  1.00  0.00     0.116 C 
BRANCH  47  48
ATOM     48  N   UNL     1       5.505  14.362 -12.848  1.00  0.00    -0.352 N 
ATOM     49  C   UNL     1       6.788  14.612 -12.397  1.00  0.00     0.251 C 
ATOM     50  H   UNL     1       5.052  15.125 -13.274  1.00  0.00     0.163 HD
ATOM     51  O   UNL     1       7.160  15.763 -12.197  1.00  0.00    -0.269 OA
BRANCH  49  52
ATOM     52  C   UNL     1       7.697  13.475 -12.175  1.00  0.00     0.039 A 
ATOM     53  C   UNL     1       8.640  13.458 -11.140  1.00  0.00     0.014 A 
ATOM     54  C   UNL     1       7.584  12.398 -13.046  1.00  0.00     0.014 A 
ATOM     55  C   UNL     1       9.419  12.315 -10.963  1.00  0.00     0.010 A 
ATOM     56  C   UNL     1       8.189  11.214 -12.745  1.00  0.00     0.010 A 
ATOM     57  C   UNL     1       9.178  11.197 -11.773  1.00  0.00    -0.014 A 
BRANCH  57  58
ATOM     58  C   UNL     1       9.866   9.928 -11.600  1.00  0.00     0.031 A 
ATOM     59  C   UNL     1       9.604   9.275 -10.296  1.00  0.00     0.074 A 
ATOM     60  C   UNL     1      10.418   9.282 -12.652  1.00  0.00     0.049 A 
ATOM     61  N   UNL     1      10.431   9.133  -9.318  1.00  0.00    -0.248 NA
ATOM     62  C   UNL     1       8.218   8.910  -9.951  1.00  0.00     0.031 C 
ATOM     63  C   UNL     1      10.455   9.710 -14.057  1.00  0.00     0.029 A 
ATOM     64  N   UNL     1      10.938   8.029 -12.717  1.00  0.00    -0.354 N 
ATOM     65  C   UNL     1       9.749   8.406  -8.349  1.00  0.00     0.074 A 
ATOM     66  C   UNL     1       8.357   8.547  -8.674  1.00  0.00     0.031 C 
ATOM     67  C   UNL     1      10.734   8.650 -14.847  1.00  0.00     0.029 A 
ATOM     68  C   UNL     1      11.041   7.506 -14.006  1.00  0.00     0.049 A 
ATOM     69  H   UNL     1      11.219   7.530 -11.918  1.00  0.00     0.167 HD
ATOM     70  C   UNL     1      10.409   7.522  -7.548  1.00  0.00     0.034 A 
ATOM     71  C   UNL     1      11.321   6.218 -14.354  1.00  0.00     0.034 A 
ATOM     72  C   UNL     1      11.844   7.692  -7.688  1.00  0.00     0.049 A 
ATOM     73  C   UNL     1      12.004   5.613 -13.178  1.00  0.00     0.074 A 
ATOM     74  C   UNL     1      12.710   8.756  -7.518  1.00  0.00     0.029 A 
ATOM     75  N   UNL     1      12.527   6.781  -8.469  1.00  0.00    -0.354 N 
ATOM     76  N   UNL     1      13.170   6.021 -12.752  1.00  0.00    -0.248 NA
ATOM     77  C   UNL     1      11.182   4.957 -12.168  1.00  0.00     0.031 C 
ATOM     78  C   UNL     1      13.620   8.661  -8.612  1.00  0.00     0.029 A 
ATOM     79  C   UNL     1      13.342   7.488  -9.319  1.00  0.00     0.049 A 
ATOM     80  H   UNL     1      12.443   5.801  -8.426  1.00  0.00     0.167 HD
ATOM     81  C   UNL     1      13.042   6.102 -11.372  1.00  0.00     0.074 A 
ATOM     82  C   UNL     1      11.838   5.328 -11.061  1.00  0.00     0.031 C 
ATOM     83  C   UNL     1      13.728   7.039 -10.647  1.00  0.00     0.034 A 
BRANCH  70  84
ATOM     84  C   UNL     1       9.824   6.260  -6.949  1.00  0.00     0.023 A 
ATOM     85  C   UNL     1      10.709   5.458  -6.202  1.00  0.00     0.031 A 
ATOM     86  C   UNL     1       8.590   5.657  -7.280  1.00  0.00     0.131 A 
ATOM     87  C   UNL     1      10.432   4.105  -5.955  1.00  0.00     0.055 A 
ATOM     88  C   UNL     1       8.283   4.330  -6.959  1.00  0.00     0.041 A 
ATOM     89  F   UNL     1       7.649   6.266  -8.007  1.00  0.00    -0.206 F 
ATOM     90  C   UNL     1       9.223   3.532  -6.331  1.00  0.00     0.022 A 
BRANCH  87  91
ATOM     91  S   UNL     1      11.775   3.066  -5.329  1.00  0.00     0.124 S 
ATOM     92  O   UNL     1      12.832   3.348  -6.296  1.00  0.00    -0.237 OA
ATOM     93  O   UNL     1      11.970   3.603  -3.987  1.00  0.00    -0.237 OA
ATOM     94  O   UNL     1      11.217   1.718  -5.391  1.00  0.00    -0.744 OA
ENDBRANCH  87  91
ENDBRANCH  70  84
BRANCH  71  95
ATOM     95  C   UNL     1      10.777   5.444 -15.513  1.00  0.00     0.023 A 
ATOM     96  C   UNL     1      11.350   4.243 -15.994  1.00  0.00     0.031 A 
ATOM     97  C   UNL     1       9.508   5.782 -16.041  1.00  0.00     0.131 A 
ATOM     98  C   UNL     1      10.664   3.452 -16.954  1.00  0.00     0.055 A 
ATOM     99  C   UNL     1       8.841   5.003 -16.991  1.00  0.00     0.041 A 
ATOM    100  F   UNL     1       8.825   6.844 -15.587  1.00  0.00    -0.206 F 
ATOM    101  C   UNL     1       9.412   3.828 -17.445  1.00  0.00     0.022 A 
BRANCH  98 102
ATOM    102  S   UNL     1      11.343   1.853 -17.520  1.00  0.00     0.124 S 
ATOM    103  O   UNL     1      12.479   2.267 -18.335  1.00  0.00    -0.237 OA
ATOM    104  O   UNL     1      11.652   1.180 -16.264  1.00  0.00    -0.237 OA
ATOM    105  O   UNL     1      10.235   1.258 -18.270  1.00  0.00    -0.744 OA
ENDBRANCH  98 102
ENDBRANCH  71  95
BRANCH  83 106
ATOM    106  C   UNL     1      14.830   7.827 -11.333  1.00  0.00     0.023 A 
ATOM    107  C   UNL     1      14.658   8.623 -12.491  1.00  0.00     0.031 A 
ATOM    108  C   UNL     1      16.078   7.886 -10.688  1.00  0.00     0.131 A 
ATOM    109  C   UNL     1      15.717   9.425 -12.963  1.00  0.00     0.055 A 
ATOM    110  C   UNL     1      17.114   8.702 -11.142  1.00  0.00     0.041 A 
ATOM    111  F   UNL     1      16.298   7.179  -9.567  1.00  0.00    -0.206 F 
ATOM    112  C   UNL     1      16.939   9.471 -12.285  1.00  0.00     0.022 A 
BRANCH 109 113
ATOM    113  S   UNL     1      15.529  10.417 -14.482  1.00  0.00     0.124 S 
ATOM    114  O   UNL     1      14.966   9.471 -15.438  1.00  0.00    -0.237 OA
ATOM    115  O   UNL     1      14.643  11.495 -14.051  1.00  0.00    -0.237 OA
ATOM    116  O   UNL     1      16.898  10.841 -14.781  1.00  0.00    -0.744 OA
ENDBRANCH 109 113
ENDBRANCH  83 106
ENDBRANCH  57  58
ENDBRANCH  49  52
ENDBRANCH  47  48
ENDBRANCH  46  47
ENDBRANCH  45  46
ENDBRANCH  44  45
ENDBRANCH  43  44
ENDBRANCH  42  43
ENDBRANCH  40  42
ENDBRANCH  37  38
ENDBRANCH   1  37
TORSDOF 31
