REMARK SMILES CC(C)[NH2+][C@]1(C(=O)NCCCCCCNC(=O)c2ccc(-c3c4nc(c(-c5cc(S(=O)(=O)[O-])ccc5F)c5ccc([nH]5)c(-c5cc(S(=O)(=O)[O-])ccc5F)c5nc(c(-c6cc(S(=O)(=O)[O-])ccc6F)c6ccc3[nH]6)C=C5)C=C4)cc2)CC[C@H]([NH+]2CCC(C)(C)CC2)C1
REMARK SMILES IDX 12 1 11 2 10 3 9 4 8 5 6 6 7 7 5 9 81 10 92 11 82 12 83 13
REMARK SMILES IDX 4 14 2 17 1 18 3 19 84 20 85 21 91 22 86 24 90 25 87 26
REMARK SMILES IDX 88 27 89 28 13 29 14 30 15 31 16 32 17 34 18 35 19 36 80 37
REMARK SMILES IDX 20 38 79 39 21 40 22 41 23 42 73 43 24 44 78 45 72 46 74 47
REMARK SMILES IDX 25 48 77 49 71 50 70 51 26 53 58 54 38 55 57 56 39 57 42 58
REMARK SMILES IDX 56 59 75 60 40 61 41 62 55 64 76 65 43 66 27 67 28 68 36 69
REMARK SMILES IDX 29 70 35 71 37 72 34 73 30 74 31 75 32 76 33 77 59 78 60 79
REMARK SMILES IDX 68 80 61 81 67 82 69 83 66 84 62 85 63 86 64 87 65 88 44 89
REMARK SMILES IDX 45 90 53 91 46 92 52 93 54 94 51 95 47 96 48 97 49 98 50 99
REMARK H PARENT 8 8 4 15 4 16 84 23 15 33 74 52 42 63
REMARK Flexibility Score: inf
ROOT
ATOM      1  C   UNL     1      -2.712   3.025  -3.489  1.00  0.00     0.002 C 
ENDROOT
BRANCH   1   2
ATOM      2  C   UNL     1      -2.725   2.483  -2.063  1.00  0.00     0.002 C 
BRANCH   2   3
ATOM      3  C   UNL     1      -3.022   0.997  -1.922  1.00  0.00     0.021 C 
BRANCH   3   4
ATOM      4  C   UNL     1      -1.907   0.008  -2.303  1.00  0.00     0.116 C 
BRANCH   4   5
ATOM      5  N   UNL     1      -0.992  -0.302  -1.200  1.00  0.00    -0.351 N 
ATOM      6  C   UNL     1      -0.754  -1.429  -0.442  1.00  0.00     0.281 C 
ATOM      7  O   UNL     1       0.150  -1.331   0.398  1.00  0.00    -0.268 OA
ATOM      8  H   UNL     1      -0.424   0.460  -0.945  1.00  0.00     0.163 HD
BRANCH   6   9
ATOM      9  C   UNL     1      -1.593  -2.752  -0.562  1.00  0.00     0.181 C 
ATOM     10  C   UNL     1      -1.630  -3.254  -2.018  1.00  0.00     0.085 C 
ATOM     11  C   UNL     1      -0.882  -3.978   0.112  1.00  0.00     0.144 C 
ATOM     12  C   UNL     1      -1.575  -4.784  -2.040  1.00  0.00     0.072 C 
ATOM     13  C   UNL     1      -1.380  -5.273  -0.597  1.00  0.00     0.191 C 
BRANCH   9  14
ATOM     14  N   UNL     1      -2.870  -2.676   0.178  1.00  0.00    -0.331 N 
ATOM     15  H   UNL     1      -3.449  -3.438  -0.175  1.00  0.00     0.347 HD
ATOM     16  H   UNL     1      -2.553  -2.697   1.148  1.00  0.00     0.347 HD
BRANCH  14  17
ATOM     17  C   UNL     1      -3.704  -1.498   0.163  1.00  0.00     0.176 C 
ATOM     18  C   UNL     1      -5.176  -1.897   0.266  1.00  0.00     0.075 C 
ATOM     19  C   UNL     1      -3.347  -0.585   1.341  1.00  0.00     0.075 C 
ENDBRANCH  14  17
ENDBRANCH   9  14
BRANCH  13  20
ATOM     20  N   UNL     1      -2.527  -6.074  -0.051  1.00  0.00    -0.332 N 
ATOM     21  C   UNL     1      -2.677  -7.344  -0.793  1.00  0.00     0.263 C 
ATOM     22  C   UNL     1      -3.781  -5.322   0.061  1.00  0.00     0.263 C 
ATOM     23  H   UNL     1      -2.290  -6.303   0.915  1.00  0.00     0.348 HD
ATOM     24  C   UNL     1      -3.970  -8.129  -0.514  1.00  0.00     0.068 C 
ATOM     25  C   UNL     1      -5.073  -6.101   0.296  1.00  0.00     0.068 C 
ATOM     26  C   UNL     1      -5.237  -7.271  -0.672  1.00  0.00    -0.025 C 
ATOM     27  C   UNL     1      -6.490  -8.070  -0.278  1.00  0.00     0.011 C 
ATOM     28  C   UNL     1      -5.427  -6.785  -2.123  1.00  0.00     0.011 C 
ENDBRANCH  13  20
ENDBRANCH   6   9
ENDBRANCH   4   5
ENDBRANCH   3   4
ENDBRANCH   2   3
ENDBRANCH   1   2
BRANCH   1  29
ATOM     29  C   UNL     1      -3.931   2.684  -4.356  1.00  0.00     0.021 C 
BRANCH  29  30
ATOM     30  C   UNL     1      -5.300   2.946  -3.728  1.00  0.00     0.116 C 
BRANCH  30  31
ATOM     31  N   UNL     1      -5.492   4.343  -3.378  1.00  0.00    -0.352 N 
ATOM     32  C   UNL     1      -6.298   5.284  -3.963  1.00  0.00     0.251 C 
ATOM     33  H   UNL     1      -4.966   4.661  -2.608  1.00  0.00     0.163 HD
ATOM     34  O   UNL     1      -6.156   6.476  -3.673  1.00  0.00    -0.269 OA
BRANCH  32  35
ATOM     35  C   UNL     1      -7.316   4.878  -4.953  1.00  0.00     0.039 A 
ATOM     36  C   UNL     1      -7.405   5.575  -6.160  1.00  0.00     0.014 A 
ATOM     37  C   UNL     1      -8.185   3.815  -4.689  1.00  0.00     0.014 A 
ATOM     38  C   UNL     1      -8.323   5.164  -7.129  1.00  0.00     0.010 A 
ATOM     39  C   UNL     1      -9.049   3.363  -5.684  1.00  0.00     0.010 A 
ATOM     40  C   UNL     1      -9.127   4.032  -6.915  1.00  0.00    -0.014 A 
BRANCH  40  41
ATOM     41  C   UNL     1     -10.044   3.533  -7.974  1.00  0.00     0.031 A 
ATOM     42  C   UNL     1     -11.531   3.528  -7.754  1.00  0.00     0.074 A 
ATOM     43  C   UNL     1      -9.528   3.027  -9.112  1.00  0.00     0.049 A 
ATOM     44  N   UNL     1     -12.483   3.085  -8.535  1.00  0.00    -0.248 NA
ATOM     45  C   UNL     1     -12.005   4.062  -6.470  1.00  0.00     0.031 C 
ATOM     46  C   UNL     1      -8.100   2.931  -9.420  1.00  0.00     0.029 A 
ATOM     47  N   UNL     1     -10.142   2.489 -10.215  1.00  0.00    -0.354 N 
ATOM     48  C   UNL     1     -13.670   3.280  -7.835  1.00  0.00     0.074 A 
ATOM     49  C   UNL     1     -13.303   3.813  -6.539  1.00  0.00     0.031 C 
ATOM     50  C   UNL     1      -7.948   2.388 -10.637  1.00  0.00     0.029 A 
ATOM     51  C   UNL     1      -9.262   2.054 -11.179  1.00  0.00     0.049 A 
ATOM     52  H   UNL     1     -11.120   2.419 -10.308  1.00  0.00     0.167 HD
ATOM     53  C   UNL     1     -14.945   3.059  -8.244  1.00  0.00     0.034 A 
ATOM     54  C   UNL     1      -9.484   1.442 -12.359  1.00  0.00     0.034 A 
ATOM     55  C   UNL     1     -15.287   2.521  -9.540  1.00  0.00     0.049 A 
ATOM     56  C   UNL     1     -10.903   1.174 -12.784  1.00  0.00     0.074 A 
ATOM     57  C   UNL     1     -16.542   2.314 -10.085  1.00  0.00     0.029 A 
ATOM     58  N   UNL     1     -14.369   2.084 -10.489  1.00  0.00    -0.354 N 
ATOM     59  N   UNL     1     -12.020   1.427 -12.141  1.00  0.00    -0.248 NA
ATOM     60  C   UNL     1     -11.092   0.548 -14.098  1.00  0.00     0.031 C 
ATOM     61  C   UNL     1     -16.385   1.681 -11.324  1.00  0.00     0.029 A 
ATOM     62  C   UNL     1     -15.030   1.569 -11.595  1.00  0.00     0.049 A 
ATOM     63  H   UNL     1     -13.391   2.134 -10.391  1.00  0.00     0.167 HD
ATOM     64  C   UNL     1     -13.046   1.007 -12.981  1.00  0.00     0.074 A 
ATOM     65  C   UNL     1     -12.414   0.503 -14.185  1.00  0.00     0.031 C 
ATOM     66  C   UNL     1     -14.389   1.038 -12.778  1.00  0.00     0.034 A 
BRANCH  53  67
ATOM     67  C   UNL     1     -16.050   3.371  -7.258  1.00  0.00     0.023 A 
ATOM     68  C   UNL     1     -16.232   4.665  -6.738  1.00  0.00     0.031 A 
ATOM     69  C   UNL     1     -16.898   2.353  -6.787  1.00  0.00     0.131 A 
ATOM     70  C   UNL     1     -17.157   4.885  -5.707  1.00  0.00     0.055 A 
ATOM     71  C   UNL     1     -17.885   2.600  -5.830  1.00  0.00     0.041 A 
ATOM     72  F   UNL     1     -16.766   1.093  -7.229  1.00  0.00    -0.206 F 
ATOM     73  C   UNL     1     -18.005   3.867  -5.267  1.00  0.00     0.022 A 
BRANCH  70  74
ATOM     74  S   UNL     1     -17.102   6.468  -4.821  1.00  0.00     0.124 S 
ATOM     75  O   UNL     1     -15.711   6.508  -4.375  1.00  0.00    -0.237 OA
ATOM     76  O   UNL     1     -17.469   7.423  -5.860  1.00  0.00    -0.237 OA
ATOM     77  O   UNL     1     -18.085   6.298  -3.753  1.00  0.00    -0.744 OA
ENDBRANCH  70  74
ENDBRANCH  53  67
BRANCH  54  78
ATOM     78  C   UNL     1      -8.332   1.028 -13.209  1.00  0.00     0.023 A 
ATOM     79  C   UNL     1      -8.089   1.631 -14.452  1.00  0.00     0.031 A 
ATOM     80  C   UNL     1      -7.452   0.016 -12.782  1.00  0.00     0.131 A 
ATOM     81  C   UNL     1      -7.009   1.199 -15.239  1.00  0.00     0.055 A 
ATOM     82  C   UNL     1      -6.353  -0.377 -13.546  1.00  0.00     0.041 A 
ATOM     83  F   UNL     1      -7.636  -0.587 -11.596  1.00  0.00    -0.206 F 
ATOM     84  C   UNL     1      -6.131   0.210 -14.787  1.00  0.00     0.022 A 
BRANCH  81  85
ATOM     85  S   UNL     1      -6.794   1.915 -16.892  1.00  0.00     0.124 S 
ATOM     86  O   UNL     1      -8.043   1.539 -17.544  1.00  0.00    -0.237 OA
ATOM     87  O   UNL     1      -6.629   3.333 -16.589  1.00  0.00    -0.237 OA
ATOM     88  O   UNL     1      -5.598   1.246 -17.398  1.00  0.00    -0.744 OA
ENDBRANCH  81  85
ENDBRANCH  54  78
BRANCH  66  89
ATOM     89  C   UNL     1     -15.263   0.529 -13.900  1.00  0.00     0.023 A 
ATOM     90  C   UNL     1     -15.256  -0.822 -14.288  1.00  0.00     0.031 A 
ATOM     91  C   UNL     1     -16.105   1.412 -14.601  1.00  0.00     0.131 A 
ATOM     92  C   UNL     1     -16.029  -1.241 -15.382  1.00  0.00     0.055 A 
ATOM     93  C   UNL     1     -16.921   0.977 -15.646  1.00  0.00     0.041 A 
ATOM     94  F   UNL     1     -16.149   2.715 -14.279  1.00  0.00    -0.206 F 
ATOM     95  C   UNL     1     -16.876  -0.354 -16.051  1.00  0.00     0.022 A 
BRANCH  92  96
ATOM     96  S   UNL     1     -15.838  -2.942 -15.984  1.00  0.00     0.124 S 
ATOM     97  O   UNL     1     -14.415  -2.991 -16.305  1.00  0.00    -0.237 OA
ATOM     98  O   UNL     1     -16.260  -3.731 -14.832  1.00  0.00    -0.237 OA
ATOM     99  O   UNL     1     -16.735  -3.000 -17.137  1.00  0.00    -0.744 OA
ENDBRANCH  92  96
ENDBRANCH  66  89
ENDBRANCH  40  41
ENDBRANCH  32  35
ENDBRANCH  30  31
ENDBRANCH  29  30
ENDBRANCH   1  29
TORSDOF 19
