REMARK SMILES O=C(NCCCCCCNC(=O)[C@H]1Cc2cc(O)ccc2C[NH2+]1)c1ccc(-c2c3nc(c(-c4cc(S(=O)(=O)[O-])ccc4F)c4ccc([nH]4)c(-c4cc(S(=O)(=O)[O-])ccc4F)c4nc(c(-c5cc(S(=O)(=O)[O-])ccc5F)c5ccc2[nH]5)C=C4)C=C3)cc1
REMARK SMILES IDX 5 1 4 2 3 3 1 4 2 5 24 7 25 8 86 9 26 10 85 11 27 12 28 13
REMARK SMILES IDX 29 14 79 15 30 16 84 17 78 18 80 19 31 20 83 21 77 22 76 23
REMARK SMILES IDX 32 25 64 26 44 27 63 28 45 29 48 30 62 31 81 32 46 33 47 34
REMARK SMILES IDX 61 36 82 37 49 38 33 39 34 40 42 41 35 42 41 43 43 44 40 45
REMARK SMILES IDX 36 46 37 47 38 48 39 49 65 50 66 51 74 52 67 53 73 54 75 55
REMARK SMILES IDX 72 56 68 57 69 58 70 59 71 60 50 61 51 62 59 63 52 64 58 65
REMARK SMILES IDX 60 66 57 67 53 68 54 69 55 70 56 71 6 72 7 73 8 74 9 75
REMARK SMILES IDX 10 76 11 77 12 79 13 80 14 81 23 82 15 83 22 84 16 87 21 88
REMARK SMILES IDX 17 89 20 90 19 91 18 92
REMARK H PARENT 3 6 80 24 48 35 10 78 23 85 23 86 18 93
REMARK Flexibility Score: inf
ROOT
ATOM      1  C   UNL     1       4.669   0.396  -2.646  1.00  0.00     0.021 C 
ENDROOT
BRANCH   1   2
ATOM      2  C   UNL     1       4.394   0.661  -1.173  1.00  0.00     0.116 C 
BRANCH   2   3
ATOM      3  N   UNL     1       2.975   0.754  -0.874  1.00  0.00    -0.352 N 
ATOM      4  O   UNL     1       1.026   0.203   0.110  1.00  0.00    -0.269 OA
ATOM      5  C   UNL     1       2.255   0.124   0.109  1.00  0.00     0.251 C 
ATOM      6  H   UNL     1       2.458   1.352  -1.460  1.00  0.00     0.163 HD
BRANCH   5   7
ATOM      7  C   UNL     1       2.948  -0.659   1.156  1.00  0.00     0.039 A 
ATOM      8  C   UNL     1       2.396  -1.874   1.567  1.00  0.00     0.014 A 
ATOM      9  C   UNL     1       4.128  -0.195   1.745  1.00  0.00     0.014 A 
ATOM     10  C   UNL     1       3.041  -2.629   2.550  1.00  0.00     0.010 A 
ATOM     11  C   UNL     1       4.822  -0.997   2.645  1.00  0.00     0.010 A 
ATOM     12  C   UNL     1       4.269  -2.206   3.087  1.00  0.00    -0.014 A 
BRANCH  12  13
ATOM     13  C   UNL     1       4.952  -2.993   4.148  1.00  0.00     0.031 A 
ATOM     14  C   UNL     1       5.190  -2.388   5.507  1.00  0.00     0.074 A 
ATOM     15  C   UNL     1       5.373  -4.245   3.887  1.00  0.00     0.049 A 
ATOM     16  N   UNL     1       5.750  -2.924   6.561  1.00  0.00    -0.248 NA
ATOM     17  C   UNL     1       4.774  -0.989   5.700  1.00  0.00     0.031 C 
ATOM     18  C   UNL     1       5.261  -4.912   2.591  1.00  0.00     0.029 A 
ATOM     19  N   UNL     1       5.973  -5.180   4.694  1.00  0.00    -0.354 N 
ATOM     20  C   UNL     1       5.746  -1.932   7.536  1.00  0.00     0.074 A 
ATOM     21  C   UNL     1       5.223  -0.736   6.919  1.00  0.00     0.031 C 
ATOM     22  C   UNL     1       5.734  -6.162   2.700  1.00  0.00     0.029 A 
ATOM     23  C   UNL     1       6.224  -6.375   4.062  1.00  0.00     0.049 A 
ATOM     24  H   UNL     1       6.203  -5.010   5.636  1.00  0.00     0.167 HD
ATOM     25  C   UNL     1       6.097  -2.022   8.841  1.00  0.00     0.034 A 
ATOM     26  C   UNL     1       6.777  -7.516   4.522  1.00  0.00     0.034 A 
ATOM     27  C   UNL     1       6.604  -3.226   9.448  1.00  0.00     0.049 A 
ATOM     28  C   UNL     1       7.160  -7.603   5.978  1.00  0.00     0.074 A 
ATOM     29  C   UNL     1       6.956  -3.436  10.769  1.00  0.00     0.029 A 
ATOM     30  N   UNL     1       6.828  -4.424   8.782  1.00  0.00    -0.354 N 
ATOM     31  N   UNL     1       7.063  -6.684   6.912  1.00  0.00    -0.248 NA
ATOM     32  C   UNL     1       7.703  -8.882   6.452  1.00  0.00     0.031 C 
ATOM     33  C   UNL     1       7.454  -4.734  10.888  1.00  0.00     0.029 A 
ATOM     34  C   UNL     1       7.337  -5.368   9.660  1.00  0.00     0.049 A 
ATOM     35  H   UNL     1       6.652  -4.580   7.826  1.00  0.00     0.167 HD
ATOM     36  C   UNL     1       7.524  -7.277   8.085  1.00  0.00     0.074 A 
ATOM     37  C   UNL     1       7.854  -8.647   7.750  1.00  0.00     0.031 C 
ATOM     38  C   UNL     1       7.673  -6.733   9.321  1.00  0.00     0.034 A 
BRANCH  25  39
ATOM     39  C   UNL     1       5.906  -0.806   9.718  1.00  0.00     0.023 A 
ATOM     40  C   UNL     1       7.001  -0.230  10.387  1.00  0.00     0.031 A 
ATOM     41  C   UNL     1       4.624  -0.281   9.974  1.00  0.00     0.131 A 
ATOM     42  C   UNL     1       6.791   0.812  11.299  1.00  0.00     0.055 A 
ATOM     43  C   UNL     1       4.427   0.795  10.839  1.00  0.00     0.041 A 
ATOM     44  F   UNL     1       3.542  -0.795   9.366  1.00  0.00    -0.206 F 
ATOM     45  C   UNL     1       5.513   1.337  11.518  1.00  0.00     0.022 A 
BRANCH  42  46
ATOM     46  S   UNL     1       8.152   1.482  12.292  1.00  0.00     0.124 S 
ATOM     47  O   UNL     1       8.141   2.891  11.906  1.00  0.00    -0.237 OA
ATOM     48  O   UNL     1       7.701   1.204  13.652  1.00  0.00    -0.237 OA
ATOM     49  O   UNL     1       9.317   0.725  11.846  1.00  0.00    -0.744 OA
ENDBRANCH  42  46
ENDBRANCH  25  39
BRANCH  26  50
ATOM     50  C   UNL     1       6.916  -8.674   3.589  1.00  0.00     0.023 A 
ATOM     51  C   UNL     1       7.704  -8.567   2.428  1.00  0.00     0.031 A 
ATOM     52  C   UNL     1       6.155  -9.841   3.765  1.00  0.00     0.131 A 
ATOM     53  C   UNL     1       7.642  -9.567   1.449  1.00  0.00     0.055 A 
ATOM     54  C   UNL     1       6.162 -10.874   2.825  1.00  0.00     0.041 A 
ATOM     55  F   UNL     1       5.376  -9.985   4.848  1.00  0.00    -0.206 F 
ATOM     56  C   UNL     1       6.891 -10.729   1.648  1.00  0.00     0.022 A 
BRANCH  53  57
ATOM     57  S   UNL     1       8.404  -9.318  -0.179  1.00  0.00     0.124 S 
ATOM     58  O   UNL     1       9.306 -10.461  -0.274  1.00  0.00    -0.237 OA
ATOM     59  O   UNL     1       7.240  -9.357  -1.061  1.00  0.00    -0.237 OA
ATOM     60  O   UNL     1       9.049  -8.014  -0.063  1.00  0.00    -0.744 OA
ENDBRANCH  53  57
ENDBRANCH  26  50
BRANCH  38  61
ATOM     61  C   UNL     1       8.240  -7.598  10.425  1.00  0.00     0.023 A 
ATOM     62  C   UNL     1       7.493  -7.840  11.594  1.00  0.00     0.031 A 
ATOM     63  C   UNL     1       9.565  -8.069  10.379  1.00  0.00     0.131 A 
ATOM     64  C   UNL     1       8.086  -8.499  12.679  1.00  0.00     0.055 A 
ATOM     65  C   UNL     1      10.131  -8.778  11.439  1.00  0.00     0.041 A 
ATOM     66  F   UNL     1      10.330  -7.849   9.297  1.00  0.00    -0.206 F 
ATOM     67  C   UNL     1       9.395  -8.983  12.602  1.00  0.00     0.022 A 
BRANCH  64  68
ATOM     68  S   UNL     1       7.218  -8.667  14.264  1.00  0.00     0.124 S 
ATOM     69  O   UNL     1       7.104 -10.118  14.393  1.00  0.00    -0.237 OA
ATOM     70  O   UNL     1       8.149  -8.030  15.193  1.00  0.00    -0.237 OA
ATOM     71  O   UNL     1       5.960  -7.959  14.054  1.00  0.00    -0.744 OA
ENDBRANCH  64  68
ENDBRANCH  38  61
ENDBRANCH  12  13
ENDBRANCH   5   7
ENDBRANCH   2   3
ENDBRANCH   1   2
BRANCH   1  72
ATOM     72  C   UNL     1       4.177   1.478  -3.607  1.00  0.00     0.002 C 
BRANCH  72  73
ATOM     73  C   UNL     1       4.647   2.902  -3.299  1.00  0.00     0.002 C 
BRANCH  73  74
ATOM     74  C   UNL     1       6.156   3.086  -3.131  1.00  0.00     0.021 C 
BRANCH  74  75
ATOM     75  C   UNL     1       7.016   2.606  -4.295  1.00  0.00     0.116 C 
BRANCH  75  76
ATOM     76  N   UNL     1       6.727   3.308  -5.534  1.00  0.00    -0.351 N 
ATOM     77  C   UNL     1       7.582   3.721  -6.516  1.00  0.00     0.278 C 
ATOM     78  H   UNL     1       5.777   3.517  -5.688  1.00  0.00     0.163 HD
ATOM     79  O   UNL     1       7.089   4.248  -7.519  1.00  0.00    -0.268 OA
BRANCH  77  80
ATOM     80  C   UNL     1       9.113   3.620  -6.361  1.00  0.00     0.277 C 
ATOM     81  C   UNL     1       9.593   4.818  -5.533  1.00  0.00     0.111 C 
ATOM     82  N   UNL     1       9.511   2.321  -5.787  1.00  0.00    -0.332 N 
ATOM     83  C   UNL     1      11.042   4.697  -5.142  1.00  0.00    -0.029 A 
ATOM     84  C   UNL     1      10.957   2.199  -5.627  1.00  0.00     0.298 C 
ATOM     85  H   UNL     1       9.187   1.577  -6.405  1.00  0.00     0.347 HD
ATOM     86  H   UNL     1       9.090   2.249  -4.861  1.00  0.00     0.347 HD
ATOM     87  C   UNL     1      11.762   5.835  -4.750  1.00  0.00     0.050 A 
ATOM     88  C   UNL     1      11.656   3.434  -5.107  1.00  0.00     0.010 A 
ATOM     89  C   UNL     1      13.082   5.712  -4.332  1.00  0.00     0.115 A 
ATOM     90  C   UNL     1      12.984   3.332  -4.660  1.00  0.00     0.013 A 
ATOM     91  C   UNL     1      13.696   4.467  -4.270  1.00  0.00     0.046 A 
BRANCH  89  92
ATOM     92  O   UNL     1      13.750   6.851  -3.989  1.00  0.00    -0.508 OA
ATOM     93  H   UNL     1      13.318   7.681  -4.038  1.00  0.00     0.293 HD
ENDBRANCH  89  92
ENDBRANCH  77  80
ENDBRANCH  75  76
ENDBRANCH  74  75
ENDBRANCH  73  74
ENDBRANCH  72  73
ENDBRANCH   1  72
TORSDOF 17
