REMARK SMILES CCc1nn2c(C)c(CCC(=O)NCCCCCCNC(=O)c3ccc(-c4c5nc(c(-c6cc(S(=O)(=O)[O-])ccc6F)c6ccc([nH]6)c(-c6cc(S(=O)(=O)[O-])ccc6F)c6nc(c(-c7cc(S(=O)(=O)[O-])ccc7F)c7ccc4[nH]7)C=C6)C=C5)cc3)c(C)nc2c1-c1ccccc1
REMARK SMILES IDX 16 1 15 2 14 3 13 4 11 5 12 6 10 8 9 9 8 10 3 11 4 12 90 13
REMARK SMILES IDX 5 14 89 15 6 16 88 17 7 18 86 19 87 20 2 21 1 22 91 23 92 24
REMARK SMILES IDX 96 25 93 26 95 27 94 28 17 29 18 30 19 31 20 32 21 33 22 35
REMARK SMILES IDX 23 36 24 37 85 38 25 39 84 40 26 41 27 42 28 43 78 44 29 45
REMARK SMILES IDX 83 46 77 47 79 48 30 49 82 50 76 51 75 52 31 54 63 55 43 56
REMARK SMILES IDX 62 57 44 58 47 59 61 60 80 61 45 62 46 63 60 65 81 66 48 67
REMARK SMILES IDX 32 68 33 69 41 70 34 71 40 72 42 73 39 74 35 75 36 76 37 77
REMARK SMILES IDX 38 78 64 79 65 80 73 81 66 82 72 83 74 84 71 85 67 86 68 87
REMARK SMILES IDX 69 88 70 89 49 90 50 91 58 92 51 93 57 94 59 95 56 96 52 97
REMARK SMILES IDX 53 98 54 99 55 100
REMARK H PARENT 13 7 20 34 79 53 47 64
REMARK Flexibility Score: inf
ROOT
ATOM      1  C   UNL     1       2.807   2.275   3.679  1.00  0.00     0.002 C 
ENDROOT
BRANCH   1   2
ATOM      2  C   UNL     1       3.485   0.928   3.973  1.00  0.00     0.021 C 
BRANCH   2   3
ATOM      3  C   UNL     1       4.662   0.926   4.950  1.00  0.00     0.116 C 
BRANCH   3   4
ATOM      4  N   UNL     1       4.385   1.612   6.201  1.00  0.00    -0.356 N 
ATOM      5  C   UNL     1       4.178   1.166   7.467  1.00  0.00     0.220 C 
ATOM      6  O   UNL     1       3.982   2.011   8.345  1.00  0.00    -0.275 OA
ATOM      7  H   UNL     1       4.337   2.592   6.113  1.00  0.00     0.163 HD
BRANCH   5   8
ATOM      8  C   UNL     1       4.190  -0.309   7.822  1.00  0.00     0.105 C 
BRANCH   8   9
ATOM      9  C   UNL     1       2.777  -0.831   8.150  1.00  0.00     0.049 C 
BRANCH   9  10
ATOM     10  C   UNL     1       2.240  -1.644   6.999  1.00  0.00    -0.005 A 
ATOM     11  C   UNL     1       1.241  -2.304   2.684  1.00  0.00     0.073 A 
ATOM     12  N   UNL     1       0.967  -1.329   3.563  1.00  0.00    -0.171 NA
ATOM     13  C   UNL     1       1.785  -3.437   3.322  1.00  0.00     0.050 A 
ATOM     14  N   UNL     1       1.395  -1.816   4.777  1.00  0.00    -0.219 N 
ATOM     15  C   UNL     1       1.995  -3.070   4.628  1.00  0.00     0.163 A 
ATOM     16  C   UNL     1       1.438  -1.148   6.026  1.00  0.00     0.046 A 
ATOM     17  N   UNL     1       2.569  -3.729   5.672  1.00  0.00    -0.233 NA
ATOM     18  C   UNL     1       0.691   0.150   6.173  1.00  0.00     0.067 C 
ATOM     19  C   UNL     1       2.691  -3.073   6.786  1.00  0.00     0.045 A 
ATOM     20  C   UNL     1       3.221  -3.886   7.949  1.00  0.00     0.067 C 
BRANCH  11  21
ATOM     21  C   UNL     1       0.860  -2.236   1.237  1.00  0.00     0.055 C 
ATOM     22  C   UNL     1       1.921  -1.691   0.293  1.00  0.00     0.011 C 
ENDBRANCH  11  21
BRANCH  13  23
ATOM     23  C   UNL     1       1.849  -4.781   2.799  1.00  0.00    -0.013 A 
ATOM     24  C   UNL     1       2.605  -5.075   1.662  1.00  0.00     0.009 A 
ATOM     25  C   UNL     1       0.914  -5.705   3.280  1.00  0.00     0.009 A 
ATOM     26  C   UNL     1       2.383  -6.271   0.978  1.00  0.00     0.001 A 
ATOM     27  C   UNL     1       0.705  -6.900   2.602  1.00  0.00     0.001 A 
ATOM     28  C   UNL     1       1.423  -7.173   1.440  1.00  0.00     0.000 A 
ENDBRANCH  13  23
ENDBRANCH   9  10
ENDBRANCH   8   9
ENDBRANCH   5   8
ENDBRANCH   3   4
ENDBRANCH   2   3
ENDBRANCH   1   2
BRANCH   1  29
ATOM     29  C   UNL     1       2.756   2.654   2.195  1.00  0.00     0.002 C 
BRANCH  29  30
ATOM     30  C   UNL     1       2.034   1.681   1.259  1.00  0.00     0.021 C 
BRANCH  30  31
ATOM     31  C   UNL     1       0.507   1.594   1.409  1.00  0.00     0.116 C 
BRANCH  31  32
ATOM     32  N   UNL     1      -0.149   1.722   0.105  1.00  0.00    -0.352 N 
ATOM     33  C   UNL     1      -1.074   0.980  -0.593  1.00  0.00     0.251 C 
ATOM     34  H   UNL     1       0.139   2.525  -0.386  1.00  0.00     0.163 HD
ATOM     35  O   UNL     1      -1.244   1.275  -1.778  1.00  0.00    -0.269 OA
BRANCH  33  36
ATOM     36  C   UNL     1      -1.847  -0.151  -0.015  1.00  0.00     0.039 A 
ATOM     37  C   UNL     1      -2.400  -1.110  -0.887  1.00  0.00     0.014 A 
ATOM     38  C   UNL     1      -2.060  -0.294   1.352  1.00  0.00     0.014 A 
ATOM     39  C   UNL     1      -3.139  -2.193  -0.393  1.00  0.00     0.010 A 
ATOM     40  C   UNL     1      -2.681  -1.438   1.844  1.00  0.00     0.010 A 
ATOM     41  C   UNL     1      -3.295  -2.358   0.985  1.00  0.00    -0.014 A 
BRANCH  41  42
ATOM     42  C   UNL     1      -4.114  -3.458   1.538  1.00  0.00     0.031 A 
ATOM     43  C   UNL     1      -3.798  -4.875   1.147  1.00  0.00     0.074 A 
ATOM     44  C   UNL     1      -5.000  -3.229   2.538  1.00  0.00     0.049 A 
ATOM     45  N   UNL     1      -4.615  -5.816   0.781  1.00  0.00    -0.248 NA
ATOM     46  C   UNL     1      -2.391  -5.308   1.167  1.00  0.00     0.031 C 
ATOM     47  C   UNL     1      -5.283  -1.950   3.205  1.00  0.00     0.029 A 
ATOM     48  N   UNL     1      -5.737  -4.114   3.275  1.00  0.00    -0.354 N 
ATOM     49  C   UNL     1      -3.868  -6.994   0.699  1.00  0.00     0.074 A 
ATOM     50  C   UNL     1      -2.493  -6.604   0.866  1.00  0.00     0.031 C 
ATOM     51  C   UNL     1      -5.888  -2.177   4.387  1.00  0.00     0.029 A 
ATOM     52  C   UNL     1      -6.206  -3.588   4.477  1.00  0.00     0.049 A 
ATOM     53  H   UNL     1      -5.919  -5.036   2.983  1.00  0.00     0.167 HD
ATOM     54  C   UNL     1      -4.434  -8.235   0.654  1.00  0.00     0.034 A 
ATOM     55  C   UNL     1      -6.804  -4.246   5.500  1.00  0.00     0.034 A 
ATOM     56  C   UNL     1      -5.798  -8.190   0.208  1.00  0.00     0.049 A 
ATOM     57  C   UNL     1      -7.382  -5.480   4.930  1.00  0.00     0.074 A 
ATOM     58  C   UNL     1      -6.427  -7.774  -0.948  1.00  0.00     0.029 A 
ATOM     59  N   UNL     1      -6.795  -8.322   1.141  1.00  0.00    -0.354 N 
ATOM     60  N   UNL     1      -8.334  -5.490   4.040  1.00  0.00    -0.248 NA
ATOM     61  C   UNL     1      -6.641  -6.721   5.065  1.00  0.00     0.031 C 
ATOM     62  C   UNL     1      -7.646  -7.184  -0.506  1.00  0.00     0.029 A 
ATOM     63  C   UNL     1      -7.708  -7.331   0.881  1.00  0.00     0.049 A 
ATOM     64  H   UNL     1      -6.846  -8.996   1.856  1.00  0.00     0.167 HD
ATOM     65  C   UNL     1      -8.039  -6.563   3.219  1.00  0.00     0.074 A 
ATOM     66  C   UNL     1      -7.072  -7.357   3.973  1.00  0.00     0.031 C 
ATOM     67  C   UNL     1      -8.396  -6.566   1.903  1.00  0.00     0.034 A 
BRANCH  54  68
ATOM     68  C   UNL     1      -3.837  -9.482   1.269  1.00  0.00     0.023 A 
ATOM     69  C   UNL     1      -4.406 -10.743   0.984  1.00  0.00     0.031 A 
ATOM     70  C   UNL     1      -2.919  -9.447   2.341  1.00  0.00     0.131 A 
ATOM     71  C   UNL     1      -4.082 -11.874   1.761  1.00  0.00     0.055 A 
ATOM     72  C   UNL     1      -2.556 -10.583   3.071  1.00  0.00     0.041 A 
ATOM     73  F   UNL     1      -2.408  -8.295   2.795  1.00  0.00    -0.206 F 
ATOM     74  C   UNL     1      -3.151 -11.803   2.796  1.00  0.00     0.022 A 
BRANCH  71  75
ATOM     75  S   UNL     1      -5.003 -13.419   1.503  1.00  0.00     0.124 S 
ATOM     76  O   UNL     1      -6.382 -12.982   1.691  1.00  0.00    -0.237 OA
ATOM     77  O   UNL     1      -4.620 -13.778   0.142  1.00  0.00    -0.237 OA
ATOM     78  O   UNL     1      -4.485 -14.303   2.546  1.00  0.00    -0.744 OA
ENDBRANCH  71  75
ENDBRANCH  54  68
BRANCH  55  79
ATOM     79  C   UNL     1      -6.704  -3.979   6.958  1.00  0.00     0.023 A 
ATOM     80  C   UNL     1      -7.606  -4.553   7.876  1.00  0.00     0.031 A 
ATOM     81  C   UNL     1      -5.558  -3.355   7.501  1.00  0.00     0.131 A 
ATOM     82  C   UNL     1      -7.341  -4.505   9.262  1.00  0.00     0.055 A 
ATOM     83  C   UNL     1      -5.308  -3.297   8.874  1.00  0.00     0.041 A 
ATOM     84  F   UNL     1      -4.593  -2.859   6.710  1.00  0.00    -0.206 F 
ATOM     85  C   UNL     1      -6.194  -3.885   9.762  1.00  0.00     0.022 A 
BRANCH  82  86
ATOM     86  S   UNL     1      -8.422  -5.383  10.434  1.00  0.00     0.124 S 
ATOM     87  O   UNL     1      -9.515  -4.436  10.610  1.00  0.00    -0.237 OA
ATOM     88  O   UNL     1      -8.741  -6.614   9.714  1.00  0.00    -0.237 OA
ATOM     89  O   UNL     1      -7.566  -5.568  11.605  1.00  0.00    -0.744 OA
ENDBRANCH  82  86
ENDBRANCH  55  79
BRANCH  67  90
ATOM     90  C   UNL     1      -9.400  -5.540   1.418  1.00  0.00     0.023 A 
ATOM     91  C   UNL     1      -9.201  -4.141   1.447  1.00  0.00     0.031 A 
ATOM     92  C   UNL     1     -10.541  -6.026   0.756  1.00  0.00     0.131 A 
ATOM     93  C   UNL     1     -10.134  -3.285   0.826  1.00  0.00     0.055 A 
ATOM     94  C   UNL     1     -11.449  -5.178   0.124  1.00  0.00     0.041 A 
ATOM     95  F   UNL     1     -10.765  -7.348   0.668  1.00  0.00    -0.206 F 
ATOM     96  C   UNL     1     -11.250  -3.803   0.158  1.00  0.00     0.022 A 
BRANCH  93  97
ATOM     97  S   UNL     1      -9.901  -1.477   0.857  1.00  0.00     0.124 S 
ATOM     98  O   UNL     1      -9.812  -1.173   2.280  1.00  0.00    -0.237 OA
ATOM     99  O   UNL     1      -8.677  -1.296   0.082  1.00  0.00    -0.237 OA
ATOM    100  O   UNL     1     -11.109  -0.966   0.203  1.00  0.00    -0.744 OA
ENDBRANCH  93  97
ENDBRANCH  67  90
ENDBRANCH  41  42
ENDBRANCH  33  36
ENDBRANCH  31  32
ENDBRANCH  30  31
ENDBRANCH  29  30
ENDBRANCH   1  29
TORSDOF 20
