REMARK SMILES CNC(=O)NCCOCC(=O)NCCCCCCNC(=O)c1ccc(-c2c3nc(c(-c4cc(S(=O)(=O)[O-])ccc4F)c4ccc([nH]4)c(-c4cc(S(=O)(=O)[O-])ccc4F)c4nc(c(-c5cc(S(=O)(=O)[O-])ccc5F)c5ccc2[nH]5)C=C4)C=C3)cc1
REMARK SMILES IDX 15 1 14 2 13 3 12 4 10 5 11 6 9 8 8 9 7 10 6 11 5 12 1 13
REMARK SMILES IDX 2 14 3 15 4 17 16 19 17 20 18 21 19 22 20 23 21 25 22 26
REMARK SMILES IDX 23 27 84 28 24 29 83 30 25 31 26 32 27 33 77 34 28 35 82 36
REMARK SMILES IDX 76 37 78 38 29 39 81 40 75 41 74 42 30 44 62 45 42 46 61 47
REMARK SMILES IDX 43 48 46 49 60 50 79 51 44 52 45 53 59 55 80 56 47 57 31 58
REMARK SMILES IDX 32 59 40 60 33 61 39 62 41 63 38 64 34 65 35 66 36 67 37 68
REMARK SMILES IDX 63 69 64 70 72 71 65 72 71 73 73 74 70 75 66 76 67 77 68 78
REMARK SMILES IDX 69 79 48 80 49 81 57 82 50 83 56 84 58 85 55 86 51 87 52 88
REMARK SMILES IDX 53 89 54 90
REMARK H PARENT 12 7 2 16 5 18 19 24 78 43 46 54
REMARK Flexibility Score: inf
ROOT
ATOM      1  C   UNL     1      -6.175  -1.419   2.293  1.00  0.00     0.002 C 
ENDROOT
BRANCH   1   2
ATOM      2  C   UNL     1      -5.158  -2.548   2.079  1.00  0.00     0.021 C 
BRANCH   2   3
ATOM      3  C   UNL     1      -5.138  -3.139   0.671  1.00  0.00     0.116 C 
BRANCH   3   4
ATOM      4  N   UNL     1      -4.786  -2.146  -0.324  1.00  0.00    -0.354 N 
ATOM      5  C   UNL     1      -3.724  -2.146  -1.180  1.00  0.00     0.245 C 
ATOM      6  O   UNL     1      -3.597  -1.213  -1.974  1.00  0.00    -0.272 OA
ATOM      7  H   UNL     1      -5.391  -1.372  -0.391  1.00  0.00     0.163 HD
BRANCH   5   8
ATOM      8  C   UNL     1      -2.737  -3.318  -1.144  1.00  0.00     0.260 C 
BRANCH   8   9
ATOM      9  O   UNL     1      -2.011  -3.508   0.060  1.00  0.00    -0.370 OA
BRANCH   9  10
ATOM     10  C   UNL     1      -1.143  -2.426   0.416  1.00  0.00     0.182 C 
BRANCH  10  11
ATOM     11  C   UNL     1       0.168  -2.428  -0.380  1.00  0.00     0.146 C 
BRANCH  11  12
ATOM     12  N   UNL     1       0.076  -1.716  -1.644  1.00  0.00    -0.336 N 
ATOM     13  C   UNL     1       0.949   0.537   0.230  1.00  0.00     0.144 C 
ATOM     14  N   UNL     1       0.472   0.550  -1.127  1.00  0.00    -0.341 N 
ATOM     15  C   UNL     1       0.152  -0.424  -1.988  1.00  0.00     0.314 C 
ATOM     16  H   UNL     1       0.358   1.456  -1.497  1.00  0.00     0.164 HD
ATOM     17  O   UNL     1      -0.064  -0.118  -3.162  1.00  0.00    -0.249 OA
ATOM     18  H   UNL     1      -0.075  -2.313  -2.413  1.00  0.00     0.165 HD
ENDBRANCH  11  12
ENDBRANCH  10  11
ENDBRANCH   9  10
ENDBRANCH   8   9
ENDBRANCH   5   8
ENDBRANCH   3   4
ENDBRANCH   2   3
ENDBRANCH   1   2
BRANCH   1  19
ATOM     19  C   UNL     1      -7.618  -1.740   1.891  1.00  0.00     0.002 C 
BRANCH  19  20
ATOM     20  C   UNL     1      -8.214  -3.003   2.517  1.00  0.00     0.021 C 
BRANCH  20  21
ATOM     21  C   UNL     1      -8.215  -3.035   4.042  1.00  0.00     0.116 C 
BRANCH  21  22
ATOM     22  N   UNL     1      -9.022  -1.972   4.615  1.00  0.00    -0.352 N 
ATOM     23  C   UNL     1     -10.016  -2.040   5.556  1.00  0.00     0.251 C 
ATOM     24  H   UNL     1      -8.825  -1.069   4.277  1.00  0.00     0.163 HD
ATOM     25  O   UNL     1     -10.709  -1.044   5.769  1.00  0.00    -0.269 OA
BRANCH  23  26
ATOM     26  C   UNL     1     -10.276  -3.296   6.297  1.00  0.00     0.039 A 
ATOM     27  C   UNL     1     -11.601  -3.666   6.545  1.00  0.00     0.014 A 
ATOM     28  C   UNL     1      -9.231  -4.089   6.782  1.00  0.00     0.014 A 
ATOM     29  C   UNL     1     -11.877  -4.845   7.242  1.00  0.00     0.010 A 
ATOM     30  C   UNL     1      -9.508  -5.300   7.415  1.00  0.00     0.010 A 
ATOM     31  C   UNL     1     -10.833  -5.682   7.668  1.00  0.00    -0.014 A 
BRANCH  31  32
ATOM     32  C   UNL     1     -11.122  -6.941   8.403  1.00  0.00     0.031 A 
ATOM     33  C   UNL     1     -10.694  -7.097   9.838  1.00  0.00     0.074 A 
ATOM     34  C   UNL     1     -11.733  -7.959   7.768  1.00  0.00     0.049 A 
ATOM     35  N   UNL     1     -10.846  -8.117  10.644  1.00  0.00    -0.248 NA
ATOM     36  C   UNL     1      -9.965  -5.967  10.431  1.00  0.00     0.031 C 
ATOM     37  C   UNL     1     -12.139  -7.953   6.361  1.00  0.00     0.029 A 
ATOM     38  N   UNL     1     -12.115  -9.197   8.219  1.00  0.00    -0.354 N 
ATOM     39  C   UNL     1     -10.221  -7.758  11.834  1.00  0.00     0.074 A 
ATOM     40  C   UNL     1      -9.629  -6.455  11.615  1.00  0.00     0.031 C 
ATOM     41  C   UNL     1     -12.733  -9.122   6.071  1.00  0.00     0.029 A 
ATOM     42  C   UNL     1     -12.728  -9.968   7.260  1.00  0.00     0.049 A 
ATOM     43  H   UNL     1     -11.965  -9.504   9.142  1.00  0.00     0.167 HD
ATOM     44  C   UNL     1     -10.168  -8.439  13.008  1.00  0.00     0.034 A 
ATOM     45  C   UNL     1     -13.231 -11.216   7.331  1.00  0.00     0.034 A 
ATOM     46  C   UNL     1     -10.773  -9.734  13.210  1.00  0.00     0.049 A 
ATOM     47  C   UNL     1     -13.190 -11.944   8.648  1.00  0.00     0.074 A 
ATOM     48  C   UNL     1     -10.836 -10.489  14.369  1.00  0.00     0.029 A 
ATOM     49  N   UNL     1     -11.415 -10.475  12.224  1.00  0.00    -0.354 N 
ATOM     50  N   UNL     1     -12.659 -11.564   9.787  1.00  0.00    -0.248 NA
ATOM     51  C   UNL     1     -13.840 -13.259   8.692  1.00  0.00     0.031 C 
ATOM     52  C   UNL     1     -11.458 -11.708  14.069  1.00  0.00     0.029 A 
ATOM     53  C   UNL     1     -11.852 -11.687  12.740  1.00  0.00     0.049 A 
ATOM     54  H   UNL     1     -11.542 -10.181  11.293  1.00  0.00     0.167 HD
ATOM     55  C   UNL     1     -12.932 -12.586  10.692  1.00  0.00     0.074 A 
ATOM     56  C   UNL     1     -13.694 -13.585   9.968  1.00  0.00     0.031 C 
ATOM     57  C   UNL     1     -12.588 -12.688  12.002  1.00  0.00     0.034 A 
BRANCH  44  58
ATOM     58  C   UNL     1      -9.401  -7.795  14.143  1.00  0.00     0.023 A 
ATOM     59  C   UNL     1      -9.772  -6.544  14.671  1.00  0.00     0.031 A 
ATOM     60  C   UNL     1      -8.248  -8.408  14.665  1.00  0.00     0.131 A 
ATOM     61  C   UNL     1      -8.945  -5.902  15.605  1.00  0.00     0.055 A 
ATOM     62  C   UNL     1      -7.480  -7.805  15.665  1.00  0.00     0.041 A 
ATOM     63  F   UNL     1      -7.829  -9.593  14.193  1.00  0.00    -0.206 F 
ATOM     64  C   UNL     1      -7.815  -6.535  16.125  1.00  0.00     0.022 A 
BRANCH  61  65
ATOM     65  S   UNL     1      -9.268  -4.159  15.991  1.00  0.00     0.124 S 
ATOM     66  O   UNL     1      -9.207  -3.548  14.665  1.00  0.00    -0.237 OA
ATOM     67  O   UNL     1     -10.587  -4.212  16.610  1.00  0.00    -0.237 OA
ATOM     68  O   UNL     1      -8.171  -3.796  16.885  1.00  0.00    -0.744 OA
ENDBRANCH  61  65
ENDBRANCH  44  58
BRANCH  45  69
ATOM     69  C   UNL     1     -13.827 -11.849   6.122  1.00  0.00     0.023 A 
ATOM     70  C   UNL     1     -15.205 -12.100   6.037  1.00  0.00     0.031 A 
ATOM     71  C   UNL     1     -13.018 -12.220   5.033  1.00  0.00     0.131 A 
ATOM     72  C   UNL     1     -15.731 -12.737   4.903  1.00  0.00     0.055 A 
ATOM     73  C   UNL     1     -13.552 -12.815   3.889  1.00  0.00     0.041 A 
ATOM     74  F   UNL     1     -11.696 -11.988   5.060  1.00  0.00    -0.206 F 
ATOM     75  C   UNL     1     -14.915 -13.086   3.824  1.00  0.00     0.022 A 
BRANCH  72  76
ATOM     76  S   UNL     1     -17.497 -13.149   4.876  1.00  0.00     0.124 S 
ATOM     77  O   UNL     1     -17.610 -14.050   6.017  1.00  0.00    -0.237 OA
ATOM     78  O   UNL     1     -18.116 -11.837   5.031  1.00  0.00    -0.237 OA
ATOM     79  O   UNL     1     -17.681 -13.771   3.567  1.00  0.00    -0.744 OA
ENDBRANCH  72  76
ENDBRANCH  45  69
BRANCH  57  80
ATOM     80  C   UNL     1     -13.068 -13.918  12.736  1.00  0.00     0.023 A 
ATOM     81  C   UNL     1     -12.610 -15.205  12.400  1.00  0.00     0.031 A 
ATOM     82  C   UNL     1     -14.027 -13.805  13.758  1.00  0.00     0.131 A 
ATOM     83  C   UNL     1     -13.165 -16.331  13.027  1.00  0.00     0.055 A 
ATOM     84  C   UNL     1     -14.528 -14.925  14.424  1.00  0.00     0.041 A 
ATOM     85  F   UNL     1     -14.502 -12.602  14.119  1.00  0.00    -0.206 F 
ATOM     86  C   UNL     1     -14.110 -16.198  14.048  1.00  0.00     0.022 A 
BRANCH  83  87
ATOM     87  S   UNL     1     -12.726 -17.978  12.406  1.00  0.00     0.124 S 
ATOM     88  O   UNL     1     -13.065 -17.870  10.991  1.00  0.00    -0.237 OA
ATOM     89  O   UNL     1     -11.302 -18.057  12.716  1.00  0.00    -0.237 OA
ATOM     90  O   UNL     1     -13.580 -18.876  13.181  1.00  0.00    -0.744 OA
ENDBRANCH  83  87
ENDBRANCH  57  80
ENDBRANCH  31  32
ENDBRANCH  23  26
ENDBRANCH  21  22
ENDBRANCH  20  21
ENDBRANCH  19  20
ENDBRANCH   1  19
TORSDOF 20
