REMARK SMILES O=C(NCCCCCCNC(=O)[C@H]1Cc2[nH]cnc2CN1C(=O)C[C@]12C[C@H]3C[C@H](C[C@H](C3)C1)C2)c1ccc(-c2c3nc(c(-c4cc(S(=O)(=O)[O-])ccc4F)c4ccc([nH]4)c(-c4cc(S(=O)(=O)[O-])ccc4F)c4nc(c(-c5cc(S(=O)(=O)[O-])ccc5F)c5ccc2[nH]5)C=C4)C=C3)cc1
REMARK SMILES IDX 6 1 5 2 4 3 3 4 1 5 2 6 35 8 36 9 97 10 37 11 96 12 38 13
REMARK SMILES IDX 39 14 40 15 90 16 41 17 95 18 89 19 91 20 42 21 94 22 88 23
REMARK SMILES IDX 87 24 43 26 75 27 55 28 74 29 56 30 59 31 73 32 92 33 57 34
REMARK SMILES IDX 58 35 72 37 93 38 60 39 44 40 45 41 53 42 46 43 52 44 54 45
REMARK SMILES IDX 51 46 47 47 48 48 49 49 50 50 76 51 77 52 85 53 78 54 84 55
REMARK SMILES IDX 86 56 83 57 79 58 80 59 81 60 82 61 61 62 62 63 70 64 63 65
REMARK SMILES IDX 69 66 71 67 68 68 64 69 65 70 66 71 67 72 7 73 8 74 9 75
REMARK SMILES IDX 10 76 11 77 12 79 13 80 14 81 21 82 15 83 20 84 16 85 19 86
REMARK SMILES IDX 17 87 18 89 22 90 23 91 24 92 25 93 26 94 33 95 34 96 27 97
REMARK SMILES IDX 31 98 29 99 28 100 32 101 30 102
REMARK H PARENT 3 7 91 25 59 36 10 78 16 88
REMARK Flexibility Score: inf
ROOT
ATOM      1  C   UNL     1       5.001   1.610   2.666  1.00  0.00     0.002 C 
ENDROOT
BRANCH   1   2
ATOM      2  C   UNL     1       5.057   1.646   1.145  1.00  0.00     0.021 C 
BRANCH   2   3
ATOM      3  C   UNL     1       4.767   0.333   0.409  1.00  0.00     0.116 C 
BRANCH   3   4
ATOM      4  N   UNL     1       3.384  -0.132   0.355  1.00  0.00    -0.352 N 
ATOM      5  O   UNL     1       1.311  -0.517  -0.377  1.00  0.00    -0.269 OA
ATOM      6  C   UNL     1       2.265   0.265  -0.342  1.00  0.00     0.251 C 
ATOM      7  H   UNL     1       3.214  -0.898   0.949  1.00  0.00     0.163 HD
BRANCH   6   8
ATOM      8  C   UNL     1       2.113   1.605  -0.964  1.00  0.00     0.039 A 
ATOM      9  C   UNL     1       3.187   2.377  -1.381  1.00  0.00     0.014 A 
ATOM     10  C   UNL     1       0.810   2.127  -1.093  1.00  0.00     0.014 A 
ATOM     11  C   UNL     1       2.990   3.703  -1.731  1.00  0.00     0.010 A 
ATOM     12  C   UNL     1       0.598   3.437  -1.530  1.00  0.00     0.010 A 
ATOM     13  C   UNL     1       1.696   4.241  -1.811  1.00  0.00    -0.014 A 
BRANCH  13  14
ATOM     14  C   UNL     1       1.598   5.550  -2.461  1.00  0.00     0.031 A 
ATOM     15  C   UNL     1       2.274   5.566  -3.789  1.00  0.00     0.074 A 
ATOM     16  C   UNL     1       0.956   6.653  -2.030  1.00  0.00     0.049 A 
ATOM     17  N   UNL     1       3.381   6.157  -4.094  1.00  0.00    -0.248 NA
ATOM     18  C   UNL     1       1.778   4.648  -4.826  1.00  0.00     0.031 C 
ATOM     19  C   UNL     1       0.041   6.798  -0.903  1.00  0.00     0.029 A 
ATOM     20  N   UNL     1       0.950   7.897  -2.597  1.00  0.00    -0.354 N 
ATOM     21  C   UNL     1       3.624   5.854  -5.428  1.00  0.00     0.074 A 
ATOM     22  C   UNL     1       2.714   4.791  -5.765  1.00  0.00     0.031 C 
ATOM     23  C   UNL     1      -0.595   7.991  -0.999  1.00  0.00     0.029 A 
ATOM     24  C   UNL     1      -0.041   8.745  -2.115  1.00  0.00     0.049 A 
ATOM     25  H   UNL     1       1.595   8.170  -3.289  1.00  0.00     0.167 HD
ATOM     26  C   UNL     1       4.417   6.646  -6.198  1.00  0.00     0.034 A 
ATOM     27  C   UNL     1      -0.415   9.948  -2.634  1.00  0.00     0.034 A 
ATOM     28  C   UNL     1       5.251   7.500  -5.383  1.00  0.00     0.049 A 
ATOM     29  C   UNL     1       0.736  10.473  -3.411  1.00  0.00     0.074 A 
ATOM     30  C   UNL     1       6.207   7.275  -4.409  1.00  0.00     0.029 A 
ATOM     31  N   UNL     1       4.897   8.824  -5.248  1.00  0.00    -0.354 N 
ATOM     32  N   UNL     1       1.856  10.853  -2.863  1.00  0.00    -0.248 NA
ATOM     33  C   UNL     1       0.826  10.143  -4.827  1.00  0.00     0.031 C 
ATOM     34  C   UNL     1       5.989   8.297  -3.438  1.00  0.00     0.029 A 
ATOM     35  C   UNL     1       4.973   9.128  -3.911  1.00  0.00     0.049 A 
ATOM     36  H   UNL     1       4.638   9.437  -5.973  1.00  0.00     0.167 HD
ATOM     37  C   UNL     1       2.848  10.389  -3.712  1.00  0.00     0.074 A 
ATOM     38  C   UNL     1       2.153  10.048  -4.951  1.00  0.00     0.031 C 
ATOM     39  C   UNL     1       4.090  10.066  -3.243  1.00  0.00     0.034 A 
BRANCH  26  40
ATOM     40  C   UNL     1       4.172   6.923  -7.665  1.00  0.00     0.023 A 
ATOM     41  C   UNL     1       5.057   7.812  -8.304  1.00  0.00     0.031 A 
ATOM     42  C   UNL     1       2.981   6.631  -8.367  1.00  0.00     0.131 A 
ATOM     43  C   UNL     1       4.690   8.461  -9.495  1.00  0.00     0.055 A 
ATOM     44  C   UNL     1       2.654   7.225  -9.588  1.00  0.00     0.041 A 
ATOM     45  F   UNL     1       2.024   5.835  -7.878  1.00  0.00    -0.206 F 
ATOM     46  C   UNL     1       3.492   8.176 -10.141  1.00  0.00     0.022 A 
BRANCH  43  47
ATOM     47  S   UNL     1       5.724   9.830 -10.073  1.00  0.00     0.124 S 
ATOM     48  O   UNL     1       5.724  10.706  -8.907  1.00  0.00    -0.237 OA
ATOM     49  O   UNL     1       6.981   9.152 -10.371  1.00  0.00    -0.237 OA
ATOM     50  O   UNL     1       4.997  10.335 -11.236  1.00  0.00    -0.744 OA
ENDBRANCH  43  47
ENDBRANCH  26  40
BRANCH  27  51
ATOM     51  C   UNL     1      -1.797  10.496  -2.753  1.00  0.00     0.023 A 
ATOM     52  C   UNL     1      -2.068  11.859  -3.015  1.00  0.00     0.031 A 
ATOM     53  C   UNL     1      -2.889   9.605  -2.860  1.00  0.00     0.131 A 
ATOM     54  C   UNL     1      -3.378  12.273  -3.363  1.00  0.00     0.055 A 
ATOM     55  C   UNL     1      -4.178  10.020  -3.200  1.00  0.00     0.041 A 
ATOM     56  F   UNL     1      -2.721   8.280  -2.727  1.00  0.00    -0.206 F 
ATOM     57  C   UNL     1      -4.426  11.356  -3.462  1.00  0.00     0.022 A 
BRANCH  54  58
ATOM     58  S   UNL     1      -3.725  14.011  -3.795  1.00  0.00     0.124 S 
ATOM     59  O   UNL     1      -3.587  14.686  -2.510  1.00  0.00    -0.237 OA
ATOM     60  O   UNL     1      -2.704  14.299  -4.795  1.00  0.00    -0.237 OA
ATOM     61  O   UNL     1      -5.093  13.966  -4.318  1.00  0.00    -0.744 OA
ENDBRANCH  54  58
ENDBRANCH  27  51
BRANCH  39  62
ATOM     62  C   UNL     1       4.494  10.529  -1.858  1.00  0.00     0.023 A 
ATOM     63  C   UNL     1       3.762  10.287  -0.673  1.00  0.00     0.031 A 
ATOM     64  C   UNL     1       5.743  11.165  -1.731  1.00  0.00     0.131 A 
ATOM     65  C   UNL     1       4.282  10.696   0.573  1.00  0.00     0.055 A 
ATOM     66  C   UNL     1       6.264  11.545  -0.495  1.00  0.00     0.041 A 
ATOM     67  F   UNL     1       6.500  11.406  -2.815  1.00  0.00    -0.206 F 
ATOM     68  C   UNL     1       5.530  11.319   0.661  1.00  0.00     0.022 A 
BRANCH  65  69
ATOM     69  S   UNL     1       3.311  10.461   2.097  1.00  0.00     0.124 S 
ATOM     70  O   UNL     1       1.987  10.874   1.742  1.00  0.00    -0.237 OA
ATOM     71  O   UNL     1       3.503   9.024   2.364  1.00  0.00    -0.237 OA
ATOM     72  O   UNL     1       4.000  11.336   3.066  1.00  0.00    -0.744 OA
ENDBRANCH  65  69
ENDBRANCH  39  62
ENDBRANCH  13  14
ENDBRANCH   6   8
ENDBRANCH   3   4
ENDBRANCH   2   3
ENDBRANCH   1   2
BRANCH   1  73
ATOM     73  C   UNL     1       5.961   0.664   3.421  1.00  0.00     0.002 C 
BRANCH  73  74
ATOM     74  C   UNL     1       7.490   0.649   3.162  1.00  0.00     0.021 C 
BRANCH  74  75
ATOM     75  C   UNL     1       8.663   0.457   4.260  1.00  0.00     0.116 C 
BRANCH  75  76
ATOM     76  N   UNL     1       8.896  -0.642   5.333  1.00  0.00    -0.354 N 
ATOM     77  C   UNL     1       8.899  -0.888   6.729  1.00  0.00     0.243 C 
ATOM     78  H   UNL     1       9.126  -1.481   4.872  1.00  0.00     0.163 HD
ATOM     79  O   UNL     1       8.771  -2.032   7.178  1.00  0.00    -0.273 OA
BRANCH  77  80
ATOM     80  C   UNL     1       9.430   0.100   7.730  1.00  0.00     0.180 C 
ATOM     81  C   UNL     1      10.853  -0.527   7.967  1.00  0.00     0.091 C 
ATOM     82  N   UNL     1       9.175   1.269   6.971  1.00  0.00    -0.324 N 
ATOM     83  C   UNL     1      11.644  -0.295   6.749  1.00  0.00     0.042 A 
ATOM     84  C   UNL     1      10.431   1.924   6.313  1.00  0.00     0.178 C 
ATOM     85  N   UNL     1      12.384  -1.196   6.040  1.00  0.00    -0.348 N 
ATOM     86  C   UNL     1      11.468   0.817   5.960  1.00  0.00     0.081 A 
ATOM     87  C   UNL     1      12.757  -0.551   4.890  1.00  0.00     0.197 A 
ATOM     88  H   UNL     1      12.604  -2.120   6.302  1.00  0.00     0.167 HD
ATOM     89  N   UNL     1      12.198   0.646   4.799  1.00  0.00    -0.240 NA
BRANCH  82  90
ATOM     90  C   UNL     1       7.769   1.477   6.650  1.00  0.00     0.224 C 
ATOM     91  O   UNL     1       7.426   2.608   6.279  1.00  0.00    -0.275 OA
BRANCH  90  92
ATOM     92  C   UNL     1       6.503   0.167   6.716  1.00  0.00     0.107 C 
BRANCH  92  93
ATOM     93  C   UNL     1       6.093  -1.458   5.989  1.00  0.00    -0.020 C 
ATOM     94  C   UNL     1       6.016  -2.591   7.099  1.00  0.00     0.011 C 
ATOM     95  C   UNL     1       6.929  -2.121   4.808  1.00  0.00     0.011 C 
ATOM     96  C   UNL     1       4.586  -1.475   5.483  1.00  0.00     0.011 C 
ATOM     97  C   UNL     1       5.600  -3.985   6.541  1.00  0.00    -0.010 C 
ATOM     98  C   UNL     1       6.481  -3.471   4.272  1.00  0.00    -0.010 C 
ATOM     99  C   UNL     1       4.156  -2.843   4.854  1.00  0.00    -0.010 C 
ATOM    100  C   UNL     1       4.196  -3.922   5.943  1.00  0.00     0.007 C 
ATOM    101  C   UNL     1       6.569  -4.448   5.443  1.00  0.00     0.007 C 
ATOM    102  C   UNL     1       5.082  -3.304   3.719  1.00  0.00     0.007 C 
ENDBRANCH  92  93
ENDBRANCH  90  92
ENDBRANCH  82  90
ENDBRANCH  77  80
ENDBRANCH  75  76
ENDBRANCH  74  75
ENDBRANCH  73  74
ENDBRANCH   1  73
TORSDOF 19
