REMARK SMILES [NH3+][C@H]1CN(C(=O)OCC2c3ccccc3-c3ccccc32)C[C@@H]1C(=O)NCCCCCCNC(=O)c1ccc(-c2c3nc(c(-c4cc(S(=O)(=O)[O-])ccc4F)c4ccc([nH]4)c(-c4cc(S(=O)(=O)[O-])ccc4F)c4nc(c(-c5cc(S(=O)(=O)[O-])ccc5F)c5ccc2[nH]5)C=C4)C=C3)cc1
REMARK SMILES IDX 29 1 28 2 27 3 26 4 24 5 25 6 23 8 2 9 3 10 4 11 22 12 1 13
REMARK SMILES IDX 5 17 6 18 7 19 8 20 9 21 10 22 21 23 11 24 15 25 16 26 20 27
REMARK SMILES IDX 12 28 14 29 17 30 19 31 13 32 18 33 30 34 31 35 32 36 33 37
REMARK SMILES IDX 34 38 35 40 36 41 37 42 98 43 38 44 97 45 39 46 40 47 41 48
REMARK SMILES IDX 91 49 42 50 96 51 90 52 92 53 43 54 95 55 89 56 88 57 44 59
REMARK SMILES IDX 76 60 56 61 75 62 57 63 60 64 74 65 93 66 58 67 59 68 73 70
REMARK SMILES IDX 94 71 61 72 45 73 46 74 54 75 47 76 53 77 55 78 52 79 48 80
REMARK SMILES IDX 49 81 50 82 51 83 77 84 78 85 86 86 79 87 85 88 87 89 84 90
REMARK SMILES IDX 80 91 81 92 82 93 83 94 62 95 63 96 71 97 64 98 70 99 72 100
REMARK SMILES IDX 69 101 65 102 66 103 67 104 68 105
REMARK H PARENT 26 7 1 14 1 15 1 16 33 39 92 58 60 69
REMARK Flexibility Score: inf
ROOT
ATOM      1  C   UNL     1       5.553  -2.919   1.915  1.00  0.00     0.002 C 
ENDROOT
BRANCH   1   2
ATOM      2  C   UNL     1       4.041  -3.139   1.816  1.00  0.00     0.021 C 
BRANCH   2   3
ATOM      3  C   UNL     1       3.296  -1.999   1.127  1.00  0.00     0.116 C 
BRANCH   3   4
ATOM      4  N   UNL     1       3.105  -2.215  -0.288  1.00  0.00    -0.356 N 
ATOM      5  C   UNL     1       1.987  -2.301  -1.050  1.00  0.00     0.231 C 
ATOM      6  O   UNL     1       2.171  -2.358  -2.273  1.00  0.00    -0.274 OA
ATOM      7  H   UNL     1       3.943  -2.318  -0.794  1.00  0.00     0.163 HD
BRANCH   5   8
ATOM      8  C   UNL     1       0.557  -2.412  -0.519  1.00  0.00     0.158 C 
ATOM      9  C   UNL     1       0.045  -1.359   0.485  1.00  0.00     0.215 C 
ATOM     10  C   UNL     1      -0.028  -2.094   1.854  1.00  0.00     0.188 C 
ATOM     11  N   UNL     1       0.383  -3.456   1.568  1.00  0.00    -0.301 N 
ATOM     12  C   UNL     1       0.325  -3.747   0.156  1.00  0.00     0.143 C 
BRANCH   9  13
ATOM     13  N   UNL     1      -1.294  -0.859   0.119  1.00  0.00    -0.353 N 
ATOM     14  H   UNL     1      -1.597  -0.167   0.804  1.00  0.00     0.344 HD
ATOM     15  H   UNL     1      -1.954  -1.637   0.106  1.00  0.00     0.344 HD
ATOM     16  H   UNL     1      -1.256  -0.429  -0.805  1.00  0.00     0.344 HD
ENDBRANCH   9  13
BRANCH  11  17
ATOM     17  C   UNL     1       0.875  -4.390   2.438  1.00  0.00     0.410 C 
ATOM     18  O   UNL     1       1.208  -5.504   2.069  1.00  0.00    -0.224 OA
BRANCH  17  19
ATOM     19  O   UNL     1       0.999  -3.938   3.715  1.00  0.00    -0.448 OA
BRANCH  19  20
ATOM     20  C   UNL     1       1.512  -4.927   4.649  1.00  0.00     0.248 C 
BRANCH  20  21
ATOM     21  C   UNL     1       0.373  -5.855   5.093  1.00  0.00     0.088 C 
ATOM     22  C   UNL     1       0.594  -7.358   4.924  1.00  0.00    -0.029 A 
ATOM     23  C   UNL     1       0.022  -5.761   6.576  1.00  0.00    -0.029 A 
ATOM     24  C   UNL     1       1.018  -8.072   3.813  1.00  0.00     0.005 A 
ATOM     25  C   UNL     1       0.203  -8.034   6.100  1.00  0.00    -0.014 A 
ATOM     26  C   UNL     1      -0.129  -7.058   7.116  1.00  0.00    -0.014 A 
ATOM     27  C   UNL     1      -0.179  -4.632   7.355  1.00  0.00     0.005 A 
ATOM     28  C   UNL     1       1.020  -9.467   3.868  1.00  0.00     0.000 A 
ATOM     29  C   UNL     1       0.195  -9.420   6.153  1.00  0.00     0.009 A 
ATOM     30  C   UNL     1      -0.502  -7.233   8.438  1.00  0.00     0.009 A 
ATOM     31  C   UNL     1      -0.536  -4.811   8.694  1.00  0.00     0.000 A 
ATOM     32  C   UNL     1       0.599 -10.137   5.024  1.00  0.00     0.001 A 
ATOM     33  C   UNL     1      -0.706  -6.098   9.227  1.00  0.00     0.001 A 
ENDBRANCH  20  21
ENDBRANCH  19  20
ENDBRANCH  17  19
ENDBRANCH  11  17
ENDBRANCH   5   8
ENDBRANCH   3   4
ENDBRANCH   2   3
ENDBRANCH   1   2
BRANCH   1  34
ATOM     34  C   UNL     1       5.974  -1.615   2.606  1.00  0.00     0.002 C 
BRANCH  34  35
ATOM     35  C   UNL     1       5.352  -1.371   3.985  1.00  0.00     0.021 C 
BRANCH  35  36
ATOM     36  C   UNL     1       5.648  -2.457   5.016  1.00  0.00     0.116 C 
BRANCH  36  37
ATOM     37  N   UNL     1       7.077  -2.654   5.189  1.00  0.00    -0.352 N 
ATOM     38  C   UNL     1       7.855  -2.502   6.308  1.00  0.00     0.251 C 
ATOM     39  H   UNL     1       7.561  -2.940   4.380  1.00  0.00     0.163 HD
ATOM     40  O   UNL     1       9.076  -2.449   6.194  1.00  0.00    -0.269 OA
BRANCH  38  41
ATOM     41  C   UNL     1       7.222  -2.394   7.639  1.00  0.00     0.039 A 
ATOM     42  C   UNL     1       7.730  -1.473   8.556  1.00  0.00     0.014 A 
ATOM     43  C   UNL     1       6.149  -3.219   7.992  1.00  0.00     0.014 A 
ATOM     44  C   UNL     1       7.128  -1.342   9.809  1.00  0.00     0.010 A 
ATOM     45  C   UNL     1       5.501  -3.032   9.210  1.00  0.00     0.010 A 
ATOM     46  C   UNL     1       5.988  -2.096  10.135  1.00  0.00    -0.014 A 
BRANCH  46  47
ATOM     47  C   UNL     1       5.300  -1.919  11.440  1.00  0.00     0.031 A 
ATOM     48  C   UNL     1       5.228  -3.060  12.418  1.00  0.00     0.074 A 
ATOM     49  C   UNL     1       4.701  -0.745  11.720  1.00  0.00     0.049 A 
ATOM     50  N   UNL     1       4.626  -3.117  13.578  1.00  0.00    -0.248 NA
ATOM     51  C   UNL     1       5.900  -4.310  12.029  1.00  0.00     0.031 C 
ATOM     52  C   UNL     1       4.674   0.420  10.833  1.00  0.00     0.029 A 
ATOM     53  N   UNL     1       3.994  -0.336  12.823  1.00  0.00    -0.354 N 
ATOM     54  C   UNL     1       4.835  -4.408  14.052  1.00  0.00     0.074 A 
ATOM     55  C   UNL     1       5.568  -5.117  13.025  1.00  0.00     0.031 C 
ATOM     56  C   UNL     1       4.014   1.419  11.438  1.00  0.00     0.029 A 
ATOM     57  C   UNL     1       3.521   0.953  12.730  1.00  0.00     0.049 A 
ATOM     58  H   UNL     1       3.841  -0.910  13.608  1.00  0.00     0.167 HD
ATOM     59  C   UNL     1       4.468  -4.944  15.243  1.00  0.00     0.034 A 
ATOM     60  C   UNL     1       2.760   1.673  13.580  1.00  0.00     0.034 A 
ATOM     61  C   UNL     1       3.743  -4.217  16.257  1.00  0.00     0.049 A 
ATOM     62  C   UNL     1       2.335   1.043  14.882  1.00  0.00     0.074 A 
ATOM     63  C   UNL     1       3.368  -4.645  17.519  1.00  0.00     0.029 A 
ATOM     64  N   UNL     1       3.270  -2.917  16.123  1.00  0.00    -0.354 N 
ATOM     65  N   UNL     1       2.586  -0.163  15.337  1.00  0.00    -0.248 NA
ATOM     66  C   UNL     1       1.536   1.875  15.790  1.00  0.00     0.031 C 
ATOM     67  C   UNL     1       2.598  -3.640  18.112  1.00  0.00     0.029 A 
ATOM     68  C   UNL     1       2.573  -2.545  17.263  1.00  0.00     0.049 A 
ATOM     69  H   UNL     1       3.410  -2.345  15.335  1.00  0.00     0.167 HD
ATOM     70  C   UNL     1       2.001  -0.221  16.600  1.00  0.00     0.074 A 
ATOM     71  C   UNL     1       1.402   1.076  16.838  1.00  0.00     0.031 C 
ATOM     72  C   UNL     1       1.967  -1.251  17.484  1.00  0.00     0.034 A 
BRANCH  59  73
ATOM     73  C   UNL     1       4.816  -6.393  15.496  1.00  0.00     0.023 A 
ATOM     74  C   UNL     1       6.148  -6.840  15.543  1.00  0.00     0.031 A 
ATOM     75  C   UNL     1       3.798  -7.345  15.683  1.00  0.00     0.131 A 
ATOM     76  C   UNL     1       6.425  -8.207  15.700  1.00  0.00     0.055 A 
ATOM     77  C   UNL     1       4.082  -8.691  15.925  1.00  0.00     0.041 A 
ATOM     78  F   UNL     1       2.506  -6.985  15.626  1.00  0.00    -0.206 F 
ATOM     79  C   UNL     1       5.402  -9.131  15.919  1.00  0.00     0.022 A 
BRANCH  76  80
ATOM     80  S   UNL     1       8.130  -8.779  15.468  1.00  0.00     0.124 S 
ATOM     81  O   UNL     1       8.411  -8.327  14.107  1.00  0.00    -0.237 OA
ATOM     82  O   UNL     1       8.844  -8.083  16.532  1.00  0.00    -0.237 OA
ATOM     83  O   UNL     1       8.030 -10.228  15.627  1.00  0.00    -0.744 OA
ENDBRANCH  76  80
ENDBRANCH  59  73
BRANCH  60  84
ATOM     84  C   UNL     1       2.333   3.057  13.223  1.00  0.00     0.023 A 
ATOM     85  C   UNL     1       2.735   4.163  13.988  1.00  0.00     0.031 A 
ATOM     86  C   UNL     1       1.478   3.289  12.130  1.00  0.00     0.131 A 
ATOM     87  C   UNL     1       2.244   5.442  13.682  1.00  0.00     0.055 A 
ATOM     88  C   UNL     1       1.042   4.572  11.792  1.00  0.00     0.041 A 
ATOM     89  F   UNL     1       1.063   2.269  11.363  1.00  0.00    -0.206 F 
ATOM     90  C   UNL     1       1.414   5.656  12.579  1.00  0.00     0.022 A 
BRANCH  87  91
ATOM     91  S   UNL     1       2.627   6.812  14.807  1.00  0.00     0.124 S 
ATOM     92  O   UNL     1       2.089   6.318  16.069  1.00  0.00    -0.237 OA
ATOM     93  O   UNL     1       4.081   6.884  14.712  1.00  0.00    -0.237 OA
ATOM     94  O   UNL     1       1.910   7.943  14.221  1.00  0.00    -0.744 OA
ENDBRANCH  87  91
ENDBRANCH  60  84
BRANCH  72  95
ATOM     95  C   UNL     1       1.297  -0.997  18.814  1.00  0.00     0.023 A 
ATOM     96  C   UNL     1      -0.079  -0.727  18.914  1.00  0.00     0.031 A 
ATOM     97  C   UNL     1       2.053  -1.015  20.000  1.00  0.00     0.131 A 
ATOM     98  C   UNL     1      -0.644  -0.427  20.163  1.00  0.00     0.055 A 
ATOM     99  C   UNL     1       1.471  -0.787  21.248  1.00  0.00     0.041 A 
ATOM    100  F   UNL     1       3.372  -1.261  19.967  1.00  0.00    -0.206 F 
ATOM    101  C   UNL     1       0.118  -0.476  21.333  1.00  0.00     0.022 A 
BRANCH  98 102
ATOM    102  S   UNL     1      -2.367   0.137  20.225  1.00  0.00     0.124 S 
ATOM    103  O   UNL     1      -2.334   1.308  19.355  1.00  0.00    -0.237 OA
ATOM    104  O   UNL     1      -3.093  -1.019  19.711  1.00  0.00    -0.237 OA
ATOM    105  O   UNL     1      -2.583   0.424  21.642  1.00  0.00    -0.744 OA
ENDBRANCH  98 102
ENDBRANCH  72  95
ENDBRANCH  46  47
ENDBRANCH  38  41
ENDBRANCH  36  37
ENDBRANCH  35  36
ENDBRANCH  34  35
ENDBRANCH   1  34
TORSDOF 21
