REMARK SMILES CCCCc1cc(S(F)(F)(F)(F)F)cc2c1O[C@@H](C(F)(F)F)C(C(=O)NCCCCCCNC(=O)c1ccc(-c3c4nc(c(-c5cc(S(=O)(=O)[O-])ccc5F)c5ccc([nH]5)c(-c5cc(S(=O)(=O)[O-])ccc5F)c5nc(c(-c6cc(S(=O)(=O)[O-])ccc6F)c6ccc3[nH]6)C=C5)C=C4)cc1)=C2
REMARK SMILES IDX 29 1 28 2 27 3 26 4 24 5 25 6 23 8 5 9 6 10 16 11 7 12 15 13
REMARK SMILES IDX 17 14 14 15 99 16 18 17 4 18 3 19 2 20 1 21 8 22 9 23 10 24
REMARK SMILES IDX 11 25 12 26 13 27 19 28 20 29 21 30 22 31 30 32 31 33 32 34
REMARK SMILES IDX 33 35 34 36 35 38 36 39 37 40 98 41 38 42 97 43 39 44 40 45
REMARK SMILES IDX 41 46 91 47 42 48 96 49 90 50 92 51 43 52 95 53 89 54 88 55
REMARK SMILES IDX 44 57 76 58 56 59 75 60 57 61 60 62 74 63 93 64 58 65 59 66
REMARK SMILES IDX 73 68 94 69 61 70 45 71 46 72 54 73 47 74 53 75 55 76 52 77
REMARK SMILES IDX 48 78 49 79 50 80 51 81 77 82 78 83 86 84 79 85 85 86 87 87
REMARK SMILES IDX 84 88 80 89 81 90 82 91 83 92 62 93 63 94 71 95 64 96 70 97
REMARK SMILES IDX 72 98 69 99 65 100 66 101 67 102 68 103
REMARK H PARENT 26 7 33 37 92 56 60 67
REMARK Flexibility Score: inf
ROOT
ATOM      1  C   UNL     1      -7.921  -3.694  -2.388  1.00  0.00     0.002 C 
ENDROOT
BRANCH   1   2
ATOM      2  C   UNL     1      -7.008  -2.513  -2.674  1.00  0.00     0.021 C 
BRANCH   2   3
ATOM      3  C   UNL     1      -5.878  -2.487  -1.657  1.00  0.00     0.116 C 
BRANCH   3   4
ATOM      4  N   UNL     1      -5.108  -3.736  -1.750  1.00  0.00    -0.352 N 
ATOM      5  C   UNL     1      -3.676  -3.693  -2.078  1.00  0.00     0.251 C 
ATOM      6  O   UNL     1      -3.010  -4.772  -2.158  1.00  0.00    -0.270 OA
ATOM      7  H   UNL     1      -5.551  -4.601  -1.591  1.00  0.00     0.163 HD
BRANCH   5   8
ATOM      8  C   UNL     1      -2.992  -2.358  -2.323  1.00  0.00     0.067 C 
ATOM      9  C   UNL     1      -0.943   1.278  -2.511  1.00  0.00    -0.004 A 
ATOM     10  C   UNL     1      -1.648   2.462  -2.626  1.00  0.00     0.032 A 
ATOM     11  C   UNL     1      -1.643   0.101  -2.397  1.00  0.00     0.131 A 
ATOM     12  C   UNL     1      -3.018   2.470  -2.622  1.00  0.00     0.108 A 
ATOM     13  C   UNL     1      -3.026   0.069  -2.408  1.00  0.00     0.019 A 
ATOM     14  O   UNL     1      -0.933  -1.052  -2.171  1.00  0.00    -0.475 OA
ATOM     15  C   UNL     1      -3.704   1.277  -2.520  1.00  0.00     0.036 A 
ATOM     16  C   UNL     1      -3.674  -1.222  -2.243  1.00  0.00     0.025 C 
ATOM     17  C   UNL     1      -1.509  -2.294  -2.664  1.00  0.00     0.314 C 
BRANCH   9  18
ATOM     18  C   UNL     1       0.577   1.278  -2.511  1.00  0.00     0.039 C 
BRANCH  18  19
ATOM     19  C   UNL     1       1.084   2.048  -1.303  1.00  0.00     0.005 C 
BRANCH  19  20
ATOM     20  C   UNL     1       0.577   1.387  -0.032  1.00  0.00    -0.003 C 
ATOM     21  C   UNL     1       1.084  -0.045   0.031  1.00  0.00     0.004 C 
ENDBRANCH  19  20
ENDBRANCH  18  19
ENDBRANCH   9  18
BRANCH  12  22
ATOM     22  S   UNL     1      -3.922   4.033  -2.749  1.00  0.00     0.310 S 
ATOM     23  F   UNL     1      -4.244   4.046  -1.196  1.00  0.00    -0.094 F 
ATOM     24  F   UNL     1      -5.256   3.219  -2.949  1.00  0.00    -0.094 F 
ATOM     25  F   UNL     1      -4.693   5.378  -2.858  1.00  0.00    -0.094 F 
ATOM     26  F   UNL     1      -2.600   4.828  -2.408  1.00  0.00    -0.094 F 
ATOM     27  F   UNL     1      -3.145   2.674  -2.524  1.00  0.00    -0.094 F 
ENDBRANCH  12  22
BRANCH  17  28
ATOM     28  C   UNL     1      -0.798  -3.466  -2.007  1.00  0.00     0.429 C 
ATOM     29  F   UNL     1      -1.316  -4.606  -2.455  1.00  0.00    -0.167 F 
ATOM     30  F   UNL     1       0.498  -3.421  -2.304  1.00  0.00    -0.167 F 
ATOM     31  F   UNL     1      -0.954  -3.396  -0.688  1.00  0.00    -0.167 F 
ENDBRANCH  17  28
ENDBRANCH   5   8
ENDBRANCH   3   4
ENDBRANCH   2   3
ENDBRANCH   1   2
BRANCH   1  32
ATOM     32  C   UNL     1      -8.501  -3.559  -0.989  1.00  0.00     0.002 C 
BRANCH  32  33
ATOM     33  C   UNL     1      -9.298  -2.268  -0.893  1.00  0.00     0.021 C 
BRANCH  33  34
ATOM     34  C   UNL     1     -10.427  -2.293  -1.910  1.00  0.00     0.116 C 
BRANCH  34  35
ATOM     35  N   UNL     1     -11.310  -3.436  -1.633  1.00  0.00    -0.352 N 
ATOM     36  C   UNL     1     -12.730  -3.210  -1.325  1.00  0.00     0.251 C 
ATOM     37  H   UNL     1     -10.951  -4.352  -1.655  1.00  0.00     0.163 HD
ATOM     38  O   UNL     1     -13.493  -4.198  -1.086  1.00  0.00    -0.269 OA
BRANCH  36  39
ATOM     39  C   UNL     1     -13.285  -1.795  -1.293  1.00  0.00     0.039 A 
ATOM     40  C   UNL     1     -14.112  -1.396  -0.256  1.00  0.00     0.014 A 
ATOM     41  C   UNL     1     -12.954  -0.960  -2.271  1.00  0.00     0.014 A 
ATOM     42  C   UNL     1     -14.779  -0.171  -0.494  1.00  0.00     0.010 A 
ATOM     43  C   UNL     1     -13.546   0.276  -2.365  1.00  0.00     0.010 A 
ATOM     44  C   UNL     1     -14.418   0.713  -1.407  1.00  0.00    -0.014 A 
BRANCH  44  45
ATOM     45  C   UNL     1     -14.946   2.138  -1.394  1.00  0.00     0.031 A 
ATOM     46  C   UNL     1     -15.665   2.582  -2.505  1.00  0.00     0.074 A 
ATOM     47  C   UNL     1     -14.685   2.917  -0.280  1.00  0.00     0.049 A 
ATOM     48  N   UNL     1     -16.238   3.773  -2.681  1.00  0.00    -0.248 NA
ATOM     49  C   UNL     1     -15.914   1.767  -3.704  1.00  0.00     0.031 C 
ATOM     50  C   UNL     1     -13.968   2.475   0.849  1.00  0.00     0.029 A 
ATOM     51  N   UNL     1     -15.055   4.225  -0.058  1.00  0.00    -0.354 N 
ATOM     52  C   UNL     1     -16.853   3.819  -3.865  1.00  0.00     0.074 A 
ATOM     53  C   UNL     1     -16.648   2.531  -4.542  1.00  0.00     0.031 C 
ATOM     54  C   UNL     1     -13.896   3.504   1.734  1.00  0.00     0.029 A 
ATOM     55  C   UNL     1     -14.568   4.607   1.173  1.00  0.00     0.049 A 
ATOM     56  H   UNL     1     -15.576   4.790  -0.672  1.00  0.00     0.167 HD
ATOM     57  C   UNL     1     -17.577   4.883  -4.405  1.00  0.00     0.034 A 
ATOM     58  C   UNL     1     -14.691   5.843   1.788  1.00  0.00     0.034 A 
ATOM     59  C   UNL     1     -17.737   6.104  -3.770  1.00  0.00     0.049 A 
ATOM     60  C   UNL     1     -15.366   6.927   1.222  1.00  0.00     0.074 A 
ATOM     61  C   UNL     1     -18.471   7.184  -4.297  1.00  0.00     0.029 A 
ATOM     62  N   UNL     1     -17.230   6.494  -2.550  1.00  0.00    -0.354 N 
ATOM     63  N   UNL     1     -16.014   6.959   0.057  1.00  0.00    -0.248 NA
ATOM     64  C   UNL     1     -15.475   8.250   1.850  1.00  0.00     0.031 C 
ATOM     65  C   UNL     1     -18.399   8.214  -3.412  1.00  0.00     0.029 A 
ATOM     66  C   UNL     1     -17.619   7.794  -2.318  1.00  0.00     0.049 A 
ATOM     67  H   UNL     1     -16.683   5.939  -1.948  1.00  0.00     0.167 HD
ATOM     68  C   UNL     1     -16.552   8.165  -0.137  1.00  0.00     0.074 A 
ATOM     69  C   UNL     1     -16.207   9.015   1.011  1.00  0.00     0.031 C 
ATOM     70  C   UNL     1     -17.320   8.589  -1.222  1.00  0.00     0.034 A 
BRANCH  57  71
ATOM     71  C   UNL     1     -18.228   4.690  -5.765  1.00  0.00     0.023 A 
ATOM     72  C   UNL     1     -19.184   3.701  -5.930  1.00  0.00     0.031 A 
ATOM     73  C   UNL     1     -17.882   5.488  -6.768  1.00  0.00     0.131 A 
ATOM     74  C   UNL     1     -19.513   3.442  -7.282  1.00  0.00     0.055 A 
ATOM     75  C   UNL     1     -18.350   5.257  -8.039  1.00  0.00     0.041 A 
ATOM     76  F   UNL     1     -17.076   6.521  -6.541  1.00  0.00    -0.206 F 
ATOM     77  C   UNL     1     -19.251   4.259  -8.286  1.00  0.00     0.022 A 
BRANCH  74  78
ATOM     78  S   UNL     1     -20.351   1.883  -7.660  1.00  0.00     0.124 S 
ATOM     79  O   UNL     1     -19.466   0.711  -7.231  1.00  0.00    -0.237 OA
ATOM     80  O   UNL     1     -21.680   1.822  -6.904  1.00  0.00    -0.237 OA
ATOM     81  O   UNL     1     -20.646   1.789  -9.342  1.00  0.00    -0.744 OA
ENDBRANCH  74  78
ENDBRANCH  57  71
BRANCH  58  82
ATOM     82  C   UNL     1     -14.054   6.029   3.156  1.00  0.00     0.023 A 
ATOM     83  C   UNL     1     -14.847   6.388   4.234  1.00  0.00     0.031 A 
ATOM     84  C   UNL     1     -12.744   5.864   3.290  1.00  0.00     0.131 A 
ATOM     85  C   UNL     1     -14.116   6.834   5.360  1.00  0.00     0.055 A 
ATOM     86  C   UNL     1     -12.114   6.193   4.466  1.00  0.00     0.041 A 
ATOM     87  F   UNL     1     -12.034   5.374   2.277  1.00  0.00    -0.206 F 
ATOM     88  C   UNL     1     -12.829   6.611   5.554  1.00  0.00     0.022 A 
BRANCH  85  89
ATOM     89  S   UNL     1     -15.007   7.776   6.623  1.00  0.00     0.124 S 
ATOM     90  O   UNL     1     -15.591   9.044   5.996  1.00  0.00    -0.237 OA
ATOM     91  O   UNL     1     -16.140   6.920   7.193  1.00  0.00    -0.237 OA
ATOM     92  O   UNL     1     -13.929   8.206   7.879  1.00  0.00    -0.744 OA
ENDBRANCH  85  89
ENDBRANCH  58  82
BRANCH  70  93
ATOM     93  C   UNL     1     -17.863  10.009  -1.201  1.00  0.00     0.023 A 
ATOM     94  C   UNL     1     -16.993  11.086  -1.143  1.00  0.00     0.031 A 
ATOM     95  C   UNL     1     -19.178  10.187  -1.247  1.00  0.00     0.131 A 
ATOM     96  C   UNL     1     -17.624  12.316  -0.844  1.00  0.00     0.055 A 
ATOM     97  C   UNL     1     -19.720  11.439  -1.082  1.00  0.00     0.041 A 
ATOM     98  F   UNL     1     -19.977   9.145  -1.453  1.00  0.00    -0.206 F 
ATOM     99  C   UNL     1     -18.921  12.541  -0.959  1.00  0.00     0.022 A 
BRANCH  96 100
ATOM    100  S   UNL     1     -16.582  13.677  -0.262  1.00  0.00     0.124 S 
ATOM    101  O   UNL     1     -15.877  13.263   1.031  1.00  0.00    -0.237 OA
ATOM    102  O   UNL     1     -15.537  14.011  -1.329  1.00  0.00    -0.237 OA
ATOM    103  O   UNL     1     -17.554  15.053   0.034  1.00  0.00    -0.744 OA
ENDBRANCH  96 100
ENDBRANCH  70  93
ENDBRANCH  44  45
ENDBRANCH  36  39
ENDBRANCH  34  35
ENDBRANCH  33  34
ENDBRANCH  32  33
ENDBRANCH   1  32
TORSDOF 21
