REMARK SMILES O=C(NCCCCCCNC(=O)c1ccc(OC[C@H]2C[C@H]3CC[C@@H]2C3)c(Cl)c1)c1ccc(-c2c3nc(c(-c4cc(S(=O)(=O)[O-])ccc4F)c4ccc([nH]4)c(-c4cc(S(=O)(=O)[O-])ccc4F)c4nc(c(-c5cc(S(=O)(=O)[O-])ccc5F)c5ccc2[nH]5)C=C4)C=C3)cc1
REMARK SMILES IDX 6 1 5 2 4 3 3 4 1 5 2 6 29 8 30 9 91 10 31 11 90 12 32 13
REMARK SMILES IDX 33 14 34 15 84 16 35 17 89 18 83 19 85 20 36 21 88 22 82 23
REMARK SMILES IDX 81 24 37 26 69 27 49 28 68 29 50 30 53 31 67 32 86 33 51 34
REMARK SMILES IDX 52 35 66 37 87 38 54 39 38 40 39 41 47 42 40 43 46 44 48 45
REMARK SMILES IDX 45 46 41 47 42 48 43 49 44 50 70 51 71 52 79 53 72 54 78 55
REMARK SMILES IDX 80 56 77 57 73 58 74 59 75 60 76 61 55 62 56 63 64 64 57 65
REMARK SMILES IDX 63 66 65 67 62 68 58 69 59 70 60 71 61 72 7 73 8 74 9 75
REMARK SMILES IDX 10 76 11 77 12 79 13 80 14 81 28 82 15 83 26 84 16 85 27 86
REMARK SMILES IDX 17 87 18 88 19 89 20 90 24 91 21 92 23 93 25 94 22 95
REMARK H PARENT 3 7 85 25 53 36 10 78
REMARK Flexibility Score: inf
ROOT
ATOM      1  C   UNL     1      20.659  -7.903   4.543  1.00  0.00     0.002 C 
ENDROOT
BRANCH   1   2
ATOM      2  C   UNL     1      21.932  -7.055   4.566  1.00  0.00     0.021 C 
BRANCH   2   3
ATOM      3  C   UNL     1      22.966  -7.464   5.607  1.00  0.00     0.116 C 
BRANCH   3   4
ATOM      4  N   UNL     1      23.503  -8.792   5.366  1.00  0.00    -0.352 N 
ATOM      5  O   UNL     1      25.086 -10.335   4.934  1.00  0.00    -0.269 OA
ATOM      6  C   UNL     1      24.814  -9.197   5.306  1.00  0.00     0.251 C 
ATOM      7  H   UNL     1      22.834  -9.501   5.226  1.00  0.00     0.163 HD
BRANCH   6   8
ATOM      8  C   UNL     1      25.897  -8.256   5.673  1.00  0.00     0.039 A 
ATOM      9  C   UNL     1      25.808  -7.473   6.827  1.00  0.00     0.014 A 
ATOM     10  C   UNL     1      27.029  -8.176   4.857  1.00  0.00     0.014 A 
ATOM     11  C   UNL     1      26.797  -6.534   7.107  1.00  0.00     0.010 A 
ATOM     12  C   UNL     1      28.053  -7.280   5.176  1.00  0.00     0.010 A 
ATOM     13  C   UNL     1      27.935  -6.436   6.291  1.00  0.00    -0.014 A 
BRANCH  13  14
ATOM     14  C   UNL     1      29.021  -5.492   6.658  1.00  0.00     0.031 A 
ATOM     15  C   UNL     1      29.336  -4.302   5.796  1.00  0.00     0.074 A 
ATOM     16  C   UNL     1      29.723  -5.720   7.784  1.00  0.00     0.049 A 
ATOM     17  N   UNL     1      30.253  -3.382   5.962  1.00  0.00    -0.248 NA
ATOM     18  C   UNL     1      28.524  -4.130   4.584  1.00  0.00     0.031 C 
ATOM     19  C   UNL     1      29.518  -6.858   8.685  1.00  0.00     0.029 A 
ATOM     20  N   UNL     1      30.745  -5.016   8.366  1.00  0.00    -0.354 N 
ATOM     21  C   UNL     1      30.141  -2.528   4.871  1.00  0.00     0.074 A 
ATOM     22  C   UNL     1      29.086  -3.063   4.033  1.00  0.00     0.031 C 
ATOM     23  C   UNL     1      30.372  -6.763   9.714  1.00  0.00     0.029 A 
ATOM     24  C   UNL     1      31.219  -5.591   9.521  1.00  0.00     0.049 A 
ATOM     25  H   UNL     1      31.105  -4.180   7.992  1.00  0.00     0.167 HD
ATOM     26  C   UNL     1      30.847  -1.401   4.600  1.00  0.00     0.034 A 
ATOM     27  C   UNL     1      32.238  -5.232  10.325  1.00  0.00     0.034 A 
ATOM     28  C   UNL     1      31.896  -0.886   5.449  1.00  0.00     0.049 A 
ATOM     29  C   UNL     1      33.021  -3.993   9.994  1.00  0.00     0.074 A 
ATOM     30  C   UNL     1      32.640   0.273   5.299  1.00  0.00     0.029 A 
ATOM     31  N   UNL     1      32.364  -1.505   6.603  1.00  0.00    -0.354 N 
ATOM     32  N   UNL     1      32.876  -3.175   8.977  1.00  0.00    -0.248 NA
ATOM     33  C   UNL     1      34.098  -3.626  10.920  1.00  0.00     0.031 C 
ATOM     34  C   UNL     1      33.595   0.321   6.322  1.00  0.00     0.029 A 
ATOM     35  C   UNL     1      33.406  -0.772   7.152  1.00  0.00     0.049 A 
ATOM     36  H   UNL     1      32.007  -2.343   6.976  1.00  0.00     0.167 HD
ATOM     37  C   UNL     1      33.842  -2.189   9.146  1.00  0.00     0.074 A 
ATOM     38  C   UNL     1      34.547  -2.505  10.374  1.00  0.00     0.031 C 
ATOM     39  C   UNL     1      34.120  -1.118   8.360  1.00  0.00     0.034 A 
BRANCH  26  40
ATOM     40  C   UNL     1      30.534  -0.680   3.311  1.00  0.00     0.023 A 
ATOM     41  C   UNL     1      29.280  -0.087   3.078  1.00  0.00     0.031 A 
ATOM     42  C   UNL     1      31.493  -0.611   2.285  1.00  0.00     0.131 A 
ATOM     43  C   UNL     1      28.994   0.482   1.827  1.00  0.00     0.055 A 
ATOM     44  C   UNL     1      31.228   0.023   1.069  1.00  0.00     0.041 A 
ATOM     45  F   UNL     1      32.702  -1.173   2.441  1.00  0.00    -0.206 F 
ATOM     46  C   UNL     1      29.967   0.560   0.828  1.00  0.00     0.022 A 
BRANCH  43  47
ATOM     47  S   UNL     1      27.288   0.988   1.474  1.00  0.00     0.124 S 
ATOM     48  O   UNL     1      26.552  -0.250   1.720  1.00  0.00    -0.237 OA
ATOM     49  O   UNL     1      27.071   2.061   2.438  1.00  0.00    -0.237 OA
ATOM     50  O   UNL     1      27.336   1.406   0.075  1.00  0.00    -0.744 OA
ENDBRANCH  43  47
ENDBRANCH  26  40
BRANCH  27  51
ATOM     51  C   UNL     1      32.593  -6.084  11.492  1.00  0.00     0.023 A 
ATOM     52  C   UNL     1      32.400  -5.636  12.806  1.00  0.00     0.031 A 
ATOM     53  C   UNL     1      33.128  -7.371  11.299  1.00  0.00     0.131 A 
ATOM     54  C   UNL     1      32.763  -6.462  13.882  1.00  0.00     0.055 A 
ATOM     55  C   UNL     1      33.448  -8.204  12.371  1.00  0.00     0.041 A 
ATOM     56  F   UNL     1      33.320  -7.846  10.058  1.00  0.00    -0.206 F 
ATOM     57  C   UNL     1      33.273  -7.746  13.673  1.00  0.00     0.022 A 
BRANCH  54  58
ATOM     58  S   UNL     1      32.601  -5.814  15.568  1.00  0.00     0.124 S 
ATOM     59  O   UNL     1      33.463  -4.639  15.521  1.00  0.00    -0.237 OA
ATOM     60  O   UNL     1      31.167  -5.555  15.656  1.00  0.00    -0.237 OA
ATOM     61  O   UNL     1      33.085  -6.911  16.402  1.00  0.00    -0.744 OA
ENDBRANCH  54  58
ENDBRANCH  27  51
BRANCH  39  62
ATOM     62  C   UNL     1      35.224  -0.207   8.829  1.00  0.00     0.023 A 
ATOM     63  C   UNL     1      36.569  -0.619   8.823  1.00  0.00     0.031 A 
ATOM     64  C   UNL     1      34.925   1.078   9.313  1.00  0.00     0.131 A 
ATOM     65  C   UNL     1      37.559   0.227   9.343  1.00  0.00     0.055 A 
ATOM     66  C   UNL     1      35.922   1.935   9.781  1.00  0.00     0.041 A 
ATOM     67  F   UNL     1      33.657   1.518   9.344  1.00  0.00    -0.206 F 
ATOM     68  C   UNL     1      37.246   1.506   9.809  1.00  0.00     0.022 A 
BRANCH  65  69
ATOM     69  S   UNL     1      39.257  -0.399   9.478  1.00  0.00     0.124 S 
ATOM     70  O   UNL     1      39.086  -1.550  10.358  1.00  0.00    -0.237 OA
ATOM     71  O   UNL     1      39.591  -0.700   8.090  1.00  0.00    -0.237 OA
ATOM     72  O   UNL     1      39.990   0.723  10.061  1.00  0.00    -0.744 OA
ENDBRANCH  65  69
ENDBRANCH  39  62
ENDBRANCH  13  14
ENDBRANCH   6   8
ENDBRANCH   3   4
ENDBRANCH   2   3
ENDBRANCH   1   2
BRANCH   1  73
ATOM     73  C   UNL     1      19.894  -7.988   5.867  1.00  0.00     0.002 C 
BRANCH  73  74
ATOM     74  C   UNL     1      19.547  -6.646   6.523  1.00  0.00     0.021 C 
BRANCH  74  75
ATOM     75  C   UNL     1      18.811  -5.660   5.618  1.00  0.00     0.116 C 
BRANCH  75  76
ATOM     76  N   UNL     1      17.520  -6.178   5.196  1.00  0.00    -0.352 N 
ATOM     77  C   UNL     1      16.276  -5.640   5.403  1.00  0.00     0.251 C 
ATOM     78  H   UNL     1      17.542  -7.026   4.695  1.00  0.00     0.163 HD
ATOM     79  O   UNL     1      15.264  -6.162   4.970  1.00  0.00    -0.269 OA
BRANCH  77  80
ATOM     80  C   UNL     1      16.186  -4.382   6.160  1.00  0.00     0.041 A 
ATOM     81  C   UNL     1      16.186  -3.175   5.463  1.00  0.00     0.018 A 
ATOM     82  C   UNL     1      16.182  -4.415   7.555  1.00  0.00     0.038 A 
ATOM     83  C   UNL     1      16.162  -1.983   6.182  1.00  0.00     0.049 A 
ATOM     84  C   UNL     1      16.191  -3.213   8.270  1.00  0.00     0.083 A 
ATOM     85  C   UNL     1      16.132  -1.993   7.584  1.00  0.00     0.137 A 
ATOM     86  Cl  UNL     1      16.403  -3.326   9.979  1.00  0.00    -0.080 Cl
BRANCH  85  87
ATOM     87  O   UNL     1      16.162  -0.749   8.143  1.00  0.00    -0.492 OA
BRANCH  87  88
ATOM     88  C   UNL     1      15.136  -0.395   9.080  1.00  0.00     0.233 C 
BRANCH  88  89
ATOM     89  C   UNL     1      13.692  -0.640   8.613  1.00  0.00     0.030 C 
ATOM     90  C   UNL     1      13.059  -1.932   9.189  1.00  0.00     0.011 C 
ATOM     91  C   UNL     1      12.680   0.441   9.086  1.00  0.00    -0.004 C 
ATOM     92  C   UNL     1      11.785  -1.428   9.890  1.00  0.00    -0.010 C 
ATOM     93  C   UNL     1      12.752   0.654  10.607  1.00  0.00     0.004 C 
ATOM     94  C   UNL     1      11.346  -0.302   8.960  1.00  0.00     0.007 C 
ATOM     95  C   UNL     1      12.192  -0.661  11.162  1.00  0.00     0.004 C 
ENDBRANCH  88  89
ENDBRANCH  87  88
ENDBRANCH  85  87
ENDBRANCH  77  80
ENDBRANCH  75  76
ENDBRANCH  74  75
ENDBRANCH  73  74
ENDBRANCH   1  73
TORSDOF 19
