REMARK SMILES CC[C@](C)(NC(=O)N[C@@H]1C[C@@H]1C)C(=O)NCCCCCCNC(=O)c1ccc(-c2c3nc(c(-c4cc(S(=O)(=O)[O-])ccc4F)c4ccc([nH]4)c(-c4cc(S(=O)(=O)[O-])ccc4F)c4nc(c(-c5cc(S(=O)(=O)[O-])ccc5F)c5ccc2[nH]5)C=C4)C=C3)cc1
REMARK SMILES IDX 19 1 18 2 17 3 16 4 15 5 13 6 14 7 3 9 4 10 2 11 1 12 5 13
REMARK SMILES IDX 6 14 7 16 8 17 9 19 10 20 11 21 12 22 20 23 21 24 22 25
REMARK SMILES IDX 23 26 24 28 25 29 26 30 87 31 27 32 86 33 28 34 29 35 30 36
REMARK SMILES IDX 80 37 31 38 85 39 79 40 81 41 32 42 84 43 78 44 77 45 33 47
REMARK SMILES IDX 65 48 45 49 64 50 46 51 49 52 63 53 82 54 47 55 48 56 62 58
REMARK SMILES IDX 83 59 50 60 34 61 35 62 43 63 36 64 42 65 44 66 41 67 37 68
REMARK SMILES IDX 38 69 39 70 40 71 66 72 67 73 75 74 68 75 74 76 76 77 73 78
REMARK SMILES IDX 69 79 70 80 71 81 72 82 51 83 52 84 60 85 53 86 59 87 61 88
REMARK SMILES IDX 58 89 54 90 55 91 56 92 57 93
REMARK H PARENT 15 8 5 15 8 18 22 27 81 46 49 57
REMARK Flexibility Score: inf
ROOT
ATOM      1  C   UNL     1       5.014   4.581   5.160  1.00  0.00     0.002 C 
ENDROOT
BRANCH   1   2
ATOM      2  C   UNL     1       4.434   3.224   5.561  1.00  0.00     0.002 C 
BRANCH   2   3
ATOM      3  C   UNL     1       2.908   3.124   5.559  1.00  0.00     0.021 C 
BRANCH   3   4
ATOM      4  C   UNL     1       2.200   3.590   4.285  1.00  0.00     0.116 C 
BRANCH   4   5
ATOM      5  N   UNL     1       2.784   3.096   3.043  1.00  0.00    -0.354 N 
ATOM      6  C   UNL     1       2.224   2.413   1.991  1.00  0.00     0.245 C 
ATOM      7  O   UNL     1       2.849   2.417   0.926  1.00  0.00    -0.272 OA
ATOM      8  H   UNL     1       3.745   3.285   2.941  1.00  0.00     0.163 HD
BRANCH   6   9
ATOM      9  C   UNL     1       0.782   1.829   2.091  1.00  0.00     0.117 C 
ATOM     10  C   UNL     1       0.361   0.839   0.997  1.00  0.00     0.045 C 
BRANCH   9  11
ATOM     11  C   UNL     1      -0.176   3.076   1.985  1.00  0.00     0.035 C 
ATOM     12  C   UNL     1      -0.614   3.454   0.567  1.00  0.00     0.007 C 
ENDBRANCH   9  11
BRANCH   9  13
ATOM     13  N   UNL     1       0.604   1.183   3.403  1.00  0.00    -0.324 N 
ATOM     14  C   UNL     1       1.319   0.384   4.193  1.00  0.00     0.315 C 
ATOM     15  H   UNL     1      -0.271   1.399   3.800  1.00  0.00     0.166 HD
ATOM     16  O   UNL     1       0.808   0.119   5.289  1.00  0.00    -0.249 OA
ATOM     17  N   UNL     1       2.567  -0.061   4.004  1.00  0.00    -0.335 N 
ATOM     18  H   UNL     1       3.042  -0.090   4.865  1.00  0.00     0.165 HD
BRANCH  17  19
ATOM     19  C   UNL     1       3.432  -0.506   2.961  1.00  0.00     0.087 C 
ATOM     20  C   UNL     1       3.346  -0.629   1.479  1.00  0.00     0.030 C 
ATOM     21  C   UNL     1       3.070  -1.841   2.312  1.00  0.00     0.010 C 
ATOM     22  C   UNL     1       1.699  -2.421   2.459  1.00  0.00     0.010 C 
ENDBRANCH  17  19
ENDBRANCH   9  13
ENDBRANCH   6   9
ENDBRANCH   4   5
ENDBRANCH   3   4
ENDBRANCH   2   3
ENDBRANCH   1   2
BRANCH   1  23
ATOM     23  C   UNL     1       4.433   5.788   5.892  1.00  0.00     0.021 C 
BRANCH  23  24
ATOM     24  C   UNL     1       4.521   5.715   7.408  1.00  0.00     0.116 C 
BRANCH  24  25
ATOM     25  N   UNL     1       5.897   5.737   7.873  1.00  0.00    -0.352 N 
ATOM     26  C   UNL     1       6.478   6.591   8.776  1.00  0.00     0.251 C 
ATOM     27  H   UNL     1       6.489   5.049   7.491  1.00  0.00     0.163 HD
ATOM     28  O   UNL     1       7.702   6.619   8.896  1.00  0.00    -0.269 OA
BRANCH  26  29
ATOM     29  C   UNL     1       5.622   7.493   9.574  1.00  0.00     0.039 A 
ATOM     30  C   UNL     1       5.982   8.835   9.696  1.00  0.00     0.014 A 
ATOM     31  C   UNL     1       4.449   7.020  10.173  1.00  0.00     0.014 A 
ATOM     32  C   UNL     1       5.136   9.714  10.373  1.00  0.00     0.010 A 
ATOM     33  C   UNL     1       3.564   7.915  10.766  1.00  0.00     0.010 A 
ATOM     34  C   UNL     1       3.903   9.270  10.883  1.00  0.00    -0.014 A 
BRANCH  34  35
ATOM     35  C   UNL     1       2.970  10.225  11.535  1.00  0.00     0.031 A 
ATOM     36  C   UNL     1       2.612  10.071  12.988  1.00  0.00     0.074 A 
ATOM     37  C   UNL     1       2.431  11.222  10.805  1.00  0.00     0.049 A 
ATOM     38  N   UNL     1       1.856  10.831  13.738  1.00  0.00    -0.248 NA
ATOM     39  C   UNL     1       3.151   8.892  13.681  1.00  0.00     0.031 C 
ATOM     40  C   UNL     1       2.661  11.437   9.374  1.00  0.00     0.029 A 
ATOM     41  N   UNL     1       1.596  12.249  11.162  1.00  0.00    -0.354 N 
ATOM     42  C   UNL     1       1.824  10.220  14.988  1.00  0.00     0.074 A 
ATOM     43  C   UNL     1       2.576   8.989  14.869  1.00  0.00     0.031 C 
ATOM     44  C   UNL     1       2.034  12.560   8.992  1.00  0.00     0.029 A 
ATOM     45  C   UNL     1       1.318  13.119  10.133  1.00  0.00     0.049 A 
ATOM     46  H   UNL     1       1.229  12.354  12.070  1.00  0.00     0.167 HD
ATOM     47  C   UNL     1       1.244  10.658  16.133  1.00  0.00     0.034 A 
ATOM     48  C   UNL     1       0.577  14.244  10.114  1.00  0.00     0.034 A 
ATOM     49  C   UNL     1       0.499  11.891  16.227  1.00  0.00     0.049 A 
ATOM     50  C   UNL     1      -0.079  14.698  11.393  1.00  0.00     0.074 A 
ATOM     51  C   UNL     1      -0.075  12.469  17.346  1.00  0.00     0.029 A 
ATOM     52  N   UNL     1       0.205  12.729  15.157  1.00  0.00    -0.354 N 
ATOM     53  N   UNL     1      -0.032  14.152  12.587  1.00  0.00    -0.248 NA
ATOM     54  C   UNL     1      -0.876  15.927  11.320  1.00  0.00     0.031 C 
ATOM     55  C   UNL     1      -0.788  13.602  16.939  1.00  0.00     0.029 A 
ATOM     56  C   UNL     1      -0.583  13.790  15.582  1.00  0.00     0.049 A 
ATOM     57  H   UNL     1       0.511  12.590  14.232  1.00  0.00     0.167 HD
ATOM     58  C   UNL     1      -0.776  14.989  13.414  1.00  0.00     0.074 A 
ATOM     59  C   UNL     1      -1.231  16.088  12.585  1.00  0.00     0.031 C 
ATOM     60  C   UNL     1      -1.059  14.863  14.738  1.00  0.00     0.034 A 
BRANCH  47  61
ATOM     61  C   UNL     1       1.365   9.776  17.356  1.00  0.00     0.023 A 
ATOM     62  C   UNL     1       2.614   9.435  17.908  1.00  0.00     0.031 A 
ATOM     63  C   UNL     1       0.215   9.232  17.958  1.00  0.00     0.131 A 
ATOM     64  C   UNL     1       2.688   8.510  18.961  1.00  0.00     0.055 A 
ATOM     65  C   UNL     1       0.292   8.386  19.066  1.00  0.00     0.041 A 
ATOM     66  F   UNL     1      -1.005   9.499  17.466  1.00  0.00    -0.206 F 
ATOM     67  C   UNL     1       1.534   8.004  19.562  1.00  0.00     0.022 A 
BRANCH  64  68
ATOM     68  S   UNL     1       4.314   7.845  19.416  1.00  0.00     0.124 S 
ATOM     69  O   UNL     1       4.776   7.296  18.142  1.00  0.00    -0.237 OA
ATOM     70  O   UNL     1       5.017   9.029  19.894  1.00  0.00    -0.237 OA
ATOM     71  O   UNL     1       4.003   6.847  20.437  1.00  0.00    -0.744 OA
ENDBRANCH  64  68
ENDBRANCH  47  61
BRANCH  48  72
ATOM     72  C   UNL     1       0.421  15.027   8.854  1.00  0.00     0.023 A 
ATOM     73  C   UNL     1       0.908  16.340   8.754  1.00  0.00     0.031 A 
ATOM     74  C   UNL     1      -0.247  14.486   7.741  1.00  0.00     0.131 A 
ATOM     75  C   UNL     1       0.682  17.084   7.585  1.00  0.00     0.055 A 
ATOM     76  C   UNL     1      -0.419  15.210   6.560  1.00  0.00     0.041 A 
ATOM     77  F   UNL     1      -0.731  13.234   7.781  1.00  0.00    -0.206 F 
ATOM     78  C   UNL     1       0.036  16.522   6.482  1.00  0.00     0.022 A 
BRANCH  75  79
ATOM     79  S   UNL     1       1.174  18.830   7.557  1.00  0.00     0.124 S 
ATOM     80  O   UNL     1       0.404  19.373   8.669  1.00  0.00    -0.237 OA
ATOM     81  O   UNL     1       2.617  18.741   7.756  1.00  0.00    -0.237 OA
ATOM     82  O   UNL     1       0.758  19.278   6.230  1.00  0.00    -0.744 OA
ENDBRANCH  75  79
ENDBRANCH  48  72
BRANCH  60  83
ATOM     83  C   UNL     1      -1.885  15.964  15.363  1.00  0.00     0.023 A 
ATOM     84  C   UNL     1      -3.203  16.224  14.946  1.00  0.00     0.031 A 
ATOM     85  C   UNL     1      -1.332  16.795  16.354  1.00  0.00     0.131 A 
ATOM     86  C   UNL     1      -3.890  17.337  15.452  1.00  0.00     0.055 A 
ATOM     87  C   UNL     1      -2.052  17.852  16.914  1.00  0.00     0.041 A 
ATOM     88  F   UNL     1      -0.077  16.601  16.790  1.00  0.00    -0.206 F 
ATOM     89  C   UNL     1      -3.332  18.141  16.448  1.00  0.00     0.022 A 
BRANCH  86  90
ATOM     90  S   UNL     1      -5.466  17.805  14.683  1.00  0.00     0.124 S 
ATOM     91  O   UNL     1      -5.084  17.963  13.284  1.00  0.00    -0.237 OA
ATOM     92  O   UNL     1      -6.314  16.657  14.986  1.00  0.00    -0.237 OA
ATOM     93  O   UNL     1      -5.828  19.043  15.371  1.00  0.00    -0.744 OA
ENDBRANCH  86  90
ENDBRANCH  60  83
ENDBRANCH  34  35
ENDBRANCH  26  29
ENDBRANCH  24  25
ENDBRANCH  23  24
ENDBRANCH   1  23
TORSDOF 19
