REMARK SMILES CC1([C@@]2(C)C[C@@H]2C(=O)NCCCCCCNC(=O)c2ccc(-c3c4nc(c(-c5cc(S(=O)(=O)[O-])ccc5F)c5ccc([nH]5)c(-c5cc(S(=O)(=O)[O-])ccc5F)c5nc(c(-c6cc(S(=O)(=O)[O-])ccc6F)c6ccc3[nH]6)C=C5)C=C4)cc2)CC1
REMARK SMILES IDX 13 1 12 2 11 3 10 4 9 5 7 6 8 7 6 9 3 10 4 11 5 12 2 13 1 14
REMARK SMILES IDX 82 15 83 16 14 17 15 18 16 19 17 20 18 22 19 23 20 24 81 25
REMARK SMILES IDX 21 26 80 27 22 28 23 29 24 30 74 31 25 32 79 33 73 34 75 35
REMARK SMILES IDX 26 36 78 37 72 38 71 39 27 41 59 42 39 43 58 44 40 45 43 46
REMARK SMILES IDX 57 47 76 48 41 49 42 50 56 52 77 53 44 54 28 55 29 56 37 57
REMARK SMILES IDX 30 58 36 59 38 60 35 61 31 62 32 63 33 64 34 65 60 66 61 67
REMARK SMILES IDX 69 68 62 69 68 70 70 71 67 72 63 73 64 74 65 75 66 76 45 77
REMARK SMILES IDX 46 78 54 79 47 80 53 81 55 82 52 83 48 84 49 85 50 86 51 87
REMARK H PARENT 9 8 16 21 75 40 43 51
REMARK Flexibility Score: inf
ROOT
ATOM      1  C   UNL     1       7.637   0.670   5.352  1.00  0.00     0.002 C 
ENDROOT
BRANCH   1   2
ATOM      2  C   UNL     1       7.511   0.334   3.862  1.00  0.00     0.002 C 
BRANCH   2   3
ATOM      3  C   UNL     1       6.335  -0.579   3.502  1.00  0.00     0.021 C 
BRANCH   3   4
ATOM      4  C   UNL     1       4.978  -0.063   3.973  1.00  0.00     0.116 C 
BRANCH   4   5
ATOM      5  N   UNL     1       4.605   1.156   3.279  1.00  0.00    -0.356 N 
ATOM      6  C   UNL     1       3.579   1.324   2.392  1.00  0.00     0.223 C 
ATOM      7  O   UNL     1       3.426   2.378   1.784  1.00  0.00    -0.275 OA
ATOM      8  H   UNL     1       5.153   1.952   3.469  1.00  0.00     0.163 HD
BRANCH   6   9
ATOM      9  C   UNL     1       2.680   0.167   2.185  1.00  0.00     0.085 C 
ATOM     10  C   UNL     1       1.169   0.277   1.961  1.00  0.00    -0.015 C 
ATOM     11  C   UNL     1       0.515   1.641   2.013  1.00  0.00     0.013 C 
ATOM     12  C   UNL     1       1.719  -0.220   3.282  1.00  0.00     0.022 C 
BRANCH  10  13
ATOM     13  C   UNL     1       0.530  -0.696   0.915  1.00  0.00    -0.026 C 
ATOM     14  C   UNL     1       0.925  -0.398  -0.515  1.00  0.00     0.012 C 
ATOM     15  C   UNL     1      -0.879  -1.218   1.138  1.00  0.00     0.008 C 
ATOM     16  C   UNL     1       0.278  -2.162   1.236  1.00  0.00     0.008 C 
ENDBRANCH  10  13
ENDBRANCH   6   9
ENDBRANCH   4   5
ENDBRANCH   3   4
ENDBRANCH   2   3
ENDBRANCH   1   2
BRANCH   1  17
ATOM     17  C   UNL     1       7.692  -0.540   6.287  1.00  0.00     0.021 C 
BRANCH  17  18
ATOM     18  C   UNL     1       8.834  -1.510   6.006  1.00  0.00     0.116 C 
BRANCH  18  19
ATOM     19  N   UNL     1      10.134  -0.887   6.189  1.00  0.00    -0.352 N 
ATOM     20  C   UNL     1      11.187  -1.285   6.975  1.00  0.00     0.251 C 
ATOM     21  H   UNL     1      10.282  -0.060   5.674  1.00  0.00     0.163 HD
ATOM     22  O   UNL     1      12.127  -0.519   7.167  1.00  0.00    -0.269 OA
BRANCH  20  23
ATOM     23  C   UNL     1      11.172  -2.624   7.606  1.00  0.00     0.039 A 
ATOM     24  C   UNL     1      11.572  -2.748   8.938  1.00  0.00     0.014 A 
ATOM     25  C   UNL     1      10.768  -3.753   6.888  1.00  0.00     0.014 A 
ATOM     26  C   UNL     1      11.510  -3.994   9.567  1.00  0.00     0.010 A 
ATOM     27  C   UNL     1      10.632  -4.977   7.538  1.00  0.00     0.010 A 
ATOM     28  C   UNL     1      11.005  -5.113   8.884  1.00  0.00    -0.014 A 
BRANCH  28  29
ATOM     29  C   UNL     1      10.868  -6.431   9.560  1.00  0.00     0.031 A 
ATOM     30  C   UNL     1      11.654  -7.617   9.068  1.00  0.00     0.074 A 
ATOM     31  C   UNL     1      10.002  -6.571  10.585  1.00  0.00     0.049 A 
ATOM     32  N   UNL     1      11.620  -8.860   9.477  1.00  0.00    -0.248 NA
ATOM     33  C   UNL     1      12.579  -7.380   7.949  1.00  0.00     0.031 C 
ATOM     34  C   UNL     1       9.163  -5.503  11.133  1.00  0.00     0.029 A 
ATOM     35  N   UNL     1       9.678  -7.667  11.345  1.00  0.00    -0.354 N 
ATOM     36  C   UNL     1      12.511  -9.552   8.664  1.00  0.00     0.074 A 
ATOM     37  C   UNL     1      13.019  -8.603   7.696  1.00  0.00     0.031 C 
ATOM     38  C   UNL     1       8.445  -5.988  12.157  1.00  0.00     0.029 A 
ATOM     39  C   UNL     1       8.726  -7.413  12.307  1.00  0.00     0.049 A 
ATOM     40  H   UNL     1      10.088  -8.552  11.215  1.00  0.00     0.167 HD
ATOM     41  C   UNL     1      12.890 -10.853   8.734  1.00  0.00     0.034 A 
ATOM     42  C   UNL     1       8.135  -8.235  13.197  1.00  0.00     0.034 A 
ATOM     43  C   UNL     1      12.380 -11.785   9.710  1.00  0.00     0.049 A 
ATOM     44  C   UNL     1       8.540  -9.689  13.223  1.00  0.00     0.074 A 
ATOM     45  C   UNL     1      12.728 -13.112   9.896  1.00  0.00     0.029 A 
ATOM     46  N   UNL     1      11.408 -11.495  10.659  1.00  0.00    -0.354 N 
ATOM     47  N   UNL     1       9.418 -10.317  12.475  1.00  0.00    -0.248 NA
ATOM     48  C   UNL     1       7.882 -10.543  14.221  1.00  0.00     0.031 C 
ATOM     49  C   UNL     1      11.913 -13.643  10.901  1.00  0.00     0.029 A 
ATOM     50  C   UNL     1      11.121 -12.626  11.408  1.00  0.00     0.049 A 
ATOM     51  H   UNL     1      10.986 -10.614  10.782  1.00  0.00     0.167 HD
ATOM     52  C   UNL     1       9.445 -11.629  12.942  1.00  0.00     0.074 A 
ATOM     53  C   UNL     1       8.507 -11.697  14.043  1.00  0.00     0.031 C 
ATOM     54  C   UNL     1      10.181 -12.682  12.503  1.00  0.00     0.034 A 
BRANCH  41  55
ATOM     55  C   UNL     1      13.886 -11.347   7.711  1.00  0.00     0.023 A 
ATOM     56  C   UNL     1      15.189 -10.824   7.635  1.00  0.00     0.031 A 
ATOM     57  C   UNL     1      13.527 -12.350   6.793  1.00  0.00     0.131 A 
ATOM     58  C   UNL     1      16.059 -11.253   6.622  1.00  0.00     0.055 A 
ATOM     59  C   UNL     1      14.427 -12.834   5.841  1.00  0.00     0.041 A 
ATOM     60  F   UNL     1      12.291 -12.872   6.800  1.00  0.00    -0.206 F 
ATOM     61  C   UNL     1      15.697 -12.275   5.742  1.00  0.00     0.022 A 
BRANCH  58  62
ATOM     62  S   UNL     1      17.618 -10.357   6.382  1.00  0.00     0.124 S 
ATOM     63  O   UNL     1      17.141  -9.000   6.124  1.00  0.00    -0.237 OA
ATOM     64  O   UNL     1      18.300 -10.564   7.653  1.00  0.00    -0.237 OA
ATOM     65  O   UNL     1      18.224 -11.025   5.231  1.00  0.00    -0.744 OA
ENDBRANCH  58  62
ENDBRANCH  41  55
BRANCH  42  66
ATOM     66  C   UNL     1       7.085  -7.724  14.128  1.00  0.00     0.023 A 
ATOM     67  C   UNL     1       7.266  -7.771  15.519  1.00  0.00     0.031 A 
ATOM     68  C   UNL     1       5.857  -7.240  13.642  1.00  0.00     0.131 A 
ATOM     69  C   UNL     1       6.216  -7.404  16.375  1.00  0.00     0.055 A 
ATOM     70  C   UNL     1       4.840  -6.813  14.497  1.00  0.00     0.041 A 
ATOM     71  F   UNL     1       5.628  -7.171  12.320  1.00  0.00    -0.206 F 
ATOM     72  C   UNL     1       5.010  -6.910  15.874  1.00  0.00     0.022 A 
BRANCH  69  73
ATOM     73  S   UNL     1       6.407  -7.695  18.156  1.00  0.00     0.124 S 
ATOM     74  O   UNL     1       6.684  -9.126  18.193  1.00  0.00    -0.237 OA
ATOM     75  O   UNL     1       7.524  -6.816  18.488  1.00  0.00    -0.237 OA
ATOM     76  O   UNL     1       5.114  -7.293  18.706  1.00  0.00    -0.744 OA
ENDBRANCH  69  73
ENDBRANCH  42  66
BRANCH  54  77
ATOM     77  C   UNL     1      10.041 -13.984  13.258  1.00  0.00     0.023 A 
ATOM     78  C   UNL     1       8.837 -14.708  13.278  1.00  0.00     0.031 A 
ATOM     79  C   UNL     1      11.135 -14.502  13.976  1.00  0.00     0.131 A 
ATOM     80  C   UNL     1       8.736 -15.876  14.050  1.00  0.00     0.055 A 
ATOM     81  C   UNL     1      11.049 -15.700  14.685  1.00  0.00     0.041 A 
ATOM     82  F   UNL     1      12.309 -13.851  13.997  1.00  0.00    -0.206 F 
ATOM     83  C   UNL     1       9.840 -16.387  14.738  1.00  0.00     0.022 A 
BRANCH  80  84
ATOM     84  S   UNL     1       7.112 -16.663  14.230  1.00  0.00     0.124 S 
ATOM     85  O   UNL     1       6.311 -15.581  14.793  1.00  0.00    -0.237 OA
ATOM     86  O   UNL     1       6.795 -17.042  12.857  1.00  0.00    -0.237 OA
ATOM     87  O   UNL     1       7.370 -17.780  15.136  1.00  0.00    -0.744 OA
ENDBRANCH  80  84
ENDBRANCH  54  77
ENDBRANCH  28  29
ENDBRANCH  20  23
ENDBRANCH  18  19
ENDBRANCH  17  18
ENDBRANCH   1  17
TORSDOF 17
