REMARK SMILES CC[C@](C)(NS(=O)(=O)Cc1cc(C)on1)C(=O)NCCCCCCNC(=O)c1ccc(-c2c3nc(c(-c4cc(S(=O)(=O)[O-])ccc4F)c4ccc([nH]4)c(-c4cc(S(=O)(=O)[O-])ccc4F)c4nc(c(-c5cc(S(=O)(=O)[O-])ccc5F)c5ccc2[nH]5)C=C4)C=C3)cc1
REMARK SMILES IDX 21 1 20 2 19 3 18 4 16 5 17 6 3 8 4 9 2 10 1 11 5 12 6 14
REMARK SMILES IDX 7 15 8 16 9 17 10 18 11 19 15 20 12 21 14 22 13 23 22 24
REMARK SMILES IDX 23 25 24 26 25 27 26 28 27 30 28 31 29 32 90 33 30 34 89 35
REMARK SMILES IDX 31 36 32 37 33 38 83 39 34 40 88 41 82 42 84 43 35 44 87 45
REMARK SMILES IDX 81 46 80 47 36 49 68 50 48 51 67 52 49 53 52 54 66 55 85 56
REMARK SMILES IDX 50 57 51 58 65 60 86 61 53 62 37 63 38 64 46 65 39 66 45 67
REMARK SMILES IDX 47 68 44 69 40 70 41 71 42 72 43 73 69 74 70 75 78 76 71 77
REMARK SMILES IDX 77 78 79 79 76 80 72 81 73 82 74 83 75 84 54 85 55 86 63 87
REMARK SMILES IDX 56 88 62 89 64 90 61 91 57 92 58 93 59 94 60 95
REMARK H PARENT 18 7 5 13 25 29 84 48 52 59
REMARK Flexibility Score: inf
ROOT
ATOM      1  C   UNL     1       4.513  -4.434   4.393  1.00  0.00     0.002 C 
ENDROOT
BRANCH   1   2
ATOM      2  C   UNL     1       3.003  -4.223   4.544  1.00  0.00     0.021 C 
BRANCH   2   3
ATOM      3  C   UNL     1       2.458  -2.831   4.207  1.00  0.00     0.116 C 
BRANCH   3   4
ATOM      4  N   UNL     1       2.934  -2.290   2.940  1.00  0.00    -0.354 N 
ATOM      5  C   UNL     1       2.387  -1.841   1.783  1.00  0.00     0.240 C 
ATOM      6  O   UNL     1       3.231  -1.348   1.016  1.00  0.00    -0.273 OA
ATOM      7  H   UNL     1       3.916  -2.236   2.919  1.00  0.00     0.163 HD
BRANCH   5   8
ATOM      8  C   UNL     1       0.901  -1.952   1.336  1.00  0.00     0.108 C 
ATOM      9  C   UNL     1       0.783  -1.119   0.015  1.00  0.00     0.040 C 
BRANCH   8  10
ATOM     10  C   UNL     1      -0.097  -1.371   2.366  1.00  0.00     0.030 C 
ATOM     11  C   UNL     1      -0.127   0.158   2.439  1.00  0.00     0.006 C 
ENDBRANCH   8  10
BRANCH   8  12
ATOM     12  N   UNL     1       0.442  -3.281   0.855  1.00  0.00    -0.200 NA
ATOM     13  H   UNL     1       0.698  -3.293  -0.132  1.00  0.00     0.142 HD
BRANCH  12  14
ATOM     14  S   UNL     1       0.838  -4.787   1.394  1.00  0.00     0.218 S 
ATOM     15  O   UNL     1       0.555  -4.780   2.812  1.00  0.00    -0.212 OA
ATOM     16  O   UNL     1       0.088  -5.684   0.539  1.00  0.00    -0.212 OA
BRANCH  14  17
ATOM     17  C   UNL     1       2.604  -4.995   1.092  1.00  0.00     0.213 C 
BRANCH  17  18
ATOM     18  C   UNL     1       2.975  -5.896  -0.017  1.00  0.00     0.100 A 
ATOM     19  C   UNL     1       3.009  -7.309  -0.017  1.00  0.00     0.073 A 
ATOM     20  N   UNL     1       3.529  -5.396  -1.130  1.00  0.00    -0.084 NA
ATOM     21  C   UNL     1       3.650  -7.629  -1.187  1.00  0.00     0.133 A 
ATOM     22  O   UNL     1       3.944  -6.490  -1.866  1.00  0.00    -0.361 OA
ATOM     23  C   UNL     1       4.093  -8.889  -1.803  1.00  0.00     0.091 C 
ENDBRANCH  17  18
ENDBRANCH  14  17
ENDBRANCH  12  14
ENDBRANCH   8  12
ENDBRANCH   5   8
ENDBRANCH   3   4
ENDBRANCH   2   3
ENDBRANCH   1   2
BRANCH   1  24
ATOM     24  C   UNL     1       5.327  -4.113   5.644  1.00  0.00     0.002 C 
BRANCH  24  25
ATOM     25  C   UNL     1       4.860  -4.821   6.921  1.00  0.00     0.021 C 
BRANCH  25  26
ATOM     26  C   UNL     1       4.683  -6.332   6.789  1.00  0.00     0.116 C 
BRANCH  26  27
ATOM     27  N   UNL     1       5.966  -7.007   6.716  1.00  0.00    -0.352 N 
ATOM     28  C   UNL     1       6.478  -7.923   7.603  1.00  0.00     0.251 C 
ATOM     29  H   UNL     1       6.534  -6.783   5.944  1.00  0.00     0.163 HD
ATOM     30  O   UNL     1       7.674  -8.190   7.600  1.00  0.00    -0.269 OA
BRANCH  28  31
ATOM     31  C   UNL     1       5.559  -8.572   8.563  1.00  0.00     0.039 A 
ATOM     32  C   UNL     1       5.886  -8.596   9.919  1.00  0.00     0.014 A 
ATOM     33  C   UNL     1       4.366  -9.147   8.110  1.00  0.00     0.014 A 
ATOM     34  C   UNL     1       4.999  -9.177  10.829  1.00  0.00     0.010 A 
ATOM     35  C   UNL     1       3.457  -9.667   9.026  1.00  0.00     0.010 A 
ATOM     36  C   UNL     1       3.772  -9.707  10.393  1.00  0.00    -0.014 A 
BRANCH  36  37
ATOM     37  C   UNL     1       2.839 -10.362  11.348  1.00  0.00     0.031 A 
ATOM     38  C   UNL     1       2.568 -11.838  11.226  1.00  0.00     0.074 A 
ATOM     39  C   UNL     1       2.221  -9.634  12.299  1.00  0.00     0.049 A 
ATOM     40  N   UNL     1       1.754 -12.593  11.919  1.00  0.00    -0.248 NA
ATOM     41  C   UNL     1       3.288 -12.554  10.161  1.00  0.00     0.031 C 
ATOM     42  C   UNL     1       2.377  -8.191  12.493  1.00  0.00     0.029 A 
ATOM     43  N   UNL     1       1.335 -10.005  13.279  1.00  0.00    -0.354 N 
ATOM     44  C   UNL     1       1.869 -13.870  11.379  1.00  0.00     0.074 A 
ATOM     45  C   UNL     1       2.767 -13.768  10.249  1.00  0.00     0.031 C 
ATOM     46  C   UNL     1       1.628  -7.804  13.539  1.00  0.00     0.029 A 
ATOM     47  C   UNL     1       0.909  -8.960  14.067  1.00  0.00     0.049 A 
ATOM     48  H   UNL     1       1.031 -10.933  13.405  1.00  0.00     0.167 HD
ATOM     49  C   UNL     1       1.306 -15.028  11.804  1.00  0.00     0.034 A 
ATOM     50  C   UNL     1       0.034  -8.938  15.093  1.00  0.00     0.034 A 
ATOM     51  C   UNL     1       0.413 -15.116  12.933  1.00  0.00     0.049 A 
ATOM     52  C   UNL     1      -0.599 -10.236  15.535  1.00  0.00     0.074 A 
ATOM     53  C   UNL     1      -0.216 -16.233  13.455  1.00  0.00     0.029 A 
ATOM     54  N   UNL     1       0.023 -14.040  13.722  1.00  0.00    -0.354 N 
ATOM     55  N   UNL     1      -0.455 -11.441  15.030  1.00  0.00    -0.248 NA
ATOM     56  C   UNL     1      -1.491 -10.177  16.700  1.00  0.00     0.031 C 
ATOM     57  C   UNL     1      -1.024 -15.826  14.522  1.00  0.00     0.029 A 
ATOM     58  C   UNL     1      -0.842 -14.467  14.717  1.00  0.00     0.049 A 
ATOM     59  H   UNL     1       0.318 -13.110  13.592  1.00  0.00     0.167 HD
ATOM     60  C   UNL     1      -1.206 -12.286  15.845  1.00  0.00     0.074 A 
ATOM     61  C   UNL     1      -1.782 -11.455  16.881  1.00  0.00     0.031 C 
ATOM     62  C   UNL     1      -1.401 -13.626  15.749  1.00  0.00     0.034 A 
BRANCH  49  63
ATOM     63  C   UNL     1       1.641 -16.284  11.034  1.00  0.00     0.023 A 
ATOM     64  C   UNL     1       2.960 -16.768  10.963  1.00  0.00     0.031 A 
ATOM     65  C   UNL     1       0.644 -16.992  10.341  1.00  0.00     0.131 A 
ATOM     66  C   UNL     1       3.259 -17.877  10.158  1.00  0.00     0.055 A 
ATOM     67  C   UNL     1       0.934 -18.146   9.609  1.00  0.00     0.041 A 
ATOM     68  F   UNL     1      -0.629 -16.567  10.352  1.00  0.00    -0.206 F 
ATOM     69  C   UNL     1       2.251 -18.586   9.502  1.00  0.00     0.022 A 
BRANCH  66  70
ATOM     70  S   UNL     1       5.000 -18.292   9.869  1.00  0.00     0.124 S 
ATOM     71  O   UNL     1       5.488 -17.075   9.224  1.00  0.00    -0.237 OA
ATOM     72  O   UNL     1       5.494 -18.543  11.217  1.00  0.00    -0.237 OA
ATOM     73  O   UNL     1       4.933 -19.465   9.000  1.00  0.00    -0.744 OA
ENDBRANCH  66  70
ENDBRANCH  49  63
BRANCH  50  74
ATOM     74  C   UNL     1      -0.309  -7.656  15.777  1.00  0.00     0.023 A 
ATOM     75  C   UNL     1      -0.036  -7.463  17.141  1.00  0.00     0.031 A 
ATOM     76  C   UNL     1      -0.985  -6.630  15.092  1.00  0.00     0.131 A 
ATOM     77  C   UNL     1      -0.498  -6.309  17.793  1.00  0.00     0.055 A 
ATOM     78  C   UNL     1      -1.386  -5.454  15.730  1.00  0.00     0.041 A 
ATOM     79  F   UNL     1      -1.268  -6.756  13.786  1.00  0.00    -0.206 F 
ATOM     80  C   UNL     1      -1.160  -5.297  17.094  1.00  0.00     0.022 A 
BRANCH  77  81
ATOM     81  S   UNL     1      -0.332  -6.205  19.597  1.00  0.00     0.124 S 
ATOM     82  O   UNL     1      -0.993  -7.432  20.026  1.00  0.00    -0.237 OA
ATOM     83  O   UNL     1       1.117  -6.164  19.763  1.00  0.00    -0.237 OA
ATOM     84  O   UNL     1      -1.032  -4.967  19.932  1.00  0.00    -0.744 OA
ENDBRANCH  77  81
ENDBRANCH  50  74
BRANCH  62  85
ATOM     85  C   UNL     1      -2.216 -14.281  16.839  1.00  0.00     0.023 A 
ATOM     86  C   UNL     1      -3.580 -13.994  17.023  1.00  0.00     0.031 A 
ATOM     87  C   UNL     1      -1.606 -15.189  17.723  1.00  0.00     0.131 A 
ATOM     88  C   UNL     1      -4.271 -14.554  18.108  1.00  0.00     0.055 A 
ATOM     89  C   UNL     1      -2.316 -15.795  18.760  1.00  0.00     0.041 A 
ATOM     90  F   UNL     1      -0.306 -15.500  17.595  1.00  0.00    -0.206 F 
ATOM     91  C   UNL     1      -3.652 -15.465  18.968  1.00  0.00     0.022 A 
BRANCH  88  92
ATOM     92  S   UNL     1      -5.960 -13.987  18.450  1.00  0.00     0.124 S 
ATOM     93  O   UNL     1      -5.776 -12.546  18.583  1.00  0.00    -0.237 OA
ATOM     94  O   UNL     1      -6.683 -14.430  17.262  1.00  0.00    -0.237 OA
ATOM     95  O   UNL     1      -6.312 -14.684  19.685  1.00  0.00    -0.744 OA
ENDBRANCH  88  92
ENDBRANCH  62  85
ENDBRANCH  36  37
ENDBRANCH  28  31
ENDBRANCH  26  27
ENDBRANCH  25  26
ENDBRANCH  24  25
ENDBRANCH   1  24
TORSDOF 21
