REMARK SMILES O=C(NCCCCCCNC(=O)c1cc2ncc(Cl)cn2n1)c1ccc(-c2c3nc(c(-c4cc(S(=O)(=O)[O-])ccc4F)c4ccc([nH]4)c(-c4cc(S(=O)(=O)[O-])ccc4F)c4nc(c(-c5cc(S(=O)(=O)[O-])ccc5F)c5ccc2[nH]5)C=C4)C=C3)cc1
REMARK SMILES IDX 5 1 4 2 3 3 1 4 2 5 23 7 24 8 85 9 25 10 84 11 26 12 27 13
REMARK SMILES IDX 28 14 78 15 29 16 83 17 77 18 79 19 30 20 82 21 76 22 75 23
REMARK SMILES IDX 31 25 63 26 43 27 62 28 44 29 47 30 61 31 80 32 45 33 46 34
REMARK SMILES IDX 60 36 81 37 48 38 32 39 33 40 41 41 34 42 40 43 42 44 39 45
REMARK SMILES IDX 35 46 36 47 37 48 38 49 64 50 65 51 73 52 66 53 72 54 74 55
REMARK SMILES IDX 71 56 67 57 68 58 69 59 70 60 49 61 50 62 58 63 51 64 57 65
REMARK SMILES IDX 59 66 56 67 52 68 53 69 54 70 55 71 6 72 7 73 8 74 9 75
REMARK SMILES IDX 10 76 11 77 12 79 13 80 14 81 22 82 15 83 21 84 16 85 20 86
REMARK SMILES IDX 17 87 18 88 19 89
REMARK H PARENT 3 6 79 24 47 35 10 78
REMARK Flexibility Score: inf
ROOT
ATOM      1  C   UNL     1       4.720   2.231  -0.029  1.00  0.00     0.021 C 
ENDROOT
BRANCH   1   2
ATOM      2  C   UNL     1       4.602   0.830   0.572  1.00  0.00     0.116 C 
BRANCH   2   3
ATOM      3  N   UNL     1       3.255   0.451   0.943  1.00  0.00    -0.352 N 
ATOM      4  O   UNL     1       1.187  -0.317   0.953  1.00  0.00    -0.269 OA
ATOM      5  C   UNL     1       2.161  -0.007   0.259  1.00  0.00     0.251 C 
ATOM      6  H   UNL     1       3.087   0.543   1.909  1.00  0.00     0.163 HD
BRANCH   5   7
ATOM      7  C   UNL     1       2.057  -0.131  -1.225  1.00  0.00     0.039 A 
ATOM      8  C   UNL     1       3.112  -0.004  -2.128  1.00  0.00     0.014 A 
ATOM      9  C   UNL     1       0.773  -0.398  -1.742  1.00  0.00     0.014 A 
ATOM     10  C   UNL     1       2.889  -0.090  -3.502  1.00  0.00     0.010 A 
ATOM     11  C   UNL     1       0.549  -0.507  -3.116  1.00  0.00     0.010 A 
ATOM     12  C   UNL     1       1.609  -0.335  -4.003  1.00  0.00    -0.014 A 
BRANCH  12  13
ATOM     13  C   UNL     1       1.465  -0.469  -5.454  1.00  0.00     0.031 A 
ATOM     14  C   UNL     1       2.172  -1.612  -6.104  1.00  0.00     0.074 A 
ATOM     15  C   UNL     1       0.658   0.287  -6.221  1.00  0.00     0.049 A 
ATOM     16  N   UNL     1       3.094  -1.575  -7.012  1.00  0.00    -0.248 NA
ATOM     17  C   UNL     1       1.822  -2.969  -5.668  1.00  0.00     0.031 C 
ATOM     18  C   UNL     1      -0.355   1.250  -5.793  1.00  0.00     0.029 A 
ATOM     19  N   UNL     1       0.525   0.269  -7.582  1.00  0.00    -0.354 N 
ATOM     20  C   UNL     1       3.330  -2.896  -7.393  1.00  0.00     0.074 A 
ATOM     21  C   UNL     1       2.588  -3.714  -6.467  1.00  0.00     0.031 C 
ATOM     22  C   UNL     1      -1.136   1.566  -6.850  1.00  0.00     0.029 A 
ATOM     23  C   UNL     1      -0.594   0.940  -8.046  1.00  0.00     0.049 A 
ATOM     24  H   UNL     1       1.167  -0.181  -8.177  1.00  0.00     0.167 HD
ATOM     25  C   UNL     1       4.011  -3.219  -8.530  1.00  0.00     0.034 A 
ATOM     26  C   UNL     1      -1.074   0.941  -9.314  1.00  0.00     0.034 A 
ATOM     27  C   UNL     1       4.771  -2.103  -9.034  1.00  0.00     0.049 A 
ATOM     28  C   UNL     1       0.056   0.627 -10.221  1.00  0.00     0.074 A 
ATOM     29  C   UNL     1       5.788  -1.308  -8.541  1.00  0.00     0.029 A 
ATOM     30  N   UNL     1       4.320  -1.458 -10.161  1.00  0.00    -0.354 N 
ATOM     31  N   UNL     1       1.093   1.399 -10.389  1.00  0.00    -0.248 NA
ATOM     32  C   UNL     1       0.211  -0.733 -10.714  1.00  0.00     0.031 C 
ATOM     33  C   UNL     1       5.560  -0.018  -9.104  1.00  0.00     0.029 A 
ATOM     34  C   UNL     1       4.426  -0.114  -9.913  1.00  0.00     0.049 A 
ATOM     35  H   UNL     1       3.986  -1.880 -10.986  1.00  0.00     0.167 HD
ATOM     36  C   UNL     1       2.148   0.537 -10.635  1.00  0.00     0.074 A 
ATOM     37  C   UNL     1       1.524  -0.740 -10.957  1.00  0.00     0.031 C 
ATOM     38  C   UNL     1       3.427   0.865 -10.288  1.00  0.00     0.034 A 
BRANCH  25  39
ATOM     39  C   UNL     1       3.823  -4.475  -9.354  1.00  0.00     0.023 A 
ATOM     40  C   UNL     1       4.694  -4.690 -10.445  1.00  0.00     0.031 A 
ATOM     41  C   UNL     1       2.691  -5.316  -9.300  1.00  0.00     0.131 A 
ATOM     42  C   UNL     1       4.396  -5.638 -11.440  1.00  0.00     0.055 A 
ATOM     43  C   UNL     1       2.437  -6.309 -10.253  1.00  0.00     0.041 A 
ATOM     44  F   UNL     1       1.729  -5.160  -8.383  1.00  0.00    -0.206 F 
ATOM     45  C   UNL     1       3.276  -6.458 -11.346  1.00  0.00     0.022 A 
BRANCH  42  46
ATOM     46  S   UNL     1       5.398  -5.652 -12.953  1.00  0.00     0.124 S 
ATOM     47  O   UNL     1       5.368  -4.247 -13.345  1.00  0.00    -0.237 OA
ATOM     48  O   UNL     1       6.676  -6.158 -12.464  1.00  0.00    -0.237 OA
ATOM     49  O   UNL     1       4.666  -6.558 -13.836  1.00  0.00    -0.744 OA
ENDBRANCH  42  46
ENDBRANCH  25  39
BRANCH  26  50
ATOM     50  C   UNL     1      -2.494   0.976  -9.748  1.00  0.00     0.023 A 
ATOM     51  C   UNL     1      -2.855   1.261 -11.079  1.00  0.00     0.031 A 
ATOM     52  C   UNL     1      -3.517   0.490  -8.902  1.00  0.00     0.131 A 
ATOM     53  C   UNL     1      -4.183   1.062 -11.514  1.00  0.00     0.055 A 
ATOM     54  C   UNL     1      -4.834   0.316  -9.331  1.00  0.00     0.041 A 
ATOM     55  F   UNL     1      -3.255   0.082  -7.651  1.00  0.00    -0.206 F 
ATOM     56  C   UNL     1      -5.171   0.592 -10.645  1.00  0.00     0.022 A 
BRANCH  53  57
ATOM     57  S   UNL     1      -4.616   1.274 -13.268  1.00  0.00     0.124 S 
ATOM     58  O   UNL     1      -4.833   2.714 -13.355  1.00  0.00    -0.237 OA
ATOM     59  O   UNL     1      -3.440   0.754 -13.956  1.00  0.00    -0.237 OA
ATOM     60  O   UNL     1      -5.820   0.456 -13.415  1.00  0.00    -0.744 OA
ENDBRANCH  53  57
ENDBRANCH  26  50
BRANCH  38  61
ATOM     61  C   UNL     1       3.746   2.308  -9.984  1.00  0.00     0.023 A 
ATOM     62  C   UNL     1       3.183   3.031  -8.911  1.00  0.00     0.031 A 
ATOM     63  C   UNL     1       4.774   2.919 -10.722  1.00  0.00     0.131 A 
ATOM     64  C   UNL     1       3.646   4.327  -8.618  1.00  0.00     0.055 A 
ATOM     65  C   UNL     1       5.241   4.198 -10.420  1.00  0.00     0.041 A 
ATOM     66  F   UNL     1       5.378   2.259 -11.725  1.00  0.00    -0.206 F 
ATOM     67  C   UNL     1       4.676   4.908  -9.367  1.00  0.00     0.022 A 
BRANCH  64  68
ATOM     68  S   UNL     1       2.942   5.254  -7.219  1.00  0.00     0.124 S 
ATOM     69  O   UNL     1       1.530   5.362  -7.568  1.00  0.00    -0.237 OA
ATOM     70  O   UNL     1       3.259   4.403  -6.075  1.00  0.00    -0.237 OA
ATOM     71  O   UNL     1       3.673   6.522  -7.247  1.00  0.00    -0.744 OA
ENDBRANCH  64  68
ENDBRANCH  38  61
ENDBRANCH  12  13
ENDBRANCH   5   7
ENDBRANCH   2   3
ENDBRANCH   1   2
BRANCH   1  72
ATOM     72  C   UNL     1       4.235   3.370   0.875  1.00  0.00     0.002 C 
BRANCH  72  73
ATOM     73  C   UNL     1       4.861   3.426   2.272  1.00  0.00     0.002 C 
BRANCH  73  74
ATOM     74  C   UNL     1       6.393   3.455   2.308  1.00  0.00     0.021 C 
BRANCH  74  75
ATOM     75  C   UNL     1       7.031   4.665   1.623  1.00  0.00     0.116 C 
BRANCH  75  76
ATOM     76  N   UNL     1       6.761   5.888   2.361  1.00  0.00    -0.351 N 
ATOM     77  C   UNL     1       7.619   6.667   3.102  1.00  0.00     0.271 C 
ATOM     78  H   UNL     1       5.830   6.205   2.326  1.00  0.00     0.163 HD
ATOM     79  O   UNL     1       7.137   7.508   3.868  1.00  0.00    -0.267 OA
BRANCH  77  80
ATOM     80  C   UNL     1       9.072   6.471   3.004  1.00  0.00     0.152 A 
ATOM     81  C   UNL     1      10.003   6.651   4.058  1.00  0.00     0.085 A 
ATOM     82  N   UNL     1       9.702   6.156   1.858  1.00  0.00    -0.161 NA
ATOM     83  C   UNL     1      11.236   6.364   3.526  1.00  0.00     0.155 A 
ATOM     84  N   UNL     1      11.011   6.084   2.175  1.00  0.00    -0.220 N 
ATOM     85  N   UNL     1      12.487   6.325   4.084  1.00  0.00    -0.235 NA
ATOM     86  C   UNL     1      12.065   5.766   1.329  1.00  0.00     0.137 A 
ATOM     87  C   UNL     1      13.453   6.015   3.268  1.00  0.00     0.135 A 
ATOM     88  C   UNL     1      13.308   5.715   1.815  1.00  0.00     0.077 A 
ATOM     89  Cl  UNL     1      14.691   5.331   0.896  1.00  0.00    -0.081 Cl
ENDBRANCH  77  80
ENDBRANCH  75  76
ENDBRANCH  74  75
ENDBRANCH  73  74
ENDBRANCH  72  73
ENDBRANCH   1  72
TORSDOF 16
