REMARK SMILES COc1cc(NC(=O)C2CCN(S(=O)(=O)c3cccs3)CC2)c(Cl)cc1C(=O)NCCCCCCNC(=O)c1ccc(-c2c3nc(c(-c4cc(S(=O)(=O)[O-])ccc4F)c4ccc([nH]4)c(-c4cc(S(=O)(=O)[O-])ccc4F)c4nc(c(-c5cc(S(=O)(=O)[O-])ccc5F)c5ccc2[nH]5)C=C4)C=C3)cc1
REMARK SMILES IDX 32 1 31 2 30 3 29 4 27 5 28 6 26 8 3 9 4 10 5 11 25 12 23 13
REMARK SMILES IDX 24 14 2 15 1 16 6 17 7 18 8 20 9 21 10 22 22 23 11 24 21 25
REMARK SMILES IDX 12 26 13 27 14 28 15 29 16 30 17 31 20 32 18 33 19 34 33 35
REMARK SMILES IDX 34 36 35 37 36 38 37 39 38 41 39 42 40 43 101 44 41 45
REMARK SMILES IDX 100 46 42 47 43 48 44 49 94 50 45 51 99 52 93 53 95 54 46 55
REMARK SMILES IDX 98 56 92 57 91 58 47 60 79 61 59 62 78 63 60 64 63 65 77 66
REMARK SMILES IDX 96 67 61 68 62 69 76 71 97 72 64 73 48 74 49 75 57 76 50 77
REMARK SMILES IDX 56 78 58 79 55 80 51 81 52 82 53 83 54 84 80 85 81 86 89 87
REMARK SMILES IDX 82 88 88 89 90 90 87 91 83 92 84 93 85 94 86 95 65 96 66 97
REMARK SMILES IDX 74 98 67 99 73 100 75 101 72 102 68 103 69 104 70 105 71 106
REMARK H PARENT 29 7 6 19 36 40 95 59 63 70
REMARK Flexibility Score: inf
ROOT
ATOM      1  C   UNL     1      -3.115   1.587   0.152  1.00  0.00     0.002 C 
ENDROOT
BRANCH   1   2
ATOM      2  C   UNL     1      -1.793   0.829   0.296  1.00  0.00     0.021 C 
BRANCH   2   3
ATOM      3  C   UNL     1      -1.329   0.591   1.736  1.00  0.00     0.116 C 
BRANCH   3   4
ATOM      4  N   UNL     1      -1.975  -0.586   2.289  1.00  0.00    -0.352 N 
ATOM      5  C   UNL     1      -1.542  -1.873   2.479  1.00  0.00     0.255 C 
ATOM      6  O   UNL     1      -2.341  -2.673   2.971  1.00  0.00    -0.269 OA
ATOM      7  H   UNL     1      -2.901  -0.429   2.583  1.00  0.00     0.163 HD
BRANCH   5   8
ATOM      8  C   UNL     1      -0.142  -2.334   2.260  1.00  0.00     0.083 A 
ATOM      9  C   UNL     1       0.672  -2.066   1.147  1.00  0.00     0.133 A 
ATOM     10  C   UNL     1       1.987  -2.559   1.130  1.00  0.00     0.075 A 
ATOM     11  C   UNL     1       2.539  -3.191   2.244  1.00  0.00     0.063 A 
ATOM     12  C   UNL     1       0.361  -3.166   3.283  1.00  0.00     0.040 A 
ATOM     13  C   UNL     1       1.687  -3.598   3.273  1.00  0.00     0.065 A 
ATOM     14  Cl  UNL     1       2.271  -4.519   4.612  1.00  0.00    -0.082 Cl
BRANCH   9  15
ATOM     15  O   UNL     1       0.174  -1.350   0.095  1.00  0.00    -0.496 OA
ATOM     16  C   UNL     1       1.126  -0.670  -0.731  1.00  0.00     0.278 C 
ENDBRANCH   9  15
BRANCH  11  17
ATOM     17  N   UNL     1       3.933  -3.321   2.399  1.00  0.00    -0.324 N 
ATOM     18  C   UNL     1       4.940  -2.428   2.112  1.00  0.00     0.227 C 
ATOM     19  H   UNL     1       4.233  -4.183   2.769  1.00  0.00     0.169 HD
ATOM     20  O   UNL     1       6.096  -2.778   2.364  1.00  0.00    -0.274 OA
BRANCH  18  21
ATOM     21  C   UNL     1       4.640  -1.019   1.562  1.00  0.00     0.081 C 
ATOM     22  C   UNL     1       5.911  -0.169   1.354  1.00  0.00     0.030 C 
ATOM     23  C   UNL     1       3.672  -0.213   2.434  1.00  0.00     0.030 C 
ATOM     24  C   UNL     1       6.490   0.426   2.646  1.00  0.00     0.103 C 
ATOM     25  C   UNL     1       4.316   0.187   3.745  1.00  0.00     0.103 C 
ATOM     26  N   UNL     1       5.427   1.107   3.453  1.00  0.00    -0.197 NA
BRANCH  26  27
ATOM     27  S   UNL     1       6.065   1.891   4.848  1.00  0.00     0.252 S 
ATOM     28  O   UNL     1       6.568   0.851   5.721  1.00  0.00    -0.206 OA
ATOM     29  O   UNL     1       6.907   2.982   4.410  1.00  0.00    -0.206 OA
BRANCH  27  30
ATOM     30  C   UNL     1       4.696   2.588   5.772  1.00  0.00     0.135 A 
ATOM     31  C   UNL     1       3.770   1.981   6.606  1.00  0.00     0.033 A 
ATOM     32  S   UNL     1       4.413   4.268   5.653  1.00  0.00    -0.131 S 
ATOM     33  C   UNL     1       2.812   2.896   7.125  1.00  0.00     0.013 A 
ATOM     34  C   UNL     1       3.064   4.184   6.707  1.00  0.00     0.066 A 
ENDBRANCH  27  30
ENDBRANCH  26  27
ENDBRANCH  18  21
ENDBRANCH  11  17
ENDBRANCH   5   8
ENDBRANCH   3   4
ENDBRANCH   2   3
ENDBRANCH   1   2
BRANCH   1  35
ATOM     35  C   UNL     1      -3.063   3.065   0.551  1.00  0.00     0.002 C 
BRANCH  35  36
ATOM     36  C   UNL     1      -1.955   3.894  -0.108  1.00  0.00     0.021 C 
BRANCH  36  37
ATOM     37  C   UNL     1      -1.957   3.889  -1.636  1.00  0.00     0.116 C 
BRANCH  37  38
ATOM     38  N   UNL     1      -3.158   4.502  -2.178  1.00  0.00    -0.352 N 
ATOM     39  C   UNL     1      -3.290   5.623  -2.960  1.00  0.00     0.251 C 
ATOM     40  H   UNL     1      -4.001   4.046  -1.951  1.00  0.00     0.163 HD
ATOM     41  O   UNL     1      -4.399   6.129  -3.111  1.00  0.00    -0.269 OA
BRANCH  39  42
ATOM     42  C   UNL     1      -2.103   6.225  -3.609  1.00  0.00     0.039 A 
ATOM     43  C   UNL     1      -1.950   7.614  -3.592  1.00  0.00     0.014 A 
ATOM     44  C   UNL     1      -1.160   5.426  -4.263  1.00  0.00     0.014 A 
ATOM     45  C   UNL     1      -0.825   8.198  -4.183  1.00  0.00     0.010 A 
ATOM     46  C   UNL     1      -0.009   6.004  -4.796  1.00  0.00     0.010 A 
ATOM     47  C   UNL     1       0.171   7.396  -4.765  1.00  0.00    -0.014 A 
BRANCH  47  48
ATOM     48  C   UNL     1       1.400   7.992  -5.356  1.00  0.00     0.031 A 
ATOM     49  C   UNL     1       1.668   7.852  -6.831  1.00  0.00     0.074 A 
ATOM     50  C   UNL     1       2.304   8.595  -4.557  1.00  0.00     0.049 A 
ATOM     51  N   UNL     1       2.727   8.199  -7.517  1.00  0.00    -0.248 NA
ATOM     52  C   UNL     1       0.617   7.211  -7.636  1.00  0.00     0.031 C 
ATOM     53  C   UNL     1       2.169   8.767  -3.108  1.00  0.00     0.029 A 
ATOM     54  N   UNL     1       3.522   9.161  -4.843  1.00  0.00    -0.354 N 
ATOM     55  C   UNL     1       2.479   7.803  -8.827  1.00  0.00     0.074 A 
ATOM     56  C   UNL     1       1.190   7.146  -8.829  1.00  0.00     0.031 C 
ATOM     57  C   UNL     1       3.253   9.404  -2.637  1.00  0.00     0.029 A 
ATOM     58  C   UNL     1       4.183   9.644  -3.736  1.00  0.00     0.049 A 
ATOM     59  H   UNL     1       3.888   9.216  -5.755  1.00  0.00     0.167 HD
ATOM     60  C   UNL     1       3.250   7.985  -9.928  1.00  0.00     0.034 A 
ATOM     61  C   UNL     1       5.407  10.198  -3.617  1.00  0.00     0.034 A 
ATOM     62  C   UNL     1       4.522   8.665  -9.914  1.00  0.00     0.049 A 
ATOM     63  C   UNL     1       6.251  10.372  -4.856  1.00  0.00     0.074 A 
ATOM     64  C   UNL     1       5.352   8.959 -10.982  1.00  0.00     0.029 A 
ATOM     65  N   UNL     1       5.151   9.155  -8.777  1.00  0.00    -0.354 N 
ATOM     66  N   UNL     1       5.978  10.035  -6.096  1.00  0.00    -0.248 NA
ATOM     67  C   UNL     1       7.562  11.012  -4.684  1.00  0.00     0.031 C 
ATOM     68  C   UNL     1       6.512   9.562 -10.485  1.00  0.00     0.029 A 
ATOM     69  C   UNL     1       6.372   9.719  -9.116  1.00  0.00     0.049 A 
ATOM     70  H   UNL     1       4.785   9.108  -7.865  1.00  0.00     0.167 HD
ATOM     71  C   UNL     1       7.067  10.460  -6.853  1.00  0.00     0.074 A 
ATOM     72  C   UNL     1       7.993  11.087  -5.934  1.00  0.00     0.031 C 
ATOM     73  C   UNL     1       7.282  10.346  -8.188  1.00  0.00     0.034 A 
BRANCH  60  74
ATOM     74  C   UNL     1       2.752   7.420 -11.237  1.00  0.00     0.023 A 
ATOM     75  C   UNL     1       1.580   7.895 -11.851  1.00  0.00     0.031 A 
ATOM     76  C   UNL     1       3.466   6.395 -11.884  1.00  0.00     0.131 A 
ATOM     77  C   UNL     1       1.126   7.306 -13.042  1.00  0.00     0.055 A 
ATOM     78  C   UNL     1       3.050   5.867 -13.107  1.00  0.00     0.041 A 
ATOM     79  F   UNL     1       4.580   5.887 -11.334  1.00  0.00    -0.206 F 
ATOM     80  C   UNL     1       1.867   6.314 -13.688  1.00  0.00     0.022 A 
BRANCH  77  81
ATOM     81  S   UNL     1      -0.507   7.776 -13.674  1.00  0.00     0.124 S 
ATOM     82  O   UNL     1      -1.376   7.374 -12.570  1.00  0.00    -0.237 OA
ATOM     83  O   UNL     1      -0.364   9.211 -13.885  1.00  0.00    -0.237 OA
ATOM     84  O   UNL     1      -0.647   6.976 -14.889  1.00  0.00    -0.744 OA
ENDBRANCH  77  81
ENDBRANCH  60  74
BRANCH  61  85
ATOM     85  C   UNL     1       5.932  10.611  -2.281  1.00  0.00     0.023 A 
ATOM     86  C   UNL     1       6.247  11.952  -2.012  1.00  0.00     0.031 A 
ATOM     87  C   UNL     1       6.194   9.660  -1.278  1.00  0.00     0.131 A 
ATOM     88  C   UNL     1       6.866  12.297  -0.801  1.00  0.00     0.055 A 
ATOM     89  C   UNL     1       6.752  10.018  -0.050  1.00  0.00     0.041 A 
ATOM     90  F   UNL     1       5.910   8.364  -1.480  1.00  0.00    -0.206 F 
ATOM     91  C   UNL     1       7.109  11.342   0.188  1.00  0.00     0.022 A 
BRANCH  88  92
ATOM     92  S   UNL     1       7.458  13.999  -0.586  1.00  0.00     0.124 S 
ATOM     93  O   UNL     1       8.324  14.160  -1.749  1.00  0.00    -0.237 OA
ATOM     94  O   UNL     1       6.212  14.756  -0.604  1.00  0.00    -0.237 OA
ATOM     95  O   UNL     1       8.144  13.960   0.704  1.00  0.00    -0.744 OA
ENDBRANCH  88  92
ENDBRANCH  61  85
BRANCH  73  96
ATOM     96  C   UNL     1       8.541  10.970  -8.739  1.00  0.00     0.023 A 
ATOM     97  C   UNL     1       9.817  10.471  -8.427  1.00  0.00     0.031 A 
ATOM     98  C   UNL     1       8.456  12.085  -9.592  1.00  0.00     0.131 A 
ATOM     99  C   UNL     1      10.959  11.118  -8.922  1.00  0.00     0.055 A 
ATOM    100  C   UNL     1       9.594  12.688 -10.130  1.00  0.00     0.041 A 
ATOM    101  F   UNL     1       7.262  12.604  -9.923  1.00  0.00    -0.206 F 
ATOM    102  C   UNL     1      10.855  12.212  -9.786  1.00  0.00     0.022 A 
BRANCH  99 103
ATOM    103  S   UNL     1      12.590  10.561  -8.356  1.00  0.00     0.124 S 
ATOM    104  O   UNL     1      12.490  10.746  -6.912  1.00  0.00    -0.237 OA
ATOM    105  O   UNL     1      12.626   9.178  -8.820  1.00  0.00    -0.237 OA
ATOM    106  O   UNL     1      13.516  11.465  -9.036  1.00  0.00    -0.744 OA
ENDBRANCH  99 103
ENDBRANCH  73  96
ENDBRANCH  47  48
ENDBRANCH  39  42
ENDBRANCH  37  38
ENDBRANCH  36  37
ENDBRANCH  35  36
ENDBRANCH   1  35
TORSDOF 21
