REMARK SMILES Cc1c(Cl)ccc2c1C=C(C(=O)NCCCCCCNC(=O)c1ccc(-c3c4nc(c(-c5cc(S(=O)(=O)[O-])ccc5F)c5ccc([nH]5)c(-c5cc(S(=O)(=O)[O-])ccc5F)c5nc(c(-c6cc(S(=O)(=O)[O-])ccc6F)c6ccc3[nH]6)C=C5)C=C4)cc1)[C@@H](C(F)(F)F)O2
REMARK SMILES IDX 17 1 16 2 15 3 14 4 13 5 11 6 12 7 10 9 1 10 2 11 3 12 8 13
REMARK SMILES IDX 4 14 5 15 7 16 9 17 6 18 91 19 86 20 87 21 88 22 89 23 90 24
REMARK SMILES IDX 18 25 19 26 20 27 21 28 22 30 23 31 24 32 85 33 25 34 84 35
REMARK SMILES IDX 26 36 27 37 28 38 78 39 29 40 83 41 77 42 79 43 30 44 82 45
REMARK SMILES IDX 76 46 75 47 31 49 63 50 43 51 62 52 44 53 47 54 61 55 80 56
REMARK SMILES IDX 45 57 46 58 60 60 81 61 48 62 32 63 33 64 41 65 34 66 40 67
REMARK SMILES IDX 42 68 39 69 35 70 36 71 37 72 38 73 64 74 65 75 73 76 66 77
REMARK SMILES IDX 72 78 74 79 71 80 67 81 68 82 69 83 70 84 49 85 50 86 58 87
REMARK SMILES IDX 51 88 57 89 59 90 56 91 52 92 53 93 54 94 55 95
REMARK H PARENT 13 8 20 29 79 48 47 59
REMARK Flexibility Score: inf
ROOT
ATOM      1  C   UNL     1       0.692   9.791  -2.813  1.00  0.00     0.002 C 
ENDROOT
BRANCH   1   2
ATOM      2  C   UNL     1      -0.343   9.007  -1.994  1.00  0.00     0.002 C 
BRANCH   2   3
ATOM      3  C   UNL     1      -0.722   7.634  -2.558  1.00  0.00     0.021 C 
BRANCH   3   4
ATOM      4  C   UNL     1       0.464   6.697  -2.766  1.00  0.00     0.116 C 
BRANCH   4   5
ATOM      5  N   UNL     1       0.845   6.031  -1.532  1.00  0.00    -0.352 N 
ATOM      6  C   UNL     1       0.961   4.760  -1.087  1.00  0.00     0.251 C 
ATOM      7  O   UNL     1       1.351   4.651   0.081  1.00  0.00    -0.270 OA
ATOM      8  H   UNL     1       1.082   6.681  -0.831  1.00  0.00     0.163 HD
BRANCH   6   9
ATOM      9  C   UNL     1       0.659   3.527  -1.880  1.00  0.00     0.067 C 
ATOM     10  C   UNL     1       1.035  -0.243   0.215  1.00  0.00     0.047 C 
ATOM     11  C   UNL     1       0.544  -0.157  -1.210  1.00  0.00    -0.021 A 
ATOM     12  C   UNL     1       0.269  -1.323  -1.956  1.00  0.00     0.044 A 
ATOM     13  C   UNL     1       0.404   1.100  -1.851  1.00  0.00     0.022 A 
ATOM     14  Cl  UNL     1       0.456  -2.914  -1.297  1.00  0.00    -0.084 Cl
ATOM     15  C   UNL     1      -0.171  -1.248  -3.280  1.00  0.00     0.024 A 
ATOM     16  C   UNL     1      -0.024   1.149  -3.184  1.00  0.00     0.128 A 
ATOM     17  C   UNL     1       0.654   2.378  -1.178  1.00  0.00     0.026 C 
ATOM     18  C   UNL     1      -0.324  -0.011  -3.891  1.00  0.00     0.048 A 
ATOM     19  O   UNL     1      -0.219   2.310  -3.871  1.00  0.00    -0.475 OA
ATOM     20  C   UNL     1       0.424   3.506  -3.362  1.00  0.00     0.314 C 
BRANCH  20  21
ATOM     21  C   UNL     1       1.706   3.776  -4.169  1.00  0.00     0.429 C 
ATOM     22  F   UNL     1       1.409   4.073  -5.456  1.00  0.00    -0.167 F 
ATOM     23  F   UNL     1       2.409   4.828  -3.684  1.00  0.00    -0.167 F 
ATOM     24  F   UNL     1       2.543   2.714  -4.173  1.00  0.00    -0.167 F 
ENDBRANCH  20  21
ENDBRANCH   6   9
ENDBRANCH   4   5
ENDBRANCH   3   4
ENDBRANCH   2   3
ENDBRANCH   1   2
BRANCH   1  25
ATOM     25  C   UNL     1       0.410   9.883  -4.316  1.00  0.00     0.021 C 
BRANCH  25  26
ATOM     26  C   UNL     1      -0.937  10.502  -4.672  1.00  0.00     0.116 C 
BRANCH  26  27
ATOM     27  N   UNL     1      -1.024  11.884  -4.234  1.00  0.00    -0.352 N 
ATOM     28  C   UNL     1      -1.236  13.007  -4.992  1.00  0.00     0.251 C 
ATOM     29  H   UNL     1      -0.916  12.035  -3.267  1.00  0.00     0.163 HD
ATOM     30  O   UNL     1      -1.067  14.124  -4.511  1.00  0.00    -0.269 OA
BRANCH  28  31
ATOM     31  C   UNL     1      -1.666  12.856  -6.395  1.00  0.00     0.039 A 
ATOM     32  C   UNL     1      -0.968  13.530  -7.399  1.00  0.00     0.014 A 
ATOM     33  C   UNL     1      -2.762  12.045  -6.709  1.00  0.00     0.014 A 
ATOM     34  C   UNL     1      -1.351  13.365  -8.731  1.00  0.00     0.010 A 
ATOM     35  C   UNL     1      -3.111  11.844  -8.040  1.00  0.00     0.010 A 
ATOM     36  C   UNL     1      -2.419  12.514  -9.059  1.00  0.00    -0.014 A 
BRANCH  36  37
ATOM     37  C   UNL     1      -2.858  12.347 -10.464  1.00  0.00     0.031 A 
ATOM     38  C   UNL     1      -4.170  12.928 -10.904  1.00  0.00     0.074 A 
ATOM     39  C   UNL     1      -2.104  11.634 -11.322  1.00  0.00     0.049 A 
ATOM     40  N   UNL     1      -4.746  12.865 -12.075  1.00  0.00    -0.248 NA
ATOM     41  C   UNL     1      -4.947  13.660  -9.889  1.00  0.00     0.031 C 
ATOM     42  C   UNL     1      -0.831  10.994 -10.991  1.00  0.00     0.029 A 
ATOM     43  N   UNL     1      -2.305  11.319 -12.642  1.00  0.00    -0.354 N 
ATOM     44  C   UNL     1      -5.949  13.546 -11.939  1.00  0.00     0.074 A 
ATOM     45  C   UNL     1      -6.048  13.966 -10.560  1.00  0.00     0.031 C 
ATOM     46  C   UNL     1      -0.359  10.370 -12.082  1.00  0.00     0.029 A 
ATOM     47  C   UNL     1      -1.306  10.542 -13.182  1.00  0.00     0.049 A 
ATOM     48  H   UNL     1      -3.090  11.620 -13.155  1.00  0.00     0.167 HD
ATOM     49  C   UNL     1      -6.873  13.820 -12.889  1.00  0.00     0.034 A 
ATOM     50  C   UNL     1      -1.170  10.029 -14.422  1.00  0.00     0.034 A 
ATOM     51  C   UNL     1      -6.754  13.412 -14.262  1.00  0.00     0.049 A 
ATOM     52  C   UNL     1      -2.215  10.342 -15.462  1.00  0.00     0.074 A 
ATOM     53  C   UNL     1      -7.612  13.688 -15.312  1.00  0.00     0.029 A 
ATOM     54  N   UNL     1      -5.718  12.650 -14.779  1.00  0.00    -0.354 N 
ATOM     55  N   UNL     1      -3.304  11.064 -15.342  1.00  0.00    -0.248 NA
ATOM     56  C   UNL     1      -2.013   9.785 -16.807  1.00  0.00     0.031 C 
ATOM     57  C   UNL     1      -7.118  13.055 -16.453  1.00  0.00     0.029 A 
ATOM     58  C   UNL     1      -5.925  12.429 -16.129  1.00  0.00     0.049 A 
ATOM     59  H   UNL     1      -4.949  12.316 -14.262  1.00  0.00     0.167 HD
ATOM     60  C   UNL     1      -3.900  11.073 -16.600  1.00  0.00     0.074 A 
ATOM     61  C   UNL     1      -3.045  10.294 -17.470  1.00  0.00     0.031 C 
ATOM     62  C   UNL     1      -5.052  11.672 -16.994  1.00  0.00     0.034 A 
BRANCH  49  63
ATOM     63  C   UNL     1      -8.082  14.626 -12.497  1.00  0.00     0.023 A 
ATOM     64  C   UNL     1      -9.364  14.049 -12.550  1.00  0.00     0.031 A 
ATOM     65  C   UNL     1      -7.975  15.992 -12.182  1.00  0.00     0.131 A 
ATOM     66  C   UNL     1     -10.491  14.845 -12.316  1.00  0.00     0.055 A 
ATOM     67  C   UNL     1      -9.100  16.772 -11.916  1.00  0.00     0.041 A 
ATOM     68  F   UNL     1      -6.771  16.583 -12.116  1.00  0.00    -0.206 F 
ATOM     69  C   UNL     1     -10.366  16.201 -11.993  1.00  0.00     0.022 A 
BRANCH  66  70
ATOM     70  S   UNL     1     -12.164  14.161 -12.455  1.00  0.00     0.124 S 
ATOM     71  O   UNL     1     -12.747  14.523 -11.164  1.00  0.00    -0.237 OA
ATOM     72  O   UNL     1     -12.695  14.887 -13.604  1.00  0.00    -0.237 OA
ATOM     73  O   UNL     1     -11.944  12.732 -12.653  1.00  0.00    -0.744 OA
ENDBRANCH  66  70
ENDBRANCH  49  63
BRANCH  50  74
ATOM     74  C   UNL     1       0.044   9.229 -14.746  1.00  0.00     0.023 A 
ATOM     75  C   UNL     1       0.284   7.990 -14.125  1.00  0.00     0.031 A 
ATOM     76  C   UNL     1       1.029   9.742 -15.606  1.00  0.00     0.131 A 
ATOM     77  C   UNL     1       1.504   7.333 -14.334  1.00  0.00     0.055 A 
ATOM     78  C   UNL     1       2.218   9.056 -15.857  1.00  0.00     0.041 A 
ATOM     79  F   UNL     1       0.847  10.927 -16.210  1.00  0.00    -0.206 F 
ATOM     80  C   UNL     1       2.466   7.850 -15.208  1.00  0.00     0.022 A 
BRANCH  77  81
ATOM     81  S   UNL     1       1.923   5.832 -13.405  1.00  0.00     0.124 S 
ATOM     82  O   UNL     1       2.269   4.897 -14.471  1.00  0.00    -0.237 OA
ATOM     83  O   UNL     1       3.039   6.296 -12.585  1.00  0.00    -0.237 OA
ATOM     84  O   UNL     1       0.698   5.526 -12.674  1.00  0.00    -0.744 OA
ENDBRANCH  77  81
ENDBRANCH  50  74
BRANCH  62  85
ATOM     85  C   UNL     1      -5.480  11.543 -18.433  1.00  0.00     0.023 A 
ATOM     86  C   UNL     1      -5.543  12.689 -19.249  1.00  0.00     0.031 A 
ATOM     87  C   UNL     1      -5.988  10.335 -18.937  1.00  0.00     0.131 A 
ATOM     88  C   UNL     1      -6.146  12.612 -20.510  1.00  0.00     0.055 A 
ATOM     89  C   UNL     1      -6.550  10.254 -20.211  1.00  0.00     0.041 A 
ATOM     90  F   UNL     1      -5.959   9.220 -18.189  1.00  0.00    -0.206 F 
ATOM     91  C   UNL     1      -6.644  11.399 -20.998  1.00  0.00     0.022 A 
BRANCH  88  92
ATOM     92  S   UNL     1      -6.375  14.095 -21.529  1.00  0.00     0.124 S 
ATOM     93  O   UNL     1      -5.728  13.707 -22.780  1.00  0.00    -0.237 OA
ATOM     94  O   UNL     1      -7.830  14.204 -21.587  1.00  0.00    -0.237 OA
ATOM     95  O   UNL     1      -5.694  15.146 -20.780  1.00  0.00    -0.744 OA
ENDBRANCH  88  92
ENDBRANCH  62  85
ENDBRANCH  36  37
ENDBRANCH  28  31
ENDBRANCH  26  27
ENDBRANCH  25  26
ENDBRANCH   1  25
TORSDOF 17
