REMARK SMILES Cc1ncccc1NC(=O)NC[C@H]1CCC[C@H]1C(=O)NCCCCCCNC(=O)c1ccc(-c2c3nc(c(-c4cc(S(=O)(=O)[O-])ccc4F)c4ccc([nH]4)c(-c4cc(S(=O)(=O)[O-])ccc4F)c4nc(c(-c5cc(S(=O)(=O)[O-])ccc5F)c5ccc2[nH]5)C=C4)C=C3)cc1
REMARK SMILES IDX 23 1 22 2 21 3 20 4 18 5 19 6 17 8 13 9 14 10 15 11 16 12
REMARK SMILES IDX 12 13 11 14 8 15 9 16 10 18 7 20 1 21 2 22 3 23 4 24 6 25
REMARK SMILES IDX 5 26 24 27 25 28 26 29 27 30 28 31 29 33 30 34 31 35 92 36
REMARK SMILES IDX 32 37 91 38 33 39 34 40 35 41 85 42 36 43 90 44 84 45 86 46
REMARK SMILES IDX 37 47 89 48 83 49 82 50 38 52 70 53 50 54 69 55 51 56 54 57
REMARK SMILES IDX 68 58 87 59 52 60 53 61 67 63 88 64 55 65 39 66 40 67 48 68
REMARK SMILES IDX 41 69 47 70 49 71 46 72 42 73 43 74 44 75 45 76 71 77 72 78
REMARK SMILES IDX 80 79 73 80 79 81 81 82 78 83 74 84 75 85 76 86 77 87 56 88
REMARK SMILES IDX 57 89 65 90 58 91 64 92 66 93 63 94 59 95 60 96 61 97 62 98
REMARK H PARENT 20 7 8 17 11 19 27 32 86 51 54 62
REMARK Flexibility Score: inf
ROOT
ATOM      1  C   UNL     1      -7.275   1.418   0.041  1.00  0.00     0.002 C 
ENDROOT
BRANCH   1   2
ATOM      2  C   UNL     1      -6.041   0.595  -0.340  1.00  0.00     0.021 C 
BRANCH   2   3
ATOM      3  C   UNL     1      -5.207   1.176  -1.495  1.00  0.00     0.116 C 
BRANCH   3   4
ATOM      4  N   UNL     1      -3.801   1.300  -1.119  1.00  0.00    -0.356 N 
ATOM      5  C   UNL     1      -2.634   0.651  -1.276  1.00  0.00     0.223 C 
ATOM      6  O   UNL     1      -1.679   1.199  -0.699  1.00  0.00    -0.275 OA
ATOM      7  H   UNL     1      -3.665   2.114  -0.581  1.00  0.00     0.163 HD
BRANCH   5   8
ATOM      8  C   UNL     1      -2.343  -0.654  -2.012  1.00  0.00     0.083 C 
ATOM      9  C   UNL     1      -2.563  -1.991  -1.266  1.00  0.00     0.021 C 
ATOM     10  C   UNL     1      -2.073  -2.971  -2.343  1.00  0.00     0.006 C 
ATOM     11  C   UNL     1      -2.598  -2.413  -3.669  1.00  0.00     0.001 C 
ATOM     12  C   UNL     1      -2.764  -0.894  -3.462  1.00  0.00     0.014 C 
BRANCH   9  13
ATOM     13  C   UNL     1      -3.991  -2.288  -0.767  1.00  0.00     0.122 C 
BRANCH  13  14
ATOM     14  N   UNL     1      -4.978  -2.109  -1.813  1.00  0.00    -0.338 N 
ATOM     15  N   UNL     1      -6.431  -3.878  -2.518  1.00  0.00    -0.306 N 
ATOM     16  C   UNL     1      -5.957  -2.646  -2.506  1.00  0.00     0.319 C 
ATOM     17  H   UNL     1      -7.258  -3.917  -3.050  1.00  0.00     0.171 HD
ATOM     18  O   UNL     1      -6.535  -1.837  -3.248  1.00  0.00    -0.249 OA
ATOM     19  H   UNL     1      -4.867  -1.190  -2.150  1.00  0.00     0.165 HD
BRANCH  15  20
ATOM     20  C   UNL     1      -6.126  -5.146  -2.011  1.00  0.00     0.064 A 
ATOM     21  C   UNL     1      -8.318  -6.052  -2.970  1.00  0.00     0.069 C 
ATOM     22  C   UNL     1      -7.055  -6.194  -2.164  1.00  0.00     0.061 A 
ATOM     23  N   UNL     1      -6.843  -7.445  -1.674  1.00  0.00    -0.259 NA
ATOM     24  C   UNL     1      -5.689  -7.683  -1.026  1.00  0.00     0.111 A 
ATOM     25  C   UNL     1      -4.924  -5.467  -1.403  1.00  0.00     0.030 A 
ATOM     26  C   UNL     1      -4.699  -6.737  -0.880  1.00  0.00     0.022 A 
ENDBRANCH  15  20
ENDBRANCH  13  14
ENDBRANCH   9  13
ENDBRANCH   5   8
ENDBRANCH   3   4
ENDBRANCH   2   3
ENDBRANCH   1   2
BRANCH   1  27
ATOM     27  C   UNL     1      -8.381   1.461  -1.015  1.00  0.00     0.002 C 
BRANCH  27  28
ATOM     28  C   UNL     1      -9.069   0.126  -1.325  1.00  0.00     0.021 C 
BRANCH  28  29
ATOM     29  C   UNL     1      -9.677  -0.607  -0.130  1.00  0.00     0.116 C 
BRANCH  29  30
ATOM     30  N   UNL     1     -10.636   0.214   0.593  1.00  0.00    -0.352 N 
ATOM     31  C   UNL     1     -12.000   0.097   0.714  1.00  0.00     0.251 C 
ATOM     32  H   UNL     1     -10.244   0.978   1.073  1.00  0.00     0.163 HD
ATOM     33  O   UNL     1     -12.643   1.038   1.170  1.00  0.00    -0.269 OA
BRANCH  31  34
ATOM     34  C   UNL     1     -12.697  -1.141   0.296  1.00  0.00     0.039 A 
ATOM     35  C   UNL     1     -13.921  -1.036  -0.373  1.00  0.00     0.014 A 
ATOM     36  C   UNL     1     -12.185  -2.401   0.615  1.00  0.00     0.014 A 
ATOM     37  C   UNL     1     -14.605  -2.192  -0.766  1.00  0.00     0.010 A 
ATOM     38  C   UNL     1     -12.833  -3.550   0.164  1.00  0.00     0.010 A 
ATOM     39  C   UNL     1     -14.054  -3.460  -0.522  1.00  0.00    -0.014 A 
BRANCH  39  40
ATOM     40  C   UNL     1     -14.750  -4.706  -0.940  1.00  0.00     0.031 A 
ATOM     41  C   UNL     1     -15.224  -5.684   0.103  1.00  0.00     0.074 A 
ATOM     42  C   UNL     1     -14.889  -4.997  -2.248  1.00  0.00     0.049 A 
ATOM     43  N   UNL     1     -15.728  -6.882  -0.047  1.00  0.00    -0.248 NA
ATOM     44  C   UNL     1     -15.075  -5.264   1.504  1.00  0.00     0.031 C 
ATOM     45  C   UNL     1     -14.451  -4.142  -3.353  1.00  0.00     0.029 A 
ATOM     46  N   UNL     1     -15.419  -6.099  -2.871  1.00  0.00    -0.354 N 
ATOM     47  C   UNL     1     -15.936  -7.370   1.239  1.00  0.00     0.074 A 
ATOM     48  C   UNL     1     -15.444  -6.358   2.151  1.00  0.00     0.031 C 
ATOM     49  C   UNL     1     -14.738  -4.748  -4.516  1.00  0.00     0.029 A 
ATOM     50  C   UNL     1     -15.335  -6.052  -4.243  1.00  0.00     0.049 A 
ATOM     51  H   UNL     1     -15.822  -6.852  -2.381  1.00  0.00     0.167 HD
ATOM     52  C   UNL     1     -16.502  -8.542   1.624  1.00  0.00     0.034 A 
ATOM     53  C   UNL     1     -15.678  -6.964  -5.175  1.00  0.00     0.034 A 
ATOM     54  C   UNL     1     -16.995  -9.534   0.698  1.00  0.00     0.049 A 
ATOM     55  C   UNL     1     -16.279  -8.273  -4.730  1.00  0.00     0.074 A 
ATOM     56  C   UNL     1     -17.627 -10.734   0.972  1.00  0.00     0.029 A 
ATOM     57  N   UNL     1     -16.902  -9.445  -0.687  1.00  0.00    -0.354 N 
ATOM     58  N   UNL     1     -16.501  -8.708  -3.511  1.00  0.00    -0.248 NA
ATOM     59  C   UNL     1     -16.686  -9.209  -5.786  1.00  0.00     0.031 C 
ATOM     60  C   UNL     1     -17.853 -11.400  -0.238  1.00  0.00     0.029 A 
ATOM     61  C   UNL     1     -17.439 -10.581  -1.276  1.00  0.00     0.049 A 
ATOM     62  H   UNL     1     -16.511  -8.687  -1.178  1.00  0.00     0.167 HD
ATOM     63  C   UNL     1     -17.105  -9.955  -3.656  1.00  0.00     0.074 A 
ATOM     64  C   UNL     1     -17.217 -10.197  -5.080  1.00  0.00     0.031 C 
ATOM     65  C   UNL     1     -17.537 -10.815  -2.699  1.00  0.00     0.034 A 
BRANCH  52  66
ATOM     66  C   UNL     1     -16.580  -8.818   3.109  1.00  0.00     0.023 A 
ATOM     67  C   UNL     1     -17.296  -7.977   3.981  1.00  0.00     0.031 A 
ATOM     68  C   UNL     1     -15.887  -9.904   3.672  1.00  0.00     0.131 A 
ATOM     69  C   UNL     1     -17.219  -8.174   5.368  1.00  0.00     0.055 A 
ATOM     70  C   UNL     1     -15.893 -10.151   5.047  1.00  0.00     0.041 A 
ATOM     71  F   UNL     1     -15.170 -10.734   2.898  1.00  0.00    -0.206 F 
ATOM     72  C   UNL     1     -16.544  -9.271   5.906  1.00  0.00     0.022 A 
BRANCH  69  73
ATOM     73  S   UNL     1     -17.860  -6.875   6.461  1.00  0.00     0.124 S 
ATOM     74  O   UNL     1     -17.093  -5.713   6.018  1.00  0.00    -0.237 OA
ATOM     75  O   UNL     1     -19.282  -6.865   6.138  1.00  0.00    -0.237 OA
ATOM     76  O   UNL     1     -17.526  -7.358   7.799  1.00  0.00    -0.744 OA
ENDBRANCH  69  73
ENDBRANCH  52  66
BRANCH  53  77
ATOM     77  C   UNL     1     -15.448  -6.680  -6.620  1.00  0.00     0.023 A 
ATOM     78  C   UNL     1     -16.524  -6.527  -7.508  1.00  0.00     0.031 A 
ATOM     79  C   UNL     1     -14.144  -6.573  -7.137  1.00  0.00     0.131 A 
ATOM     80  C   UNL     1     -16.278  -6.312  -8.874  1.00  0.00     0.055 A 
ATOM     81  C   UNL     1     -13.906  -6.310  -8.487  1.00  0.00     0.041 A 
ATOM     82  F   UNL     1     -13.080  -6.703  -6.329  1.00  0.00    -0.206 F 
ATOM     83  C   UNL     1     -14.977  -6.189  -9.367  1.00  0.00     0.022 A 
BRANCH  80  84
ATOM     84  S   UNL     1     -17.689  -6.258 -10.013  1.00  0.00     0.124 S 
ATOM     85  O   UNL     1     -18.279  -7.577  -9.818  1.00  0.00    -0.237 OA
ATOM     86  O   UNL     1     -18.454  -5.128  -9.495  1.00  0.00    -0.237 OA
ATOM     87  O   UNL     1     -17.065  -6.038 -11.316  1.00  0.00    -0.744 OA
ENDBRANCH  80  84
ENDBRANCH  53  77
BRANCH  65  88
ATOM     88  C   UNL     1     -18.226 -12.076  -3.164  1.00  0.00     0.023 A 
ATOM     89  C   UNL     1     -17.538 -13.093  -3.849  1.00  0.00     0.031 A 
ATOM     90  C   UNL     1     -19.598 -12.259  -2.913  1.00  0.00     0.131 A 
ATOM     91  C   UNL     1     -18.234 -14.225  -4.300  1.00  0.00     0.055 A 
ATOM     92  C   UNL     1     -20.272 -13.414  -3.312  1.00  0.00     0.041 A 
ATOM     93  F   UNL     1     -20.305 -11.319  -2.266  1.00  0.00    -0.206 F 
ATOM     94  C   UNL     1     -19.592 -14.400  -4.020  1.00  0.00     0.022 A 
BRANCH  91  95
ATOM     95  S   UNL     1     -17.361 -15.434  -5.333  1.00  0.00     0.124 S 
ATOM     96  O   UNL     1     -16.930 -14.615  -6.462  1.00  0.00    -0.237 OA
ATOM     97  O   UNL     1     -16.303 -15.900  -4.442  1.00  0.00    -0.237 OA
ATOM     98  O   UNL     1     -18.389 -16.427  -5.644  1.00  0.00    -0.744 OA
ENDBRANCH  91  95
ENDBRANCH  65  88
ENDBRANCH  39  40
ENDBRANCH  31  34
ENDBRANCH  29  30
ENDBRANCH  28  29
ENDBRANCH  27  28
ENDBRANCH   1  27
TORSDOF 19
