REMARK SMILES O=C(NCCCCCCNC(=O)[C@@H](Cc1ccc(F)cc1)NC(=O)c1ccn(C2CCCC2)n1)c1ccc(-c2c3nc(c(-c4cc(S(=O)(=O)[O-])ccc4F)c4ccc([nH]4)c(-c4cc(S(=O)(=O)[O-])ccc4F)c4nc(c(-c5cc(S(=O)(=O)[O-])ccc5F)c5ccc2[nH]5)C=C4)C=C3)cc1
REMARK SMILES IDX 6 1 5 2 4 3 3 4 1 5 2 6 35 8 36 9 97 10 37 11 96 12 38 13
REMARK SMILES IDX 39 14 40 15 90 16 41 17 95 18 89 19 91 20 42 21 94 22 88 23
REMARK SMILES IDX 87 24 43 26 75 27 55 28 74 29 56 30 59 31 73 32 92 33 57 34
REMARK SMILES IDX 58 35 72 37 93 38 60 39 44 40 45 41 53 42 46 43 52 44 54 45
REMARK SMILES IDX 51 46 47 47 48 48 49 49 50 50 76 51 77 52 85 53 78 54 84 55
REMARK SMILES IDX 86 56 83 57 79 58 80 59 81 60 82 61 61 62 62 63 70 64 63 65
REMARK SMILES IDX 69 66 71 67 68 68 64 69 65 70 66 71 67 72 7 73 8 74 9 75
REMARK SMILES IDX 10 76 11 77 12 79 13 80 14 81 15 82 16 83 21 84 17 85 20 86
REMARK SMILES IDX 18 87 19 88 22 89 23 90 24 92 25 93 26 94 34 95 27 96 28 97
REMARK SMILES IDX 29 98 30 99 33 100 31 101 32 102
REMARK H PARENT 3 7 91 25 59 36 10 78 22 91
REMARK Flexibility Score: inf
ROOT
ATOM      1  C   UNL     1       3.486  -3.665   1.003  1.00  0.00     0.002 C 
ENDROOT
BRANCH   1   2
ATOM      2  C   UNL     1       4.330  -2.396   1.142  1.00  0.00     0.021 C 
BRANCH   2   3
ATOM      3  C   UNL     1       4.381  -1.460  -0.066  1.00  0.00     0.116 C 
BRANCH   3   4
ATOM      4  N   UNL     1       3.111  -0.963  -0.556  1.00  0.00    -0.352 N 
ATOM      5  O   UNL     1       1.251   0.224  -0.817  1.00  0.00    -0.269 OA
ATOM      6  C   UNL     1       2.189  -0.073  -0.073  1.00  0.00     0.251 C 
ATOM      7  H   UNL     1       2.855  -1.349  -1.425  1.00  0.00     0.163 HD
BRANCH   6   8
ATOM      8  C   UNL     1       2.218   0.479   1.302  1.00  0.00     0.039 A 
ATOM      9  C   UNL     1       3.381   0.756   2.023  1.00  0.00     0.014 A 
ATOM     10  C   UNL     1       0.970   0.770   1.879  1.00  0.00     0.014 A 
ATOM     11  C   UNL     1       3.297   1.226   3.332  1.00  0.00     0.010 A 
ATOM     12  C   UNL     1       0.882   1.265   3.176  1.00  0.00     0.010 A 
ATOM     13  C   UNL     1       2.048   1.476   3.913  1.00  0.00    -0.014 A 
BRANCH  13  14
ATOM     14  C   UNL     1       2.004   2.222   5.176  1.00  0.00     0.031 A 
ATOM     15  C   UNL     1       2.533   3.616   5.066  1.00  0.00     0.074 A 
ATOM     16  C   UNL     1       1.357   1.808   6.287  1.00  0.00     0.049 A 
ATOM     17  N   UNL     1       3.474   4.183   5.750  1.00  0.00    -0.248 NA
ATOM     18  C   UNL     1       2.011   4.456   3.970  1.00  0.00     0.031 C 
ATOM     19  C   UNL     1       0.556   0.593   6.438  1.00  0.00     0.029 A 
ATOM     20  N   UNL     1       1.173   2.447   7.484  1.00  0.00    -0.354 N 
ATOM     21  C   UNL     1       3.497   5.511   5.331  1.00  0.00     0.074 A 
ATOM     22  C   UNL     1       2.713   5.577   4.128  1.00  0.00     0.031 C 
ATOM     23  C   UNL     1      -0.197   0.691   7.556  1.00  0.00     0.029 A 
ATOM     24  C   UNL     1       0.137   1.920   8.258  1.00  0.00     0.049 A 
ATOM     25  H   UNL     1       1.723   3.211   7.773  1.00  0.00     0.167 HD
ATOM     26  C   UNL     1       3.932   6.512   6.144  1.00  0.00     0.034 A 
ATOM     27  C   UNL     1      -0.453   2.483   9.350  1.00  0.00     0.034 A 
ATOM     28  C   UNL     1       4.824   6.025   7.164  1.00  0.00     0.049 A 
ATOM     29  C   UNL     1       0.515   3.465   9.898  1.00  0.00     0.074 A 
ATOM     30  C   UNL     1       5.990   5.283   7.150  1.00  0.00     0.029 A 
ATOM     31  N   UNL     1       4.370   5.966   8.460  1.00  0.00    -0.354 N 
ATOM     32  N   UNL     1       1.675   3.146  10.403  1.00  0.00    -0.248 NA
ATOM     33  C   UNL     1       0.370   4.854   9.493  1.00  0.00     0.031 C 
ATOM     34  C   UNL     1       5.878   4.405   8.266  1.00  0.00     0.029 A 
ATOM     35  C   UNL     1       4.693   4.719   8.934  1.00  0.00     0.049 A 
ATOM     36  H   UNL     1       3.905   6.679   8.954  1.00  0.00     0.167 HD
ATOM     37  C   UNL     1       2.528   4.160   9.999  1.00  0.00     0.074 A 
ATOM     38  C   UNL     1       1.652   5.225   9.518  1.00  0.00     0.031 C 
ATOM     39  C   UNL     1       3.865   3.947   9.837  1.00  0.00     0.034 A 
BRANCH  26  40
ATOM     40  C   UNL     1       3.247   7.857   6.222  1.00  0.00     0.023 A 
ATOM     41  C   UNL     1       3.845   8.875   6.986  1.00  0.00     0.031 A 
ATOM     42  C   UNL     1       1.907   8.089   5.823  1.00  0.00     0.131 A 
ATOM     43  C   UNL     1       3.111  10.018   7.359  1.00  0.00     0.055 A 
ATOM     44  C   UNL     1       1.209   9.256   6.135  1.00  0.00     0.041 A 
ATOM     45  F   UNL     1       1.170   7.162   5.200  1.00  0.00    -0.206 F 
ATOM     46  C   UNL     1       1.801  10.220   6.929  1.00  0.00     0.022 A 
BRANCH  43  47
ATOM     47  S   UNL     1       3.845  11.172   8.547  1.00  0.00     0.124 S 
ATOM     48  O   UNL     1       4.052  10.309   9.704  1.00  0.00    -0.237 OA
ATOM     49  O   UNL     1       5.047  11.607   7.843  1.00  0.00    -0.237 OA
ATOM     50  O   UNL     1       2.815  12.196   8.706  1.00  0.00    -0.744 OA
ENDBRANCH  43  47
ENDBRANCH  26  40
BRANCH  27  51
ATOM     51  C   UNL     1      -1.893   2.448   9.765  1.00  0.00     0.023 A 
ATOM     52  C   UNL     1      -2.332   2.971  11.006  1.00  0.00     0.031 A 
ATOM     53  C   UNL     1      -2.909   2.128   8.836  1.00  0.00     0.131 A 
ATOM     54  C   UNL     1      -3.713   3.160  11.264  1.00  0.00     0.055 A 
ATOM     55  C   UNL     1      -4.271   2.304   9.101  1.00  0.00     0.041 A 
ATOM     56  F   UNL     1      -2.620   1.714   7.594  1.00  0.00    -0.206 F 
ATOM     57  C   UNL     1      -4.679   2.834  10.312  1.00  0.00     0.022 A 
BRANCH  54  58
ATOM     58  S   UNL     1      -4.280   3.964  12.800  1.00  0.00     0.124 S 
ATOM     59  O   UNL     1      -4.246   2.860  13.752  1.00  0.00    -0.237 OA
ATOM     60  O   UNL     1      -3.293   5.020  12.995  1.00  0.00    -0.237 OA
ATOM     61  O   UNL     1      -5.621   4.439  12.455  1.00  0.00    -0.744 OA
ENDBRANCH  54  58
ENDBRANCH  27  51
BRANCH  39  62
ATOM     62  C   UNL     1       4.506   2.722  10.447  1.00  0.00     0.023 A 
ATOM     63  C   UNL     1       4.230   1.387  10.079  1.00  0.00     0.031 A 
ATOM     64  C   UNL     1       5.585   2.957  11.319  1.00  0.00     0.131 A 
ATOM     65  C   UNL     1       5.040   0.345  10.580  1.00  0.00     0.055 A 
ATOM     66  C   UNL     1       6.392   1.928  11.794  1.00  0.00     0.041 A 
ATOM     67  F   UNL     1       5.908   4.212  11.677  1.00  0.00    -0.206 F 
ATOM     68  C   UNL     1       6.123   0.616  11.425  1.00  0.00     0.022 A 
BRANCH  65  69
ATOM     69  S   UNL     1       4.730  -1.387  10.101  1.00  0.00     0.124 S 
ATOM     70  O   UNL     1       3.388  -1.638  10.614  1.00  0.00    -0.237 OA
ATOM     71  O   UNL     1       4.868  -1.353   8.647  1.00  0.00    -0.237 OA
ATOM     72  O   UNL     1       5.791  -2.128  10.788  1.00  0.00    -0.744 OA
ENDBRANCH  65  69
ENDBRANCH  39  62
ENDBRANCH  13  14
ENDBRANCH   6   8
ENDBRANCH   3   4
ENDBRANCH   2   3
ENDBRANCH   1   2
BRANCH   1  73
ATOM     73  C   UNL     1       3.746  -4.556  -0.211  1.00  0.00     0.002 C 
BRANCH  73  74
ATOM     74  C   UNL     1       5.172  -5.077  -0.411  1.00  0.00     0.021 C 
BRANCH  74  75
ATOM     75  C   UNL     1       5.766  -5.974   0.704  1.00  0.00     0.116 C 
BRANCH  75  76
ATOM     76  N   UNL     1       6.383  -7.166   0.102  1.00  0.00    -0.354 N 
ATOM     77  C   UNL     1       7.580  -7.611  -0.344  1.00  0.00     0.242 C 
ATOM     78  H   UNL     1       5.704  -7.868  -0.015  1.00  0.00     0.163 HD
ATOM     79  O   UNL     1       7.479  -8.586  -1.112  1.00  0.00    -0.273 OA
BRANCH  77  80
ATOM     80  C   UNL     1       9.017  -7.055  -0.096  1.00  0.00     0.176 C 
BRANCH  80  81
ATOM     81  C   UNL     1       9.620  -6.091  -1.165  1.00  0.00     0.070 C 
BRANCH  81  82
ATOM     82  C   UNL     1       9.536  -4.593  -0.955  1.00  0.00    -0.045 A 
ATOM     83  C   UNL     1       8.432  -4.043  -0.322  1.00  0.00     0.007 A 
ATOM     84  C   UNL     1      10.508  -3.703  -1.432  1.00  0.00     0.007 A 
ATOM     85  C   UNL     1       8.254  -2.676  -0.149  1.00  0.00     0.039 A 
ATOM     86  C   UNL     1      10.351  -2.317  -1.258  1.00  0.00     0.039 A 
ATOM     87  C   UNL     1       9.220  -1.817  -0.624  1.00  0.00     0.123 A 
ATOM     88  F   UNL     1       9.055  -0.498  -0.475  1.00  0.00    -0.207 F 
ENDBRANCH  81  82
ENDBRANCH  80  81
BRANCH  80  89
ATOM     89  N   UNL     1       9.402  -6.729   1.272  1.00  0.00    -0.339 N 
ATOM     90  C   UNL     1      10.177  -7.454   2.162  1.00  0.00     0.272 C 
ATOM     91  H   UNL     1       9.061  -5.871   1.613  1.00  0.00     0.164 HD
ATOM     92  O   UNL     1      10.291  -7.006   3.301  1.00  0.00    -0.267 OA
BRANCH  90  93
ATOM     93  C   UNL     1      10.842  -8.710   1.743  1.00  0.00     0.150 A 
ATOM     94  C   UNL     1      11.638  -8.967   0.589  1.00  0.00     0.056 A 
ATOM     95  N   UNL     1      10.793  -9.812   2.517  1.00  0.00    -0.167 NA
ATOM     96  C   UNL     1      12.007 -10.289   0.672  1.00  0.00     0.110 A 
ATOM     97  N   UNL     1      11.496 -10.745   1.851  1.00  0.00    -0.269 N 
BRANCH  97  98
ATOM     98  C   UNL     1      11.662 -12.075   2.399  1.00  0.00     0.107 C 
ATOM     99  C   UNL     1      12.447 -12.123   3.709  1.00  0.00     0.027 C 
ATOM    100  C   UNL     1      10.357 -12.789   2.754  1.00  0.00     0.027 C 
ATOM    101  C   UNL     1      12.162 -13.521   4.242  1.00  0.00     0.002 C 
ATOM    102  C   UNL     1      10.763 -13.882   3.741  1.00  0.00     0.002 C 
ENDBRANCH  97  98
ENDBRANCH  90  93
ENDBRANCH  80  89
ENDBRANCH  77  80
ENDBRANCH  75  76
ENDBRANCH  74  75
ENDBRANCH  73  74
ENDBRANCH   1  73
TORSDOF 21
