REMARK SMILES Cc1coc2cc3c(cc12)[C@@H](C)[C@H](CCC(=O)N[C@@H](Cc1c[nH]c2ccccc12)C(=O)NCCCCCCNC(=O)c1ccc(-c2c4nc(c(-c5cc(S(=O)(=O)[O-])ccc5F)c5ccc([nH]5)c(-c5cc(S(=O)(=O)[O-])ccc5F)c5nc(c(-c6cc(S(=O)(=O)[O-])ccc6F)c6ccc2[nH]6)C=C5)C=C4)cc1)C(=O)O3
REMARK SMILES IDX 35 1 34 2 33 3 32 4 30 5 31 6 19 8 18 9 16 10 17 11 15 13
REMARK SMILES IDX 14 14 13 15 1 16 2 17 3 18 10 19 4 20 5 21 9 22 6 23 8 24
REMARK SMILES IDX 7 25 11 26 107 27 12 28 105 29 106 30 20 31 21 32 22 33
REMARK SMILES IDX 29 34 23 35 24 36 28 37 25 39 27 40 26 41 36 42 37 43 38 44
REMARK SMILES IDX 39 45 40 46 41 48 42 49 43 50 104 51 44 52 103 53 45 54
REMARK SMILES IDX 46 55 47 56 97 57 48 58 102 59 96 60 98 61 49 62 101 63
REMARK SMILES IDX 95 64 94 65 50 67 82 68 62 69 81 70 63 71 66 72 80 73 99 74
REMARK SMILES IDX 64 75 65 76 79 78 100 79 67 80 51 81 52 82 60 83 53 84 59 85
REMARK SMILES IDX 61 86 58 87 54 88 55 89 56 90 57 91 83 92 84 93 92 94 85 95
REMARK SMILES IDX 91 96 93 97 90 98 86 99 87 100 88 101 89 102 68 103 69 104
REMARK SMILES IDX 77 105 70 106 76 107 78 108 75 109 71 110 72 111 73 112
REMARK SMILES IDX 74 113
REMARK H PARENT 32 7 18 12 23 38 39 47 98 66 66 77
REMARK Flexibility Score: inf
ROOT
ATOM      1  C   UNL     1      -4.792   9.121   4.684  1.00  0.00     0.002 C 
ENDROOT
BRANCH   1   2
ATOM      2  C   UNL     1      -4.426   8.530   3.319  1.00  0.00     0.021 C 
BRANCH   2   3
ATOM      3  C   UNL     1      -4.688   7.046   3.254  1.00  0.00     0.116 C 
BRANCH   3   4
ATOM      4  N   UNL     1      -6.093   6.741   3.175  1.00  0.00    -0.354 N 
ATOM      5  C   UNL     1      -6.691   5.604   2.737  1.00  0.00     0.242 C 
ATOM      6  O   UNL     1      -7.905   5.487   2.934  1.00  0.00    -0.273 OA
ATOM      7  H   UNL     1      -6.702   7.452   3.480  1.00  0.00     0.163 HD
BRANCH   5   8
ATOM      8  C   UNL     1      -5.883   4.476   2.078  1.00  0.00     0.175 C 
BRANCH   8   9
ATOM      9  N   UNL     1      -5.195   4.925   0.819  1.00  0.00    -0.344 N 
ATOM     10  C   UNL     1      -5.352   4.683  -0.526  1.00  0.00     0.220 C 
ATOM     11  O   UNL     1      -4.669   5.383  -1.286  1.00  0.00    -0.275 OA
ATOM     12  H   UNL     1      -4.450   5.543   1.001  1.00  0.00     0.164 HD
BRANCH  10  13
ATOM     13  C   UNL     1      -6.260   3.591  -1.155  1.00  0.00     0.101 C 
BRANCH  13  14
ATOM     14  C   UNL     1      -5.561   2.260  -1.688  1.00  0.00     0.026 C 
BRANCH  14  15
ATOM     15  C   UNL     1      -5.466   1.080  -0.654  1.00  0.00     0.107 C 
ATOM     16  C   UNL     1       1.561  -0.122  -0.328  1.00  0.00     0.048 C 
ATOM     17  C   UNL     1       0.817   1.150  -0.460  1.00  0.00    -0.005 A 
ATOM     18  C   UNL     1       1.328   2.433  -0.438  1.00  0.00     0.199 A 
ATOM     19  C   UNL     1      -0.600   1.296  -0.535  1.00  0.00     0.024 A 
ATOM     20  O   UNL     1       0.329   3.351  -0.400  1.00  0.00    -0.464 OA
ATOM     21  C   UNL     1      -0.843   2.660  -0.387  1.00  0.00     0.137 A 
ATOM     22  C   UNL     1      -1.693   0.408  -0.621  1.00  0.00     0.020 A 
ATOM     23  C   UNL     1      -2.094   3.203  -0.134  1.00  0.00     0.095 A 
ATOM     24  C   UNL     1      -2.973   0.919  -0.423  1.00  0.00    -0.001 A 
ATOM     25  C   UNL     1      -3.100   2.245  -0.026  1.00  0.00     0.138 A 
ATOM     26  C   UNL     1      -4.244   0.112  -0.474  1.00  0.00     0.034 C 
ATOM     27  O   UNL     1      -4.258   2.544   0.739  1.00  0.00    -0.426 OA
ATOM     28  C   UNL     1      -4.340  -0.675   0.872  1.00  0.00     0.014 C 
ATOM     29  C   UNL     1      -5.429   1.766   0.641  1.00  0.00     0.314 C 
ATOM     30  O   UNL     1      -6.329   1.686   1.448  1.00  0.00    -0.251 OA
ENDBRANCH  14  15
ENDBRANCH  13  14
ENDBRANCH  10  13
ENDBRANCH   8   9
BRANCH   8  31
ATOM     31  C   UNL     1      -5.149   3.595   3.194  1.00  0.00     0.072 C 
BRANCH  31  32
ATOM     32  C   UNL     1      -3.961   4.035   4.026  1.00  0.00    -0.020 A 
ATOM     33  C   UNL     1      -4.066   4.565   5.303  1.00  0.00     0.087 A 
ATOM     34  C   UNL     1      -2.546   3.764   3.871  1.00  0.00     0.003 A 
ATOM     35  N   UNL     1      -2.817   4.886   5.760  1.00  0.00    -0.361 N 
ATOM     36  C   UNL     1      -1.867   4.476   4.861  1.00  0.00     0.046 A 
ATOM     37  C   UNL     1      -1.747   2.957   3.037  1.00  0.00     0.010 A 
ATOM     38  H   UNL     1      -2.629   5.344   6.611  1.00  0.00     0.166 HD
ATOM     39  C   UNL     1      -0.471   4.607   4.909  1.00  0.00     0.026 A 
ATOM     40  C   UNL     1      -0.345   3.029   3.094  1.00  0.00     0.001 A 
ATOM     41  C   UNL     1       0.283   3.888   3.983  1.00  0.00     0.002 A 
ENDBRANCH  31  32
ENDBRANCH   8  31
ENDBRANCH   5   8
ENDBRANCH   3   4
ENDBRANCH   2   3
ENDBRANCH   1   2
BRANCH   1  42
ATOM     42  C   UNL     1      -4.077   8.500   5.895  1.00  0.00     0.002 C 
BRANCH  42  43
ATOM     43  C   UNL     1      -2.552   8.375   5.777  1.00  0.00     0.021 C 
BRANCH  43  44
ATOM     44  C   UNL     1      -1.845   9.643   5.300  1.00  0.00     0.116 C 
BRANCH  44  45
ATOM     45  N   UNL     1      -2.263  10.830   6.006  1.00  0.00    -0.352 N 
ATOM     46  C   UNL     1      -1.956  11.390   7.208  1.00  0.00     0.251 C 
ATOM     47  H   UNL     1      -2.922  11.357   5.501  1.00  0.00     0.163 HD
ATOM     48  O   UNL     1      -2.549  12.438   7.476  1.00  0.00    -0.269 OA
BRANCH  46  49
ATOM     49  C   UNL     1      -1.026  10.800   8.203  1.00  0.00     0.039 A 
ATOM     50  C   UNL     1      -0.247   9.656   8.014  1.00  0.00     0.014 A 
ATOM     51  C   UNL     1      -0.979  11.453   9.447  1.00  0.00     0.014 A 
ATOM     52  C   UNL     1       0.467   9.111   9.070  1.00  0.00     0.010 A 
ATOM     53  C   UNL     1      -0.240  10.933  10.497  1.00  0.00     0.010 A 
ATOM     54  C   UNL     1       0.436   9.731  10.318  1.00  0.00    -0.014 A 
BRANCH  54  55
ATOM     55  C   UNL     1       1.196   9.116  11.395  1.00  0.00     0.031 A 
ATOM     56  C   UNL     1       2.667   9.052  11.173  1.00  0.00     0.074 A 
ATOM     57  C   UNL     1       0.617   8.724  12.545  1.00  0.00     0.049 A 
ATOM     58  N   UNL     1       3.419   8.002  11.103  1.00  0.00    -0.248 NA
ATOM     59  C   UNL     1       3.365  10.306  10.857  1.00  0.00     0.031 C 
ATOM     60  C   UNL     1      -0.752   8.982  12.999  1.00  0.00     0.029 A 
ATOM     61  N   UNL     1       1.185   8.109  13.616  1.00  0.00    -0.354 N 
ATOM     62  C   UNL     1       4.720   8.466  10.905  1.00  0.00     0.074 A 
ATOM     63  C   UNL     1       4.603   9.874  10.618  1.00  0.00     0.031 C 
ATOM     64  C   UNL     1      -0.822   8.765  14.331  1.00  0.00     0.029 A 
ATOM     65  C   UNL     1       0.448   8.221  14.784  1.00  0.00     0.049 A 
ATOM     66  H   UNL     1       2.042   7.628  13.566  1.00  0.00     0.167 HD
ATOM     67  C   UNL     1       5.815   7.691  11.158  1.00  0.00     0.034 A 
ATOM     68  C   UNL     1       0.890   7.987  16.045  1.00  0.00     0.034 A 
ATOM     69  C   UNL     1       5.452   6.308  11.299  1.00  0.00     0.049 A 
ATOM     70  C   UNL     1       2.117   7.158  15.960  1.00  0.00     0.074 A 
ATOM     71  C   UNL     1       4.924   5.357  10.451  1.00  0.00     0.029 A 
ATOM     72  N   UNL     1       5.296   5.814  12.571  1.00  0.00    -0.354 N 
ATOM     73  N   UNL     1       2.126   5.909  15.587  1.00  0.00    -0.248 NA
ATOM     74  C   UNL     1       3.393   7.851  15.846  1.00  0.00     0.031 C 
ATOM     75  C   UNL     1       4.059   4.579  11.268  1.00  0.00     0.029 A 
ATOM     76  C   UNL     1       4.154   5.055  12.578  1.00  0.00     0.049 A 
ATOM     77  H   UNL     1       5.894   5.975  13.337  1.00  0.00     0.167 HD
ATOM     78  C   UNL     1       3.238   5.803  14.765  1.00  0.00     0.074 A 
ATOM     79  C   UNL     1       4.039   6.993  15.051  1.00  0.00     0.031 C 
ATOM     80  C   UNL     1       3.269   4.925  13.718  1.00  0.00     0.034 A 
BRANCH  67  81
ATOM     81  C   UNL     1       7.167   8.217  11.574  1.00  0.00     0.023 A 
ATOM     82  C   UNL     1       7.376   9.547  11.980  1.00  0.00     0.031 A 
ATOM     83  C   UNL     1       8.243   7.331  11.798  1.00  0.00     0.131 A 
ATOM     84  C   UNL     1       8.580   9.956  12.569  1.00  0.00     0.055 A 
ATOM     85  C   UNL     1       9.422   7.724  12.444  1.00  0.00     0.041 A 
ATOM     86  F   UNL     1       8.160   6.037  11.448  1.00  0.00    -0.206 F 
ATOM     87  C   UNL     1       9.595   9.044  12.837  1.00  0.00     0.022 A 
BRANCH  84  88
ATOM     88  S   UNL     1       8.834  11.695  13.018  1.00  0.00     0.124 S 
ATOM     89  O   UNL     1       9.010  11.610  14.463  1.00  0.00    -0.237 OA
ATOM     90  O   UNL     1      10.032  12.027  12.251  1.00  0.00    -0.237 OA
ATOM     91  O   UNL     1       7.609  12.347  12.563  1.00  0.00    -0.744 OA
ENDBRANCH  84  88
ENDBRANCH  67  81
BRANCH  68  92
ATOM     92  C   UNL     1       0.587   8.830  17.226  1.00  0.00     0.023 A 
ATOM     93  C   UNL     1       0.263  10.188  17.046  1.00  0.00     0.031 A 
ATOM     94  C   UNL     1       0.894   8.409  18.529  1.00  0.00     0.131 A 
ATOM     95  C   UNL     1       0.299  11.083  18.120  1.00  0.00     0.055 A 
ATOM     96  C   UNL     1       0.911   9.302  19.609  1.00  0.00     0.041 A 
ATOM     97  F   UNL     1       1.249   7.137  18.768  1.00  0.00    -0.206 F 
ATOM     98  C   UNL     1       0.625  10.650  19.405  1.00  0.00     0.022 A 
BRANCH  95  99
ATOM     99  S   UNL     1       0.006  12.850  17.837  1.00  0.00     0.124 S 
ATOM    100  O   UNL     1      -0.905  13.193  18.927  1.00  0.00    -0.237 OA
ATOM    101  O   UNL     1       1.354  13.395  17.948  1.00  0.00    -0.237 OA
ATOM    102  O   UNL     1      -0.587  12.889  16.503  1.00  0.00    -0.744 OA
ENDBRANCH  95  99
ENDBRANCH  68  92
BRANCH  80 103
ATOM    103  C   UNL     1       2.153   3.909  13.574  1.00  0.00     0.023 A 
ATOM    104  C   UNL     1       2.520   2.583  13.285  1.00  0.00     0.031 A 
ATOM    105  C   UNL     1       0.788   4.239  13.462  1.00  0.00     0.131 A 
ATOM    106  C   UNL     1       1.560   1.659  12.855  1.00  0.00     0.055 A 
ATOM    107  C   UNL     1      -0.180   3.293  13.107  1.00  0.00     0.041 A 
ATOM    108  F   UNL     1       0.354   5.497  13.597  1.00  0.00    -0.206 F 
ATOM    109  C   UNL     1       0.207   2.000  12.782  1.00  0.00     0.022 A 
BRANCH 106 110
ATOM    110  S   UNL     1       2.072   0.049  12.204  1.00  0.00     0.124 S 
ATOM    111  O   UNL     1       1.513  -0.873  13.188  1.00  0.00    -0.237 OA
ATOM    112  O   UNL     1       1.432   0.028  10.889  1.00  0.00    -0.237 OA
ATOM    113  O   UNL     1       3.530   0.126  12.175  1.00  0.00    -0.744 OA
ENDBRANCH 106 110
ENDBRANCH  80 103
ENDBRANCH  54  55
ENDBRANCH  46  49
ENDBRANCH  44  45
ENDBRANCH  43  44
ENDBRANCH  42  43
ENDBRANCH   1  42
TORSDOF 22
