REMARK SMILES O=C(CCCNC(=O)COc1ccc2c3c(c(=O)oc2c1)CCC3)NCCCCCCNC(=O)c1ccc(-c2c3nc(c(-c4cc(S(=O)(=O)[O-])ccc4F)c4ccc([nH]4)c(-c4cc(S(=O)(=O)[O-])ccc4F)c4nc(c(-c5cc(S(=O)(=O)[O-])ccc5F)c5ccc2[nH]5)C=C4)C=C3)cc1
REMARK SMILES IDX 27 1 26 2 25 3 1 4 2 5 3 7 4 8 5 9 6 10 7 11 8 13 9 14 10 15
REMARK SMILES IDX 11 16 12 17 21 18 13 19 20 20 14 21 19 22 15 23 17 24 16 25
REMARK SMILES IDX 24 26 18 27 22 28 23 29 28 30 29 31 30 32 31 33 32 34 33 35
REMARK SMILES IDX 34 37 35 38 36 39 97 40 37 41 96 42 38 43 39 44 40 45 90 46
REMARK SMILES IDX 41 47 95 48 89 49 91 50 42 51 94 52 88 53 87 54 43 56 75 57
REMARK SMILES IDX 55 58 74 59 56 60 59 61 73 62 92 63 57 64 58 65 72 67 93 68
REMARK SMILES IDX 60 69 44 70 45 71 53 72 46 73 52 74 54 75 51 76 47 77 48 78
REMARK SMILES IDX 49 79 50 80 76 81 77 82 85 83 78 84 84 85 86 86 83 87 79 88
REMARK SMILES IDX 80 89 81 90 82 91 61 92 62 93 70 94 63 95 69 96 71 97 68 98
REMARK SMILES IDX 64 99 65 100 66 101 67 102
REMARK H PARENT 25 6 6 12 32 36 91 55 59 66
REMARK Flexibility Score: inf
ROOT
ATOM      1  C   UNL     1       2.537   1.028  -3.441  1.00  0.00     0.021 C 
ENDROOT
BRANCH   1   2
ATOM      2  C   UNL     1       1.967  -0.002  -2.465  1.00  0.00     0.116 C 
BRANCH   2   3
ATOM      3  N   UNL     1       2.615   0.107  -1.175  1.00  0.00    -0.356 N 
ATOM      4  O   UNL     1       0.830  -0.479   0.147  1.00  0.00    -0.275 OA
ATOM      5  C   UNL     1       2.002  -0.147   0.025  1.00  0.00     0.220 C 
ATOM      6  H   UNL     1       3.559   0.383  -1.159  1.00  0.00     0.163 HD
BRANCH   5   7
ATOM      7  C   UNL     1       2.935   0.013   1.210  1.00  0.00     0.102 C 
BRANCH   7   8
ATOM      8  C   UNL     1       3.824  -1.212   1.442  1.00  0.00     0.031 C 
BRANCH   8   9
ATOM      9  C   UNL     1       4.830  -1.528   0.332  1.00  0.00     0.116 C 
BRANCH   9  10
ATOM     10  N   UNL     1       5.725  -0.420   0.044  1.00  0.00    -0.353 N 
ATOM     11  C   UNL     1       7.085  -0.374   0.111  1.00  0.00     0.257 C 
ATOM     12  H   UNL     1       5.287   0.415  -0.240  1.00  0.00     0.163 HD
ATOM     13  O   UNL     1       7.648   0.641  -0.306  1.00  0.00    -0.271 OA
BRANCH  11  14
ATOM     14  C   UNL     1       7.880  -1.543   0.697  1.00  0.00     0.329 C 
BRANCH  14  15
ATOM     15  O   UNL     1       7.427  -2.164   1.889  1.00  0.00    -0.484 OA
BRANCH  15  16
ATOM     16  C   UNL     1       7.532  -1.459   3.053  1.00  0.00     0.123 A 
ATOM     17  C   UNL     1       7.703  -2.239   4.203  1.00  0.00     0.047 A 
ATOM     18  C   UNL     1       7.399  -0.080   3.181  1.00  0.00     0.094 A 
ATOM     19  C   UNL     1       7.756  -1.650   5.473  1.00  0.00     0.016 A 
ATOM     20  C   UNL     1       7.432   0.493   4.450  1.00  0.00     0.142 A 
ATOM     21  C   UNL     1       7.611  -0.270   5.605  1.00  0.00     0.021 A 
ATOM     22  O   UNL     1       7.256   1.897   4.512  1.00  0.00    -0.422 OA
ATOM     23  C   UNL     1       7.623   0.433   6.870  1.00  0.00    -0.027 A 
ATOM     24  C   UNL     1       7.264   2.587   5.720  1.00  0.00     0.339 A 
ATOM     25  C   UNL     1       7.466   1.758   6.910  1.00  0.00     0.042 A 
ATOM     26  C   UNL     1       7.798  -0.145   8.229  1.00  0.00     0.037 C 
ATOM     27  O   UNL     1       7.113   3.800   5.791  1.00  0.00    -0.246 OA
ATOM     28  C   UNL     1       7.516   2.296   8.293  1.00  0.00     0.044 C 
ATOM     29  C   UNL     1       7.370   1.021   9.130  1.00  0.00     0.010 C 
ENDBRANCH  15  16
ENDBRANCH  14  15
ENDBRANCH  11  14
ENDBRANCH   9  10
ENDBRANCH   8   9
ENDBRANCH   7   8
ENDBRANCH   5   7
ENDBRANCH   2   3
ENDBRANCH   1   2
BRANCH   1  30
ATOM     30  C   UNL     1       4.048   0.908  -3.707  1.00  0.00     0.002 C 
BRANCH  30  31
ATOM     31  C   UNL     1       4.503  -0.418  -4.322  1.00  0.00     0.002 C 
BRANCH  31  32
ATOM     32  C   UNL     1       3.853  -0.763  -5.662  1.00  0.00     0.021 C 
BRANCH  32  33
ATOM     33  C   UNL     1       4.010   0.301  -6.745  1.00  0.00     0.116 C 
BRANCH  33  34
ATOM     34  N   UNL     1       5.398   0.508  -7.126  1.00  0.00    -0.352 N 
ATOM     35  C   UNL     1       5.956   0.531  -8.381  1.00  0.00     0.251 C 
ATOM     36  H   UNL     1       6.025   0.651  -6.380  1.00  0.00     0.163 HD
ATOM     37  O   UNL     1       7.179   0.540  -8.505  1.00  0.00    -0.269 OA
BRANCH  35  38
ATOM     38  C   UNL     1       5.084   0.510  -9.577  1.00  0.00     0.039 A 
ATOM     39  C   UNL     1       5.404  -0.346 -10.633  1.00  0.00     0.014 A 
ATOM     40  C   UNL     1       3.948   1.322  -9.653  1.00  0.00     0.014 A 
ATOM     41  C   UNL     1       4.548  -0.439 -11.734  1.00  0.00     0.010 A 
ATOM     42  C   UNL     1       3.058   1.172 -10.715  1.00  0.00     0.010 A 
ATOM     43  C   UNL     1       3.347   0.290 -11.767  1.00  0.00    -0.014 A 
BRANCH  43  44
ATOM     44  C   UNL     1       2.382   0.135 -12.890  1.00  0.00     0.031 A 
ATOM     45  C   UNL     1       2.056   1.309 -13.775  1.00  0.00     0.074 A 
ATOM     46  C   UNL     1       1.754  -1.044 -13.073  1.00  0.00     0.049 A 
ATOM     47  N   UNL     1       1.195   1.391 -14.757  1.00  0.00    -0.248 NA
ATOM     48  C   UNL     1       2.775   2.563 -13.502  1.00  0.00     0.031 C 
ATOM     49  C   UNL     1       1.958  -2.245 -12.259  1.00  0.00     0.029 A 
ATOM     50  N   UNL     1       0.812  -1.430 -13.995  1.00  0.00    -0.354 N 
ATOM     51  C   UNL     1       1.255   2.707 -15.207  1.00  0.00     0.074 A 
ATOM     52  C   UNL     1       2.199   3.397 -14.355  1.00  0.00     0.031 C 
ATOM     53  C   UNL     1       1.187  -3.237 -12.734  1.00  0.00     0.029 A 
ATOM     54  C   UNL     1       0.392  -2.734 -13.849  1.00  0.00     0.049 A 
ATOM     55  H   UNL     1       0.468  -0.830 -14.695  1.00  0.00     0.167 HD
ATOM     56  C   UNL     1       0.595   3.279 -16.244  1.00  0.00     0.034 A 
ATOM     57  C   UNL     1      -0.539  -3.438 -14.524  1.00  0.00     0.034 A 
ATOM     58  C   UNL     1      -0.330   2.569 -17.095  1.00  0.00     0.049 A 
ATOM     59  C   UNL     1      -1.281  -2.767 -15.655  1.00  0.00     0.074 A 
ATOM     60  C   UNL     1      -0.994   3.034 -18.218  1.00  0.00     0.029 A 
ATOM     61  N   UNL     1      -0.736   1.254 -16.912  1.00  0.00    -0.354 N 
ATOM     62  N   UNL     1      -1.161  -1.541 -16.110  1.00  0.00    -0.248 NA
ATOM     63  C   UNL     1      -2.276  -3.578 -16.369  1.00  0.00     0.031 C 
ATOM     64  C   UNL     1      -1.862   2.031 -18.660  1.00  0.00     0.029 A 
ATOM     65  C   UNL     1      -1.673   0.906 -17.874  1.00  0.00     0.049 A 
ATOM     66  H   UNL     1      -0.406   0.655 -16.203  1.00  0.00     0.167 HD
ATOM     67  C   UNL     1      -2.038  -1.449 -17.189  1.00  0.00     0.074 A 
ATOM     68  C   UNL     1      -2.666  -2.747 -17.324  1.00  0.00     0.031 C 
ATOM     69  C   UNL     1      -2.297  -0.390 -17.997  1.00  0.00     0.034 A 
BRANCH  56  70
ATOM     70  C   UNL     1       0.822   4.750 -16.497  1.00  0.00     0.023 A 
ATOM     71  C   UNL     1       2.082   5.260 -16.857  1.00  0.00     0.031 A 
ATOM     72  C   UNL     1      -0.244   5.661 -16.378  1.00  0.00     0.131 A 
ATOM     73  C   UNL     1       2.259   6.642 -17.020  1.00  0.00     0.055 A 
ATOM     74  C   UNL     1      -0.080   7.026 -16.622  1.00  0.00     0.041 A 
ATOM     75  F   UNL     1      -1.466   5.239 -16.016  1.00  0.00    -0.206 F 
ATOM     76  C   UNL     1       1.181   7.526 -16.933  1.00  0.00     0.022 A 
BRANCH  73  77
ATOM     77  S   UNL     1       3.944   7.284 -17.216  1.00  0.00     0.124 S 
ATOM     78  O   UNL     1       4.585   6.809 -15.992  1.00  0.00    -0.237 OA
ATOM     79  O   UNL     1       4.381   6.650 -18.454  1.00  0.00    -0.237 OA
ATOM     80  O   UNL     1       3.753   8.731 -17.288  1.00  0.00    -0.744 OA
ENDBRANCH  73  77
ENDBRANCH  56  70
BRANCH  57  81
ATOM     81  C   UNL     1      -0.848  -4.851 -14.150  1.00  0.00     0.023 A 
ATOM     82  C   UNL     1      -0.656  -5.900 -15.064  1.00  0.00     0.031 A 
ATOM     83  C   UNL     1      -1.409  -5.165 -12.899  1.00  0.00     0.131 A 
ATOM     84  C   UNL     1      -1.080  -7.198 -14.741  1.00  0.00     0.055 A 
ATOM     85  C   UNL     1      -1.767  -6.471 -12.557  1.00  0.00     0.041 A 
ATOM     86  F   UNL     1      -1.616  -4.204 -11.986  1.00  0.00    -0.206 F 
ATOM     87  C   UNL     1      -1.620  -7.494 -13.487  1.00  0.00     0.022 A 
BRANCH  84  88
ATOM     88  S   UNL     1      -1.027  -8.474 -16.029  1.00  0.00     0.124 S 
ATOM     89  O   UNL     1      -1.831  -7.864 -17.082  1.00  0.00    -0.237 OA
ATOM     90  O   UNL     1       0.404  -8.579 -16.292  1.00  0.00    -0.237 OA
ATOM     91  O   UNL     1      -1.627  -9.638 -15.380  1.00  0.00    -0.744 OA
ENDBRANCH  84  88
ENDBRANCH  57  81
BRANCH  69  92
ATOM     92  C   UNL     1      -3.264  -0.612 -19.137  1.00  0.00     0.023 A 
ATOM     93  C   UNL     1      -4.622  -0.899 -18.916  1.00  0.00     0.031 A 
ATOM     94  C   UNL     1      -2.812  -0.544 -20.467  1.00  0.00     0.131 A 
ATOM     95  C   UNL     1      -5.467  -1.165 -20.005  1.00  0.00     0.055 A 
ATOM     96  C   UNL     1      -3.672  -0.741 -21.548  1.00  0.00     0.041 A 
ATOM     97  F   UNL     1      -1.524  -0.278 -20.739  1.00  0.00    -0.206 F 
ATOM     98  C   UNL     1      -5.005  -1.067 -21.320  1.00  0.00     0.022 A 
BRANCH  95  99
ATOM     99  S   UNL     1      -7.156  -1.740 -19.678  1.00  0.00     0.124 S 
ATOM    100  O   UNL     1      -6.919  -2.945 -18.890  1.00  0.00    -0.237 OA
ATOM    101  O   UNL     1      -7.737  -0.611 -18.958  1.00  0.00    -0.237 OA
ATOM    102  O   UNL     1      -7.704  -1.971 -21.013  1.00  0.00    -0.744 OA
ENDBRANCH  95  99
ENDBRANCH  69  92
ENDBRANCH  43  44
ENDBRANCH  35  38
ENDBRANCH  33  34
ENDBRANCH  32  33
ENDBRANCH  31  32
ENDBRANCH  30  31
ENDBRANCH   1  30
TORSDOF 22
