REMARK SMILES Cc1n[nH]c2c1[C@@]1(C(=O)N([C@@H](C)C(=O)NCCCCCCNC(=O)c3ccc(-c4c5nc(c(-c6cc(S(=O)(=O)[O-])ccc6F)c6ccc([nH]6)c(-c6cc(S(=O)(=O)[O-])ccc6F)c6nc(c(-c7cc(S(=O)(=O)[O-])ccc7F)c7ccc4[nH]7)C=C6)C=C5)cc3)c3ccccc31)C(C#N)=C(N)O2
REMARK SMILES IDX 19 1 18 2 17 3 16 4 15 5 13 6 14 7 11 9 12 10 10 11 1 12
REMARK SMILES IDX 2 13 3 14 6 15 4 16 5 17 7 18 99 20 8 21 93 22 94 23 97 24
REMARK SMILES IDX 9 25 88 26 92 27 89 28 91 29 90 30 95 31 96 32 98 33 20 36
REMARK SMILES IDX 21 37 22 38 23 39 24 41 25 42 26 43 87 44 27 45 86 46 28 47
REMARK SMILES IDX 29 48 30 49 80 50 31 51 85 52 79 53 81 54 32 55 84 56 78 57
REMARK SMILES IDX 77 58 33 60 65 61 45 62 64 63 46 64 49 65 63 66 82 67 47 68
REMARK SMILES IDX 48 69 62 71 83 72 50 73 34 74 35 75 43 76 36 77 42 78 44 79
REMARK SMILES IDX 41 80 37 81 38 82 39 83 40 84 66 85 67 86 75 87 68 88 74 89
REMARK SMILES IDX 76 90 73 91 69 92 70 93 71 94 72 95 51 96 52 97 60 98 53 99
REMARK SMILES IDX 59 100 61 101 58 102 54 103 55 104 56 105 57 106
REMARK H PARENT 15 8 4 19 98 34 98 35 22 40 81 59 49 70
REMARK Flexibility Score: inf
ROOT
ATOM      1  C   UNL     1       7.102   3.360  -3.244  1.00  0.00     0.002 C 
ENDROOT
BRANCH   1   2
ATOM      2  C   UNL     1       6.037   4.250  -2.599  1.00  0.00     0.002 C 
BRANCH   2   3
ATOM      3  C   UNL     1       5.011   3.491  -1.762  1.00  0.00     0.021 C 
BRANCH   3   4
ATOM      4  C   UNL     1       5.529   2.948  -0.425  1.00  0.00     0.116 C 
BRANCH   4   5
ATOM      5  N   UNL     1       5.221   3.864   0.664  1.00  0.00    -0.354 N 
ATOM      6  C   UNL     1       4.223   3.909   1.586  1.00  0.00     0.242 C 
ATOM      7  O   UNL     1       4.193   4.920   2.303  1.00  0.00    -0.273 OA
ATOM      8  H   UNL     1       5.867   4.601   0.751  1.00  0.00     0.163 HD
BRANCH   6   9
ATOM      9  C   UNL     1       3.115   2.840   1.762  1.00  0.00     0.176 C 
ATOM     10  C   UNL     1       3.593   1.411   1.991  1.00  0.00     0.042 C 
BRANCH   9  11
ATOM     11  N   UNL     1       2.024   2.972   0.798  1.00  0.00    -0.298 N 
ATOM     12  C   UNL     1       0.256  -0.262  -0.103  1.00  0.00     0.069 C 
ATOM     13  C   UNL     1      -0.123   0.392  -1.381  1.00  0.00     0.068 A 
ATOM     14  N   UNL     1      -0.704  -0.332  -2.353  1.00  0.00    -0.177 NA
ATOM     15  C   UNL     1       0.108   1.727  -1.802  1.00  0.00     0.063 A 
ATOM     16  N   UNL     1      -0.732   0.496  -3.414  1.00  0.00    -0.246 N 
ATOM     17  C   UNL     1      -0.254   1.733  -3.124  1.00  0.00     0.222 A 
ATOM     18  C   UNL     1       0.773   2.929  -1.217  1.00  0.00     0.149 C 
ATOM     19  H   UNL     1      -1.063   0.234  -4.303  1.00  0.00     0.193 HD
ATOM     20  O   UNL     1      -0.092   2.704  -4.011  1.00  0.00    -0.422 OA
ATOM     21  C   UNL     1       2.069   2.504  -0.515  1.00  0.00     0.248 C 
ATOM     22  C   UNL     1      -0.065   3.411  -0.063  1.00  0.00     0.002 A 
ATOM     23  C   UNL     1       1.025   3.994  -2.285  1.00  0.00     0.114 C 
ATOM     24  C   UNL     1       0.596   3.849  -3.572  1.00  0.00     0.208 C 
ATOM     25  O   UNL     1       2.937   1.799  -1.016  1.00  0.00    -0.273 OA
ATOM     26  C   UNL     1       0.736   3.471   1.088  1.00  0.00     0.050 A 
ATOM     27  C   UNL     1      -1.404   3.782  -0.034  1.00  0.00     0.008 A 
ATOM     28  C   UNL     1       0.212   3.913   2.290  1.00  0.00     0.027 A 
ATOM     29  C   UNL     1      -1.943   4.205   1.180  1.00  0.00     0.001 A 
ATOM     30  C   UNL     1      -1.141   4.274   2.330  1.00  0.00     0.002 A 
BRANCH  23  31
ATOM     31  C   UNL     1       1.722   5.298  -1.931  1.00  0.00     0.102 C 
ATOM     32  N   UNL     1       2.299   6.380  -1.637  1.00  0.00    -0.193 NA
ENDBRANCH  23  31
BRANCH  24  33
ATOM     33  N   UNL     1       0.761   4.766  -4.569  1.00  0.00    -0.369 N 
ATOM     34  H   UNL     1       1.229   5.613  -4.386  1.00  0.00     0.159 HD
ATOM     35  H   UNL     1       0.412   4.581  -5.471  1.00  0.00     0.159 HD
ENDBRANCH  24  33
ENDBRANCH   9  11
ENDBRANCH   6   9
ENDBRANCH   4   5
ENDBRANCH   3   4
ENDBRANCH   2   3
ENDBRANCH   1   2
BRANCH   1  36
ATOM     36  C   UNL     1       6.578   2.210  -4.113  1.00  0.00     0.021 C 
BRANCH  36  37
ATOM     37  C   UNL     1       5.638   2.623  -5.248  1.00  0.00     0.116 C 
BRANCH  37  38
ATOM     38  N   UNL     1       6.215   3.544  -6.209  1.00  0.00    -0.352 N 
ATOM     39  C   UNL     1       7.125   3.426  -7.228  1.00  0.00     0.251 C 
ATOM     40  H   UNL     1       5.877   4.463  -6.105  1.00  0.00     0.163 HD
ATOM     41  O   UNL     1       7.324   4.443  -7.898  1.00  0.00    -0.269 OA
BRANCH  39  42
ATOM     42  C   UNL     1       7.910   2.196  -7.530  1.00  0.00     0.039 A 
ATOM     43  C   UNL     1       7.631   0.927  -7.028  1.00  0.00     0.014 A 
ATOM     44  C   UNL     1       9.030   2.344  -8.371  1.00  0.00     0.014 A 
ATOM     45  C   UNL     1       8.510  -0.128  -7.245  1.00  0.00     0.010 A 
ATOM     46  C   UNL     1       9.887   1.273  -8.636  1.00  0.00     0.010 A 
ATOM     47  C   UNL     1       9.655   0.042  -8.030  1.00  0.00    -0.014 A 
BRANCH  47  48
ATOM     48  C   UNL     1      10.517  -1.131  -8.184  1.00  0.00     0.031 A 
ATOM     49  C   UNL     1       9.870  -2.370  -8.710  1.00  0.00     0.074 A 
ATOM     50  C   UNL     1      11.838  -1.164  -7.925  1.00  0.00     0.049 A 
ATOM     51  N   UNL     1       9.681  -3.502  -8.109  1.00  0.00    -0.248 NA
ATOM     52  C   UNL     1       9.301  -2.303 -10.061  1.00  0.00     0.031 C 
ATOM     53  C   UNL     1      12.764  -0.048  -7.734  1.00  0.00     0.029 A 
ATOM     54  N   UNL     1      12.648  -2.261  -7.867  1.00  0.00    -0.354 N 
ATOM     55  C   UNL     1       9.085  -4.349  -9.047  1.00  0.00     0.074 A 
ATOM     56  C   UNL     1       8.790  -3.527 -10.197  1.00  0.00     0.031 C 
ATOM     57  C   UNL     1      14.032  -0.513  -7.806  1.00  0.00     0.029 A 
ATOM     58  C   UNL     1      13.997  -1.965  -7.880  1.00  0.00     0.049 A 
ATOM     59  H   UNL     1      12.302  -3.182  -7.820  1.00  0.00     0.167 HD
ATOM     60  C   UNL     1       8.974  -5.698  -8.870  1.00  0.00     0.034 A 
ATOM     61  C   UNL     1      15.014  -2.845  -8.023  1.00  0.00     0.034 A 
ATOM     62  C   UNL     1       9.233  -6.088  -7.514  1.00  0.00     0.049 A 
ATOM     63  C   UNL     1      14.533  -4.204  -7.683  1.00  0.00     0.074 A 
ATOM     64  C   UNL     1       8.610  -5.888  -6.300  1.00  0.00     0.029 A 
ATOM     65  N   UNL     1      10.467  -6.609  -7.220  1.00  0.00    -0.354 N 
ATOM     66  N   UNL     1      14.236  -4.613  -6.481  1.00  0.00    -0.248 NA
ATOM     67  C   UNL     1      14.053  -5.052  -8.762  1.00  0.00     0.031 C 
ATOM     68  C   UNL     1       9.658  -5.878  -5.337  1.00  0.00     0.029 A 
ATOM     69  C   UNL     1      10.861  -6.075  -6.020  1.00  0.00     0.049 A 
ATOM     70  H   UNL     1      10.976  -7.247  -7.770  1.00  0.00     0.167 HD
ATOM     71  C   UNL     1      13.190  -5.504  -6.659  1.00  0.00     0.074 A 
ATOM     72  C   UNL     1      13.226  -5.844  -8.077  1.00  0.00     0.031 C 
ATOM     73  C   UNL     1      12.221  -5.673  -5.709  1.00  0.00     0.034 A 
BRANCH  60  74
ATOM     74  C   UNL     1       8.838  -6.711  -9.982  1.00  0.00     0.023 A 
ATOM     75  C   UNL     1       9.160  -6.415 -11.318  1.00  0.00     0.031 A 
ATOM     76  C   UNL     1       8.568  -8.068  -9.700  1.00  0.00     0.131 A 
ATOM     77  C   UNL     1       9.157  -7.406 -12.310  1.00  0.00     0.055 A 
ATOM     78  C   UNL     1       8.634  -9.070 -10.678  1.00  0.00     0.041 A 
ATOM     79  F   UNL     1       8.274  -8.473  -8.454  1.00  0.00    -0.206 F 
ATOM     80  C   UNL     1       8.922  -8.740 -11.995  1.00  0.00     0.022 A 
BRANCH  77  81
ATOM     81  S   UNL     1       9.443  -6.964 -14.046  1.00  0.00     0.124 S 
ATOM     82  O   UNL     1      10.705  -7.641 -14.323  1.00  0.00    -0.237 OA
ATOM     83  O   UNL     1       8.264  -7.529 -14.697  1.00  0.00    -0.237 OA
ATOM     84  O   UNL     1       9.492  -5.505 -14.019  1.00  0.00    -0.744 OA
ENDBRANCH  77  81
ENDBRANCH  60  74
BRANCH  61  85
ATOM     85  C   UNL     1      16.230  -2.623  -8.833  1.00  0.00     0.023 A 
ATOM     86  C   UNL     1      16.162  -1.806  -9.978  1.00  0.00     0.031 A 
ATOM     87  C   UNL     1      17.375  -3.416  -8.668  1.00  0.00     0.131 A 
ATOM     88  C   UNL     1      17.190  -1.823 -10.927  1.00  0.00     0.055 A 
ATOM     89  C   UNL     1      18.408  -3.424  -9.611  1.00  0.00     0.041 A 
ATOM     90  F   UNL     1      17.485  -4.242  -7.616  1.00  0.00    -0.206 F 
ATOM     91  C   UNL     1      18.314  -2.632 -10.754  1.00  0.00     0.022 A 
BRANCH  88  92
ATOM     92  S   UNL     1      17.055  -0.828 -12.437  1.00  0.00     0.124 S 
ATOM     93  O   UNL     1      18.390  -0.243 -12.545  1.00  0.00    -0.237 OA
ATOM     94  O   UNL     1      16.730  -1.842 -13.433  1.00  0.00    -0.237 OA
ATOM     95  O   UNL     1      15.992   0.123 -12.125  1.00  0.00    -0.744 OA
ENDBRANCH  88  92
ENDBRANCH  61  85
BRANCH  73  96
ATOM     96  C   UNL     1      12.448  -5.128  -4.314  1.00  0.00     0.023 A 
ATOM     97  C   UNL     1      12.148  -5.969  -3.223  1.00  0.00     0.031 A 
ATOM     98  C   UNL     1      12.729  -3.778  -4.032  1.00  0.00     0.131 A 
ATOM     99  C   UNL     1      12.110  -5.455  -1.920  1.00  0.00     0.055 A 
ATOM    100  C   UNL     1      12.763  -3.287  -2.723  1.00  0.00     0.041 A 
ATOM    101  F   UNL     1      12.889  -2.876  -5.010  1.00  0.00    -0.206 F 
ATOM    102  C   UNL     1      12.437  -4.122  -1.660  1.00  0.00     0.022 A 
BRANCH  99 103
ATOM    103  S   UNL     1      11.474  -6.457  -0.549  1.00  0.00     0.124 S 
ATOM    104  O   UNL     1      12.659  -6.628   0.285  1.00  0.00    -0.237 OA
ATOM    105  O   UNL     1      10.434  -5.595   0.011  1.00  0.00    -0.237 OA
ATOM    106  O   UNL     1      10.983  -7.671  -1.196  1.00  0.00    -0.744 OA
ENDBRANCH  99 103
ENDBRANCH  73  96
ENDBRANCH  47  48
ENDBRANCH  39  42
ENDBRANCH  37  38
ENDBRANCH  36  37
ENDBRANCH   1  36
TORSDOF 19
