REMARK SMILES C[C@@H]([C@H]1CC=CS1)n1nccc1NC(=O)CC1(CC(=O)NCCCCCCNC(=O)c2ccc(-c3c4nc(c(-c5cc(S(=O)(=O)[O-])ccc5F)c5ccc([nH]5)c(-c5cc(S(=O)(=O)[O-])ccc5F)c5nc(c(-c6cc(S(=O)(=O)[O-])ccc6F)c6ccc3[nH]6)C=C5)C=C4)cc2)CCCCC1
REMARK SMILES IDX 23 1 22 2 21 3 19 4 20 5 18 7 17 8 94 9 98 10 95 11 97 12
REMARK SMILES IDX 96 13 16 14 14 15 13 16 15 18 12 19 8 20 9 21 10 22 11 23
REMARK SMILES IDX 2 24 1 25 3 26 4 27 7 28 5 29 6 30 24 31 25 32 26 33 27 34
REMARK SMILES IDX 28 35 29 36 30 38 31 39 32 40 93 41 33 42 92 43 34 44 35 45
REMARK SMILES IDX 36 46 86 47 37 48 91 49 85 50 87 51 38 52 90 53 84 54 83 55
REMARK SMILES IDX 39 57 71 58 51 59 70 60 52 61 55 62 69 63 88 64 53 65 54 66
REMARK SMILES IDX 68 68 89 69 56 70 40 71 41 72 49 73 42 74 48 75 50 76 47 77
REMARK SMILES IDX 43 78 44 79 45 80 46 81 72 82 73 83 81 84 74 85 80 86 82 87
REMARK SMILES IDX 79 88 75 89 76 90 77 91 78 92 57 93 58 94 66 95 59 96 65 97
REMARK SMILES IDX 67 98 64 99 60 100 61 101 62 102 63 103
REMARK H PARENT 21 6 13 17 28 37 87 56 55 67
REMARK Flexibility Score: inf
ROOT
ATOM      1  C   UNL     1       1.831  -5.893  -3.735  1.00  0.00     0.021 C 
ENDROOT
BRANCH   1   2
ATOM      2  C   UNL     1       3.040  -4.958  -3.725  1.00  0.00     0.116 C 
BRANCH   2   3
ATOM      3  N   UNL     1       2.647  -3.589  -3.959  1.00  0.00    -0.356 N 
ATOM      4  C   UNL     1       2.727  -2.517  -3.135  1.00  0.00     0.220 C 
ATOM      5  O   UNL     1       2.399  -1.416  -3.576  1.00  0.00    -0.275 OA
ATOM      6  H   UNL     1       2.265  -3.408  -4.848  1.00  0.00     0.163 HD
BRANCH   4   7
ATOM      7  C   UNL     1       3.234  -2.651  -1.706  1.00  0.00     0.107 C 
BRANCH   7   8
ATOM      8  C   UNL     1       2.245  -3.113  -0.590  1.00  0.00    -0.012 C 
ATOM      9  C   UNL     1       2.853  -2.677   0.773  1.00  0.00     0.008 C 
ATOM     10  C   UNL     1       2.071  -4.654  -0.480  1.00  0.00     0.008 C 
ATOM     11  C   UNL     1       4.116  -3.427   1.200  1.00  0.00     0.001 C 
ATOM     12  C   UNL     1       3.326  -5.427  -0.076  1.00  0.00     0.001 C 
ATOM     13  C   UNL     1       3.866  -4.928   1.253  1.00  0.00     0.000 C 
BRANCH   8  14
ATOM     14  C   UNL     1       0.802  -2.552  -0.827  1.00  0.00     0.108 C 
BRANCH  14  15
ATOM     15  C   UNL     1       0.586  -1.057  -0.772  1.00  0.00     0.226 C 
ATOM     16  N   UNL     1       0.647  -0.322   0.450  1.00  0.00    -0.311 N 
ATOM     17  H   UNL     1       0.747   0.653   0.354  1.00  0.00     0.171 HD
ATOM     18  O   UNL     1       0.391  -0.366  -1.749  1.00  0.00    -0.275 OA
BRANCH  16  19
ATOM     19  C   UNL     1       0.584  -0.788   1.748  1.00  0.00     0.131 A 
ATOM     20  N   UNL     1       1.129  -0.188   2.865  1.00  0.00    -0.246 N 
ATOM     21  N   UNL     1       1.121  -0.997   3.945  1.00  0.00    -0.179 NA
ATOM     22  C   UNL     1       0.365  -2.027   3.564  1.00  0.00     0.137 A 
ATOM     23  C   UNL     1      -0.060  -1.908   2.227  1.00  0.00     0.068 A 
BRANCH  20  24
ATOM     24  C   UNL     1       1.659   1.170   3.030  1.00  0.00     0.120 C 
ATOM     25  C   UNL     1       3.171   1.213   2.794  1.00  0.00     0.034 C 
BRANCH  24  26
ATOM     26  C   UNL     1       0.808   2.194   2.257  1.00  0.00     0.079 C 
ATOM     27  C   UNL     1       0.599   3.524   2.991  1.00  0.00     0.045 C 
ATOM     28  S   UNL     1       1.419   2.703   0.590  1.00  0.00    -0.128 SA
ATOM     29  C   UNL     1       0.213   4.524   1.941  1.00  0.00    -0.019 C 
ATOM     30  C   UNL     1       0.586   4.215   0.695  1.00  0.00     0.037 C 
ENDBRANCH  24  26
ENDBRANCH  20  24
ENDBRANCH  16  19
ENDBRANCH  14  15
ENDBRANCH   8  14
ENDBRANCH   7   8
ENDBRANCH   4   7
ENDBRANCH   2   3
ENDBRANCH   1   2
BRANCH   1  31
ATOM     31  C   UNL     1       1.631  -6.626  -5.056  1.00  0.00     0.002 C 
BRANCH  31  32
ATOM     32  C   UNL     1       2.818  -7.496  -5.489  1.00  0.00     0.002 C 
BRANCH  32  33
ATOM     33  C   UNL     1       3.326  -8.507  -4.448  1.00  0.00     0.021 C 
BRANCH  33  34
ATOM     34  C   UNL     1       2.308  -9.588  -4.105  1.00  0.00     0.116 C 
BRANCH  34  35
ATOM     35  N   UNL     1       1.958 -10.368  -5.285  1.00  0.00    -0.352 N 
ATOM     36  C   UNL     1       1.051 -11.390  -5.424  1.00  0.00     0.251 C 
ATOM     37  H   UNL     1       2.446 -10.127  -6.105  1.00  0.00     0.163 HD
ATOM     38  O   UNL     1       1.140 -12.148  -6.386  1.00  0.00    -0.269 OA
BRANCH  36  39
ATOM     39  C   UNL     1      -0.012 -11.576  -4.421  1.00  0.00     0.039 A 
ATOM     40  C   UNL     1      -0.400 -12.868  -4.051  1.00  0.00     0.014 A 
ATOM     41  C   UNL     1      -0.643 -10.461  -3.869  1.00  0.00     0.014 A 
ATOM     42  C   UNL     1      -1.373 -13.029  -3.070  1.00  0.00     0.010 A 
ATOM     43  C   UNL     1      -1.537 -10.617  -2.833  1.00  0.00     0.010 A 
ATOM     44  C   UNL     1      -1.926 -11.898  -2.450  1.00  0.00    -0.014 A 
BRANCH  44  45
ATOM     45  C   UNL     1      -2.756 -12.047  -1.256  1.00  0.00     0.031 A 
ATOM     46  C   UNL     1      -2.060 -12.745  -0.144  1.00  0.00     0.074 A 
ATOM     47  C   UNL     1      -3.922 -11.396  -1.062  1.00  0.00     0.049 A 
ATOM     48  N   UNL     1      -2.278 -13.936   0.302  1.00  0.00    -0.248 NA
ATOM     49  C   UNL     1      -0.841 -12.124   0.405  1.00  0.00     0.031 C 
ATOM     50  C   UNL     1      -4.558 -10.432  -1.964  1.00  0.00     0.029 A 
ATOM     51  N   UNL     1      -4.727 -11.355   0.039  1.00  0.00    -0.354 N 
ATOM     52  C   UNL     1      -1.428 -14.082   1.394  1.00  0.00     0.074 A 
ATOM     53  C   UNL     1      -0.406 -13.089   1.217  1.00  0.00     0.031 C 
ATOM     54  C   UNL     1      -5.500  -9.738  -1.289  1.00  0.00     0.029 A 
ATOM     55  C   UNL     1      -5.636 -10.297   0.046  1.00  0.00     0.049 A 
ATOM     56  H   UNL     1      -4.670 -12.015   0.766  1.00  0.00     0.167 HD
ATOM     57  C   UNL     1      -1.835 -14.760   2.504  1.00  0.00     0.034 A 
ATOM     58  C   UNL     1      -6.417  -9.876   1.081  1.00  0.00     0.034 A 
ATOM     59  C   UNL     1      -3.003 -15.575   2.204  1.00  0.00     0.049 A 
ATOM     60  C   UNL     1      -6.546 -11.023   2.013  1.00  0.00     0.074 A 
ATOM     61  C   UNL     1      -3.303 -16.521   1.239  1.00  0.00     0.029 A 
ATOM     62  N   UNL     1      -4.225 -15.186   2.714  1.00  0.00    -0.354 N 
ATOM     63  N   UNL     1      -7.162 -12.129   1.701  1.00  0.00    -0.248 NA
ATOM     64  C   UNL     1      -5.587 -11.139   3.101  1.00  0.00     0.031 C 
ATOM     65  C   UNL     1      -4.657 -16.256   0.870  1.00  0.00     0.029 A 
ATOM     66  C   UNL     1      -5.143 -15.244   1.697  1.00  0.00     0.049 A 
ATOM     67  H   UNL     1      -4.406 -14.915   3.643  1.00  0.00     0.167 HD
ATOM     68  C   UNL     1      -6.360 -13.139   2.209  1.00  0.00     0.074 A 
ATOM     69  C   UNL     1      -5.472 -12.469   3.158  1.00  0.00     0.031 C 
ATOM     70  C   UNL     1      -6.290 -14.360   1.597  1.00  0.00     0.034 A 
BRANCH  57  71
ATOM     71  C   UNL     1      -1.496 -14.344   3.932  1.00  0.00     0.023 A 
ATOM     72  C   UNL     1      -2.138 -15.070   4.951  1.00  0.00     0.031 A 
ATOM     73  C   UNL     1      -0.894 -13.132   4.343  1.00  0.00     0.131 A 
ATOM     74  C   UNL     1      -2.359 -14.498   6.214  1.00  0.00     0.055 A 
ATOM     75  C   UNL     1      -1.047 -12.605   5.630  1.00  0.00     0.041 A 
ATOM     76  F   UNL     1      -0.183 -12.347   3.529  1.00  0.00    -0.206 F 
ATOM     77  C   UNL     1      -1.829 -13.262   6.560  1.00  0.00     0.022 A 
BRANCH  74  78
ATOM     78  S   UNL     1      -3.568 -15.303   7.292  1.00  0.00     0.124 S 
ATOM     79  O   UNL     1      -4.737 -15.323   6.419  1.00  0.00    -0.237 OA
ATOM     80  O   UNL     1      -2.928 -16.588   7.548  1.00  0.00    -0.237 OA
ATOM     81  O   UNL     1      -3.648 -14.400   8.437  1.00  0.00    -0.744 OA
ENDBRANCH  74  78
ENDBRANCH  57  71
BRANCH  58  82
ATOM     82  C   UNL     1      -6.821  -8.480   1.423  1.00  0.00     0.023 A 
ATOM     83  C   UNL     1      -7.869  -8.177   2.322  1.00  0.00     0.031 A 
ATOM     84  C   UNL     1      -5.996  -7.398   1.037  1.00  0.00     0.131 A 
ATOM     85  C   UNL     1      -8.052  -6.851   2.790  1.00  0.00     0.055 A 
ATOM     86  C   UNL     1      -6.186  -6.092   1.495  1.00  0.00     0.041 A 
ATOM     87  F   UNL     1      -4.912  -7.585   0.268  1.00  0.00    -0.206 F 
ATOM     88  C   UNL     1      -7.210  -5.814   2.383  1.00  0.00     0.022 A 
BRANCH  85  89
ATOM     89  S   UNL     1      -9.332  -6.459   4.032  1.00  0.00     0.124 S 
ATOM     90  O   UNL     1     -10.562  -6.595   3.263  1.00  0.00    -0.237 OA
ATOM     91  O   UNL     1      -9.088  -7.462   5.061  1.00  0.00    -0.237 OA
ATOM     92  O   UNL     1      -9.006  -5.088   4.430  1.00  0.00    -0.744 OA
ENDBRANCH  85  89
ENDBRANCH  58  82
BRANCH  70  93
ATOM     93  C   UNL     1      -7.365 -14.735   0.598  1.00  0.00     0.023 A 
ATOM     94  C   UNL     1      -7.718 -13.983  -0.545  1.00  0.00     0.031 A 
ATOM     95  C   UNL     1      -8.000 -15.977   0.780  1.00  0.00     0.131 A 
ATOM     96  C   UNL     1      -8.690 -14.474  -1.440  1.00  0.00     0.055 A 
ATOM     97  C   UNL     1      -8.944 -16.470  -0.119  1.00  0.00     0.041 A 
ATOM     98  F   UNL     1      -7.691 -16.754   1.831  1.00  0.00    -0.206 F 
ATOM     99  C   UNL     1      -9.299 -15.715  -1.230  1.00  0.00     0.022 A 
BRANCH  96 100
ATOM    100  S   UNL     1      -9.205 -13.491  -2.886  1.00  0.00     0.124 S 
ATOM    101  O   UNL     1      -9.375 -12.147  -2.346  1.00  0.00    -0.237 OA
ATOM    102  O   UNL     1      -8.084 -13.672  -3.804  1.00  0.00    -0.237 OA
ATOM    103  O   UNL     1     -10.448 -14.139  -3.310  1.00  0.00    -0.744 OA
ENDBRANCH  96 100
ENDBRANCH  70  93
ENDBRANCH  44  45
ENDBRANCH  36  39
ENDBRANCH  34  35
ENDBRANCH  33  34
ENDBRANCH  32  33
ENDBRANCH  31  32
ENDBRANCH   1  31
TORSDOF 22
