REMARK SMILES O=C(CC1(CC(=O)Nc2ccc3ccccc3n2)CCCCC1)NCCCCCCNC(=O)c1ccc(-c2c3nc(c(-c4cc(S(=O)(=O)[O-])ccc4F)c4ccc([nH]4)c(-c4cc(S(=O)(=O)[O-])ccc4F)c4nc(c(-c5cc(S(=O)(=O)[O-])ccc5F)c5ccc2[nH]5)C=C4)C=C3)cc1
REMARK SMILES IDX 27 1 26 2 25 3 24 4 1 5 2 6 3 8 4 9 19 10 23 11 20 12 22 13
REMARK SMILES IDX 21 14 5 15 6 16 7 17 8 18 9 20 10 21 18 22 11 23 17 24 12 25
REMARK SMILES IDX 16 26 13 27 15 28 14 29 28 30 29 31 30 32 31 33 32 34 33 36
REMARK SMILES IDX 34 37 35 38 96 39 36 40 95 41 37 42 38 43 39 44 89 45 40 46
REMARK SMILES IDX 94 47 88 48 90 49 41 50 93 51 87 52 86 53 42 55 74 56 54 57
REMARK SMILES IDX 73 58 55 59 58 60 72 61 91 62 56 63 57 64 71 66 92 67 59 68
REMARK SMILES IDX 43 69 44 70 52 71 45 72 51 73 53 74 50 75 46 76 47 77 48 78
REMARK SMILES IDX 49 79 75 80 76 81 84 82 77 83 83 84 85 85 82 86 78 87 79 88
REMARK SMILES IDX 80 89 81 90 60 91 61 92 69 93 62 94 68 95 70 96 67 97 63 98
REMARK SMILES IDX 64 99 65 100 66 101
REMARK H PARENT 24 7 8 19 31 35 90 54 58 65
REMARK Flexibility Score: inf
ROOT
ATOM      1  C   UNL     1       4.036  -2.135  -3.291  1.00  0.00     0.002 C 
ENDROOT
BRANCH   1   2
ATOM      2  C   UNL     1       2.564  -1.738  -3.130  1.00  0.00     0.021 C 
BRANCH   2   3
ATOM      3  C   UNL     1       2.095  -1.495  -1.694  1.00  0.00     0.116 C 
BRANCH   3   4
ATOM      4  N   UNL     1       2.764  -0.377  -1.056  1.00  0.00    -0.356 N 
ATOM      5  O   UNL     1       1.072   0.083   0.423  1.00  0.00    -0.275 OA
ATOM      6  C   UNL     1       2.222   0.267   0.029  1.00  0.00     0.220 C 
ATOM      7  H   UNL     1       3.630  -0.071  -1.411  1.00  0.00     0.163 HD
BRANCH   6   8
ATOM      8  C   UNL     1       3.161   1.234   0.749  1.00  0.00     0.107 C 
BRANCH   8   9
ATOM      9  C   UNL     1       3.980   0.629   1.936  1.00  0.00    -0.012 C 
ATOM     10  C   UNL     1       4.333   1.788   2.931  1.00  0.00     0.008 C 
ATOM     11  C   UNL     1       3.115  -0.300   2.791  1.00  0.00     0.008 C 
ATOM     12  C   UNL     1       5.016   1.322   4.230  1.00  0.00     0.001 C 
ATOM     13  C   UNL     1       3.885  -0.934   3.948  1.00  0.00     0.001 C 
ATOM     14  C   UNL     1       4.327   0.143   4.920  1.00  0.00     0.000 C 
BRANCH   9  15
ATOM     15  C   UNL     1       5.305  -0.028   1.443  1.00  0.00     0.108 C 
BRANCH  15  16
ATOM     16  C   UNL     1       5.392  -0.993   0.257  1.00  0.00     0.226 C 
ATOM     17  O   UNL     1       5.609  -0.518  -0.865  1.00  0.00    -0.275 OA
ATOM     18  N   UNL     1       5.528  -2.341   0.435  1.00  0.00    -0.311 N 
ATOM     19  H   UNL     1       6.273  -2.761  -0.053  1.00  0.00     0.171 HD
BRANCH  18  20
ATOM     20  C   UNL     1       4.757  -3.209   1.216  1.00  0.00     0.133 A 
ATOM     21  C   UNL     1       5.319  -4.396   1.648  1.00  0.00     0.048 A 
ATOM     22  N   UNL     1       3.480  -2.909   1.475  1.00  0.00    -0.231 NA
ATOM     23  C   UNL     1       4.618  -5.158   2.584  1.00  0.00     0.014 A 
ATOM     24  C   UNL     1       2.783  -3.642   2.372  1.00  0.00     0.073 A 
ATOM     25  C   UNL     1       3.360  -4.734   3.032  1.00  0.00     0.000 A 
ATOM     26  C   UNL     1       1.503  -3.243   2.759  1.00  0.00     0.029 A 
ATOM     27  C   UNL     1       2.703  -5.316   4.135  1.00  0.00     0.010 A 
ATOM     28  C   UNL     1       0.875  -3.773   3.886  1.00  0.00     0.002 A 
ATOM     29  C   UNL     1       1.490  -4.798   4.591  1.00  0.00     0.001 A 
ENDBRANCH  18  20
ENDBRANCH  15  16
ENDBRANCH   9  15
ENDBRANCH   8   9
ENDBRANCH   6   8
ENDBRANCH   3   4
ENDBRANCH   2   3
ENDBRANCH   1   2
BRANCH   1  30
ATOM     30  C   UNL     1       4.433  -3.470  -2.656  1.00  0.00     0.002 C 
BRANCH  30  31
ATOM     31  C   UNL     1       3.796  -4.710  -3.278  1.00  0.00     0.021 C 
BRANCH  31  32
ATOM     32  C   UNL     1       4.026  -4.873  -4.774  1.00  0.00     0.116 C 
BRANCH  32  33
ATOM     33  N   UNL     1       5.429  -5.059  -5.117  1.00  0.00    -0.352 N 
ATOM     34  C   UNL     1       5.988  -5.993  -5.959  1.00  0.00     0.251 C 
ATOM     35  H   UNL     1       6.060  -4.436  -4.690  1.00  0.00     0.163 HD
ATOM     36  O   UNL     1       7.209  -6.112  -6.024  1.00  0.00    -0.269 OA
BRANCH  34  37
ATOM     37  C   UNL     1       5.103  -6.875  -6.753  1.00  0.00     0.039 A 
ATOM     38  C   UNL     1       5.344  -8.250  -6.769  1.00  0.00     0.014 A 
ATOM     39  C   UNL     1       4.009  -6.345  -7.442  1.00  0.00     0.014 A 
ATOM     40  C   UNL     1       4.442  -9.104  -7.412  1.00  0.00     0.010 A 
ATOM     41  C   UNL     1       3.071  -7.202  -8.011  1.00  0.00     0.010 A 
ATOM     42  C   UNL     1       3.275  -8.591  -8.002  1.00  0.00    -0.014 A 
BRANCH  42  43
ATOM     43  C   UNL     1       2.257  -9.476  -8.630  1.00  0.00     0.031 A 
ATOM     44  C   UNL     1       1.955  -9.334 -10.099  1.00  0.00     0.074 A 
ATOM     45  C   UNL     1       1.548 -10.338  -7.872  1.00  0.00     0.049 A 
ATOM     46  N   UNL     1       1.014  -9.900 -10.810  1.00  0.00    -0.248 NA
ATOM     47  C   UNL     1       2.807  -8.407 -10.862  1.00  0.00     0.031 C 
ATOM     48  C   UNL     1       1.727 -10.547  -6.433  1.00  0.00     0.029 A 
ATOM     49  N   UNL     1       0.520 -11.189  -8.201  1.00  0.00    -0.354 N 
ATOM     50  C   UNL     1       1.142  -9.378 -12.093  1.00  0.00     0.074 A 
ATOM     51  C   UNL     1       2.222  -8.416 -12.050  1.00  0.00     0.031 C 
ATOM     52  C   UNL     1       0.852 -11.474  -6.009  1.00  0.00     0.029 A 
ATOM     53  C   UNL     1       0.011 -11.888  -7.128  1.00  0.00     0.049 A 
ATOM     54  H   UNL     1       0.179 -11.290  -9.118  1.00  0.00     0.167 HD
ATOM     55  C   UNL     1       0.433  -9.685 -13.207  1.00  0.00     0.034 A 
ATOM     56  C   UNL     1      -1.028 -12.745  -7.051  1.00  0.00     0.034 A 
ATOM     57  C   UNL     1      -0.618 -10.671 -13.241  1.00  0.00     0.049 A 
ATOM     58  C   UNL     1      -1.812 -13.054  -8.305  1.00  0.00     0.074 A 
ATOM     59  C   UNL     1      -1.350 -11.107 -14.332  1.00  0.00     0.029 A 
ATOM     60  N   UNL     1      -1.090 -11.371 -12.140  1.00  0.00    -0.354 N 
ATOM     61  N   UNL     1      -1.642 -12.588  -9.522  1.00  0.00    -0.248 NA
ATOM     62  C   UNL     1      -2.920 -14.011  -8.181  1.00  0.00     0.031 C 
ATOM     63  C   UNL     1      -2.310 -12.017 -13.880  1.00  0.00     0.029 A 
ATOM     64  C   UNL     1      -2.123 -12.212 -12.521  1.00  0.00     0.049 A 
ATOM     65  H   UNL     1      -0.743 -11.282 -11.223  1.00  0.00     0.167 HD
ATOM     66  C   UNL     1      -2.591 -13.234 -10.311  1.00  0.00     0.074 A 
ATOM     67  C   UNL     1      -3.324 -14.125  -9.437  1.00  0.00     0.031 C 
ATOM     68  C   UNL     1      -2.832 -13.108 -11.640  1.00  0.00     0.034 A 
BRANCH  55  69
ATOM     69  C   UNL     1       0.751  -8.932 -14.475  1.00  0.00     0.023 A 
ATOM     70  C   UNL     1       1.994  -9.054 -15.119  1.00  0.00     0.031 A 
ATOM     71  C   UNL     1      -0.213  -8.090 -15.057  1.00  0.00     0.131 A 
ATOM     72  C   UNL     1       2.259  -8.306 -16.276  1.00  0.00     0.055 A 
ATOM     73  C   UNL     1       0.029  -7.406 -16.249  1.00  0.00     0.041 A 
ATOM     74  F   UNL     1      -1.411  -7.918 -14.475  1.00  0.00    -0.206 F 
ATOM     75  C   UNL     1       1.276  -7.504 -16.860  1.00  0.00     0.022 A 
BRANCH  72  76
ATOM     76  S   UNL     1       3.943  -8.311 -16.947  1.00  0.00     0.124 S 
ATOM     77  O   UNL     1       4.706  -7.752 -15.833  1.00  0.00    -0.237 OA
ATOM     78  O   UNL     1       4.168  -9.724 -17.228  1.00  0.00    -0.237 OA
ATOM     79  O   UNL     1       3.847  -7.449 -18.123  1.00  0.00    -0.744 OA
ENDBRANCH  72  76
ENDBRANCH  55  69
BRANCH  56  80
ATOM     80  C   UNL     1      -1.421 -13.363  -5.748  1.00  0.00     0.023 A 
ATOM     81  C   UNL     1      -1.400 -14.757  -5.577  1.00  0.00     0.031 A 
ATOM     82  C   UNL     1      -1.907 -12.579  -4.686  1.00  0.00     0.131 A 
ATOM     83  C   UNL     1      -1.924 -15.328  -4.406  1.00  0.00     0.055 A 
ATOM     84  C   UNL     1      -2.363 -13.148  -3.495  1.00  0.00     0.041 A 
ATOM     85  F   UNL     1      -1.949 -11.241  -4.792  1.00  0.00    -0.206 F 
ATOM     86  C   UNL     1      -2.392 -14.533  -3.358  1.00  0.00     0.022 A 
BRANCH  83  87
ATOM     87  S   UNL     1      -2.107 -17.131  -4.329  1.00  0.00     0.124 S 
ATOM     88  O   UNL     1      -2.903 -17.398  -5.522  1.00  0.00    -0.237 OA
ATOM     89  O   UNL     1      -0.719 -17.578  -4.369  1.00  0.00    -0.237 OA
ATOM     90  O   UNL     1      -2.795 -17.349  -3.058  1.00  0.00    -0.744 OA
ENDBRANCH  83  87
ENDBRANCH  56  80
BRANCH  68  91
ATOM     91  C   UNL     1      -3.877 -14.013 -12.245  1.00  0.00     0.023 A 
ATOM     92  C   UNL     1      -5.242 -13.889 -11.936  1.00  0.00     0.031 A 
ATOM     93  C   UNL     1      -3.492 -15.010 -13.161  1.00  0.00     0.131 A 
ATOM     94  C   UNL     1      -6.168 -14.778 -12.502  1.00  0.00     0.055 A 
ATOM     95  C   UNL     1      -4.425 -15.852 -13.766  1.00  0.00     0.041 A 
ATOM     96  F   UNL     1      -2.201 -15.172 -13.490  1.00  0.00    -0.206 F 
ATOM     97  C   UNL     1      -5.771 -15.746 -13.429  1.00  0.00     0.022 A 
BRANCH  94  98
ATOM     98  S   UNL     1      -7.896 -14.705 -11.955  1.00  0.00     0.124 S 
ATOM     99  O   UNL     1      -7.773 -14.958 -10.524  1.00  0.00    -0.237 OA
ATOM    100  O   UNL     1      -8.286 -13.350 -12.331  1.00  0.00    -0.237 OA
ATOM    101  O   UNL     1      -8.544 -15.769 -12.720  1.00  0.00    -0.744 OA
ENDBRANCH  94  98
ENDBRANCH  68  91
ENDBRANCH  42  43
ENDBRANCH  34  37
ENDBRANCH  32  33
ENDBRANCH  31  32
ENDBRANCH  30  31
ENDBRANCH   1  30
TORSDOF 20
