REMARK SMILES CC[C@@]1(C(=O)NCCCCCCNC(=O)c2ccc(-c3c4nc(c(-c5cc(S(=O)(=O)[O-])ccc5F)c5ccc([nH]5)c(-c5cc(S(=O)(=O)[O-])ccc5F)c5nc(c(-c6cc(S(=O)(=O)[O-])ccc6F)c6ccc3[nH]6)C=C5)C=C4)cc2)CCC[N@@H+](Cc2ccc(C3CC3)cc2)C1
REMARK SMILES IDX 9 1 8 2 7 3 6 4 4 5 5 6 3 8 79 9 93 10 80 11 82 12 81 13
REMARK SMILES IDX 2 15 1 16 83 17 84 18 85 19 92 20 86 21 91 22 87 23 88 24
REMARK SMILES IDX 89 25 90 26 10 27 11 28 12 29 13 30 14 31 15 33 16 34 17 35
REMARK SMILES IDX 78 36 18 37 77 38 19 39 20 40 21 41 71 42 22 43 76 44 70 45
REMARK SMILES IDX 72 46 23 47 75 48 69 49 68 50 24 52 56 53 36 54 55 55 37 56
REMARK SMILES IDX 40 57 54 58 73 59 38 60 39 61 53 63 74 64 41 65 25 66 26 67
REMARK SMILES IDX 34 68 27 69 33 70 35 71 32 72 28 73 29 74 30 75 31 76 57 77
REMARK SMILES IDX 58 78 66 79 59 80 65 81 67 82 64 83 60 84 61 85 62 86 63 87
REMARK SMILES IDX 42 88 43 89 51 90 44 91 50 92 52 93 49 94 45 95 46 96 47 97
REMARK SMILES IDX 48 98
REMARK H PARENT 6 7 82 14 13 32 72 51 40 62
REMARK Flexibility Score: inf
ROOT
ATOM      1  C   UNL     1      -4.008   0.940   1.148  1.00  0.00     0.002 C 
ENDROOT
BRANCH   1   2
ATOM      2  C   UNL     1      -3.282   1.393  -0.114  1.00  0.00     0.021 C 
BRANCH   2   3
ATOM      3  C   UNL     1      -2.013   2.196   0.125  1.00  0.00     0.116 C 
BRANCH   3   4
ATOM      4  N   UNL     1      -0.905   1.394   0.591  1.00  0.00    -0.355 N 
ATOM      5  C   UNL     1       0.431   1.474   0.359  1.00  0.00     0.231 C 
ATOM      6  O   UNL     1       1.124   0.718   1.056  1.00  0.00    -0.274 OA
ATOM      7  H   UNL     1      -1.167   0.654   1.186  1.00  0.00     0.163 HD
BRANCH   5   8
ATOM      8  C   UNL     1       1.095   2.296  -0.780  1.00  0.00     0.098 C 
ATOM      9  C   UNL     1       2.500   2.746  -0.270  1.00  0.00     0.028 C 
ATOM     10  C   UNL     1       0.430   3.604  -1.242  1.00  0.00     0.279 C 
ATOM     11  C   UNL     1       2.378   3.821   0.822  1.00  0.00     0.063 C 
ATOM     12  N   UNL     1       0.197   4.520  -0.119  1.00  0.00    -0.330 N 
ATOM     13  C   UNL     1       1.479   4.997   0.409  1.00  0.00     0.262 C 
ATOM     14  H   UNL     1      -0.269   3.991   0.619  1.00  0.00     0.348 HD
BRANCH   8  15
ATOM     15  C   UNL     1       1.285   1.345  -1.998  1.00  0.00     0.019 C 
ATOM     16  C   UNL     1       0.022   0.630  -2.474  1.00  0.00     0.005 C 
ENDBRANCH   8  15
BRANCH  12  17
ATOM     17  C   UNL     1      -0.767   5.599  -0.413  1.00  0.00     0.299 C 
BRANCH  17  18
ATOM     18  C   UNL     1      -0.443   6.458  -1.612  1.00  0.00     0.006 A 
ATOM     19  C   UNL     1       0.214   7.679  -1.461  1.00  0.00     0.010 A 
ATOM     20  C   UNL     1      -0.729   6.008  -2.906  1.00  0.00     0.010 A 
ATOM     21  C   UNL     1       0.683   8.367  -2.584  1.00  0.00     0.004 A 
ATOM     22  C   UNL     1      -0.233   6.687  -4.018  1.00  0.00     0.004 A 
ATOM     23  C   UNL     1       0.528   7.858  -3.886  1.00  0.00    -0.045 A 
BRANCH  23  24
ATOM     24  C   UNL     1       1.204   8.545  -5.055  1.00  0.00     0.019 C 
ATOM     25  C   UNL     1       1.772   7.723  -6.192  1.00  0.00     0.009 C 
ATOM     26  C   UNL     1       0.572   8.598  -6.421  1.00  0.00     0.009 C 
ENDBRANCH  23  24
ENDBRANCH  17  18
ENDBRANCH  12  17
ENDBRANCH   5   8
ENDBRANCH   3   4
ENDBRANCH   2   3
ENDBRANCH   1   2
BRANCH   1  27
ATOM     27  C   UNL     1      -4.360   2.051   2.141  1.00  0.00     0.002 C 
BRANCH  27  28
ATOM     28  C   UNL     1      -5.089   3.266   1.559  1.00  0.00     0.021 C 
BRANCH  28  29
ATOM     29  C   UNL     1      -6.353   2.951   0.765  1.00  0.00     0.116 C 
BRANCH  29  30
ATOM     30  N   UNL     1      -7.324   2.213   1.550  1.00  0.00    -0.352 N 
ATOM     31  C   UNL     1      -8.651   2.482   1.772  1.00  0.00     0.251 C 
ATOM     32  H   UNL     1      -6.981   1.400   1.987  1.00  0.00     0.163 HD
ATOM     33  O   UNL     1      -9.261   1.849   2.628  1.00  0.00    -0.269 OA
BRANCH  31  34
ATOM     34  C   UNL     1      -9.333   3.542   0.997  1.00  0.00     0.039 A 
ATOM     35  C   UNL     1     -10.204   4.407   1.663  1.00  0.00     0.014 A 
ATOM     36  C   UNL     1      -9.138   3.668  -0.382  1.00  0.00     0.014 A 
ATOM     37  C   UNL     1     -10.850   5.422   0.954  1.00  0.00     0.010 A 
ATOM     38  C   UNL     1      -9.723   4.726  -1.073  1.00  0.00     0.010 A 
ATOM     39  C   UNL     1     -10.598   5.604  -0.416  1.00  0.00    -0.014 A 
BRANCH  39  40
ATOM     40  C   UNL     1     -11.275   6.683  -1.183  1.00  0.00     0.031 A 
ATOM     41  C   UNL     1     -12.226   6.327  -2.295  1.00  0.00     0.074 A 
ATOM     42  C   UNL     1     -11.002   7.974  -0.909  1.00  0.00     0.049 A 
ATOM     43  N   UNL     1     -12.865   7.114  -3.122  1.00  0.00    -0.248 NA
ATOM     44  C   UNL     1     -12.464   4.894  -2.524  1.00  0.00     0.031 C 
ATOM     45  C   UNL     1     -10.073   8.440   0.123  1.00  0.00     0.029 A 
ATOM     46  N   UNL     1     -11.473   9.131  -1.476  1.00  0.00    -0.354 N 
ATOM     47  C   UNL     1     -13.569   6.272  -3.978  1.00  0.00     0.074 A 
ATOM     48  C   UNL     1     -13.222   4.916  -3.609  1.00  0.00     0.031 C 
ATOM     49  C   UNL     1     -10.063   9.782   0.132  1.00  0.00     0.029 A 
ATOM     50  C   UNL     1     -10.946  10.274  -0.921  1.00  0.00     0.049 A 
ATOM     51  H   UNL     1     -12.127   9.142  -2.212  1.00  0.00     0.167 HD
ATOM     52  C   UNL     1     -14.443   6.599  -4.962  1.00  0.00     0.034 A 
ATOM     53  C   UNL     1     -11.143  11.571  -1.234  1.00  0.00     0.034 A 
ATOM     54  C   UNL     1     -14.787   7.958  -5.305  1.00  0.00     0.049 A 
ATOM     55  C   UNL     1     -12.100  11.911  -2.350  1.00  0.00     0.074 A 
ATOM     56  C   UNL     1     -15.694   8.406  -6.249  1.00  0.00     0.029 A 
ATOM     57  N   UNL     1     -14.232   9.091  -4.722  1.00  0.00    -0.354 N 
ATOM     58  N   UNL     1     -12.793  11.104  -3.120  1.00  0.00    -0.248 NA
ATOM     59  C   UNL     1     -12.310  13.337  -2.630  1.00  0.00     0.031 C 
ATOM     60  C   UNL     1     -15.636   9.803  -6.287  1.00  0.00     0.029 A 
ATOM     61  C   UNL     1     -14.755  10.234  -5.308  1.00  0.00     0.049 A 
ATOM     62  H   UNL     1     -13.565   9.083  -3.998  1.00  0.00     0.167 HD
ATOM     63  C   UNL     1     -13.549  11.928  -3.950  1.00  0.00     0.074 A 
ATOM     64  C   UNL     1     -13.236  13.292  -3.576  1.00  0.00     0.031 C 
ATOM     65  C   UNL     1     -14.427  11.589  -4.929  1.00  0.00     0.034 A 
BRANCH  52  66
ATOM     66  C   UNL     1     -15.062   5.467  -5.748  1.00  0.00     0.023 A 
ATOM     67  C   UNL     1     -15.873   4.495  -5.134  1.00  0.00     0.031 A 
ATOM     68  C   UNL     1     -14.815   5.336  -7.126  1.00  0.00     0.131 A 
ATOM     69  C   UNL     1     -16.337   3.397  -5.874  1.00  0.00     0.055 A 
ATOM     70  C   UNL     1     -15.353   4.289  -7.877  1.00  0.00     0.041 A 
ATOM     71  F   UNL     1     -14.031   6.218  -7.767  1.00  0.00    -0.206 F 
ATOM     72  C   UNL     1     -16.105   3.301  -7.248  1.00  0.00     0.022 A 
BRANCH  69  73
ATOM     73  S   UNL     1     -17.113   2.020  -4.985  1.00  0.00     0.124 S 
ATOM     74  O   UNL     1     -16.048   1.627  -4.065  1.00  0.00    -0.237 OA
ATOM     75  O   UNL     1     -18.279   2.651  -4.380  1.00  0.00    -0.237 OA
ATOM     76  O   UNL     1     -17.402   1.051  -6.040  1.00  0.00    -0.744 OA
ENDBRANCH  69  73
ENDBRANCH  52  66
BRANCH  53  77
ATOM     77  C   UNL     1     -10.421  12.646  -0.494  1.00  0.00     0.023 A 
ATOM     78  C   UNL     1     -11.119  13.591   0.275  1.00  0.00     0.031 A 
ATOM     79  C   UNL     1      -9.023  12.774  -0.583  1.00  0.00     0.131 A 
ATOM     80  C   UNL     1     -10.426  14.650   0.882  1.00  0.00     0.055 A 
ATOM     81  C   UNL     1      -8.331  13.796   0.070  1.00  0.00     0.041 A 
ATOM     82  F   UNL     1      -8.305  11.896  -1.302  1.00  0.00    -0.206 F 
ATOM     83  C   UNL     1      -9.035  14.750   0.797  1.00  0.00     0.022 A 
BRANCH  80  84
ATOM     84  S   UNL     1     -11.380  15.951   1.710  1.00  0.00     0.124 S 
ATOM     85  O   UNL     1     -12.240  16.421   0.629  1.00  0.00    -0.237 OA
ATOM     86  O   UNL     1     -12.040  15.209   2.779  1.00  0.00    -0.237 OA
ATOM     87  O   UNL     1     -10.356  16.897   2.149  1.00  0.00    -0.744 OA
ENDBRANCH  80  84
ENDBRANCH  53  77
BRANCH  65  88
ATOM     88  C   UNL     1     -15.150  12.717  -5.625  1.00  0.00     0.023 A 
ATOM     89  C   UNL     1     -14.473  13.647  -6.433  1.00  0.00     0.031 A 
ATOM     90  C   UNL     1     -16.540  12.867  -5.467  1.00  0.00     0.131 A 
ATOM     91  C   UNL     1     -15.177  14.719  -7.005  1.00  0.00     0.055 A 
ATOM     92  C   UNL     1     -17.245  13.896  -6.092  1.00  0.00     0.041 A 
ATOM     93  F   UNL     1     -17.238  12.010  -4.704  1.00  0.00    -0.206 F 
ATOM     94  C   UNL     1     -16.561  14.838  -6.854  1.00  0.00     0.022 A 
BRANCH  91  95
ATOM     95  S   UNL     1     -14.243  16.012  -7.867  1.00  0.00     0.124 S 
ATOM     96  O   UNL     1     -13.330  16.473  -6.826  1.00  0.00    -0.237 OA
ATOM     97  O   UNL     1     -13.633  15.275  -8.969  1.00  0.00    -0.237 OA
ATOM     98  O   UNL     1     -15.272  16.974  -8.260  1.00  0.00    -0.744 OA
ENDBRANCH  91  95
ENDBRANCH  65  88
ENDBRANCH  39  40
ENDBRANCH  31  34
ENDBRANCH  29  30
ENDBRANCH  28  29
ENDBRANCH  27  28
ENDBRANCH   1  27
TORSDOF 20
