REMARK SMILES CN1C(=O)C[C@@H](C(=O)NCCCCCCNC(=O)c2ccc(-c3c4nc(c(-c5cc(S(=O)(=O)[O-])ccc5F)c5ccc([nH]5)c(-c5cc(S(=O)(=O)[O-])ccc5F)c5nc(c(-c6cc(S(=O)(=O)[O-])ccc6F)c6ccc3[nH]6)C=C5)C=C4)cc2)C12CCN(S(=O)(=O)c1ccccc1F)CC2
REMARK SMILES IDX 13 1 12 2 11 3 10 4 9 5 7 6 8 7 6 9 1 10 2 11 3 12 82 13
REMARK SMILES IDX 4 14 5 15 83 16 97 17 84 18 96 19 85 20 86 21 87 22 88 23
REMARK SMILES IDX 89 24 90 25 94 26 91 27 93 28 95 29 92 30 14 31 15 32 16 33
REMARK SMILES IDX 17 34 18 36 19 37 20 38 81 39 21 40 80 41 22 42 23 43 24 44
REMARK SMILES IDX 74 45 25 46 79 47 73 48 75 49 26 50 78 51 72 52 71 53 27 55
REMARK SMILES IDX 59 56 39 57 58 58 40 59 43 60 57 61 76 62 41 63 42 64 56 66
REMARK SMILES IDX 77 67 44 68 28 69 29 70 37 71 30 72 36 73 38 74 35 75 31 76
REMARK SMILES IDX 32 77 33 78 34 79 60 80 61 81 69 82 62 83 68 84 70 85 67 86
REMARK SMILES IDX 63 87 64 88 65 89 66 90 45 91 46 92 54 93 47 94 53 95 55 96
REMARK SMILES IDX 52 97 48 98 49 99 50 100 51 101
REMARK H PARENT 9 8 16 35 75 54 43 65
REMARK Flexibility Score: inf
ROOT
ATOM      1  C   UNL     1       4.202  -1.509  -5.538  1.00  0.00     0.002 C 
ENDROOT
BRANCH   1   2
ATOM      2  C   UNL     1       2.895  -2.051  -4.958  1.00  0.00     0.002 C 
BRANCH   2   3
ATOM      3  C   UNL     1       2.376  -1.310  -3.724  1.00  0.00     0.021 C 
BRANCH   3   4
ATOM      4  C   UNL     1       1.995   0.156  -3.957  1.00  0.00     0.116 C 
BRANCH   4   5
ATOM      5  N   UNL     1       0.775   0.318  -4.736  1.00  0.00    -0.356 N 
ATOM      6  C   UNL     1      -0.459   0.807  -4.455  1.00  0.00     0.226 C 
ATOM      7  O   UNL     1      -1.288   0.748  -5.373  1.00  0.00    -0.275 OA
ATOM      8  H   UNL     1       0.865   0.005  -5.665  1.00  0.00     0.163 HD
BRANCH   6   9
ATOM      9  C   UNL     1      -0.911   1.389  -3.108  1.00  0.00     0.113 C 
ATOM     10  C   UNL     1       0.832   0.201   0.002  1.00  0.00     0.147 C 
ATOM     11  N   UNL     1       0.287   0.875  -1.167  1.00  0.00    -0.339 N 
ATOM     12  C   UNL     1       0.717   2.146  -1.526  1.00  0.00     0.223 C 
ATOM     13  C   UNL     1      -0.944   0.463  -1.865  1.00  0.00     0.057 C 
ATOM     14  O   UNL     1       1.605   2.795  -0.999  1.00  0.00    -0.275 OA
ATOM     15  C   UNL     1      -0.090   2.613  -2.703  1.00  0.00     0.116 C 
ATOM     16  C   UNL     1      -0.976  -1.027  -2.246  1.00  0.00     0.046 C 
ATOM     17  C   UNL     1      -2.155   0.798  -0.935  1.00  0.00     0.046 C 
ATOM     18  C   UNL     1      -2.350  -1.502  -2.682  1.00  0.00     0.105 C 
ATOM     19  C   UNL     1      -3.484   0.145  -1.325  1.00  0.00     0.105 C 
ATOM     20  N   UNL     1      -3.331  -1.314  -1.598  1.00  0.00    -0.198 NA
BRANCH  20  21
ATOM     21  S   UNL     1      -3.238  -2.310  -0.200  1.00  0.00     0.245 S 
ATOM     22  O   UNL     1      -1.976  -2.077   0.467  1.00  0.00    -0.207 OA
ATOM     23  O   UNL     1      -4.475  -2.090   0.526  1.00  0.00    -0.207 OA
BRANCH  21  24
ATOM     24  C   UNL     1      -3.257  -3.986  -0.770  1.00  0.00     0.118 A 
ATOM     25  C   UNL     1      -4.385  -4.785  -0.550  1.00  0.00     0.025 A 
ATOM     26  C   UNL     1      -2.112  -4.559  -1.316  1.00  0.00     0.143 A 
ATOM     27  C   UNL     1      -4.365  -6.135  -0.914  1.00  0.00     0.002 A 
ATOM     28  C   UNL     1      -2.100  -5.897  -1.707  1.00  0.00     0.041 A 
ATOM     29  F   UNL     1      -0.993  -3.854  -1.510  1.00  0.00    -0.206 F 
ATOM     30  C   UNL     1      -3.227  -6.689  -1.503  1.00  0.00     0.003 A 
ENDBRANCH  21  24
ENDBRANCH  20  21
ENDBRANCH   6   9
ENDBRANCH   4   5
ENDBRANCH   3   4
ENDBRANCH   2   3
ENDBRANCH   1   2
BRANCH   1  31
ATOM     31  C   UNL     1       5.338  -1.310  -4.529  1.00  0.00     0.021 C 
BRANCH  31  32
ATOM     32  C   UNL     1       5.699  -2.540  -3.699  1.00  0.00     0.116 C 
BRANCH  32  33
ATOM     33  N   UNL     1       6.190  -3.633  -4.518  1.00  0.00    -0.352 N 
ATOM     34  C   UNL     1       7.364  -4.338  -4.412  1.00  0.00     0.251 C 
ATOM     35  H   UNL     1       5.598  -3.907  -5.255  1.00  0.00     0.163 HD
ATOM     36  O   UNL     1       7.693  -5.106  -5.311  1.00  0.00    -0.269 OA
BRANCH  34  37
ATOM     37  C   UNL     1       8.236  -4.153  -3.231  1.00  0.00     0.039 A 
ATOM     38  C   UNL     1       9.610  -3.988  -3.428  1.00  0.00     0.014 A 
ATOM     39  C   UNL     1       7.709  -4.164  -1.935  1.00  0.00     0.014 A 
ATOM     40  C   UNL     1      10.450  -3.785  -2.330  1.00  0.00     0.010 A 
ATOM     41  C   UNL     1       8.540  -3.905  -0.846  1.00  0.00     0.010 A 
ATOM     42  C   UNL     1       9.919  -3.720  -1.032  1.00  0.00    -0.014 A 
BRANCH  42  43
ATOM     43  C   UNL     1      10.796  -3.480   0.143  1.00  0.00     0.031 A 
ATOM     44  C   UNL     1      10.988  -4.560   1.171  1.00  0.00     0.074 A 
ATOM     45  C   UNL     1      11.365  -2.272   0.317  1.00  0.00     0.049 A 
ATOM     46  N   UNL     1      11.655  -4.526   2.297  1.00  0.00    -0.248 NA
ATOM     47  C   UNL     1      10.311  -5.838   0.910  1.00  0.00     0.031 C 
ATOM     48  C   UNL     1      11.207  -1.127  -0.584  1.00  0.00     0.029 A 
ATOM     49  N   UNL     1      12.174  -1.798   1.318  1.00  0.00    -0.354 N 
ATOM     50  C   UNL     1      11.466  -5.772   2.887  1.00  0.00     0.074 A 
ATOM     51  C   UNL     1      10.573  -6.512   2.020  1.00  0.00     0.031 C 
ATOM     52  C   UNL     1      11.899  -0.086  -0.093  1.00  0.00     0.029 A 
ATOM     53  C   UNL     1      12.523  -0.477   1.167  1.00  0.00     0.049 A 
ATOM     54  H   UNL     1      12.475  -2.352   2.074  1.00  0.00     0.167 HD
ATOM     55  C   UNL     1      12.004  -6.260   4.034  1.00  0.00     0.034 A 
ATOM     56  C   UNL     1      13.253   0.332   1.960  1.00  0.00     0.034 A 
ATOM     57  C   UNL     1      12.899  -5.510   4.882  1.00  0.00     0.049 A 
ATOM     58  C   UNL     1      13.851  -0.229   3.223  1.00  0.00     0.074 A 
ATOM     59  C   UNL     1      13.553  -5.923   6.030  1.00  0.00     0.029 A 
ATOM     60  N   UNL     1      13.260  -4.183   4.679  1.00  0.00    -0.354 N 
ATOM     61  N   UNL     1      13.717  -1.430   3.736  1.00  0.00    -0.248 NA
ATOM     62  C   UNL     1      14.713   0.669   4.002  1.00  0.00     0.031 C 
ATOM     63  C   UNL     1      14.261  -4.832   6.551  1.00  0.00     0.029 A 
ATOM     64  C   UNL     1      14.104  -3.755   5.693  1.00  0.00     0.049 A 
ATOM     65  H   UNL     1      12.960  -3.626   3.924  1.00  0.00     0.167 HD
ATOM     66  C   UNL     1      14.494  -1.437   4.891  1.00  0.00     0.074 A 
ATOM     67  C   UNL     1      15.105  -0.126   4.987  1.00  0.00     0.031 C 
ATOM     68  C   UNL     1      14.689  -2.438   5.787  1.00  0.00     0.034 A 
BRANCH  55  69
ATOM     69  C   UNL     1      11.607  -7.661   4.438  1.00  0.00     0.023 A 
ATOM     70  C   UNL     1      11.903  -8.773   3.629  1.00  0.00     0.031 A 
ATOM     71  C   UNL     1      10.874  -7.884   5.617  1.00  0.00     0.131 A 
ATOM     72  C   UNL     1      11.388 -10.036   3.957  1.00  0.00     0.055 A 
ATOM     73  C   UNL     1      10.439  -9.160   5.983  1.00  0.00     0.041 A 
ATOM     74  F   UNL     1      10.545  -6.862   6.422  1.00  0.00    -0.206 F 
ATOM     75  C   UNL     1      10.678 -10.242   5.141  1.00  0.00     0.022 A 
BRANCH  72  76
ATOM     76  S   UNL     1      11.515 -11.366   2.729  1.00  0.00     0.124 S 
ATOM     77  O   UNL     1      10.832 -10.773   1.581  1.00  0.00    -0.237 OA
ATOM     78  O   UNL     1      12.957 -11.537   2.598  1.00  0.00    -0.237 OA
ATOM     79  O   UNL     1      10.807 -12.480   3.356  1.00  0.00    -0.744 OA
ENDBRANCH  72  76
ENDBRANCH  55  69
BRANCH  56  80
ATOM     80  C   UNL     1      13.446   1.761   1.590  1.00  0.00     0.023 A 
ATOM     81  C   UNL     1      14.702   2.247   1.195  1.00  0.00     0.031 A 
ATOM     82  C   UNL     1      12.370   2.665   1.638  1.00  0.00     0.131 A 
ATOM     83  C   UNL     1      14.860   3.609   0.896  1.00  0.00     0.055 A 
ATOM     84  C   UNL     1      12.524   4.010   1.301  1.00  0.00     0.041 A 
ATOM     85  F   UNL     1      11.147   2.244   1.998  1.00  0.00    -0.206 F 
ATOM     86  C   UNL     1      13.777   4.491   0.936  1.00  0.00     0.022 A 
BRANCH  83  87
ATOM     87  S   UNL     1      16.519   4.224   0.498  1.00  0.00     0.124 S 
ATOM     88  O   UNL     1      17.258   3.898   1.713  1.00  0.00    -0.237 OA
ATOM     89  O   UNL     1      16.856   3.443  -0.687  1.00  0.00    -0.237 OA
ATOM     90  O   UNL     1      16.305   5.650   0.261  1.00  0.00    -0.744 OA
ENDBRANCH  83  87
ENDBRANCH  56  80
BRANCH  68  91
ATOM     91  C   UNL     1      15.631  -2.152   6.930  1.00  0.00     0.023 A 
ATOM     92  C   UNL     1      15.303  -1.239   7.947  1.00  0.00     0.031 A 
ATOM     93  C   UNL     1      16.881  -2.792   6.990  1.00  0.00     0.131 A 
ATOM     94  C   UNL     1      16.236  -0.951   8.954  1.00  0.00     0.055 A 
ATOM     95  C   UNL     1      17.785  -2.541   8.024  1.00  0.00     0.041 A 
ATOM     96  F   UNL     1      17.245  -3.672   6.044  1.00  0.00    -0.206 F 
ATOM     97  C   UNL     1      17.469  -1.607   9.007  1.00  0.00     0.022 A 
BRANCH  94  98
ATOM     98  S   UNL     1      15.852   0.355  10.153  1.00  0.00     0.124 S 
ATOM     99  O   UNL     1      15.663   1.515   9.288  1.00  0.00    -0.237 OA
ATOM    100  O   UNL     1      14.651  -0.160  10.802  1.00  0.00    -0.237 OA
ATOM    101  O   UNL     1      17.041   0.402  11.002  1.00  0.00    -0.744 OA
ENDBRANCH  94  98
ENDBRANCH  68  91
ENDBRANCH  42  43
ENDBRANCH  34  37
ENDBRANCH  32  33
ENDBRANCH  31  32
ENDBRANCH   1  31
TORSDOF 18
