REMARK SMILES COc1ccc2c(c1)O[C@]1(CCC(=O)N([C@@H](C)C(=O)NCCCCCCNC(=O)c3ccc(-c4c5nc(c(-c6cc(S(=O)(=O)[O-])ccc6F)c6ccc([nH]6)c(-c6cc(S(=O)(=O)[O-])ccc6F)c6nc(c(-c7cc(S(=O)(=O)[O-])ccc7F)c7ccc4[nH]7)C=C6)C=C5)cc3)CC1)CC2=O
REMARK SMILES IDX 22 1 21 2 20 3 18 4 19 5 16 7 17 8 15 9 93 10 94 11 10 12
REMARK SMILES IDX 3 13 4 14 8 15 5 16 7 17 6 18 9 19 96 20 95 21 97 22 2 23
REMARK SMILES IDX 1 24 11 25 13 27 14 28 12 29 23 31 24 32 25 33 26 34 27 35
REMARK SMILES IDX 28 36 29 38 30 39 31 40 92 41 32 42 91 43 33 44 34 45 35 46
REMARK SMILES IDX 85 47 36 48 90 49 84 50 86 51 37 52 89 53 83 54 82 55 38 57
REMARK SMILES IDX 70 58 50 59 69 60 51 61 54 62 68 63 87 64 52 65 53 66 67 68
REMARK SMILES IDX 88 69 55 70 39 71 40 72 48 73 41 74 47 75 49 76 46 77 42 78
REMARK SMILES IDX 43 79 44 80 45 81 71 82 72 83 80 84 73 85 79 86 81 87 78 88
REMARK SMILES IDX 74 89 75 90 76 91 77 92 56 93 57 94 65 95 58 96 64 97 66 98
REMARK SMILES IDX 63 99 59 100 60 101 61 102 62 103
REMARK H PARENT 20 6 27 37 86 56 54 67
REMARK Flexibility Score: 80.00
ROOT
ATOM      1  C   UNL     1      -5.652  -1.744  -4.961  1.00  0.00     0.021 C 
ENDROOT
BRANCH   1   2
ATOM      2  C   UNL     1      -5.401  -1.134  -3.603  1.00  0.00     0.116 C 
BRANCH   2   3
ATOM      3  N   UNL     1      -4.283  -1.807  -3.001  1.00  0.00    -0.354 N 
ATOM      4  C   UNL     1      -3.290  -1.213  -2.296  1.00  0.00     0.242 C 
ATOM      5  O   UNL     1      -2.211  -1.800  -2.178  1.00  0.00    -0.273 OA
ATOM      6  H   UNL     1      -4.235  -2.784  -3.111  1.00  0.00     0.163 HD
BRANCH   4   7
ATOM      7  C   UNL     1      -3.642  -0.002  -1.427  1.00  0.00     0.171 C 
ATOM      8  C   UNL     1      -4.697  -0.492  -0.466  1.00  0.00     0.042 C 
BRANCH   7   9
ATOM      9  N   UNL     1      -3.847   1.413  -1.839  1.00  0.00    -0.331 N 
BRANCH   9  10
ATOM     10  C   UNL     1      -2.831   2.322  -1.434  1.00  0.00     0.124 C 
BRANCH  10  11
ATOM     11  C   UNL     1      -3.369   3.265  -0.405  1.00  0.00     0.070 C 
BRANCH  11  12
ATOM     12  C   UNL     1      -4.633   2.987   0.525  1.00  0.00     0.118 C 
ATOM     13  C   UNL     1      -1.165   1.060   2.183  1.00  0.00     0.122 A 
ATOM     14  C   UNL     1      -1.825  -0.087   2.631  1.00  0.00     0.047 A 
ATOM     15  C   UNL     1      -1.828   2.302   2.076  1.00  0.00     0.093 A 
ATOM     16  C   UNL     1      -3.188  -0.024   2.877  1.00  0.00     0.019 A 
ATOM     17  C   UNL     1      -3.217   2.358   2.229  1.00  0.00     0.134 A 
ATOM     18  C   UNL     1      -3.856   1.181   2.618  1.00  0.00     0.060 A 
ATOM     19  O   UNL     1      -4.006   3.460   1.768  1.00  0.00    -0.486 OA
ATOM     20  C   UNL     1      -5.272   1.138   2.347  1.00  0.00     0.170 C 
ATOM     21  C   UNL     1      -5.675   1.980   1.169  1.00  0.00     0.129 C 
ATOM     22  O   UNL     1      -6.025   0.373   2.937  1.00  0.00    -0.294 OA
BRANCH  13  23
ATOM     23  O   UNL     1       0.161   0.987   1.839  1.00  0.00    -0.497 OA
ATOM     24  C   UNL     1       0.350   0.283   0.602  1.00  0.00     0.278 C 
ENDBRANCH  13  23
BRANCH  12  25
ATOM     25  C   UNL     1      -5.694   3.670  -0.433  1.00  0.00     0.059 CG0
ATOM     26  G   UNL     1      -6.004   2.732  -1.678  1.00  0.00     0.000 G0
ENDBRANCH  12  25
ENDBRANCH  11  12
ENDBRANCH  10  11
ENDBRANCH   9  10
BRANCH   9  27
ATOM     27  C   UNL     1      -4.887   2.040  -2.506  1.00  0.00     0.223 C 
ATOM     28  O   UNL     1      -4.871   2.150  -3.732  1.00  0.00    -0.275 OA
BRANCH  27  29
ATOM     29  C   UNL     1      -6.004   2.732  -1.678  1.00  0.00     0.104 CG0
ATOM     30  G   UNL     1      -5.694   3.670  -0.433  1.00  0.00     0.000 G0
ENDBRANCH  27  29
ENDBRANCH   9  27
ENDBRANCH   7   9
ENDBRANCH   4   7
ENDBRANCH   2   3
ENDBRANCH   1   2
BRANCH   1  31
ATOM     31  C   UNL     1      -6.295  -3.126  -4.861  1.00  0.00     0.002 C 
BRANCH  31  32
ATOM     32  C   UNL     1      -7.679  -3.136  -4.204  1.00  0.00     0.002 C 
BRANCH  32  33
ATOM     33  C   UNL     1      -8.673  -2.138  -4.796  1.00  0.00     0.021 C 
BRANCH  33  34
ATOM     34  C   UNL     1      -8.729  -2.133  -6.316  1.00  0.00     0.116 C 
BRANCH  34  35
ATOM     35  N   UNL     1      -8.920  -3.457  -6.885  1.00  0.00    -0.352 N 
ATOM     36  C   UNL     1      -9.587  -3.779  -8.039  1.00  0.00     0.251 C 
ATOM     37  H   UNL     1      -8.526  -4.208  -6.386  1.00  0.00     0.163 HD
ATOM     38  O   UNL     1      -9.736  -4.951  -8.377  1.00  0.00    -0.269 OA
BRANCH  36  39
ATOM     39  C   UNL     1     -10.165  -2.675  -8.821  1.00  0.00     0.039 A 
ATOM     40  C   UNL     1      -9.362  -1.595  -9.197  1.00  0.00     0.014 A 
ATOM     41  C   UNL     1     -11.542  -2.660  -9.039  1.00  0.00     0.014 A 
ATOM     42  C   UNL     1      -9.963  -0.430  -9.650  1.00  0.00     0.010 A 
ATOM     43  C   UNL     1     -12.130  -1.521  -9.585  1.00  0.00     0.010 A 
ATOM     44  C   UNL     1     -11.353  -0.382  -9.852  1.00  0.00    -0.014 A 
BRANCH  44  45
ATOM     45  C   UNL     1     -11.980   0.864 -10.360  1.00  0.00     0.031 A 
ATOM     46  C   UNL     1     -12.977   1.618  -9.523  1.00  0.00     0.074 A 
ATOM     47  C   UNL     1     -11.617   1.320 -11.574  1.00  0.00     0.049 A 
ATOM     48  N   UNL     1     -13.651   2.696  -9.825  1.00  0.00    -0.248 NA
ATOM     49  C   UNL     1     -13.258   1.097  -8.175  1.00  0.00     0.031 C 
ATOM     50  C   UNL     1     -10.637   0.674 -12.450  1.00  0.00     0.029 A 
ATOM     51  N   UNL     1     -12.006   2.432 -12.275  1.00  0.00    -0.354 N 
ATOM     52  C   UNL     1     -14.447   2.974  -8.719  1.00  0.00     0.074 A 
ATOM     53  C   UNL     1     -14.199   1.930  -7.750  1.00  0.00     0.031 C 
ATOM     54  C   UNL     1     -10.458   1.429 -13.541  1.00  0.00     0.029 A 
ATOM     55  C   UNL     1     -11.374   2.564 -13.491  1.00  0.00     0.049 A 
ATOM     56  H   UNL     1     -12.673   3.075 -11.941  1.00  0.00     0.167 HD
ATOM     57  C   UNL     1     -15.292   4.015  -8.531  1.00  0.00     0.034 A 
ATOM     58  C   UNL     1     -11.528   3.482 -14.466  1.00  0.00     0.034 A 
ATOM     59  C   UNL     1     -15.504   5.054  -9.507  1.00  0.00     0.049 A 
ATOM     60  C   UNL     1     -12.521   4.593 -14.252  1.00  0.00     0.074 A 
ATOM     61  C   UNL     1     -16.334   6.157  -9.412  1.00  0.00     0.029 A 
ATOM     62  N   UNL     1     -14.879   5.131 -10.744  1.00  0.00    -0.354 N 
ATOM     63  N   UNL     1     -13.254   4.851 -13.194  1.00  0.00    -0.248 NA
ATOM     64  C   UNL     1     -12.715   5.538 -15.359  1.00  0.00     0.031 C 
ATOM     65  C   UNL     1     -16.261   6.863 -10.612  1.00  0.00     0.029 A 
ATOM     66  C   UNL     1     -15.324   6.250 -11.429  1.00  0.00     0.049 A 
ATOM     67  H   UNL     1     -14.218   4.486 -11.085  1.00  0.00     0.167 HD
ATOM     68  C   UNL     1     -13.973   6.003 -13.496  1.00  0.00     0.074 A 
ATOM     69  C   UNL     1     -13.568   6.405 -14.828  1.00  0.00     0.031 C 
ATOM     70  C   UNL     1     -14.889   6.661 -12.743  1.00  0.00     0.034 A 
BRANCH  57  71
ATOM     71  C   UNL     1     -16.048   4.122  -7.228  1.00  0.00     0.023 A 
ATOM     72  C   UNL     1     -17.456   4.092  -7.227  1.00  0.00     0.031 A 
ATOM     73  C   UNL     1     -15.389   4.415  -6.021  1.00  0.00     0.131 A 
ATOM     74  C   UNL     1     -18.159   4.403  -6.056  1.00  0.00     0.055 A 
ATOM     75  C   UNL     1     -16.095   4.679  -4.846  1.00  0.00     0.041 A 
ATOM     76  F   UNL     1     -14.048   4.455  -5.968  1.00  0.00    -0.206 F 
ATOM     77  C   UNL     1     -17.486   4.690  -4.864  1.00  0.00     0.022 A 
BRANCH  74  78
ATOM     78  S   UNL     1     -19.969   4.524  -6.052  1.00  0.00     0.124 S 
ATOM     79  O   UNL     1     -20.332   3.561  -5.014  1.00  0.00    -0.237 OA
ATOM     80  O   UNL     1     -20.179   5.926  -5.702  1.00  0.00    -0.237 OA
ATOM     81  O   UNL     1     -20.349   4.146  -7.408  1.00  0.00    -0.744 OA
ENDBRANCH  74  78
ENDBRANCH  57  71
BRANCH  58  82
ATOM     82  C   UNL     1     -10.687   3.394 -15.696  1.00  0.00     0.023 A 
ATOM     83  C   UNL     1     -10.719   2.256 -16.523  1.00  0.00     0.031 A 
ATOM     84  C   UNL     1      -9.762   4.406 -16.005  1.00  0.00     0.131 A 
ATOM     85  C   UNL     1      -9.796   2.125 -17.569  1.00  0.00     0.055 A 
ATOM     86  C   UNL     1      -8.898   4.307 -17.096  1.00  0.00     0.041 A 
ATOM     87  F   UNL     1      -9.681   5.505 -15.239  1.00  0.00    -0.206 F 
ATOM     88  C   UNL     1      -8.899   3.153 -17.873  1.00  0.00     0.022 A 
BRANCH  85  89
ATOM     89  S   UNL     1      -9.634   0.561 -18.475  1.00  0.00     0.124 S 
ATOM     90  O   UNL     1      -9.967   0.964 -19.838  1.00  0.00    -0.237 OA
ATOM     91  O   UNL     1      -8.231   0.225 -18.241  1.00  0.00    -0.237 OA
ATOM     92  O   UNL     1     -10.597  -0.317 -17.821  1.00  0.00    -0.744 OA
ENDBRANCH  85  89
ENDBRANCH  58  82
BRANCH  70  93
ATOM     93  C   UNL     1     -15.523   7.911 -13.303  1.00  0.00     0.023 A 
ATOM     94  C   UNL     1     -15.350   9.140 -12.636  1.00  0.00     0.031 A 
ATOM     95  C   UNL     1     -16.425   7.858 -14.378  1.00  0.00     0.131 A 
ATOM     96  C   UNL     1     -16.112  10.251 -13.015  1.00  0.00     0.055 A 
ATOM     97  C   UNL     1     -17.140   8.984 -14.789  1.00  0.00     0.041 A 
ATOM     98  F   UNL     1     -16.633   6.708 -15.038  1.00  0.00    -0.206 F 
ATOM     99  C   UNL     1     -16.998  10.183 -14.095  1.00  0.00     0.022 A 
BRANCH  96 100
ATOM    100  S   UNL     1     -16.059  11.791 -12.058  1.00  0.00     0.124 S 
ATOM    101  O   UNL     1     -15.616  12.756 -13.062  1.00  0.00    -0.237 OA
ATOM    102  O   UNL     1     -17.447  11.932 -11.628  1.00  0.00    -0.237 OA
ATOM    103  O   UNL     1     -15.097  11.515 -10.996  1.00  0.00    -0.744 OA
ENDBRANCH  96 100
ENDBRANCH  70  93
ENDBRANCH  44  45
ENDBRANCH  36  39
ENDBRANCH  34  35
ENDBRANCH  33  34
ENDBRANCH  32  33
ENDBRANCH  31  32
ENDBRANCH   1  31
TORSDOF 18
