REMARK SMILES CCOC(=O)c1c(NC(=O)[C@@H]2[C@@H](C(=O)NCCCCCCNC(=O)c3ccc(-c4c5nc(c(-c6cc(S(=O)(=O)[O-])ccc6F)c6ccc([nH]6)c(-c6cc(S(=O)(=O)[O-])ccc6F)c6nc(c(-c7cc(S(=O)(=O)[O-])ccc7F)c7ccc4[nH]7)C=C6)C=C5)cc3)[C@@H]3C=C[C@H]2CC3)sc2c1CCC2
REMARK SMILES IDX 17 1 16 2 15 3 13 4 14 5 12 7 11 8 91 9 88 10 90 11 92 12
REMARK SMILES IDX 89 13 93 14 9 15 8 16 10 18 7 19 6 20 96 21 94 22 95 23
REMARK SMILES IDX 97 24 99 25 98 26 4 27 5 28 3 29 2 30 1 31 18 32 19 33 20 34
REMARK SMILES IDX 21 35 22 36 23 37 24 39 25 40 26 41 87 42 27 43 86 44 28 45
REMARK SMILES IDX 29 46 30 47 80 48 31 49 85 50 79 51 81 52 32 53 84 54 78 55
REMARK SMILES IDX 77 56 33 58 65 59 45 60 64 61 46 62 49 63 63 64 82 65 47 66
REMARK SMILES IDX 48 67 62 69 83 70 50 71 34 72 35 73 43 74 36 75 42 76 44 77
REMARK SMILES IDX 41 78 37 79 38 80 39 81 40 82 66 83 67 84 75 85 68 86 74 87
REMARK SMILES IDX 76 88 73 89 69 90 70 91 71 92 72 93 51 94 52 95 60 96 53 97
REMARK SMILES IDX 59 98 61 99 58 100 54 101 55 102 56 103 57 104
REMARK H PARENT 15 6 8 17 22 38 81 57 49 68
REMARK Flexibility Score: inf
ROOT
ATOM      1  C   UNL     1       4.196  -0.085  -9.721  1.00  0.00     0.021 C 
ENDROOT
BRANCH   1   2
ATOM      2  C   UNL     1       4.711  -0.623  -8.394  1.00  0.00     0.116 C 
BRANCH   2   3
ATOM      3  N   UNL     1       5.877  -1.479  -8.415  1.00  0.00    -0.356 N 
ATOM      4  C   UNL     1       6.861  -1.690  -7.490  1.00  0.00     0.224 C 
ATOM      5  O   UNL     1       7.587  -2.669  -7.715  1.00  0.00    -0.275 OA
ATOM      6  H   UNL     1       5.979  -2.003  -9.242  1.00  0.00     0.163 HD
BRANCH   4   7
ATOM      7  C   UNL     1       7.227  -0.766  -6.296  1.00  0.00     0.098 C 
ATOM      8  C   UNL     1       6.110   0.036  -5.567  1.00  0.00     0.099 C 
ATOM      9  C   UNL     1       6.507   1.551  -5.519  1.00  0.00     0.025 C 
ATOM     10  C   UNL     1       8.343   0.221  -6.769  1.00  0.00     0.025 C 
ATOM     11  C   UNL     1       7.883   1.650  -4.889  1.00  0.00    -0.027 C 
ATOM     12  C   UNL     1       6.668   2.110  -6.951  1.00  0.00     0.009 C 
ATOM     13  C   UNL     1       8.836   0.964  -5.539  1.00  0.00    -0.027 C 
ATOM     14  C   UNL     1       7.738   1.295  -7.708  1.00  0.00     0.009 C 
BRANCH   8  15
ATOM     15  C   UNL     1       5.678  -0.416  -4.167  1.00  0.00     0.229 C 
ATOM     16  N   UNL     1       4.536   0.104  -3.578  1.00  0.00    -0.317 N 
ATOM     17  H   UNL     1       4.393  -0.184  -2.648  1.00  0.00     0.170 HD
ATOM     18  O   UNL     1       6.346  -1.222  -3.514  1.00  0.00    -0.274 OA
BRANCH  16  19
ATOM     19  C   UNL     1       3.555   0.963  -4.069  1.00  0.00     0.110 A 
ATOM     20  C   UNL     1       2.647   1.754  -3.357  1.00  0.00     0.098 A 
ATOM     21  C   UNL     1       2.081   2.727  -4.245  1.00  0.00    -0.017 A 
ATOM     22  S   UNL     1       3.188   1.049  -5.745  1.00  0.00    -0.122 S 
ATOM     23  C   UNL     1       2.434   2.500  -5.542  1.00  0.00     0.011 A 
ATOM     24  C   UNL     1       1.271   3.971  -4.151  1.00  0.00     0.038 C 
ATOM     25  C   UNL     1       2.025   3.536  -6.506  1.00  0.00     0.047 C 
ATOM     26  C   UNL     1       0.977   4.304  -5.658  1.00  0.00     0.010 C 
BRANCH  20  27
ATOM     27  C   UNL     1       2.421   1.633  -1.932  1.00  0.00     0.341 C 
ATOM     28  O   UNL     1       3.308   1.339  -1.130  1.00  0.00    -0.246 OA
BRANCH  27  29
ATOM     29  O   UNL     1       1.100   1.735  -1.629  1.00  0.00    -0.462 OA
BRANCH  29  30
ATOM     30  C   UNL     1       0.710   1.411  -0.287  1.00  0.00     0.230 C 
ATOM     31  C   UNL     1       0.884  -0.069   0.023  1.00  0.00     0.049 C 
ENDBRANCH  29  30
ENDBRANCH  27  29
ENDBRANCH  20  27
ENDBRANCH  16  19
ENDBRANCH   8  15
ENDBRANCH   4   7
ENDBRANCH   2   3
ENDBRANCH   1   2
BRANCH   1  32
ATOM     32  C   UNL     1       3.379  -1.028 -10.596  1.00  0.00     0.002 C 
BRANCH  32  33
ATOM     33  C   UNL     1       2.220  -1.784  -9.937  1.00  0.00     0.002 C 
BRANCH  33  34
ATOM     34  C   UNL     1       1.205  -0.983  -9.109  1.00  0.00     0.021 C 
BRANCH  34  35
ATOM     35  C   UNL     1       0.517   0.173  -9.828  1.00  0.00     0.116 C 
BRANCH  35  36
ATOM     36  N   UNL     1      -0.251  -0.258 -10.985  1.00  0.00    -0.352 N 
ATOM     37  C   UNL     1      -0.928   0.513 -11.905  1.00  0.00     0.251 C 
ATOM     38  H   UNL     1      -0.292  -1.231 -11.131  1.00  0.00     0.163 HD
ATOM     39  O   UNL     1      -1.793  -0.002 -12.607  1.00  0.00    -0.269 OA
BRANCH  37  40
ATOM     40  C   UNL     1      -0.640   1.959 -12.018  1.00  0.00     0.039 A 
ATOM     41  C   UNL     1      -1.698   2.860 -12.172  1.00  0.00     0.014 A 
ATOM     42  C   UNL     1       0.676   2.422 -11.981  1.00  0.00     0.014 A 
ATOM     43  C   UNL     1      -1.434   4.229 -12.190  1.00  0.00     0.010 A 
ATOM     44  C   UNL     1       0.932   3.783 -11.927  1.00  0.00     0.010 A 
ATOM     45  C   UNL     1      -0.120   4.695 -12.033  1.00  0.00    -0.014 A 
BRANCH  45  46
ATOM     46  C   UNL     1       0.114   6.126 -11.802  1.00  0.00     0.031 A 
ATOM     47  C   UNL     1      -0.640   6.719 -10.660  1.00  0.00     0.074 A 
ATOM     48  C   UNL     1       1.089   6.856 -12.383  1.00  0.00     0.049 A 
ATOM     49  N   UNL     1      -1.511   7.672 -10.697  1.00  0.00    -0.248 NA
ATOM     50  C   UNL     1      -0.482   6.115  -9.329  1.00  0.00     0.031 C 
ATOM     51  C   UNL     1       2.117   6.391 -13.313  1.00  0.00     0.029 A 
ATOM     52  N   UNL     1       1.443   8.158 -12.156  1.00  0.00    -0.354 N 
ATOM     53  C   UNL     1      -1.867   7.937  -9.376  1.00  0.00     0.074 A 
ATOM     54  C   UNL     1      -1.332   6.845  -8.604  1.00  0.00     0.031 C 
ATOM     55  C   UNL     1       3.102   7.313 -13.385  1.00  0.00     0.029 A 
ATOM     56  C   UNL     1       2.716   8.484 -12.615  1.00  0.00     0.049 A 
ATOM     57  H   UNL     1       0.852   8.805 -11.708  1.00  0.00     0.167 HD
ATOM     58  C   UNL     1      -2.409   9.134  -9.012  1.00  0.00     0.034 A 
ATOM     59  C   UNL     1       3.431   9.610 -12.355  1.00  0.00     0.034 A 
ATOM     60  C   UNL     1      -2.862   9.871 -10.172  1.00  0.00     0.049 A 
ATOM     61  C   UNL     1       2.463  10.671 -11.986  1.00  0.00     0.074 A 
ATOM     62  C   UNL     1      -3.741   9.604 -11.206  1.00  0.00     0.029 A 
ATOM     63  N   UNL     1      -2.125  10.957 -10.592  1.00  0.00    -0.354 N 
ATOM     64  N   UNL     1       1.605  11.181 -12.825  1.00  0.00    -0.248 NA
ATOM     65  C   UNL     1       2.141  10.874 -10.581  1.00  0.00     0.031 C 
ATOM     66  C   UNL     1      -3.137  10.185 -12.359  1.00  0.00     0.029 A 
ATOM     67  C   UNL     1      -1.974  10.839 -11.951  1.00  0.00     0.049 A 
ATOM     68  H   UNL     1      -1.773  11.681 -10.025  1.00  0.00     0.167 HD
ATOM     69  C   UNL     1       0.444  11.353 -12.089  1.00  0.00     0.074 A 
ATOM     70  C   UNL     1       0.870  11.273 -10.694  1.00  0.00     0.031 C 
ATOM     71  C   UNL     1      -0.787  11.251 -12.675  1.00  0.00     0.034 A 
BRANCH  58  72
ATOM     72  C   UNL     1      -2.245   9.812  -7.665  1.00  0.00     0.023 A 
ATOM     73  C   UNL     1      -2.846  11.080  -7.512  1.00  0.00     0.031 A 
ATOM     74  C   UNL     1      -1.322   9.453  -6.660  1.00  0.00     0.131 A 
ATOM     75  C   UNL     1      -2.424  11.970  -6.510  1.00  0.00     0.055 A 
ATOM     76  C   UNL     1      -0.965  10.313  -5.614  1.00  0.00     0.041 A 
ATOM     77  F   UNL     1      -0.647   8.299  -6.672  1.00  0.00    -0.206 F 
ATOM     78  C   UNL     1      -1.484  11.595  -5.557  1.00  0.00     0.022 A 
BRANCH  75  79
ATOM     79  S   UNL     1      -2.968  13.694  -6.619  1.00  0.00     0.124 S 
ATOM     80  O   UNL     1      -2.550  14.041  -7.973  1.00  0.00    -0.237 OA
ATOM     81  O   UNL     1      -4.404  13.570  -6.398  1.00  0.00    -0.237 OA
ATOM     82  O   UNL     1      -2.225  14.351  -5.546  1.00  0.00    -0.744 OA
ENDBRANCH  75  79
ENDBRANCH  58  72
BRANCH  59  83
ATOM     83  C   UNL     1       4.908   9.761 -12.252  1.00  0.00     0.023 A 
ATOM     84  C   UNL     1       5.542  11.021 -12.285  1.00  0.00     0.031 A 
ATOM     85  C   UNL     1       5.717   8.659 -11.890  1.00  0.00     0.131 A 
ATOM     86  C   UNL     1       6.916  11.137 -11.970  1.00  0.00     0.055 A 
ATOM     87  C   UNL     1       7.079   8.776 -11.603  1.00  0.00     0.041 A 
ATOM     88  F   UNL     1       5.193   7.436 -11.711  1.00  0.00    -0.206 F 
ATOM     89  C   UNL     1       7.683  10.021 -11.632  1.00  0.00     0.022 A 
BRANCH  86  90
ATOM     90  S   UNL     1       7.702  12.777 -11.857  1.00  0.00     0.124 S 
ATOM     91  O   UNL     1       7.919  13.114 -13.259  1.00  0.00    -0.237 OA
ATOM     92  O   UNL     1       6.699  13.562 -11.146  1.00  0.00    -0.237 OA
ATOM     93  O   UNL     1       8.921  12.513 -11.090  1.00  0.00    -0.744 OA
ENDBRANCH  86  90
ENDBRANCH  59  83
BRANCH  71  94
ATOM     94  C   UNL     1      -0.891  11.309 -14.186  1.00  0.00     0.023 A 
ATOM     95  C   UNL     1      -0.156  10.497 -15.077  1.00  0.00     0.031 A 
ATOM     96  C   UNL     1      -1.876  12.150 -14.738  1.00  0.00     0.131 A 
ATOM     97  C   UNL     1      -0.404  10.561 -16.461  1.00  0.00     0.055 A 
ATOM     98  C   UNL     1      -2.139  12.191 -16.107  1.00  0.00     0.041 A 
ATOM     99  F   UNL     1      -2.631  12.930 -13.945  1.00  0.00    -0.206 F 
ATOM    100  C   UNL     1      -1.396  11.401 -16.976  1.00  0.00     0.022 A 
BRANCH  97 101
ATOM    101  S   UNL     1       0.583   9.567 -17.624  1.00  0.00     0.124 S 
ATOM    102  O   UNL     1       1.950   9.738 -17.150  1.00  0.00    -0.237 OA
ATOM    103  O   UNL     1       0.011   8.233 -17.459  1.00  0.00    -0.237 OA
ATOM    104  O   UNL     1       0.305  10.190 -18.920  1.00  0.00    -0.744 OA
ENDBRANCH  97 101
ENDBRANCH  71  94
ENDBRANCH  45  46
ENDBRANCH  37  40
ENDBRANCH  35  36
ENDBRANCH  34  35
ENDBRANCH  33  34
ENDBRANCH  32  33
ENDBRANCH   1  32
TORSDOF 21
