REMARK SMILES CCC[C@@H](CNC(=O)NCc1c(C)nn(C)c1C)C(=O)NCCCCCCNC(=O)c1ccc(-c2c3nc(c(-c4cc(S(=O)(=O)[O-])ccc4F)c4ccc([nH]4)c(-c4cc(S(=O)(=O)[O-])ccc4F)c4nc(c(-c5cc(S(=O)(=O)[O-])ccc5F)c5ccc2[nH]5)C=C4)C=C3)cc1
REMARK SMILES IDX 24 1 23 2 22 3 21 4 19 5 20 6 4 8 3 9 2 10 1 11 5 12 6 13
REMARK SMILES IDX 7 14 8 16 9 17 10 19 11 20 12 21 17 22 13 23 14 24 15 25
REMARK SMILES IDX 18 26 16 27 25 28 26 29 27 30 28 31 29 32 30 34 31 35 32 36
REMARK SMILES IDX 93 37 33 38 92 39 34 40 35 41 36 42 86 43 37 44 91 45 85 46
REMARK SMILES IDX 87 47 38 48 90 49 84 50 83 51 39 53 71 54 51 55 70 56 52 57
REMARK SMILES IDX 55 58 69 59 88 60 53 61 54 62 68 64 89 65 56 66 40 67 41 68
REMARK SMILES IDX 49 69 42 70 48 71 50 72 47 73 43 74 44 75 45 76 46 77 72 78
REMARK SMILES IDX 73 79 81 80 74 81 80 82 82 83 79 84 75 85 76 86 77 87 78 88
REMARK SMILES IDX 57 89 58 90 66 91 59 92 65 93 67 94 64 95 60 96 61 97 62 98
REMARK SMILES IDX 63 99
REMARK H PARENT 21 7 6 15 9 18 28 33 87 52 55 63
REMARK Flexibility Score: inf
ROOT
ATOM      1  C   UNL     1       1.128   6.740  -3.426  1.00  0.00     0.002 C 
ENDROOT
BRANCH   1   2
ATOM      2  C   UNL     1       0.915   5.745  -2.280  1.00  0.00     0.021 C 
BRANCH   2   3
ATOM      3  C   UNL     1       0.021   4.566  -2.643  1.00  0.00     0.116 C 
BRANCH   3   4
ATOM      4  N   UNL     1       0.691   3.593  -3.487  1.00  0.00    -0.356 N 
ATOM      5  C   UNL     1       0.750   2.237  -3.406  1.00  0.00     0.224 C 
ATOM      6  O   UNL     1       1.192   1.631  -4.388  1.00  0.00    -0.275 OA
ATOM      7  H   UNL     1       1.186   3.979  -4.245  1.00  0.00     0.163 HD
BRANCH   5   8
ATOM      8  C   UNL     1       0.302   1.451  -2.174  1.00  0.00     0.097 C 
BRANCH   8   9
ATOM      9  C   UNL     1       0.977   1.933  -0.871  1.00  0.00     0.015 C 
BRANCH   9  10
ATOM     10  C   UNL     1       0.663   1.133   0.397  1.00  0.00    -0.003 C 
ATOM     11  C   UNL     1       1.037  -0.337   0.309  1.00  0.00     0.004 C 
ENDBRANCH   9  10
ENDBRANCH   8   9
BRANCH   8  12
ATOM     12  C   UNL     1      -1.209   1.153  -2.140  1.00  0.00     0.131 C 
BRANCH  12  13
ATOM     13  N   UNL     1      -2.100   2.288  -2.200  1.00  0.00    -0.337 N 
ATOM     14  C   UNL     1      -2.684   2.952  -3.204  1.00  0.00     0.315 C 
ATOM     15  H   UNL     1      -2.326   2.650  -1.312  1.00  0.00     0.165 HD
ATOM     16  O   UNL     1      -3.232   4.025  -2.938  1.00  0.00    -0.249 OA
ATOM     17  N   UNL     1      -2.677   2.563  -4.478  1.00  0.00    -0.334 N 
ATOM     18  H   UNL     1      -2.887   3.296  -5.101  1.00  0.00     0.165 HD
BRANCH  17  19
ATOM     19  C   UNL     1      -2.431   1.312  -5.153  1.00  0.00     0.157 C 
BRANCH  19  20
ATOM     20  C   UNL     1      -3.552   0.340  -4.946  1.00  0.00     0.015 A 
ATOM     21  C   UNL     1      -4.962   0.578  -4.878  1.00  0.00     0.065 A 
ATOM     22  C   UNL     1      -3.441  -1.045  -4.839  1.00  0.00     0.040 A 
ATOM     23  C   UNL     1      -5.742   1.843  -4.940  1.00  0.00     0.069 C 
ATOM     24  N   UNL     1      -5.651  -0.562  -4.760  1.00  0.00    -0.178 NA
ATOM     25  N   UNL     1      -4.721  -1.522  -4.741  1.00  0.00    -0.272 N 
ATOM     26  C   UNL     1      -2.252  -1.935  -4.845  1.00  0.00     0.067 C 
ATOM     27  C   UNL     1      -5.175  -2.891  -4.670  1.00  0.00     0.174 C 
ENDBRANCH  19  20
ENDBRANCH  17  19
ENDBRANCH  12  13
ENDBRANCH   8  12
ENDBRANCH   5   8
ENDBRANCH   3   4
ENDBRANCH   2   3
ENDBRANCH   1   2
BRANCH   1  28
ATOM     28  C   UNL     1      -0.150   7.276  -4.085  1.00  0.00     0.002 C 
BRANCH  28  29
ATOM     29  C   UNL     1      -1.200   7.850  -3.129  1.00  0.00     0.021 C 
BRANCH  29  30
ATOM     30  C   UNL     1      -0.706   8.977  -2.228  1.00  0.00     0.116 C 
BRANCH  30  31
ATOM     31  N   UNL     1      -0.196  10.102  -2.991  1.00  0.00    -0.352 N 
ATOM     32  C   UNL     1      -0.501  11.436  -2.892  1.00  0.00     0.251 C 
ATOM     33  H   UNL     1       0.468   9.874  -3.682  1.00  0.00     0.163 HD
ATOM     34  O   UNL     1      -0.111  12.210  -3.762  1.00  0.00    -0.269 OA
BRANCH  32  35
ATOM     35  C   UNL     1      -1.311  11.934  -1.758  1.00  0.00     0.039 A 
ATOM     36  C   UNL     1      -2.304  12.883  -2.011  1.00  0.00     0.014 A 
ATOM     37  C   UNL     1      -1.083  11.490  -0.452  1.00  0.00     0.014 A 
ATOM     38  C   UNL     1      -3.099  13.351  -0.962  1.00  0.00     0.010 A 
ATOM     39  C   UNL     1      -1.925  11.901   0.580  1.00  0.00     0.010 A 
ATOM     40  C   UNL     1      -2.937  12.842   0.337  1.00  0.00    -0.014 A 
BRANCH  40  41
ATOM     41  C   UNL     1      -3.821  13.291   1.444  1.00  0.00     0.031 A 
ATOM     42  C   UNL     1      -3.251  14.041   2.618  1.00  0.00     0.074 A 
ATOM     43  C   UNL     1      -5.133  12.985   1.409  1.00  0.00     0.049 A 
ATOM     44  N   UNL     1      -3.858  14.495   3.685  1.00  0.00    -0.248 NA
ATOM     45  C   UNL     1      -1.802  14.288   2.602  1.00  0.00     0.031 C 
ATOM     46  C   UNL     1      -5.791  12.217   0.348  1.00  0.00     0.029 A 
ATOM     47  N   UNL     1      -6.149  13.277   2.283  1.00  0.00    -0.354 N 
ATOM     48  C   UNL     1      -2.866  15.071   4.472  1.00  0.00     0.074 A 
ATOM     49  C   UNL     1      -1.610  14.849   3.786  1.00  0.00     0.031 C 
ATOM     50  C   UNL     1      -7.102  12.127   0.619  1.00  0.00     0.029 A 
ATOM     51  C   UNL     1      -7.374  12.789   1.891  1.00  0.00     0.049 A 
ATOM     52  H   UNL     1      -6.014  13.788   3.114  1.00  0.00     0.167 HD
ATOM     53  C   UNL     1      -2.994  15.742   5.644  1.00  0.00     0.034 A 
ATOM     54  C   UNL     1      -8.579  12.859   2.490  1.00  0.00     0.034 A 
ATOM     55  C   UNL     1      -4.258  15.957   6.308  1.00  0.00     0.049 A 
ATOM     56  C   UNL     1      -8.696  13.600   3.797  1.00  0.00     0.074 A 
ATOM     57  C   UNL     1      -4.514  16.674   7.465  1.00  0.00     0.029 A 
ATOM     58  N   UNL     1      -5.480  15.447   5.883  1.00  0.00    -0.354 N 
ATOM     59  N   UNL     1      -7.758  14.197   4.497  1.00  0.00    -0.248 NA
ATOM     60  C   UNL     1     -10.037  13.689   4.387  1.00  0.00     0.031 C 
ATOM     61  C   UNL     1      -5.870  16.533   7.779  1.00  0.00     0.029 A 
ATOM     62  C   UNL     1      -6.483  15.802   6.774  1.00  0.00     0.049 A 
ATOM     63  H   UNL     1      -5.614  14.912   5.068  1.00  0.00     0.167 HD
ATOM     64  C   UNL     1      -8.403  14.756   5.597  1.00  0.00     0.074 A 
ATOM     65  C   UNL     1      -9.811  14.444   5.452  1.00  0.00     0.031 C 
ATOM     66  C   UNL     1      -7.881  15.464   6.631  1.00  0.00     0.034 A 
BRANCH  53  67
ATOM     67  C   UNL     1      -1.729  16.260   6.292  1.00  0.00     0.023 A 
ATOM     68  C   UNL     1      -0.902  17.203   5.655  1.00  0.00     0.031 A 
ATOM     69  C   UNL     1      -1.327  15.783   7.551  1.00  0.00     0.131 A 
ATOM     70  C   UNL     1       0.320  17.573   6.237  1.00  0.00     0.055 A 
ATOM     71  C   UNL     1      -0.152  16.222   8.167  1.00  0.00     0.041 A 
ATOM     72  F   UNL     1      -2.060  14.866   8.202  1.00  0.00    -0.206 F 
ATOM     73  C   UNL     1       0.688  17.110   7.502  1.00  0.00     0.022 A 
BRANCH  70  74
ATOM     74  S   UNL     1       1.493  18.543   5.250  1.00  0.00     0.124 S 
ATOM     75  O   UNL     1       1.682  17.681   4.085  1.00  0.00    -0.237 OA
ATOM     76  O   UNL     1       0.759  19.782   5.016  1.00  0.00    -0.237 OA
ATOM     77  O   UNL     1       2.659  18.663   6.122  1.00  0.00    -0.744 OA
ENDBRANCH  70  74
ENDBRANCH  53  67
BRANCH  54  78
ATOM     78  C   UNL     1      -9.768  12.207   1.869  1.00  0.00     0.023 A 
ATOM     79  C   UNL     1     -10.861  12.965   1.420  1.00  0.00     0.031 A 
ATOM     80  C   UNL     1      -9.842  10.808   1.746  1.00  0.00     0.131 A 
ATOM     81  C   UNL     1     -11.998  12.319   0.909  1.00  0.00     0.055 A 
ATOM     82  C   UNL     1     -10.952  10.173   1.187  1.00  0.00     0.041 A 
ATOM     83  F   UNL     1      -8.823  10.036   2.157  1.00  0.00    -0.206 F 
ATOM     84  C   UNL     1     -12.044  10.930   0.776  1.00  0.00     0.022 A 
BRANCH  81  85
ATOM     85  S   UNL     1     -13.453  13.320   0.495  1.00  0.00     0.124 S 
ATOM     86  O   UNL     1     -13.746  13.962   1.771  1.00  0.00    -0.237 OA
ATOM     87  O   UNL     1     -12.935  14.188  -0.557  1.00  0.00    -0.237 OA
ATOM     88  O   UNL     1     -14.433  12.329   0.055  1.00  0.00    -0.744 OA
ENDBRANCH  81  85
ENDBRANCH  54  78
BRANCH  66  89
ATOM     89  C   UNL     1      -8.855  15.976   7.668  1.00  0.00     0.023 A 
ATOM     90  C   UNL     1      -9.598  15.102   8.482  1.00  0.00     0.031 A 
ATOM     91  C   UNL     1      -9.068  17.358   7.820  1.00  0.00     0.131 A 
ATOM     92  C   UNL     1     -10.567  15.614   9.357  1.00  0.00     0.055 A 
ATOM     93  C   UNL     1      -9.982  17.865   8.744  1.00  0.00     0.041 A 
ATOM     94  F   UNL     1      -8.391  18.241   7.068  1.00  0.00    -0.206 F 
ATOM     95  C   UNL     1     -10.751  16.991   9.507  1.00  0.00     0.022 A 
BRANCH  92  96
ATOM     96  S   UNL     1     -11.670  14.453  10.210  1.00  0.00     0.124 S 
ATOM     97  O   UNL     1     -12.262  13.723   9.094  1.00  0.00    -0.237 OA
ATOM     98  O   UNL     1     -10.742  13.699  11.046  1.00  0.00    -0.237 OA
ATOM     99  O   UNL     1     -12.590  15.326  10.937  1.00  0.00    -0.744 OA
ENDBRANCH  92  96
ENDBRANCH  66  89
ENDBRANCH  40  41
ENDBRANCH  32  35
ENDBRANCH  30  31
ENDBRANCH  29  30
ENDBRANCH  28  29
ENDBRANCH   1  28
TORSDOF 22
