REMARK SMILES CC(C)CSc1cc2c(cc1Cl)C=C(C(=O)NCCCCCCNC(=O)c1ccc(-c3c4nc(c(-c5cc(S(=O)(=O)[O-])ccc5F)c5ccc([nH]5)c(-c5cc(S(=O)(=O)[O-])ccc5F)c5nc(c(-c6cc(S(=O)(=O)[O-])ccc6F)c6ccc3[nH]6)C=C5)C=C4)cc1)[C@@H](C(F)(F)F)O2
REMARK SMILES IDX 20 1 19 2 18 3 17 4 15 5 16 6 14 8 6 9 7 10 11 11 8 12 10 13
REMARK SMILES IDX 12 14 9 15 95 16 13 17 90 18 5 19 4 20 2 21 1 22 3 23 91 24
REMARK SMILES IDX 92 25 93 26 94 27 21 28 22 29 23 30 24 31 25 32 26 34 27 35
REMARK SMILES IDX 28 36 89 37 29 38 88 39 30 40 31 41 32 42 82 43 33 44 87 45
REMARK SMILES IDX 81 46 83 47 34 48 86 49 80 50 79 51 35 53 67 54 47 55 66 56
REMARK SMILES IDX 48 57 51 58 65 59 84 60 49 61 50 62 64 64 85 65 52 66 36 67
REMARK SMILES IDX 37 68 45 69 38 70 44 71 46 72 43 73 39 74 40 75 41 76 42 77
REMARK SMILES IDX 68 78 69 79 77 80 70 81 76 82 78 83 75 84 71 85 72 86 73 87
REMARK SMILES IDX 74 88 53 89 54 90 62 91 55 92 61 93 63 94 60 95 56 96 57 97
REMARK SMILES IDX 58 98 59 99
REMARK H PARENT 17 7 24 33 83 52 51 63
REMARK Flexibility Score: inf
ROOT
ATOM      1  C   UNL     1      -2.945  11.211  -0.475  1.00  0.00     0.002 C 
ENDROOT
BRANCH   1   2
ATOM      2  C   UNL     1      -3.231   9.712  -0.617  1.00  0.00     0.021 C 
BRANCH   2   3
ATOM      3  C   UNL     1      -2.265   8.979  -1.541  1.00  0.00     0.116 C 
BRANCH   3   4
ATOM      4  N   UNL     1      -1.012   8.707  -0.863  1.00  0.00    -0.352 N 
ATOM      5  C   UNL     1      -0.306   7.617  -0.497  1.00  0.00     0.251 C 
ATOM      6  O   UNL     1       0.732   7.854   0.132  1.00  0.00    -0.270 OA
ATOM      7  H   UNL     1      -0.556   9.538  -0.599  1.00  0.00     0.163 HD
BRANCH   5   8
ATOM      8  C   UNL     1      -0.665   6.207  -0.815  1.00  0.00     0.067 C 
ATOM      9  C   UNL     1      -0.461   1.261  -1.653  1.00  0.00     0.030 A 
ATOM     10  C   UNL     1      -1.525   2.153  -1.445  1.00  0.00     0.063 A 
ATOM     11  C   UNL     1       0.855   1.754  -1.598  1.00  0.00     0.055 A 
ATOM     12  C   UNL     1      -1.258   3.487  -1.143  1.00  0.00     0.129 A 
ATOM     13  C   UNL     1       1.109   3.053  -1.152  1.00  0.00     0.033 A 
ATOM     14  Cl  UNL     1       2.222   0.831  -2.134  1.00  0.00    -0.083 Cl
ATOM     15  C   UNL     1       0.048   3.919  -0.913  1.00  0.00     0.019 A 
ATOM     16  O   UNL     1      -2.303   4.373  -1.119  1.00  0.00    -0.475 OA
ATOM     17  C   UNL     1       0.277   5.297  -0.503  1.00  0.00     0.025 C 
ATOM     18  C   UNL     1      -1.919   5.738  -1.505  1.00  0.00     0.314 C 
BRANCH   9  19
ATOM     19  S   UNL     1      -0.845  -0.441  -2.044  1.00  0.00    -0.124 SA
BRANCH  19  20
ATOM     20  C   UNL     1      -0.879  -1.180  -0.362  1.00  0.00     0.078 C 
BRANCH  20  21
ATOM     21  C   UNL     1       0.480  -1.738   0.110  1.00  0.00    -0.007 C 
ATOM     22  C   UNL     1       1.258  -0.742   0.974  1.00  0.00     0.008 C 
ATOM     23  C   UNL     1       0.270  -3.009   0.943  1.00  0.00     0.008 C 
ENDBRANCH  20  21
ENDBRANCH  19  20
ENDBRANCH   9  19
BRANCH  18  24
ATOM     24  C   UNL     1      -1.814   5.870  -3.044  1.00  0.00     0.429 C 
ATOM     25  F   UNL     1      -3.033   5.764  -3.621  1.00  0.00    -0.167 F 
ATOM     26  F   UNL     1      -1.311   7.073  -3.417  1.00  0.00    -0.167 F 
ATOM     27  F   UNL     1      -1.015   4.932  -3.600  1.00  0.00    -0.167 F 
ENDBRANCH  18  24
ENDBRANCH   5   8
ENDBRANCH   3   4
ENDBRANCH   2   3
ENDBRANCH   1   2
BRANCH   1  28
ATOM     28  C   UNL     1      -2.931  12.007  -1.786  1.00  0.00     0.002 C 
BRANCH  28  29
ATOM     29  C   UNL     1      -4.123  11.766  -2.714  1.00  0.00     0.021 C 
BRANCH  29  30
ATOM     30  C   UNL     1      -5.486  12.027  -2.085  1.00  0.00     0.116 C 
BRANCH  30  31
ATOM     31  N   UNL     1      -5.667  13.418  -1.708  1.00  0.00    -0.352 N 
ATOM     32  C   UNL     1      -6.714  14.262  -2.006  1.00  0.00     0.251 C 
ATOM     33  H   UNL     1      -4.945  13.810  -1.166  1.00  0.00     0.163 HD
ATOM     34  O   UNL     1      -6.640  15.453  -1.746  1.00  0.00    -0.269 OA
BRANCH  32  35
ATOM     35  C   UNL     1      -7.907  13.705  -2.682  1.00  0.00     0.039 A 
ATOM     36  C   UNL     1      -8.502  12.532  -2.211  1.00  0.00     0.014 A 
ATOM     37  C   UNL     1      -8.391  14.333  -3.831  1.00  0.00     0.014 A 
ATOM     38  C   UNL     1      -9.471  11.899  -2.981  1.00  0.00     0.010 A 
ATOM     39  C   UNL     1      -9.423  13.735  -4.559  1.00  0.00     0.010 A 
ATOM     40  C   UNL     1      -9.935  12.487  -4.168  1.00  0.00    -0.014 A 
BRANCH  40  41
ATOM     41  C   UNL     1     -10.947  11.781  -4.997  1.00  0.00     0.031 A 
ATOM     42  C   UNL     1     -10.602  11.307  -6.384  1.00  0.00     0.074 A 
ATOM     43  C   UNL     1     -12.168  11.539  -4.483  1.00  0.00     0.049 A 
ATOM     44  N   UNL     1     -11.361  10.698  -7.257  1.00  0.00    -0.248 NA
ATOM     45  C   UNL     1      -9.228  11.549  -6.854  1.00  0.00     0.031 C 
ATOM     46  C   UNL     1     -12.600  11.936  -3.143  1.00  0.00     0.029 A 
ATOM     47  N   UNL     1     -13.260  10.896  -5.009  1.00  0.00    -0.354 N 
ATOM     48  C   UNL     1     -10.569  10.502  -8.383  1.00  0.00     0.074 A 
ATOM     49  C   UNL     1      -9.278  11.085  -8.096  1.00  0.00     0.031 C 
ATOM     50  C   UNL     1     -13.847  11.492  -2.935  1.00  0.00     0.029 A 
ATOM     51  C   UNL     1     -14.335  10.848  -4.152  1.00  0.00     0.049 A 
ATOM     52  H   UNL     1     -13.273  10.507  -5.913  1.00  0.00     0.167 HD
ATOM     53  C   UNL     1     -10.890   9.881  -9.543  1.00  0.00     0.034 A 
ATOM     54  C   UNL     1     -15.582  10.364  -4.329  1.00  0.00     0.034 A 
ATOM     55  C   UNL     1     -12.177   9.285  -9.801  1.00  0.00     0.049 A 
ATOM     56  C   UNL     1     -15.927   9.714  -5.643  1.00  0.00     0.074 A 
ATOM     57  C   UNL     1     -12.591   8.611 -10.935  1.00  0.00     0.029 A 
ATOM     58  N   UNL     1     -13.249   9.282  -8.920  1.00  0.00    -0.354 N 
ATOM     59  N   UNL     1     -15.157   9.510  -6.686  1.00  0.00    -0.248 NA
ATOM     60  C   UNL     1     -17.303   9.229  -5.813  1.00  0.00     0.031 C 
ATOM     61  C   UNL     1     -13.930   8.257 -10.768  1.00  0.00     0.029 A 
ATOM     62  C   UNL     1     -14.332   8.640  -9.497  1.00  0.00     0.049 A 
ATOM     63  H   UNL     1     -13.241   9.677  -8.018  1.00  0.00     0.167 HD
ATOM     64  C   UNL     1     -15.946   8.853  -7.625  1.00  0.00     0.074 A 
ATOM     65  C   UNL     1     -17.249   8.675  -7.018  1.00  0.00     0.031 C 
ATOM     66  C   UNL     1     -15.620   8.442  -8.876  1.00  0.00     0.034 A 
BRANCH  53  67
ATOM     67  C   UNL     1      -9.851   9.790 -10.634  1.00  0.00     0.023 A 
ATOM     68  C   UNL     1     -10.082  10.409 -11.877  1.00  0.00     0.031 A 
ATOM     69  C   UNL     1      -8.710   8.981 -10.496  1.00  0.00     0.131 A 
ATOM     70  C   UNL     1      -9.205  10.179 -12.945  1.00  0.00     0.055 A 
ATOM     71  C   UNL     1      -7.816   8.788 -11.552  1.00  0.00     0.041 A 
ATOM     72  F   UNL     1      -8.444   8.369  -9.331  1.00  0.00    -0.206 F 
ATOM     73  C   UNL     1      -8.070   9.377 -12.787  1.00  0.00     0.022 A 
BRANCH  70  74
ATOM     74  S   UNL     1      -9.538  10.851 -14.596  1.00  0.00     0.124 S 
ATOM     75  O   UNL     1      -8.346  11.663 -14.834  1.00  0.00    -0.237 OA
ATOM     76  O   UNL     1      -9.639   9.640 -15.405  1.00  0.00    -0.237 OA
ATOM     77  O   UNL     1     -10.777  11.603 -14.426  1.00  0.00    -0.744 OA
ENDBRANCH  70  74
ENDBRANCH  53  67
BRANCH  54  78
ATOM     78  C   UNL     1     -16.560  10.453  -3.204  1.00  0.00     0.023 A 
ATOM     79  C   UNL     1     -16.934  11.701  -2.670  1.00  0.00     0.031 A 
ATOM     80  C   UNL     1     -17.036   9.294  -2.569  1.00  0.00     0.131 A 
ATOM     81  C   UNL     1     -17.686  11.757  -1.490  1.00  0.00     0.055 A 
ATOM     82  C   UNL     1     -17.851   9.357  -1.438  1.00  0.00     0.041 A 
ATOM     83  F   UNL     1     -16.697   8.082  -3.033  1.00  0.00    -0.206 F 
ATOM     84  C   UNL     1     -18.163  10.594  -0.880  1.00  0.00     0.022 A 
BRANCH  81  85
ATOM     85  S   UNL     1     -17.939  13.333  -0.625  1.00  0.00     0.124 S 
ATOM     86  O   UNL     1     -19.394  13.452  -0.630  1.00  0.00    -0.237 OA
ATOM     87  O   UNL     1     -17.332  13.060   0.676  1.00  0.00    -0.237 OA
ATOM     88  O   UNL     1     -17.223  14.298  -1.452  1.00  0.00    -0.744 OA
ENDBRANCH  81  85
ENDBRANCH  54  78
BRANCH  66  89
ATOM     89  C   UNL     1     -16.665   7.735  -9.705  1.00  0.00     0.023 A 
ATOM     90  C   UNL     1     -16.446   6.406 -10.117  1.00  0.00     0.031 A 
ATOM     91  C   UNL     1     -17.768   8.424 -10.235  1.00  0.00     0.131 A 
ATOM     92  C   UNL     1     -17.286   5.827 -11.076  1.00  0.00     0.055 A 
ATOM     93  C   UNL     1     -18.632   7.825 -11.152  1.00  0.00     0.041 A 
ATOM     94  F   UNL     1     -18.011   9.696  -9.880  1.00  0.00    -0.206 F 
ATOM     95  C   UNL     1     -18.382   6.527 -11.591  1.00  0.00     0.022 A 
BRANCH  92  96
ATOM     96  S   UNL     1     -16.928   4.187 -11.764  1.00  0.00     0.124 S 
ATOM     97  O   UNL     1     -18.145   3.449 -11.434  1.00  0.00    -0.237 OA
ATOM     98  O   UNL     1     -16.744   4.483 -13.182  1.00  0.00    -0.237 OA
ATOM     99  O   UNL     1     -15.729   3.759 -11.051  1.00  0.00    -0.744 OA
ENDBRANCH  92  96
ENDBRANCH  66  89
ENDBRANCH  40  41
ENDBRANCH  32  35
ENDBRANCH  30  31
ENDBRANCH  29  30
ENDBRANCH  28  29
ENDBRANCH   1  28
TORSDOF 20
