REMARK SMILES CCN(CCC(=O)NCCCCCCNC(=O)c1ccc(-c2c3nc(c(-c4cc(S(=O)(=O)[O-])ccc4F)c4ccc([nH]4)c(-c4cc(S(=O)(=O)[O-])ccc4F)c4nc(c(-c5cc(S(=O)(=O)[O-])ccc5F)c5ccc2[nH]5)C=C4)C=C3)cc1)C(=O)C1(C)CCCC1
REMARK SMILES IDX 11 1 10 2 9 3 8 4 6 5 7 6 5 8 4 9 3 10 2 11 1 12 81 13 82 14
REMARK SMILES IDX 83 15 84 16 85 17 88 18 86 19 87 20 12 21 13 22 14 23 15 24
REMARK SMILES IDX 16 25 17 27 18 28 19 29 80 30 20 31 79 32 21 33 22 34 23 35
REMARK SMILES IDX 73 36 24 37 78 38 72 39 74 40 25 41 77 42 71 43 70 44 26 46
REMARK SMILES IDX 58 47 38 48 57 49 39 50 42 51 56 52 75 53 40 54 41 55 55 57
REMARK SMILES IDX 76 58 43 59 27 60 28 61 36 62 29 63 35 64 37 65 34 66 30 67
REMARK SMILES IDX 31 68 32 69 33 70 59 71 60 72 68 73 61 74 67 75 69 76 66 77
REMARK SMILES IDX 62 78 63 79 64 80 65 81 44 82 45 83 53 84 46 85 52 86 54 87
REMARK SMILES IDX 51 88 47 89 48 90 49 91 50 92
REMARK H PARENT 8 7 15 26 74 45 42 56
REMARK Flexibility Score: inf
ROOT
ATOM      1  C   UNL     1       4.718  -2.708  -2.744  1.00  0.00     0.002 C 
ENDROOT
BRANCH   1   2
ATOM      2  C   UNL     1       3.264  -2.336  -3.084  1.00  0.00     0.021 C 
BRANCH   2   3
ATOM      3  C   UNL     1       2.325  -3.514  -3.383  1.00  0.00     0.116 C 
BRANCH   3   4
ATOM      4  N   UNL     1       2.301  -4.558  -2.374  1.00  0.00    -0.356 N 
ATOM      5  C   UNL     1       1.305  -4.981  -1.546  1.00  0.00     0.221 C 
ATOM      6  O   UNL     1       1.431  -6.073  -0.984  1.00  0.00    -0.275 OA
ATOM      7  H   UNL     1       3.151  -5.043  -2.270  1.00  0.00     0.163 HD
BRANCH   5   8
ATOM      8  C   UNL     1       0.059  -4.152  -1.339  1.00  0.00     0.121 C 
BRANCH   8   9
ATOM      9  C   UNL     1       0.029  -3.502   0.046  1.00  0.00     0.129 C 
BRANCH   9  10
ATOM     10  N   UNL     1       0.866  -2.293   0.171  1.00  0.00    -0.342 N 
BRANCH  10  11
ATOM     11  C   UNL     1       0.315  -1.083  -0.438  1.00  0.00     0.116 C 
ATOM     12  C   UNL     1      -0.358  -0.139   0.542  1.00  0.00     0.027 C 
ENDBRANCH  10  11
BRANCH  10  13
ATOM     13  C   UNL     1       2.147  -2.473   0.681  1.00  0.00     0.228 C 
ATOM     14  O   UNL     1       2.579  -3.632   0.774  1.00  0.00    -0.274 OA
BRANCH  13  15
ATOM     15  C   UNL     1       2.977  -1.347   1.371  1.00  0.00     0.047 C 
ATOM     16  C   UNL     1       2.437  -1.274   2.811  1.00  0.00     0.022 C 
ATOM     17  C   UNL     1       4.482  -1.790   1.417  1.00  0.00     0.016 C 
ATOM     18  C   UNL     1       3.057   0.068   0.788  1.00  0.00     0.016 C 
ATOM     19  C   UNL     1       5.296  -0.743   0.666  1.00  0.00     0.001 C 
ATOM     20  C   UNL     1       4.278   0.074  -0.094  1.00  0.00     0.001 C 
ENDBRANCH  13  15
ENDBRANCH  10  13
ENDBRANCH   9  10
ENDBRANCH   8   9
ENDBRANCH   5   8
ENDBRANCH   3   4
ENDBRANCH   2   3
ENDBRANCH   1   2
BRANCH   1  21
ATOM     21  C   UNL     1       5.847  -2.073  -3.585  1.00  0.00     0.002 C 
BRANCH  21  22
ATOM     22  C   UNL     1       5.807  -0.585  -3.962  1.00  0.00     0.021 C 
BRANCH  22  23
ATOM     23  C   UNL     1       6.309   0.449  -2.956  1.00  0.00     0.116 C 
BRANCH  23  24
ATOM     24  N   UNL     1       7.699   0.344  -2.556  1.00  0.00    -0.352 N 
ATOM     25  C   UNL     1       8.540   1.366  -2.157  1.00  0.00     0.251 C 
ATOM     26  H   UNL     1       8.089  -0.560  -2.570  1.00  0.00     0.163 HD
ATOM     27  O   UNL     1       9.681   1.118  -1.778  1.00  0.00    -0.269 OA
BRANCH  25  28
ATOM     28  C   UNL     1       8.083   2.773  -2.259  1.00  0.00     0.039 A 
ATOM     29  C   UNL     1       8.774   3.628  -3.121  1.00  0.00     0.014 A 
ATOM     30  C   UNL     1       6.955   3.234  -1.572  1.00  0.00     0.014 A 
ATOM     31  C   UNL     1       8.277   4.910  -3.373  1.00  0.00     0.010 A 
ATOM     32  C   UNL     1       6.436   4.504  -1.857  1.00  0.00     0.010 A 
ATOM     33  C   UNL     1       7.074   5.341  -2.788  1.00  0.00    -0.014 A 
BRANCH  33  34
ATOM     34  C   UNL     1       6.443   6.613  -3.242  1.00  0.00     0.031 A 
ATOM     35  C   UNL     1       6.349   7.814  -2.345  1.00  0.00     0.074 A 
ATOM     36  C   UNL     1       5.921   6.674  -4.484  1.00  0.00     0.049 A 
ATOM     37  N   UNL     1       5.882   9.009  -2.612  1.00  0.00    -0.248 NA
ATOM     38  C   UNL     1       6.822   7.644  -0.967  1.00  0.00     0.031 C 
ATOM     39  C   UNL     1       5.894   5.562  -5.438  1.00  0.00     0.029 A 
ATOM     40  N   UNL     1       5.317   7.705  -5.161  1.00  0.00    -0.354 N 
ATOM     41  C   UNL     1       6.018   9.743  -1.439  1.00  0.00     0.074 A 
ATOM     42  C   UNL     1       6.549   8.831  -0.444  1.00  0.00     0.031 C 
ATOM     43  C   UNL     1       5.326   5.977  -6.581  1.00  0.00     0.029 A 
ATOM     44  C   UNL     1       4.919   7.372  -6.435  1.00  0.00     0.049 A 
ATOM     45  H   UNL     1       5.182   8.599  -4.771  1.00  0.00     0.167 HD
ATOM     46  C   UNL     1       5.747  11.056  -1.220  1.00  0.00     0.034 A 
ATOM     47  C   UNL     1       4.292   8.098  -7.383  1.00  0.00     0.034 A 
ATOM     48  C   UNL     1       5.198  11.950  -2.216  1.00  0.00     0.049 A 
ATOM     49  C   UNL     1       3.960   9.540  -7.107  1.00  0.00     0.074 A 
ATOM     50  C   UNL     1       4.961  13.311  -2.118  1.00  0.00     0.029 A 
ATOM     51  N   UNL     1       4.771  11.569  -3.482  1.00  0.00    -0.354 N 
ATOM     52  N   UNL     1       4.182  10.245  -6.022  1.00  0.00    -0.248 NA
ATOM     53  C   UNL     1       3.303  10.286  -8.188  1.00  0.00     0.031 C 
ATOM     54  C   UNL     1       4.319  13.734  -3.288  1.00  0.00     0.029 A 
ATOM     55  C   UNL     1       4.223  12.656  -4.153  1.00  0.00     0.049 A 
ATOM     56  H   UNL     1       4.845  10.660  -3.852  1.00  0.00     0.167 HD
ATOM     57  C   UNL     1       3.699  11.521  -6.294  1.00  0.00     0.074 A 
ATOM     58  C   UNL     1       3.196  11.494  -7.653  1.00  0.00     0.031 C 
ATOM     59  C   UNL     1       3.678  12.617  -5.492  1.00  0.00     0.034 A 
BRANCH  46  60
ATOM     60  C   UNL     1       6.018  11.593   0.168  1.00  0.00     0.023 A 
ATOM     61  C   UNL     1       7.312  11.585   0.720  1.00  0.00     0.031 A 
ATOM     62  C   UNL     1       4.968  12.081   0.967  1.00  0.00     0.131 A 
ATOM     63  C   UNL     1       7.507  11.964   2.057  1.00  0.00     0.055 A 
ATOM     64  C   UNL     1       5.184  12.540   2.268  1.00  0.00     0.041 A 
ATOM     65  F   UNL     1       3.709  12.101   0.503  1.00  0.00    -0.206 F 
ATOM     66  C   UNL     1       6.456  12.464   2.828  1.00  0.00     0.022 A 
BRANCH  63  67
ATOM     67  S   UNL     1       9.117  11.627   2.822  1.00  0.00     0.124 S 
ATOM     68  O   UNL     1       9.268  10.195   2.577  1.00  0.00    -0.237 OA
ATOM     69  O   UNL     1      10.011  12.503   2.073  1.00  0.00    -0.237 OA
ATOM     70  O   UNL     1       8.913  11.992   4.223  1.00  0.00    -0.744 OA
ENDBRANCH  63  67
ENDBRANCH  46  60
BRANCH  47  71
ATOM     71  C   UNL     1       3.916   7.460  -8.675  1.00  0.00     0.023 A 
ATOM     72  C   UNL     1       4.530   7.833  -9.881  1.00  0.00     0.031 A 
ATOM     73  C   UNL     1       2.924   6.463  -8.716  1.00  0.00     0.131 A 
ATOM     74  C   UNL     1       4.127   7.229 -11.083  1.00  0.00     0.055 A 
ATOM     75  C   UNL     1       2.557   5.837  -9.908  1.00  0.00     0.041 A 
ATOM     76  F   UNL     1       2.313   6.067  -7.588  1.00  0.00    -0.206 F 
ATOM     77  C   UNL     1       3.155   6.225 -11.102  1.00  0.00     0.022 A 
BRANCH  74  78
ATOM     78  S   UNL     1       4.863   7.806 -12.638  1.00  0.00     0.124 S 
ATOM     79  O   UNL     1       4.443   9.202 -12.666  1.00  0.00    -0.237 OA
ATOM     80  O   UNL     1       6.284   7.566 -12.408  1.00  0.00    -0.237 OA
ATOM     81  O   UNL     1       4.245   6.946 -13.645  1.00  0.00    -0.744 OA
ENDBRANCH  74  78
ENDBRANCH  47  71
BRANCH  59  82
ATOM     82  C   UNL     1       3.086  13.879  -6.073  1.00  0.00     0.023 A 
ATOM     83  C   UNL     1       1.717  13.975  -6.384  1.00  0.00     0.031 A 
ATOM     84  C   UNL     1       3.901  14.995  -6.336  1.00  0.00     0.131 A 
ATOM     85  C   UNL     1       1.214  15.138  -6.988  1.00  0.00     0.055 A 
ATOM     86  C   UNL     1       3.384  16.171  -6.884  1.00  0.00     0.041 A 
ATOM     87  F   UNL     1       5.215  14.960  -6.066  1.00  0.00    -0.206 F 
ATOM     88  C   UNL     1       2.036  16.243  -7.224  1.00  0.00     0.022 A 
BRANCH  85  89
ATOM     89  S   UNL     1      -0.513  15.159  -7.542  1.00  0.00     0.124 S 
ATOM     90  O   UNL     1      -0.538  14.055  -8.497  1.00  0.00    -0.237 OA
ATOM     91  O   UNL     1      -1.244  14.942  -6.298  1.00  0.00    -0.237 OA
ATOM     92  O   UNL     1      -0.671  16.489  -8.128  1.00  0.00    -0.744 OA
ENDBRANCH  85  89
ENDBRANCH  59  82
ENDBRANCH  33  34
ENDBRANCH  25  28
ENDBRANCH  23  24
ENDBRANCH  22  23
ENDBRANCH  21  22
ENDBRANCH   1  21
TORSDOF 21
