REMARK SMILES Cc1c(CC(=O)NCCCCCCNC(=O)c2ccc(-c3c4nc(c(-c5cc(S(=O)(=O)[O-])ccc5F)c5ccc([nH]5)c(-c5cc(S(=O)(=O)[O-])ccc5F)c5nc(c(-c6cc(S(=O)(=O)[O-])ccc6F)c6ccc3[nH]6)C=C5)C=C4)cc2)cc(-c2ccccc2)cc1-c1ccccc1
REMARK SMILES IDX 11 1 10 2 9 3 8 4 7 5 5 6 6 7 4 9 3 10 1 11 2 12 89 13 80 14
REMARK SMILES IDX 88 15 81 16 90 17 91 18 95 19 92 20 94 21 93 22 82 23 83 24
REMARK SMILES IDX 87 25 84 26 86 27 85 28 12 29 13 30 14 31 15 32 16 34 17 35
REMARK SMILES IDX 18 36 79 37 19 38 78 39 20 40 21 41 22 42 72 43 23 44 77 45
REMARK SMILES IDX 71 46 73 47 24 48 76 49 70 50 69 51 25 53 57 54 37 55 56 56
REMARK SMILES IDX 38 57 41 58 55 59 74 60 39 61 40 62 54 64 75 65 42 66 26 67
REMARK SMILES IDX 27 68 35 69 28 70 34 71 36 72 33 73 29 74 30 75 31 76 32 77
REMARK SMILES IDX 58 78 59 79 67 80 60 81 66 82 68 83 65 84 61 85 62 86 63 87
REMARK SMILES IDX 64 88 43 89 44 90 52 91 45 92 51 93 53 94 50 95 46 96 47 97
REMARK SMILES IDX 48 98 49 99
REMARK H PARENT 7 8 14 33 73 52 41 63
REMARK Flexibility Score: inf
ROOT
ATOM      1  C   UNL     1       1.763  -1.872   5.835  1.00  0.00     0.002 C 
ENDROOT
BRANCH   1   2
ATOM      2  C   UNL     1       0.480  -1.498   5.073  1.00  0.00     0.002 C 
BRANCH   2   3
ATOM      3  C   UNL     1       0.674  -0.976   3.644  1.00  0.00     0.021 C 
BRANCH   3   4
ATOM      4  C   UNL     1       1.544  -1.862   2.756  1.00  0.00     0.116 C 
BRANCH   4   5
ATOM      5  N   UNL     1       0.847  -3.040   2.279  1.00  0.00    -0.356 N 
ATOM      6  C   UNL     1       0.575  -3.416   0.994  1.00  0.00     0.224 C 
ATOM      7  O   UNL     1       0.013  -4.496   0.795  1.00  0.00    -0.275 OA
ATOM      8  H   UNL     1       0.523  -3.653   2.977  1.00  0.00     0.163 HD
BRANCH   6   9
ATOM      9  C   UNL     1       1.015  -2.541  -0.175  1.00  0.00     0.135 C 
BRANCH   9  10
ATOM     10  C   UNL     1       0.335  -1.184  -0.234  1.00  0.00    -0.035 A 
ATOM     11  C   UNL     1       2.546   0.063  -0.450  1.00  0.00     0.045 C 
ATOM     12  C   UNL     1       1.039   0.046  -0.310  1.00  0.00    -0.040 A 
ATOM     13  C   UNL     1       0.308   1.265  -0.290  1.00  0.00    -0.015 A 
ATOM     14  C   UNL     1      -1.075  -1.175  -0.205  1.00  0.00     0.013 A 
ATOM     15  C   UNL     1      -1.101   1.218  -0.239  1.00  0.00     0.017 A 
ATOM     16  C   UNL     1      -1.811   0.012  -0.210  1.00  0.00    -0.017 A 
BRANCH  13  17
ATOM     17  C   UNL     1       0.954   2.592  -0.274  1.00  0.00    -0.018 A 
ATOM     18  C   UNL     1       0.819   3.431   0.847  1.00  0.00     0.009 A 
ATOM     19  C   UNL     1       1.712   3.057  -1.361  1.00  0.00     0.009 A 
ATOM     20  C   UNL     1       1.433   4.684   0.886  1.00  0.00     0.001 A 
ATOM     21  C   UNL     1       2.339   4.306  -1.316  1.00  0.00     0.001 A 
ATOM     22  C   UNL     1       2.199   5.118  -0.193  1.00  0.00     0.000 A 
ENDBRANCH  13  17
BRANCH  16  23
ATOM     23  C   UNL     1      -3.281  -0.011  -0.188  1.00  0.00    -0.018 A 
ATOM     24  C   UNL     1      -3.981  -0.680   0.830  1.00  0.00     0.009 A 
ATOM     25  C   UNL     1      -4.026   0.625  -1.194  1.00  0.00     0.009 A 
ATOM     26  C   UNL     1      -5.378  -0.715   0.839  1.00  0.00     0.001 A 
ATOM     27  C   UNL     1      -5.422   0.588  -1.188  1.00  0.00     0.001 A 
ATOM     28  C   UNL     1      -6.097  -0.083  -0.172  1.00  0.00     0.000 A 
ENDBRANCH  16  23
ENDBRANCH   9  10
ENDBRANCH   6   9
ENDBRANCH   4   5
ENDBRANCH   3   4
ENDBRANCH   2   3
ENDBRANCH   1   2
BRANCH   1  29
ATOM     29  C   UNL     1       2.868  -0.815   5.854  1.00  0.00     0.021 C 
BRANCH  29  30
ATOM     30  C   UNL     1       2.502   0.450   6.621  1.00  0.00     0.116 C 
BRANCH  30  31
ATOM     31  N   UNL     1       3.184   0.582   7.905  1.00  0.00    -0.352 N 
ATOM     32  C   UNL     1       3.132   1.616   8.826  1.00  0.00     0.251 C 
ATOM     33  H   UNL     1       3.765  -0.174   8.153  1.00  0.00     0.163 HD
ATOM     34  O   UNL     1       3.805   1.622   9.819  1.00  0.00    -0.269 OA
BRANCH  32  35
ATOM     35  C   UNL     1       2.100   2.674   8.621  1.00  0.00     0.039 A 
ATOM     36  C   UNL     1       1.193   2.880   9.667  1.00  0.00     0.014 A 
ATOM     37  C   UNL     1       1.893   3.268   7.378  1.00  0.00     0.014 A 
ATOM     38  C   UNL     1      -0.029   3.489   9.400  1.00  0.00     0.010 A 
ATOM     39  C   UNL     1       0.650   3.804   7.092  1.00  0.00     0.010 A 
ATOM     40  C   UNL     1      -0.333   3.852   8.085  1.00  0.00    -0.014 A 
BRANCH  40  41
ATOM     41  C   UNL     1      -1.700   4.129   7.653  1.00  0.00     0.031 A 
ATOM     42  C   UNL     1      -2.173   5.514   7.453  1.00  0.00     0.074 A 
ATOM     43  C   UNL     1      -2.577   3.114   7.496  1.00  0.00     0.049 A 
ATOM     44  N   UNL     1      -3.376   5.915   7.699  1.00  0.00    -0.248 NA
ATOM     45  C   UNL     1      -1.293   6.576   6.981  1.00  0.00     0.031 C 
ATOM     46  C   UNL     1      -3.927   3.186   6.942  1.00  0.00     0.029 A 
ATOM     47  N   UNL     1      -2.509   1.826   7.988  1.00  0.00    -0.354 N 
ATOM     48  C   UNL     1      -3.509   7.179   7.174  1.00  0.00     0.074 A 
ATOM     49  C   UNL     1      -2.167   7.571   6.800  1.00  0.00     0.031 C 
ATOM     50  C   UNL     1      -4.626   2.120   7.370  1.00  0.00     0.029 A 
ATOM     51  C   UNL     1      -3.791   1.401   8.318  1.00  0.00     0.049 A 
ATOM     52  H   UNL     1      -1.686   1.295   8.089  1.00  0.00     0.167 HD
ATOM     53  C   UNL     1      -4.748   7.712   6.967  1.00  0.00     0.034 A 
ATOM     54  C   UNL     1      -4.155   1.069   9.592  1.00  0.00     0.034 A 
ATOM     55  C   UNL     1      -5.815   6.795   7.361  1.00  0.00     0.049 A 
ATOM     56  C   UNL     1      -5.289   1.915  10.132  1.00  0.00     0.074 A 
ATOM     57  C   UNL     1      -6.604   5.923   6.628  1.00  0.00     0.029 A 
ATOM     58  N   UNL     1      -6.013   6.474   8.700  1.00  0.00    -0.354 N 
ATOM     59  N   UNL     1      -5.651   3.064   9.630  1.00  0.00    -0.248 NA
ATOM     60  C   UNL     1      -6.079   1.544  11.303  1.00  0.00     0.031 C 
ATOM     61  C   UNL     1      -7.230   5.031   7.532  1.00  0.00     0.029 A 
ATOM     62  C   UNL     1      -6.849   5.378   8.816  1.00  0.00     0.049 A 
ATOM     63  H   UNL     1      -5.614   6.959   9.458  1.00  0.00     0.167 HD
ATOM     64  C   UNL     1      -6.664   3.596  10.387  1.00  0.00     0.074 A 
ATOM     65  C   UNL     1      -6.916   2.591  11.404  1.00  0.00     0.031 C 
ATOM     66  C   UNL     1      -7.199   4.827  10.119  1.00  0.00     0.034 A 
BRANCH  53  67
ATOM     67  C   UNL     1      -4.979   8.922   6.089  1.00  0.00     0.023 A 
ATOM     68  C   UNL     1      -6.135   8.992   5.283  1.00  0.00     0.031 A 
ATOM     69  C   UNL     1      -4.088  10.005   5.967  1.00  0.00     0.131 A 
ATOM     70  C   UNL     1      -6.305  10.015   4.331  1.00  0.00     0.055 A 
ATOM     71  C   UNL     1      -4.222  10.988   4.976  1.00  0.00     0.041 A 
ATOM     72  F   UNL     1      -3.072  10.171   6.827  1.00  0.00    -0.206 F 
ATOM     73  C   UNL     1      -5.326  10.985   4.137  1.00  0.00     0.022 A 
BRANCH  70  74
ATOM     74  S   UNL     1      -7.831  10.063   3.350  1.00  0.00     0.124 S 
ATOM     75  O   UNL     1      -7.838   8.749   2.716  1.00  0.00    -0.237 OA
ATOM     76  O   UNL     1      -8.846  10.292   4.373  1.00  0.00    -0.237 OA
ATOM     77  O   UNL     1      -7.612  11.186   2.439  1.00  0.00    -0.744 OA
ENDBRANCH  70  74
ENDBRANCH  53  67
BRANCH  54  78
ATOM     78  C   UNL     1      -3.051   0.515  10.425  1.00  0.00     0.023 A 
ATOM     79  C   UNL     1      -2.411  -0.655   9.969  1.00  0.00     0.031 A 
ATOM     80  C   UNL     1      -2.410   1.270  11.416  1.00  0.00     0.131 A 
ATOM     81  C   UNL     1      -1.109  -0.959  10.387  1.00  0.00     0.055 A 
ATOM     82  C   UNL     1      -1.130   0.933  11.873  1.00  0.00     0.041 A 
ATOM     83  F   UNL     1      -2.955   2.407  11.872  1.00  0.00    -0.206 F 
ATOM     84  C   UNL     1      -0.456  -0.160  11.328  1.00  0.00     0.022 A 
BRANCH  81  85
ATOM     85  S   UNL     1      -0.179  -2.246   9.505  1.00  0.00     0.124 S 
ATOM     86  O   UNL     1      -0.411  -3.419  10.338  1.00  0.00    -0.237 OA
ATOM     87  O   UNL     1      -0.818  -2.264   8.191  1.00  0.00    -0.237 OA
ATOM     88  O   UNL     1       1.188  -1.729   9.502  1.00  0.00    -0.744 OA
ENDBRANCH  81  85
ENDBRANCH  54  78
BRANCH  66  89
ATOM     89  C   UNL     1      -8.183   5.563  11.002  1.00  0.00     0.023 A 
ATOM     90  C   UNL     1      -8.353   5.282  12.366  1.00  0.00     0.031 A 
ATOM     91  C   UNL     1      -8.952   6.640  10.498  1.00  0.00     0.131 A 
ATOM     92  C   UNL     1      -9.313   5.963  13.137  1.00  0.00     0.055 A 
ATOM     93  C   UNL     1      -9.847   7.372  11.287  1.00  0.00     0.041 A 
ATOM     94  F   UNL     1      -8.865   7.032   9.219  1.00  0.00    -0.206 F 
ATOM     95  C   UNL     1     -10.049   7.021  12.613  1.00  0.00     0.022 A 
BRANCH  92  96
ATOM     96  S   UNL     1      -9.630   5.377  14.823  1.00  0.00     0.124 S 
ATOM     97  O   UNL     1     -10.105   4.017  14.582  1.00  0.00    -0.237 OA
ATOM     98  O   UNL     1      -8.315   5.487  15.446  1.00  0.00    -0.237 OA
ATOM     99  O   UNL     1     -10.638   6.306  15.328  1.00  0.00    -0.744 OA
ENDBRANCH  92  96
ENDBRANCH  66  89
ENDBRANCH  40  41
ENDBRANCH  32  35
ENDBRANCH  30  31
ENDBRANCH  29  30
ENDBRANCH   1  29
TORSDOF 19
