REMARK SMILES CC[C@@H](C)N1C(=O)/C(=C/Nc2cccc(C(=O)NCCCCCCNC(=O)c3ccc(-c4c5nc(c(-c6cc(S(=O)(=O)[O-])ccc6F)c6ccc([nH]6)c(-c6cc(S(=O)(=O)[O-])ccc6F)c6nc(c(-c7cc(S(=O)(=O)[O-])ccc7F)c7ccc4[nH]7)C=C6)C=C5)cc3)c2)C(=O)NC1=S
REMARK SMILES IDX 21 1 20 2 19 3 18 4 16 5 17 6 15 8 11 9 12 10 91 11 13 12
REMARK SMILES IDX 14 13 10 14 9 16 5 17 6 18 95 19 7 20 8 21 94 22 96 23 92 24
REMARK SMILES IDX 93 26 3 27 4 28 2 29 1 30 22 31 23 32 24 33 25 34 26 35
REMARK SMILES IDX 27 37 28 38 29 39 90 40 30 41 89 42 31 43 32 44 33 45 83 46
REMARK SMILES IDX 34 47 88 48 82 49 84 50 35 51 87 52 81 53 80 54 36 56 68 57
REMARK SMILES IDX 48 58 67 59 49 60 52 61 66 62 85 63 50 64 51 65 65 67 86 68
REMARK SMILES IDX 53 69 37 70 38 71 46 72 39 73 45 74 47 75 44 76 40 77 41 78
REMARK SMILES IDX 42 79 43 80 69 81 70 82 78 83 71 84 77 85 79 86 76 87 72 88
REMARK SMILES IDX 73 89 74 90 75 91 54 92 55 93 63 94 56 95 62 96 64 97 61 98
REMARK SMILES IDX 57 99 58 100 59 101 60 102
REMARK H PARENT 18 7 10 15 94 25 25 36 84 55 52 66
REMARK Flexibility Score: inf
ROOT
ATOM      1  C   UNL     1      -0.604  -1.437  -4.603  1.00  0.00     0.002 C 
ENDROOT
BRANCH   1   2
ATOM      2  C   UNL     1      -0.796  -2.634  -3.671  1.00  0.00     0.021 C 
BRANCH   2   3
ATOM      3  C   UNL     1      -2.079  -2.656  -2.845  1.00  0.00     0.116 C 
BRANCH   3   4
ATOM      4  N   UNL     1      -3.290  -2.740  -3.644  1.00  0.00    -0.352 N 
ATOM      5  C   UNL     1      -4.381  -3.578  -3.579  1.00  0.00     0.251 C 
ATOM      6  O   UNL     1      -5.258  -3.461  -4.434  1.00  0.00    -0.269 OA
ATOM      7  H   UNL     1      -3.340  -2.075  -4.368  1.00  0.00     0.163 HD
BRANCH   5   8
ATOM      8  C   UNL     1      -4.511  -4.651  -2.554  1.00  0.00     0.041 A 
ATOM      9  C   UNL     1      -3.964  -5.624  -0.384  1.00  0.00     0.039 A 
ATOM     10  C   UNL     1      -4.614  -6.801  -0.772  1.00  0.00     0.026 A 
ATOM     11  C   UNL     1      -4.020  -4.524  -1.252  1.00  0.00     0.039 A 
ATOM     12  C   UNL     1      -5.233  -6.899  -2.021  1.00  0.00     0.003 A 
ATOM     13  C   UNL     1      -5.159  -5.835  -2.920  1.00  0.00     0.014 A 
BRANCH   9  14
ATOM     14  N   UNL     1      -3.288  -5.583   0.853  1.00  0.00    -0.361 N 
ATOM     15  H   UNL     1      -3.252  -6.419   1.372  1.00  0.00     0.166 HD
BRANCH  14  16
ATOM     16  C   UNL     1      -2.674  -4.479   1.401  1.00  0.00     0.102 C 
ATOM     17  N   UNL     1       0.330  -2.905   2.614  1.00  0.00    -0.282 N 
ATOM     18  C   UNL     1      -1.049  -3.025   2.420  1.00  0.00     0.267 C 
ATOM     19  C   UNL     1       1.138  -4.004   2.908  1.00  0.00     0.183 C 
ATOM     20  O   UNL     1      -1.840  -2.082   2.430  1.00  0.00    -0.268 OA
ATOM     21  C   UNL     1      -1.536  -4.387   2.112  1.00  0.00     0.121 C 
ATOM     22  N   UNL     1       0.545  -5.243   2.855  1.00  0.00    -0.298 N 
ATOM     23  S   UNL     1       2.765  -4.005   3.305  1.00  0.00    -0.040 S 
ATOM     24  C   UNL     1      -0.712  -5.555   2.424  1.00  0.00     0.264 C 
ATOM     25  H   UNL     1       1.095  -5.998   3.166  1.00  0.00     0.172 HD
ATOM     26  O   UNL     1      -1.089  -6.715   2.275  1.00  0.00    -0.269 OA
BRANCH  17  27
ATOM     27  C   UNL     1       0.891  -1.521   2.515  1.00  0.00     0.090 C 
ATOM     28  C   UNL     1       0.415  -0.610   3.651  1.00  0.00     0.031 C 
BRANCH  27  29
ATOM     29  C   UNL     1       0.634  -0.932   1.106  1.00  0.00     0.022 C 
ATOM     30  C   UNL     1       1.222   0.456   0.914  1.00  0.00     0.006 C 
ENDBRANCH  27  29
ENDBRANCH  17  27
ENDBRANCH  14  16
ENDBRANCH   9  14
ENDBRANCH   5   8
ENDBRANCH   3   4
ENDBRANCH   2   3
ENDBRANCH   1   2
BRANCH   1  31
ATOM     31  C   UNL     1      -0.673  -0.051  -3.955  1.00  0.00     0.002 C 
BRANCH  31  32
ATOM     32  C   UNL     1       0.160   0.140  -2.686  1.00  0.00     0.021 C 
BRANCH  32  33
ATOM     33  C   UNL     1       1.657  -0.128  -2.836  1.00  0.00     0.116 C 
BRANCH  33  34
ATOM     34  N   UNL     1       2.335   0.949  -3.530  1.00  0.00    -0.352 N 
ATOM     35  C   UNL     1       3.299   1.828  -3.094  1.00  0.00     0.251 C 
ATOM     36  H   UNL     1       2.061   1.072  -4.467  1.00  0.00     0.163 HD
ATOM     37  O   UNL     1       3.562   2.802  -3.798  1.00  0.00    -0.269 OA
BRANCH  35  38
ATOM     38  C   UNL     1       4.005   1.646  -1.799  1.00  0.00     0.039 A 
ATOM     39  C   UNL     1       4.343   2.788  -1.062  1.00  0.00     0.014 A 
ATOM     40  C   UNL     1       4.405   0.392  -1.329  1.00  0.00     0.014 A 
ATOM     41  C   UNL     1       5.030   2.671   0.151  1.00  0.00     0.010 A 
ATOM     42  C   UNL     1       5.025   0.270  -0.080  1.00  0.00     0.010 A 
ATOM     43  C   UNL     1       5.352   1.409   0.674  1.00  0.00    -0.014 A 
BRANCH  43  44
ATOM     44  C   UNL     1       6.039   1.275   1.992  1.00  0.00     0.031 A 
ATOM     45  C   UNL     1       7.411   0.657   2.084  1.00  0.00     0.074 A 
ATOM     46  C   UNL     1       5.422   1.684   3.119  1.00  0.00     0.049 A 
ATOM     47  N   UNL     1       8.148   0.421   3.141  1.00  0.00    -0.248 NA
ATOM     48  C   UNL     1       8.023   0.229   0.819  1.00  0.00     0.031 C 
ATOM     49  C   UNL     1       4.090   2.288   3.180  1.00  0.00     0.029 A 
ATOM     50  N   UNL     1       5.832   1.659   4.431  1.00  0.00    -0.354 N 
ATOM     51  C   UNL     1       9.307  -0.191   2.671  1.00  0.00     0.074 A 
ATOM     52  C   UNL     1       9.137  -0.350   1.241  1.00  0.00     0.031 C 
ATOM     53  C   UNL     1       3.809   2.609   4.453  1.00  0.00     0.029 A 
ATOM     54  C   UNL     1       4.914   2.187   5.309  1.00  0.00     0.049 A 
ATOM     55  H   UNL     1       6.702   1.297   4.715  1.00  0.00     0.167 HD
ATOM     56  C   UNL     1      10.418  -0.563   3.358  1.00  0.00     0.034 A 
ATOM     57  C   UNL     1       4.949   2.313   6.652  1.00  0.00     0.034 A 
ATOM     58  C   UNL     1      10.576  -0.402   4.785  1.00  0.00     0.049 A 
ATOM     59  C   UNL     1       6.165   1.834   7.405  1.00  0.00     0.074 A 
ATOM     60  C   UNL     1      11.674  -0.710   5.571  1.00  0.00     0.029 A 
ATOM     61  N   UNL     1       9.605   0.097   5.645  1.00  0.00    -0.354 N 
ATOM     62  N   UNL     1       7.266   1.290   6.940  1.00  0.00    -0.248 NA
ATOM     63  C   UNL     1       6.143   1.992   8.865  1.00  0.00     0.031 C 
ATOM     64  C   UNL     1      11.338  -0.476   6.909  1.00  0.00     0.029 A 
ATOM     65  C   UNL     1      10.064   0.067   6.955  1.00  0.00     0.049 A 
ATOM     66  H   UNL     1       8.720   0.424   5.366  1.00  0.00     0.167 HD
ATOM     67  C   UNL     1       8.080   1.074   8.050  1.00  0.00     0.074 A 
ATOM     68  C   UNL     1       7.348   1.557   9.202  1.00  0.00     0.031 C 
ATOM     69  C   UNL     1       9.325   0.532   8.107  1.00  0.00     0.034 A 
BRANCH  56  70
ATOM     70  C   UNL     1      11.533  -1.214   2.568  1.00  0.00     0.023 A 
ATOM     71  C   UNL     1      12.182  -0.544   1.516  1.00  0.00     0.031 A 
ATOM     72  C   UNL     1      11.923  -2.539   2.837  1.00  0.00     0.131 A 
ATOM     73  C   UNL     1      13.106  -1.227   0.711  1.00  0.00     0.055 A 
ATOM     74  C   UNL     1      12.916  -3.181   2.095  1.00  0.00     0.041 A 
ATOM     75  F   UNL     1      11.331  -3.242   3.816  1.00  0.00    -0.206 F 
ATOM     76  C   UNL     1      13.499  -2.533   1.010  1.00  0.00     0.022 A 
BRANCH  73  77
ATOM     77  S   UNL     1      13.641  -0.449  -0.838  1.00  0.00     0.124 S 
ATOM     78  O   UNL     1      12.363  -0.208  -1.503  1.00  0.00    -0.237 OA
ATOM     79  O   UNL     1      14.351   0.735  -0.368  1.00  0.00    -0.237 OA
ATOM     80  O   UNL     1      14.476  -1.472  -1.464  1.00  0.00    -0.744 OA
ENDBRANCH  73  77
ENDBRANCH  56  70
BRANCH  57  81
ATOM     81  C   UNL     1       3.795   2.916   7.379  1.00  0.00     0.023 A 
ATOM     82  C   UNL     1       3.937   4.122   8.085  1.00  0.00     0.031 A 
ATOM     83  C   UNL     1       2.541   2.279   7.406  1.00  0.00     0.131 A 
ATOM     84  C   UNL     1       2.856   4.633   8.821  1.00  0.00     0.055 A 
ATOM     85  C   UNL     1       1.454   2.820   8.094  1.00  0.00     0.041 A 
ATOM     86  F   UNL     1       2.350   1.127   6.744  1.00  0.00    -0.206 F 
ATOM     87  C   UNL     1       1.612   3.999   8.817  1.00  0.00     0.022 A 
BRANCH  84  88
ATOM     88  S   UNL     1       3.122   6.105   9.847  1.00  0.00     0.124 S 
ATOM     89  O   UNL     1       4.169   5.648  10.754  1.00  0.00    -0.237 OA
ATOM     90  O   UNL     1       3.519   7.098   8.854  1.00  0.00    -0.237 OA
ATOM     91  O   UNL     1       1.816   6.330  10.462  1.00  0.00    -0.744 OA
ENDBRANCH  84  88
ENDBRANCH  57  81
BRANCH  69  92
ATOM     92  C   UNL     1       9.993   0.476   9.462  1.00  0.00     0.023 A 
ATOM     93  C   UNL     1       9.491  -0.319  10.508  1.00  0.00     0.031 A 
ATOM     94  C   UNL     1      11.146   1.243   9.713  1.00  0.00     0.131 A 
ATOM     95  C   UNL     1      10.104  -0.284  11.771  1.00  0.00     0.055 A 
ATOM     96  C   UNL     1      11.791   1.221  10.951  1.00  0.00     0.041 A 
ATOM     97  F   UNL     1      11.669   2.026   8.756  1.00  0.00    -0.206 F 
ATOM     98  C   UNL     1      11.262   0.466  11.993  1.00  0.00     0.022 A 
BRANCH  95  99
ATOM     99  S   UNL     1       9.309  -1.152  13.152  1.00  0.00     0.124 S 
ATOM    100  O   UNL     1       7.991  -0.526  13.184  1.00  0.00    -0.237 OA
ATOM    101  O   UNL     1       9.344  -2.542  12.709  1.00  0.00    -0.237 OA
ATOM    102  O   UNL     1      10.169  -0.843  14.293  1.00  0.00    -0.744 OA
ENDBRANCH  95  99
ENDBRANCH  69  92
ENDBRANCH  43  44
ENDBRANCH  35  38
ENDBRANCH  33  34
ENDBRANCH  32  33
ENDBRANCH  31  32
ENDBRANCH   1  31
TORSDOF 20
