REMARK SMILES O=C(COc1ccccc1[C@@H]1C2=C(CCCC2=O)Nc2nc(SCc3ccccn3)nn21)NCCCCCCNC(=O)c1ccc(-c2c3nc(c(-c4cc(S(=O)(=O)[O-])ccc4F)c4ccc([nH]4)c(-c4cc(S(=O)(=O)[O-])ccc4F)c4nc(c(-c5cc(S(=O)(=O)[O-])ccc5F)c5ccc2[nH]5)C=C4)C=C3)cc1
REMARK SMILES IDX 35 1 34 2 33 3 1 4 2 5 3 7 4 8 5 9 6 10 10 11 7 12 9 13 8 14
REMARK SMILES IDX 11 15 12 16 32 17 13 18 17 19 20 20 31 21 14 22 19 23 16 24
REMARK SMILES IDX 18 25 21 26 22 27 15 28 23 30 24 31 25 32 26 33 30 34 27 35
REMARK SMILES IDX 29 36 28 37 36 38 37 39 38 40 39 41 40 42 41 43 42 45 43 46
REMARK SMILES IDX 44 47 105 48 45 49 104 50 46 51 47 52 48 53 98 54 49 55
REMARK SMILES IDX 103 56 97 57 99 58 50 59 102 60 96 61 95 62 51 64 83 65
REMARK SMILES IDX 63 66 82 67 64 68 67 69 81 70 100 71 65 72 66 73 80 75
REMARK SMILES IDX 101 76 68 77 52 78 53 79 61 80 54 81 60 82 62 83 59 84 55 85
REMARK SMILES IDX 56 86 57 87 58 88 84 89 85 90 93 91 86 92 92 93 94 94 91 95
REMARK SMILES IDX 87 96 88 97 89 98 90 99 69 100 70 101 78 102 71 103 77 104
REMARK SMILES IDX 79 105 76 106 72 107 73 108 74 109 75 110
REMARK H PARENT 33 6 19 29 40 44 99 63 67 74
REMARK Flexibility Score: inf
ROOT
ATOM      1  C   UNL     1       2.405  -4.285   0.519  1.00  0.00     0.021 C 
ENDROOT
BRANCH   1   2
ATOM      2  C   UNL     1       1.694  -3.101   1.167  1.00  0.00     0.116 C 
BRANCH   2   3
ATOM      3  N   UNL     1       2.397  -1.865   0.829  1.00  0.00    -0.353 N 
ATOM      4  O   UNL     1       0.568  -0.907   0.574  1.00  0.00    -0.271 OA
ATOM      5  C   UNL     1       1.790  -0.611   0.438  1.00  0.00     0.257 C 
ATOM      6  H   UNL     1       3.380  -1.887   0.871  1.00  0.00     0.163 HD
BRANCH   5   7
ATOM      7  C   UNL     1       2.654   1.354  -0.066  1.00  0.00     0.329 C 
BRANCH   7   8
ATOM      8  O   UNL     1       3.540   2.389   0.589  1.00  0.00    -0.483 OA
BRANCH   8   9
ATOM      9  C   UNL     1       3.052   2.957   1.730  1.00  0.00     0.125 A 
ATOM     10  C   UNL     1       3.744   4.001   2.322  1.00  0.00     0.047 A 
ATOM     11  C   UNL     1       2.045   2.293   2.401  1.00  0.00     0.024 A 
ATOM     12  C   UNL     1       3.431   4.355   3.634  1.00  0.00     0.004 A 
ATOM     13  C   UNL     1       1.706   2.654   3.702  1.00  0.00     0.010 A 
ATOM     14  C   UNL     1       2.416   3.682   4.322  1.00  0.00     0.001 A 
BRANCH  11  15
ATOM     15  C   UNL     1       1.720   0.977   1.788  1.00  0.00     0.181 C 
ATOM     16  C   UNL     1       3.480   0.164   1.401  1.00  0.00     0.044 C 
ATOM     17  N   UNL     1       0.630   1.145   0.287  1.00  0.00    -0.218 N 
ATOM     18  C   UNL     1       3.894  -0.315  -0.061  1.00  0.00     0.027 C 
ATOM     19  C   UNL     1       4.368  -0.075   2.545  1.00  0.00     0.163 C 
ATOM     20  C   UNL     1       1.143   0.449  -1.254  1.00  0.00     0.227 A 
ATOM     21  N   UNL     1      -0.527   1.772   0.038  1.00  0.00    -0.141 NA
ATOM     22  C   UNL     1       5.256  -0.875  -0.322  1.00  0.00     0.055 C 
ATOM     23  N   UNL     1       2.677  -0.293  -1.377  1.00  0.00    -0.328 N 
ATOM     24  C   UNL     1       5.742  -0.641   2.272  1.00  0.00     0.081 C 
ATOM     25  O   UNL     1       3.939   0.069   3.687  1.00  0.00    -0.294 OA
ATOM     26  N   UNL     1       0.119   0.688  -2.024  1.00  0.00    -0.185 NA
ATOM     27  C   UNL     1      -0.802   1.411  -1.238  1.00  0.00     0.210 A 
ATOM     28  C   UNL     1       6.246  -0.602   0.824  1.00  0.00     0.014 C 
ATOM     29  H   UNL     1       2.907  -0.737  -2.225  1.00  0.00     0.169 HD
BRANCH  27  30
ATOM     30  S   UNL     1      -2.335   1.945  -1.921  1.00  0.00    -0.078 SA
BRANCH  30  31
ATOM     31  C   UNL     1      -2.127   1.524  -3.680  1.00  0.00     0.134 C 
BRANCH  31  32
ATOM     32  C   UNL     1      -0.978   2.230  -4.363  1.00  0.00     0.051 A 
ATOM     33  C   UNL     1      -0.889   3.621  -4.383  1.00  0.00     0.025 A 
ATOM     34  N   UNL     1      -0.031   1.444  -4.934  1.00  0.00    -0.260 NA
ATOM     35  C   UNL     1       0.235   4.215  -4.950  1.00  0.00     0.003 A 
ATOM     36  C   UNL     1       1.058   2.043  -5.455  1.00  0.00     0.111 A 
ATOM     37  C   UNL     1       1.237   3.413  -5.482  1.00  0.00     0.020 A 
ENDBRANCH  31  32
ENDBRANCH  30  31
ENDBRANCH  27  30
ENDBRANCH  11  15
ENDBRANCH   8   9
ENDBRANCH   7   8
ENDBRANCH   5   7
ENDBRANCH   2   3
ENDBRANCH   1   2
BRANCH   1  38
ATOM     38  C   UNL     1       3.915  -4.380   0.779  1.00  0.00     0.002 C 
BRANCH  38  39
ATOM     39  C   UNL     1       4.411  -4.106   2.206  1.00  0.00     0.002 C 
BRANCH  39  40
ATOM     40  C   UNL     1       3.872  -5.011   3.310  1.00  0.00     0.021 C 
BRANCH  40  41
ATOM     41  C   UNL     1       4.131  -6.483   3.061  1.00  0.00     0.116 C 
BRANCH  41  42
ATOM     42  N   UNL     1       5.557  -6.824   3.090  1.00  0.00    -0.352 N 
ATOM     43  C   UNL     1       6.113  -8.076   2.858  1.00  0.00     0.251 C 
ATOM     44  H   UNL     1       6.183  -6.092   3.294  1.00  0.00     0.163 HD
ATOM     45  O   UNL     1       7.195  -8.395   3.332  1.00  0.00    -0.269 OA
BRANCH  43  46
ATOM     46  C   UNL     1       5.395  -8.961   1.927  1.00  0.00     0.039 A 
ATOM     47  C   UNL     1       5.171 -10.328   2.111  1.00  0.00     0.014 A 
ATOM     48  C   UNL     1       4.840  -8.301   0.849  1.00  0.00     0.014 A 
ATOM     49  C   UNL     1       4.392 -10.995   1.158  1.00  0.00     0.010 A 
ATOM     50  C   UNL     1       3.743  -8.873   0.306  1.00  0.00     0.010 A 
ATOM     51  C   UNL     1       3.709 -10.238   0.199  1.00  0.00    -0.014 A 
BRANCH  51  52
ATOM     52  C   UNL     1       2.704 -10.722  -0.734  1.00  0.00     0.031 A 
ATOM     53  C   UNL     1       1.604 -11.401  -0.012  1.00  0.00     0.074 A 
ATOM     54  C   UNL     1       2.677 -10.364  -2.046  1.00  0.00     0.049 A 
ATOM     55  N   UNL     1       1.520 -12.671   0.198  1.00  0.00    -0.248 NA
ATOM     56  C   UNL     1       0.691 -10.613   0.839  1.00  0.00     0.031 C 
ATOM     57  C   UNL     1       3.579  -9.491  -2.812  1.00  0.00     0.029 A 
ATOM     58  N   UNL     1       1.757 -10.706  -2.997  1.00  0.00    -0.354 N 
ATOM     59  C   UNL     1       0.329 -12.847   0.883  1.00  0.00     0.074 A 
ATOM     60  C   UNL     1       0.058 -11.583   1.506  1.00  0.00     0.031 C 
ATOM     61  C   UNL     1       3.041  -9.203  -4.026  1.00  0.00     0.029 A 
ATOM     62  C   UNL     1       1.825  -9.975  -4.201  1.00  0.00     0.049 A 
ATOM     63  H   UNL     1       1.090 -11.415  -2.852  1.00  0.00     0.167 HD
ATOM     64  C   UNL     1      -0.484 -13.892   0.566  1.00  0.00     0.034 A 
ATOM     65  C   UNL     1       0.930 -10.040  -5.243  1.00  0.00     0.034 A 
ATOM     66  C   UNL     1       0.231 -14.847  -0.261  1.00  0.00     0.049 A 
ATOM     67  C   UNL     1       0.282 -11.382  -5.104  1.00  0.00     0.074 A 
ATOM     68  C   UNL     1       1.405 -15.562  -0.107  1.00  0.00     0.029 A 
ATOM     69  N   UNL     1       0.005 -14.797  -1.623  1.00  0.00    -0.354 N 
ATOM     70  N   UNL     1       0.964 -12.495  -5.230  1.00  0.00    -0.248 NA
ATOM     71  C   UNL     1      -0.885 -11.464  -4.231  1.00  0.00     0.031 C 
ATOM     72  C   UNL     1       2.079 -15.422  -1.358  1.00  0.00     0.029 A 
ATOM     73  C   UNL     1       1.228 -14.774  -2.256  1.00  0.00     0.049 A 
ATOM     74  H   UNL     1      -0.875 -14.781  -2.063  1.00  0.00     0.167 HD
ATOM     75  C   UNL     1       0.591 -13.274  -4.141  1.00  0.00     0.074 A 
ATOM     76  C   UNL     1      -0.577 -12.588  -3.571  1.00  0.00     0.031 C 
ATOM     77  C   UNL     1       1.442 -14.185  -3.571  1.00  0.00     0.034 A 
BRANCH  64  78
ATOM     78  C   UNL     1      -1.996 -13.854   0.602  1.00  0.00     0.023 A 
ATOM     79  C   UNL     1      -2.659 -15.036   0.225  1.00  0.00     0.031 A 
ATOM     80  C   UNL     1      -2.803 -12.697   0.685  1.00  0.00     0.131 A 
ATOM     81  C   UNL     1      -4.008 -15.015  -0.163  1.00  0.00     0.055 A 
ATOM     82  C   UNL     1      -4.162 -12.695   0.362  1.00  0.00     0.041 A 
ATOM     83  F   UNL     1      -2.321 -11.488   0.992  1.00  0.00    -0.206 F 
ATOM     84  C   UNL     1      -4.766 -13.851  -0.098  1.00  0.00     0.022 A 
BRANCH  81  85
ATOM     85  S   UNL     1      -4.694 -16.502  -0.932  1.00  0.00     0.124 S 
ATOM     86  O   UNL     1      -3.772 -16.708  -2.042  1.00  0.00    -0.237 OA
ATOM     87  O   UNL     1      -4.615 -17.467   0.160  1.00  0.00    -0.237 OA
ATOM     88  O   UNL     1      -6.046 -16.095  -1.307  1.00  0.00    -0.744 OA
ENDBRANCH  81  85
ENDBRANCH  64  78
BRANCH  65  89
ATOM     89  C   UNL     1       0.302  -8.872  -5.978  1.00  0.00     0.023 A 
ATOM     90  C   UNL     1      -0.441  -8.948  -7.194  1.00  0.00     0.031 A 
ATOM     91  C   UNL     1       0.249  -7.625  -5.314  1.00  0.00     0.131 A 
ATOM     92  C   UNL     1      -1.165  -7.814  -7.680  1.00  0.00     0.055 A 
ATOM     93  C   UNL     1      -0.475  -6.525  -5.787  1.00  0.00     0.041 A 
ATOM     94  F   UNL     1       0.845  -7.447  -4.125  1.00  0.00    -0.206 F 
ATOM     95  C   UNL     1      -1.189  -6.615  -6.966  1.00  0.00     0.022 A 
BRANCH  92  96
ATOM     96  S   UNL     1      -2.136  -7.851  -9.242  1.00  0.00     0.124 S 
ATOM     97  O   UNL     1      -1.102  -8.046 -10.252  1.00  0.00    -0.237 OA
ATOM     98  O   UNL     1      -3.051  -8.965  -9.025  1.00  0.00    -0.237 OA
ATOM     99  O   UNL     1      -2.781  -6.536  -9.281  1.00  0.00    -0.744 OA
ENDBRANCH  92  96
ENDBRANCH  65  89
BRANCH  77 100
ATOM    100  C   UNL     1       2.759 -14.519  -4.261  1.00  0.00     0.023 A 
ATOM    101  C   UNL     1       3.807 -13.612  -4.563  1.00  0.00     0.031 A 
ATOM    102  C   UNL     1       3.007 -15.885  -4.486  1.00  0.00     0.131 A 
ATOM    103  C   UNL     1       5.035 -14.096  -5.079  1.00  0.00     0.055 A 
ATOM    104  C   UNL     1       4.228 -16.358  -4.962  1.00  0.00     0.041 A 
ATOM    105  F   UNL     1       2.067 -16.800  -4.200  1.00  0.00    -0.206 F 
ATOM    106  C   UNL     1       5.245 -15.465  -5.266  1.00  0.00     0.022 A 
BRANCH 103 107
ATOM    107  S   UNL     1       6.383 -12.957  -5.559  1.00  0.00     0.124 S 
ATOM    108  O   UNL     1       5.705 -11.961  -6.381  1.00  0.00    -0.237 OA
ATOM    109  O   UNL     1       6.881 -12.487  -4.270  1.00  0.00    -0.237 OA
ATOM    110  O   UNL     1       7.314 -13.818  -6.292  1.00  0.00    -0.744 OA
ENDBRANCH 103 107
ENDBRANCH  77 100
ENDBRANCH  51  52
ENDBRANCH  43  46
ENDBRANCH  41  42
ENDBRANCH  40  41
ENDBRANCH  39  40
ENDBRANCH  38  39
ENDBRANCH   1  38
TORSDOF 22
