REMARK SMILES C[C@@H]1CCC[C@H](S[C@@H]2CCC[C@]([NH2+]C3CC3)(C(=O)NCCCCCCNC(=O)c3ccc(-c4c5nc(c(-c6cc(S(=O)(=O)[O-])ccc6F)c6ccc([nH]6)c(-c6cc(S(=O)(=O)[O-])ccc6F)c6nc(c(-c7cc(S(=O)(=O)[O-])ccc7F)c7ccc4[nH]7)C=C6)C=C5)cc3)C2)C1
REMARK SMILES IDX 23 1 22 2 21 3 20 4 19 5 17 6 18 7 12 9 8 10 9 11 92 12
REMARK SMILES IDX 10 13 11 14 7 15 6 16 1 17 2 18 3 19 93 20 4 21 5 22 13 23
REMARK SMILES IDX 14 26 15 27 16 28 24 29 25 30 26 31 27 32 28 34 29 35 30 36
REMARK SMILES IDX 91 37 31 38 90 39 32 40 33 41 34 42 84 43 35 44 89 45 83 46
REMARK SMILES IDX 85 47 36 48 88 49 82 50 81 51 37 53 69 54 49 55 68 56 50 57
REMARK SMILES IDX 53 58 67 59 86 60 51 61 52 62 66 64 87 65 54 66 38 67 39 68
REMARK SMILES IDX 47 69 40 70 46 71 48 72 45 73 41 74 42 75 43 76 44 77 70 78
REMARK SMILES IDX 71 79 79 80 72 81 78 82 80 83 77 84 73 85 74 86 75 87 76 88
REMARK SMILES IDX 55 89 56 90 64 91 57 92 63 93 65 94 62 95 58 96 59 97 60 98
REMARK SMILES IDX 61 99
REMARK H PARENT 19 8 13 24 13 25 26 33 85 52 53 63
REMARK Flexibility Score: inf
ROOT
ATOM      1  C   UNL     1       6.417   5.278   3.447  1.00  0.00     0.002 C 
ENDROOT
BRANCH   1   2
ATOM      2  C   UNL     1       6.163   3.997   4.246  1.00  0.00     0.002 C 
BRANCH   2   3
ATOM      3  C   UNL     1       4.742   3.842   4.793  1.00  0.00     0.021 C 
BRANCH   3   4
ATOM      4  C   UNL     1       3.635   3.981   3.755  1.00  0.00     0.116 C 
BRANCH   4   5
ATOM      5  N   UNL     1       3.687   2.947   2.742  1.00  0.00    -0.351 N 
ATOM      6  C   UNL     1       2.828   1.943   2.406  1.00  0.00     0.281 C 
ATOM      7  O   UNL     1       3.188   1.239   1.456  1.00  0.00    -0.268 OA
ATOM      8  H   UNL     1       4.500   2.975   2.189  1.00  0.00     0.163 HD
BRANCH   6   9
ATOM      9  C   UNL     1       1.464   1.714   3.138  1.00  0.00     0.176 C 
ATOM     10  C   UNL     1      -0.780   0.389   2.885  1.00  0.00     0.053 C 
ATOM     11  C   UNL     1      -1.594   1.676   2.790  1.00  0.00     0.015 C 
ATOM     12  C   UNL     1       0.694   0.519   2.516  1.00  0.00     0.093 C 
ATOM     13  C   UNL     1      -0.845   2.861   3.390  1.00  0.00     0.008 C 
ATOM     14  C   UNL     1       0.584   2.971   2.867  1.00  0.00     0.079 C 
BRANCH  10  15
ATOM     15  S   UNL     1      -1.600  -1.103   2.138  1.00  0.00    -0.155 SA
BRANCH  15  16
ATOM     16  C   UNL     1      -1.613  -1.015   0.282  1.00  0.00     0.047 C 
ATOM     17  C   UNL     1       1.873  -1.493   0.165  1.00  0.00     0.007 C 
ATOM     18  C   UNL     1       0.758  -1.116  -0.815  1.00  0.00    -0.013 C 
ATOM     19  C   UNL     1       0.620   0.389  -1.130  1.00  0.00     0.003 C 
ATOM     20  C   UNL     1      -0.541  -1.839  -0.447  1.00  0.00     0.017 C 
ATOM     21  C   UNL     1      -0.636   1.137  -0.674  1.00  0.00     0.001 C 
ATOM     22  C   UNL     1      -1.872   0.289  -0.453  1.00  0.00     0.014 C 
ENDBRANCH  15  16
ENDBRANCH  10  15
BRANCH   9  23
ATOM     23  N   UNL     1       1.681   1.488   4.583  1.00  0.00    -0.331 N 
ATOM     24  H   UNL     1       0.754   1.436   5.005  1.00  0.00     0.347 HD
ATOM     25  H   UNL     1       2.301   2.261   4.825  1.00  0.00     0.347 HD
BRANCH  23  26
ATOM     26  C   UNL     1       2.430   0.328   5.100  1.00  0.00     0.183 C 
ATOM     27  C   UNL     1       3.082  -0.775   4.312  1.00  0.00     0.071 C 
ATOM     28  C   UNL     1       3.933   0.245   4.995  1.00  0.00     0.071 C 
ENDBRANCH  23  26
ENDBRANCH   9  23
ENDBRANCH   6   9
ENDBRANCH   4   5
ENDBRANCH   3   4
ENDBRANCH   2   3
ENDBRANCH   1   2
BRANCH   1  29
ATOM     29  C   UNL     1       5.950   6.574   4.114  1.00  0.00     0.021 C 
BRANCH  29  30
ATOM     30  C   UNL     1       6.473   6.800   5.526  1.00  0.00     0.116 C 
BRANCH  30  31
ATOM     31  N   UNL     1       7.918   6.893   5.562  1.00  0.00    -0.352 N 
ATOM     32  C   UNL     1       8.711   7.876   6.097  1.00  0.00     0.251 C 
ATOM     33  H   UNL     1       8.400   6.144   5.142  1.00  0.00     0.163 HD
ATOM     34  O   UNL     1       9.910   7.888   5.843  1.00  0.00    -0.269 OA
BRANCH  32  35
ATOM     35  C   UNL     1       8.113   8.929   6.950  1.00  0.00     0.039 A 
ATOM     36  C   UNL     1       8.545  10.246   6.780  1.00  0.00     0.014 A 
ATOM     37  C   UNL     1       7.149   8.629   7.918  1.00  0.00     0.014 A 
ATOM     38  C   UNL     1       7.979  11.263   7.548  1.00  0.00     0.010 A 
ATOM     39  C   UNL     1       6.525   9.656   8.625  1.00  0.00     0.010 A 
ATOM     40  C   UNL     1       6.942  10.983   8.456  1.00  0.00    -0.014 A 
BRANCH  40  41
ATOM     41  C   UNL     1       6.298  12.088   9.214  1.00  0.00     0.031 A 
ATOM     42  C   UNL     1       6.410  12.165  10.711  1.00  0.00     0.074 A 
ATOM     43  C   UNL     1       5.603  13.024   8.539  1.00  0.00     0.049 A 
ATOM     44  N   UNL     1       5.984  13.098  11.525  1.00  0.00    -0.248 NA
ATOM     45  C   UNL     1       7.061  11.033  11.384  1.00  0.00     0.031 C 
ATOM     46  C   UNL     1       5.373  13.021   7.092  1.00  0.00     0.029 A 
ATOM     47  N   UNL     1       4.982  14.168   8.971  1.00  0.00    -0.354 N 
ATOM     48  C   UNL     1       6.319  12.668  12.805  1.00  0.00     0.074 A 
ATOM     49  C   UNL     1       6.906  11.353  12.659  1.00  0.00     0.031 C 
ATOM     50  C   UNL     1       4.719  14.141   6.750  1.00  0.00     0.029 A 
ATOM     51  C   UNL     1       4.446  14.921   7.952  1.00  0.00     0.049 A 
ATOM     52  H   UNL     1       4.925  14.425   9.920  1.00  0.00     0.167 HD
ATOM     53  C   UNL     1       6.179  13.322  13.987  1.00  0.00     0.034 A 
ATOM     54  C   UNL     1       3.820  16.113   7.981  1.00  0.00     0.034 A 
ATOM     55  C   UNL     1       5.576  14.629  14.111  1.00  0.00     0.049 A 
ATOM     56  C   UNL     1       3.656  16.813   9.303  1.00  0.00     0.074 A 
ATOM     57  C   UNL     1       5.421  15.407  15.246  1.00  0.00     0.029 A 
ATOM     58  N   UNL     1       5.012  15.349  13.063  1.00  0.00    -0.354 N 
ATOM     59  N   UNL     1       4.042  16.428  10.499  1.00  0.00    -0.248 NA
ATOM     60  C   UNL     1       2.987  18.118   9.274  1.00  0.00     0.031 C 
ATOM     61  C   UNL     1       4.695  16.553  14.899  1.00  0.00     0.029 A 
ATOM     62  C   UNL     1       4.473  16.540  13.531  1.00  0.00     0.049 A 
ATOM     63  H   UNL     1       4.996  15.056  12.123  1.00  0.00     0.167 HD
ATOM     64  C   UNL     1       3.681  17.459  11.363  1.00  0.00     0.074 A 
ATOM     65  C   UNL     1       3.076  18.489  10.541  1.00  0.00     0.031 C 
ATOM     66  C   UNL     1       3.835  17.546  12.710  1.00  0.00     0.034 A 
BRANCH  53  67
ATOM     67  C   UNL     1       6.660  12.605  15.232  1.00  0.00     0.023 A 
ATOM     68  C   UNL     1       7.999  12.199  15.380  1.00  0.00     0.031 A 
ATOM     69  C   UNL     1       5.761  12.270  16.260  1.00  0.00     0.131 A 
ATOM     70  C   UNL     1       8.376  11.395  16.467  1.00  0.00     0.055 A 
ATOM     71  C   UNL     1       6.165  11.554  17.390  1.00  0.00     0.041 A 
ATOM     72  F   UNL     1       4.465  12.608  16.174  1.00  0.00    -0.206 F 
ATOM     73  C   UNL     1       7.474  11.092  17.488  1.00  0.00     0.022 A 
BRANCH  70  74
ATOM     74  S   UNL     1      10.003  10.593  16.425  1.00  0.00     0.124 S 
ATOM     75  O   UNL     1       9.942   9.867  15.158  1.00  0.00    -0.237 OA
ATOM     76  O   UNL     1      10.916  11.729  16.468  1.00  0.00    -0.237 OA
ATOM     77  O   UNL     1       9.999   9.748  17.617  1.00  0.00    -0.744 OA
ENDBRANCH  70  74
ENDBRANCH  53  67
BRANCH  54  78
ATOM     78  C   UNL     1       3.327  16.730   6.717  1.00  0.00     0.023 A 
ATOM     79  C   UNL     1       3.883  17.925   6.231  1.00  0.00     0.031 A 
ATOM     80  C   UNL     1       2.284  16.140   5.982  1.00  0.00     0.131 A 
ATOM     81  C   UNL     1       3.369  18.510   5.064  1.00  0.00     0.055 A 
ATOM     82  C   UNL     1       1.811  16.699   4.794  1.00  0.00     0.041 A 
ATOM     83  F   UNL     1       1.724  14.993   6.400  1.00  0.00    -0.206 F 
ATOM     84  C   UNL     1       2.348  17.897   4.334  1.00  0.00     0.022 A 
BRANCH  81  85
ATOM     85  S   UNL     1       4.019  20.120   4.540  1.00  0.00     0.124 S 
ATOM     86  O   UNL     1       3.693  20.960   5.686  1.00  0.00    -0.237 OA
ATOM     87  O   UNL     1       5.434  19.826   4.339  1.00  0.00    -0.237 OA
ATOM     88  O   UNL     1       3.267  20.409   3.320  1.00  0.00    -0.744 OA
ENDBRANCH  81  85
ENDBRANCH  54  78
BRANCH  66  89
ATOM     89  C   UNL     1       3.352  18.821  13.364  1.00  0.00     0.023 A 
ATOM     90  C   UNL     1       1.997  19.199  13.331  1.00  0.00     0.031 A 
ATOM     91  C   UNL     1       4.263  19.700  13.975  1.00  0.00     0.131 A 
ATOM     92  C   UNL     1       1.608  20.459  13.810  1.00  0.00     0.055 A 
ATOM     93  C   UNL     1       3.857  20.918  14.524  1.00  0.00     0.041 A 
ATOM     94  F   UNL     1       5.570  19.398  14.036  1.00  0.00    -0.206 F 
ATOM     95  C   UNL     1       2.527  21.313  14.424  1.00  0.00     0.022 A 
BRANCH  92  96
ATOM     96  S   UNL     1      -0.083  21.028  13.481  1.00  0.00     0.124 S 
ATOM     97  O   UNL     1      -0.168  20.901  12.030  1.00  0.00    -0.237 OA
ATOM     98  O   UNL     1      -0.885  20.083  14.251  1.00  0.00    -0.237 OA
ATOM     99  O   UNL     1      -0.087  22.400  13.985  1.00  0.00    -0.744 OA
ENDBRANCH  92  96
ENDBRANCH  66  89
ENDBRANCH  40  41
ENDBRANCH  32  35
ENDBRANCH  30  31
ENDBRANCH  29  30
ENDBRANCH   1  29
TORSDOF 20
