REMARK SMILES CCC[C@H]1CCc2c(sc(NC(=O)[C@H]3[C@@H](C(=O)NCCCCCCNC(=O)c4ccc(-c5c6nc(c(-c7cc(S(=O)(=O)[O-])ccc7F)c7ccc([nH]7)c(-c7cc(S(=O)(=O)[O-])ccc7F)c7nc(c(-c8cc(S(=O)(=O)[O-])ccc8F)c8ccc5[nH]8)C=C7)C=C6)cc4)[C@H]4CC[C@@H]3O4)c2C(N)=O)C1
REMARK SMILES IDX 21 1 20 2 19 3 18 4 16 5 17 6 15 8 14 9 94 10 91 11 93 12
REMARK SMILES IDX 95 13 92 14 12 15 11 16 13 18 10 19 4 20 5 21 100 22 6 23
REMARK SMILES IDX 8 24 7 25 9 26 96 27 3 28 2 29 1 30 97 31 98 32 99 33 22 36
REMARK SMILES IDX 23 37 24 38 25 39 26 40 27 42 28 43 29 44 90 45 30 46 89 47
REMARK SMILES IDX 31 48 32 49 33 50 83 51 34 52 88 53 82 54 84 55 35 56 87 57
REMARK SMILES IDX 81 58 80 59 36 61 68 62 48 63 67 64 49 65 52 66 66 67 85 68
REMARK SMILES IDX 50 69 51 70 65 72 86 73 53 74 37 75 38 76 46 77 39 78 45 79
REMARK SMILES IDX 47 80 44 81 40 82 41 83 42 84 43 85 69 86 70 87 78 88 71 89
REMARK SMILES IDX 77 90 79 91 76 92 72 93 73 94 74 95 75 96 54 97 55 98 63 99
REMARK SMILES IDX 56 100 62 101 64 102 61 103 57 104 58 105 59 106 60 107
REMARK H PARENT 18 7 11 17 98 34 98 35 25 41 84 60 52 71
REMARK Flexibility Score: inf
ROOT
ATOM      1  C   UNL     1      -1.357  -5.815   1.150  1.00  0.00     0.002 C 
ENDROOT
BRANCH   1   2
ATOM      2  C   UNL     1      -0.909  -5.577  -0.289  1.00  0.00     0.021 C 
BRANCH   2   3
ATOM      3  C   UNL     1       0.350  -4.724  -0.406  1.00  0.00     0.116 C 
BRANCH   3   4
ATOM      4  N   UNL     1       1.511  -5.552  -0.604  1.00  0.00    -0.356 N 
ATOM      5  C   UNL     1       2.312  -5.718  -1.671  1.00  0.00     0.226 C 
ATOM      6  O   UNL     1       3.248  -6.516  -1.521  1.00  0.00    -0.275 OA
ATOM      7  H   UNL     1       1.763  -6.091   0.180  1.00  0.00     0.163 HD
BRANCH   5   8
ATOM      8  C   UNL     1       2.167  -5.016  -3.007  1.00  0.00     0.122 C 
ATOM      9  C   UNL     1       2.304  -3.509  -3.184  1.00  0.00     0.123 C 
ATOM     10  C   UNL     1       1.204  -3.168  -4.182  1.00  0.00     0.132 C 
ATOM     11  C   UNL     1       1.068  -5.355  -4.021  1.00  0.00     0.132 C 
ATOM     12  C   UNL     1      -0.227  -3.382  -3.704  1.00  0.00     0.035 C 
ATOM     13  O   UNL     1       1.347  -4.345  -5.049  1.00  0.00    -0.373 OA
ATOM     14  C   UNL     1      -0.343  -4.910  -3.700  1.00  0.00     0.035 C 
BRANCH   9  15
ATOM     15  C   UNL     1       2.690  -2.543  -2.106  1.00  0.00     0.231 C 
ATOM     16  N   UNL     1       3.917  -1.919  -2.127  1.00  0.00    -0.317 N 
ATOM     17  H   UNL     1       4.077  -1.370  -1.326  1.00  0.00     0.170 HD
ATOM     18  O   UNL     1       1.929  -2.298  -1.167  1.00  0.00    -0.274 OA
BRANCH  16  19
ATOM     19  C   UNL     1       4.983  -1.886  -3.023  1.00  0.00     0.108 A 
ATOM     20  C   UNL     1       9.120  -0.628  -5.301  1.00  0.00    -0.006 C 
ATOM     21  C   UNL     1       8.841  -2.024  -5.896  1.00  0.00     0.009 C 
ATOM     22  C   UNL     1       8.644  -0.562  -3.819  1.00  0.00     0.050 C 
ATOM     23  C   UNL     1       7.341  -2.290  -5.945  1.00  0.00     0.038 C 
ATOM     24  C   UNL     1       7.272  -1.163  -3.687  1.00  0.00     0.011 A 
ATOM     25  C   UNL     1       6.681  -1.957  -4.639  1.00  0.00    -0.019 A 
ATOM     26  S   UNL     1       6.270  -0.949  -2.336  1.00  0.00    -0.122 S 
ATOM     27  C   UNL     1       5.343  -2.346  -4.287  1.00  0.00     0.077 A 
BRANCH  20  28
ATOM     28  C   UNL     1      10.611  -0.282  -5.454  1.00  0.00     0.004 C 
BRANCH  28  29
ATOM     29  C   UNL     1      10.838   1.006  -6.250  1.00  0.00    -0.003 C 
ATOM     30  C   UNL     1      10.341   2.246  -5.523  1.00  0.00     0.004 C 
ENDBRANCH  28  29
ENDBRANCH  20  28
BRANCH  27  31
ATOM     31  C   UNL     1       4.578  -3.079  -5.280  1.00  0.00     0.251 C 
ATOM     32  N   UNL     1       4.801  -4.428  -5.262  1.00  0.00    -0.365 N 
ATOM     33  O   UNL     1       3.845  -2.539  -6.093  1.00  0.00    -0.269 OA
ATOM     34  H   UNL     1       5.401  -4.818  -4.586  1.00  0.00     0.159 HD
ATOM     35  H   UNL     1       4.362  -5.009  -5.924  1.00  0.00     0.159 HD
ENDBRANCH  27  31
ENDBRANCH  16  19
ENDBRANCH   9  15
ENDBRANCH   5   8
ENDBRANCH   3   4
ENDBRANCH   2   3
ENDBRANCH   1   2
BRANCH   1  36
ATOM     36  C   UNL     1      -1.712  -4.538   1.919  1.00  0.00     0.002 C 
BRANCH  36  37
ATOM     37  C   UNL     1      -2.685  -3.592   1.206  1.00  0.00     0.021 C 
BRANCH  37  38
ATOM     38  C   UNL     1      -3.991  -4.241   0.754  1.00  0.00     0.116 C 
BRANCH  38  39
ATOM     39  N   UNL     1      -4.668  -4.899   1.859  1.00  0.00    -0.352 N 
ATOM     40  C   UNL     1      -5.867  -4.592   2.448  1.00  0.00     0.251 C 
ATOM     41  H   UNL     1      -4.199  -5.677   2.238  1.00  0.00     0.163 HD
ATOM     42  O   UNL     1      -6.152  -5.069   3.542  1.00  0.00    -0.269 OA
BRANCH  40  43
ATOM     43  C   UNL     1      -6.801  -3.682   1.758  1.00  0.00     0.039 A 
ATOM     44  C   UNL     1      -7.407  -2.654   2.482  1.00  0.00     0.014 A 
ATOM     45  C   UNL     1      -7.081  -3.854   0.399  1.00  0.00     0.014 A 
ATOM     46  C   UNL     1      -8.256  -1.761   1.827  1.00  0.00     0.010 A 
ATOM     47  C   UNL     1      -7.876  -2.926  -0.265  1.00  0.00     0.010 A 
ATOM     48  C   UNL     1      -8.471  -1.872   0.444  1.00  0.00    -0.014 A 
BRANCH  48  49
ATOM     49  C   UNL     1      -9.311  -0.888  -0.283  1.00  0.00     0.031 A 
ATOM     50  C   UNL     1     -10.601  -1.323  -0.919  1.00  0.00     0.074 A 
ATOM     51  C   UNL     1      -8.871   0.378  -0.423  1.00  0.00     0.049 A 
ATOM     52  N   UNL     1     -11.431  -0.636  -1.660  1.00  0.00    -0.248 NA
ATOM     53  C   UNL     1     -10.993  -2.726  -0.718  1.00  0.00     0.031 C 
ATOM     54  C   UNL     1      -7.614   0.898   0.121  1.00  0.00     0.029 A 
ATOM     55  N   UNL     1      -9.421   1.453  -1.072  1.00  0.00    -0.354 N 
ATOM     56  C   UNL     1     -12.440  -1.522  -2.020  1.00  0.00     0.074 A 
ATOM     57  C   UNL     1     -12.083  -2.811  -1.465  1.00  0.00     0.031 C 
ATOM     58  C   UNL     1      -7.500   2.197  -0.201  1.00  0.00     0.029 A 
ATOM     59  C   UNL     1      -8.648   2.589  -1.011  1.00  0.00     0.049 A 
ATOM     60  H   UNL     1     -10.288   1.415  -1.537  1.00  0.00     0.167 HD
ATOM     61  C   UNL     1     -13.569  -1.276  -2.730  1.00  0.00     0.034 A 
ATOM     62  C   UNL     1      -8.837   3.805  -1.561  1.00  0.00     0.034 A 
ATOM     63  C   UNL     1     -13.906   0.019  -3.270  1.00  0.00     0.049 A 
ATOM     64  C   UNL     1     -10.081   4.045  -2.377  1.00  0.00     0.074 A 
ATOM     65  C   UNL     1     -15.049   0.399  -3.953  1.00  0.00     0.029 A 
ATOM     66  N   UNL     1     -13.095   1.146  -3.199  1.00  0.00    -0.354 N 
ATOM     67  N   UNL     1     -11.054   3.210  -2.663  1.00  0.00    -0.248 NA
ATOM     68  C   UNL     1     -10.255   5.390  -2.938  1.00  0.00     0.031 C 
ATOM     69  C   UNL     1     -14.898   1.731  -4.354  1.00  0.00     0.029 A 
ATOM     70  C   UNL     1     -13.696   2.209  -3.857  1.00  0.00     0.049 A 
ATOM     71  H   UNL     1     -12.222   1.184  -2.747  1.00  0.00     0.167 HD
ATOM     72  C   UNL     1     -11.967   3.939  -3.419  1.00  0.00     0.074 A 
ATOM     73  C   UNL     1     -11.437   5.284  -3.526  1.00  0.00     0.031 C 
ATOM     74  C   UNL     1     -13.140   3.537  -3.973  1.00  0.00     0.034 A 
BRANCH  61  75
ATOM     75  C   UNL     1     -14.500  -2.438  -2.981  1.00  0.00     0.023 A 
ATOM     76  C   UNL     1     -15.139  -3.114  -1.926  1.00  0.00     0.031 A 
ATOM     77  C   UNL     1     -14.733  -2.896  -4.290  1.00  0.00     0.131 A 
ATOM     78  C   UNL     1     -15.917  -4.252  -2.190  1.00  0.00     0.055 A 
ATOM     79  C   UNL     1     -15.574  -3.980  -4.553  1.00  0.00     0.041 A 
ATOM     80  F   UNL     1     -14.136  -2.305  -5.337  1.00  0.00    -0.206 F 
ATOM     81  C   UNL     1     -16.159  -4.675  -3.498  1.00  0.00     0.022 A 
BRANCH  78  82
ATOM     82  S   UNL     1     -16.490  -5.253  -0.790  1.00  0.00     0.124 S 
ATOM     83  O   UNL     1     -15.227  -5.618  -0.152  1.00  0.00    -0.237 OA
ATOM     84  O   UNL     1     -17.330  -4.316  -0.054  1.00  0.00    -0.237 OA
ATOM     85  O   UNL     1     -17.199  -6.360  -1.428  1.00  0.00    -0.744 OA
ENDBRANCH  78  82
ENDBRANCH  61  75
BRANCH  62  86
ATOM     86  C   UNL     1      -7.824   4.882  -1.376  1.00  0.00     0.023 A 
ATOM     87  C   UNL     1      -8.136   6.053  -0.669  1.00  0.00     0.031 A 
ATOM     88  C   UNL     1      -6.537   4.771  -1.934  1.00  0.00     0.131 A 
ATOM     89  C   UNL     1      -7.191   7.087  -0.574  1.00  0.00     0.055 A 
ATOM     90  C   UNL     1      -5.583   5.780  -1.793  1.00  0.00     0.041 A 
ATOM     91  F   UNL     1      -6.185   3.669  -2.615  1.00  0.00    -0.206 F 
ATOM     92  C   UNL     1      -5.912   6.953  -1.120  1.00  0.00     0.022 A 
BRANCH  89  93
ATOM     93  S   UNL     1      -7.686   8.647   0.207  1.00  0.00     0.124 S 
ATOM     94  O   UNL     1      -8.827   9.041  -0.613  1.00  0.00    -0.237 OA
ATOM     95  O   UNL     1      -7.990   8.220   1.568  1.00  0.00    -0.237 OA
ATOM     96  O   UNL     1      -6.499   9.488   0.070  1.00  0.00    -0.744 OA
ENDBRANCH  89  93
ENDBRANCH  62  86
BRANCH  74  97
ATOM     97  C   UNL     1     -13.934   4.581  -4.718  1.00  0.00     0.023 A 
ATOM     98  C   UNL     1     -13.470   5.138  -5.923  1.00  0.00     0.031 A 
ATOM     99  C   UNL     1     -15.163   5.035  -4.208  1.00  0.00     0.131 A 
ATOM    100  C   UNL     1     -14.204   6.156  -6.549  1.00  0.00     0.055 A 
ATOM    101  C   UNL     1     -15.918   6.005  -4.867  1.00  0.00     0.041 A 
ATOM    102  F   UNL     1     -15.651   4.540  -3.059  1.00  0.00    -0.206 F 
ATOM    103  C   UNL     1     -15.433   6.581  -6.039  1.00  0.00     0.022 A 
BRANCH 100 104
ATOM    104  S   UNL     1     -13.488   6.981  -7.997  1.00  0.00     0.124 S 
ATOM    105  O   UNL     1     -12.248   7.527  -7.453  1.00  0.00    -0.237 OA
ATOM    106  O   UNL     1     -13.338   5.879  -8.943  1.00  0.00    -0.237 OA
ATOM    107  O   UNL     1     -14.496   7.974  -8.360  1.00  0.00    -0.744 OA
ENDBRANCH 100 104
ENDBRANCH  74  97
ENDBRANCH  48  49
ENDBRANCH  40  43
ENDBRANCH  38  39
ENDBRANCH  37  38
ENDBRANCH  36  37
ENDBRANCH   1  36
TORSDOF 21
