REMARK SMILES C/C(=N\Nc1nc(-c2ccc(Cl)cc2)cs1)c1nnn(-c2ccc(C(=O)NCCCCCCNC(=O)c3ccc(-c4c5nc(c(-c6cc(S(=O)(=O)[O-])ccc6F)c6ccc([nH]6)c(-c6cc(S(=O)(=O)[O-])ccc6F)c6nc(c(-c7cc(S(=O)(=O)[O-])ccc7F)c7ccc4[nH]7)C=C6)C=C5)cc3)cc2)c1C
REMARK SMILES IDX 29 1 28 2 27 3 25 4 26 5 24 7 21 8 22 9 101 10 23 11 100 12
REMARK SMILES IDX 20 13 17 14 18 15 102 16 19 17 103 18 2 19 1 20 3 21 4 22
REMARK SMILES IDX 5 24 6 25 16 26 7 27 15 28 8 29 9 30 14 31 10 32 13 33 11 34
REMARK SMILES IDX 12 35 30 36 31 37 32 38 33 39 34 40 35 41 36 43 37 44 38 45
REMARK SMILES IDX 99 46 39 47 98 48 40 49 41 50 42 51 92 52 43 53 97 54 91 55
REMARK SMILES IDX 93 56 44 57 96 58 90 59 89 60 45 62 77 63 57 64 76 65 58 66
REMARK SMILES IDX 61 67 75 68 94 69 59 70 60 71 74 73 95 74 62 75 46 76 47 77
REMARK SMILES IDX 55 78 48 79 54 80 56 81 53 82 49 83 50 84 51 85 52 86 78 87
REMARK SMILES IDX 79 88 87 89 80 90 86 91 88 92 85 93 81 94 82 95 83 96 84 97
REMARK SMILES IDX 63 98 64 99 72 100 65 101 71 102 73 103 70 104 66 105 67 106
REMARK SMILES IDX 68 107 69 108
REMARK H PARENT 27 6 4 23 34 42 93 61 61 72
REMARK Flexibility Score: inf
ROOT
ATOM      1  C   UNL     1       8.480   5.821  -4.386  1.00  0.00     0.021 C 
ENDROOT
BRANCH   1   2
ATOM      2  C   UNL     1       8.121   5.620  -2.912  1.00  0.00     0.116 C 
BRANCH   2   3
ATOM      3  N   UNL     1       7.706   6.874  -2.306  1.00  0.00    -0.352 N 
ATOM      4  C   UNL     1       6.482   7.368  -1.928  1.00  0.00     0.251 C 
ATOM      5  O   UNL     1       6.455   8.462  -1.363  1.00  0.00    -0.269 OA
ATOM      6  H   UNL     1       8.452   7.492  -2.130  1.00  0.00     0.163 HD
BRANCH   4   7
ATOM      7  C   UNL     1       5.213   6.605  -2.087  1.00  0.00     0.039 A 
ATOM      8  C   UNL     1       2.919   5.017  -2.040  1.00  0.00     0.067 A 
ATOM      9  C   UNL     1       3.018   6.085  -1.150  1.00  0.00     0.029 A 
ATOM     10  C   UNL     1       3.882   4.819  -3.032  1.00  0.00     0.029 A 
ATOM     11  C   UNL     1       4.183   6.858  -1.161  1.00  0.00     0.016 A 
ATOM     12  C   UNL     1       5.000   5.650  -3.084  1.00  0.00     0.016 A 
BRANCH   8  13
ATOM     13  N   UNL     1       1.922   4.044  -1.855  1.00  0.00    -0.217 N 
ATOM     14  C   UNL     1       0.855   2.206  -1.387  1.00  0.00     0.132 A 
ATOM     15  N   UNL     1      -0.055   3.216  -1.534  1.00  0.00    -0.128 NA
ATOM     16  C   UNL     1       2.135   2.710  -1.560  1.00  0.00     0.071 A 
ATOM     17  N   UNL     1       0.616   4.350  -1.713  1.00  0.00    -0.061 NA
ATOM     18  C   UNL     1       3.471   2.104  -1.319  1.00  0.00     0.069 C 
BRANCH  14  19
ATOM     19  C   UNL     1       0.524   0.867  -0.922  1.00  0.00     0.087 C 
ATOM     20  C   UNL     1       1.195   0.468   0.369  1.00  0.00     0.071 C 
ATOM     21  N   UNL     1      -0.248   0.157  -1.698  1.00  0.00    -0.176 NA
BRANCH  21  22
ATOM     22  N   UNL     1      -0.532  -1.175  -1.488  1.00  0.00    -0.252 N 
ATOM     23  H   UNL     1      -0.868  -1.655  -2.278  1.00  0.00     0.193 HD
BRANCH  22  24
ATOM     24  C   UNL     1      -0.422  -1.931  -0.367  1.00  0.00     0.203 A 
ATOM     25  N   UNL     1      -0.664  -1.529   0.858  1.00  0.00    -0.219 NA
ATOM     26  S   UNL     1       0.209  -3.540  -0.453  1.00  0.00    -0.103 S 
ATOM     27  C   UNL     1      -0.012  -2.337   1.764  1.00  0.00     0.084 A 
ATOM     28  C   UNL     1       0.531  -3.488   1.238  1.00  0.00     0.097 A 
BRANCH  27  29
ATOM     29  C   UNL     1       0.169  -1.862   3.122  1.00  0.00     0.001 A 
ATOM     30  C   UNL     1      -0.948  -1.464   3.867  1.00  0.00     0.012 A 
ATOM     31  C   UNL     1       1.456  -1.631   3.630  1.00  0.00     0.012 A 
ATOM     32  C   UNL     1      -0.784  -0.862   5.117  1.00  0.00     0.021 A 
ATOM     33  C   UNL     1       1.619  -1.016   4.875  1.00  0.00     0.021 A 
ATOM     34  C   UNL     1       0.499  -0.638   5.614  1.00  0.00     0.041 A 
ATOM     35  Cl  UNL     1       0.701   0.133   7.138  1.00  0.00    -0.084 Cl
ENDBRANCH  27  29
ENDBRANCH  22  24
ENDBRANCH  21  22
ENDBRANCH  14  19
ENDBRANCH   8  13
ENDBRANCH   4   7
ENDBRANCH   2   3
ENDBRANCH   1   2
BRANCH   1  36
ATOM     36  C   UNL     1       9.870   6.433  -4.608  1.00  0.00     0.002 C 
BRANCH  36  37
ATOM     37  C   UNL     1      11.048   5.653  -4.002  1.00  0.00     0.002 C 
BRANCH  37  38
ATOM     38  C   UNL     1      11.132   4.163  -4.365  1.00  0.00     0.021 C 
BRANCH  38  39
ATOM     39  C   UNL     1      11.546   3.911  -5.807  1.00  0.00     0.116 C 
BRANCH  39  40
ATOM     40  N   UNL     1      12.945   4.267  -6.046  1.00  0.00    -0.352 N 
ATOM     41  C   UNL     1      13.629   4.288  -7.251  1.00  0.00     0.251 C 
ATOM     42  H   UNL     1      13.466   4.523  -5.250  1.00  0.00     0.163 HD
ATOM     43  O   UNL     1      14.843   4.227  -7.282  1.00  0.00    -0.269 OA
BRANCH  41  44
ATOM     44  C   UNL     1      12.833   4.390  -8.487  1.00  0.00     0.039 A 
ATOM     45  C   UNL     1      13.101   3.595  -9.605  1.00  0.00     0.014 A 
ATOM     46  C   UNL     1      11.758   5.272  -8.475  1.00  0.00     0.014 A 
ATOM     47  C   UNL     1      12.220   3.636 -10.686  1.00  0.00     0.010 A 
ATOM     48  C   UNL     1      10.812   5.190  -9.461  1.00  0.00     0.010 A 
ATOM     49  C   UNL     1      11.066   4.427 -10.599  1.00  0.00    -0.014 A 
BRANCH  49  50
ATOM     50  C   UNL     1      10.057   4.434 -11.655  1.00  0.00     0.031 A 
ATOM     51  C   UNL     1       9.395   3.127 -11.941  1.00  0.00     0.074 A 
ATOM     52  C   UNL     1       9.545   5.596 -12.120  1.00  0.00     0.049 A 
ATOM     53  N   UNL     1       9.354   2.469 -13.052  1.00  0.00    -0.248 NA
ATOM     54  C   UNL     1       8.771   2.411 -10.816  1.00  0.00     0.031 C 
ATOM     55  C   UNL     1       9.842   6.964 -11.669  1.00  0.00     0.029 A 
ATOM     56  N   UNL     1       8.524   5.792 -12.994  1.00  0.00    -0.354 N 
ATOM     57  C   UNL     1       8.539   1.357 -12.830  1.00  0.00     0.074 A 
ATOM     58  C   UNL     1       8.359   1.286 -11.405  1.00  0.00     0.031 C 
ATOM     59  C   UNL     1       8.857   7.797 -12.067  1.00  0.00     0.029 A 
ATOM     60  C   UNL     1       7.975   7.070 -12.960  1.00  0.00     0.049 A 
ATOM     61  H   UNL     1       8.199   5.088 -13.601  1.00  0.00     0.167 HD
ATOM     62  C   UNL     1       7.925   0.698 -13.856  1.00  0.00     0.034 A 
ATOM     63  C   UNL     1       6.853   7.498 -13.592  1.00  0.00     0.034 A 
ATOM     64  C   UNL     1       8.512   1.067 -15.124  1.00  0.00     0.049 A 
ATOM     65  C   UNL     1       6.599   6.538 -14.695  1.00  0.00     0.074 A 
ATOM     66  C   UNL     1       9.775   0.956 -15.674  1.00  0.00     0.029 A 
ATOM     67  N   UNL     1       7.862   2.006 -15.892  1.00  0.00    -0.354 N 
ATOM     68  N   UNL     1       7.422   6.359 -15.694  1.00  0.00    -0.248 NA
ATOM     69  C   UNL     1       5.689   5.432 -14.441  1.00  0.00     0.031 C 
ATOM     70  C   UNL     1       9.976   2.187 -16.367  1.00  0.00     0.029 A 
ATOM     71  C   UNL     1       8.800   2.936 -16.273  1.00  0.00     0.049 A 
ATOM     72  H   UNL     1       6.905   2.012 -16.125  1.00  0.00     0.167 HD
ATOM     73  C   UNL     1       7.436   4.989 -15.911  1.00  0.00     0.074 A 
ATOM     74  C   UNL     1       6.274   4.484 -15.180  1.00  0.00     0.031 C 
ATOM     75  C   UNL     1       8.535   4.357 -16.421  1.00  0.00     0.034 A 
BRANCH  62  76
ATOM     76  C   UNL     1       6.604  -0.045 -13.781  1.00  0.00     0.023 A 
ATOM     77  C   UNL     1       6.126  -0.648 -14.965  1.00  0.00     0.031 A 
ATOM     78  C   UNL     1       5.676   0.020 -12.719  1.00  0.00     0.131 A 
ATOM     79  C   UNL     1       4.785  -1.056 -15.088  1.00  0.00     0.055 A 
ATOM     80  C   UNL     1       4.360  -0.448 -12.824  1.00  0.00     0.041 A 
ATOM     81  F   UNL     1       5.948   0.618 -11.554  1.00  0.00    -0.206 F 
ATOM     82  C   UNL     1       3.897  -0.961 -14.022  1.00  0.00     0.022 A 
BRANCH  79  83
ATOM     83  S   UNL     1       4.173  -1.544 -16.724  1.00  0.00     0.124 S 
ATOM     84  O   UNL     1       4.595  -0.415 -17.547  1.00  0.00    -0.237 OA
ATOM     85  O   UNL     1       4.878  -2.802 -16.944  1.00  0.00    -0.237 OA
ATOM     86  O   UNL     1       2.731  -1.663 -16.524  1.00  0.00    -0.744 OA
ENDBRANCH  79  83
ENDBRANCH  62  76
BRANCH  63  87
ATOM     87  C   UNL     1       5.841   8.444 -13.051  1.00  0.00     0.023 A 
ATOM     88  C   UNL     1       4.971   9.188 -13.872  1.00  0.00     0.031 A 
ATOM     89  C   UNL     1       5.568   8.453 -11.663  1.00  0.00     0.131 A 
ATOM     90  C   UNL     1       3.889   9.899 -13.300  1.00  0.00     0.055 A 
ATOM     91  C   UNL     1       4.501   9.159 -11.104  1.00  0.00     0.041 A 
ATOM     92  F   UNL     1       6.288   7.705 -10.810  1.00  0.00    -0.206 F 
ATOM     93  C   UNL     1       3.649   9.881 -11.924  1.00  0.00     0.022 A 
BRANCH  90  94
ATOM     94  S   UNL     1       2.716  10.800 -14.365  1.00  0.00     0.124 S 
ATOM     95  O   UNL     1       3.545  11.875 -14.898  1.00  0.00    -0.237 OA
ATOM     96  O   UNL     1       2.301   9.771 -15.311  1.00  0.00    -0.237 OA
ATOM     97  O   UNL     1       1.672  11.232 -13.435  1.00  0.00    -0.744 OA
ENDBRANCH  90  94
ENDBRANCH  63  87
BRANCH  75  98
ATOM     98  C   UNL     1       9.664   5.200 -16.989  1.00  0.00     0.023 A 
ATOM     99  C   UNL     1      10.415   6.151 -16.257  1.00  0.00     0.031 A 
ATOM    100  C   UNL     1      10.089   4.906 -18.296  1.00  0.00     0.131 A 
ATOM    101  C   UNL     1      11.542   6.765 -16.843  1.00  0.00     0.055 A 
ATOM    102  C   UNL     1      11.216   5.499 -18.865  1.00  0.00     0.041 A 
ATOM    103  F   UNL     1       9.437   3.991 -19.033  1.00  0.00    -0.206 F 
ATOM    104  C   UNL     1      11.945   6.434 -18.141  1.00  0.00     0.022 A 
BRANCH 101 105
ATOM    105  S   UNL     1      12.510   8.012 -15.930  1.00  0.00     0.124 S 
ATOM    106  O   UNL     1      11.495   8.928 -15.422  1.00  0.00    -0.237 OA
ATOM    107  O   UNL     1      13.204   7.206 -14.929  1.00  0.00    -0.237 OA
ATOM    108  O   UNL     1      13.383   8.584 -16.957  1.00  0.00    -0.744 OA
ENDBRANCH 101 105
ENDBRANCH  75  98
ENDBRANCH  49  50
ENDBRANCH  41  44
ENDBRANCH  39  40
ENDBRANCH  38  39
ENDBRANCH  37  38
ENDBRANCH  36  37
ENDBRANCH   1  36
TORSDOF 21
