REMARK SMILES Cc1nccn1CCC[NH+]1CCC2(CC1)[C@@H](C(=O)NCCCCCCNC(=O)c1ccc(-c3c4nc(c(-c5cc(S(=O)(=O)[O-])ccc5F)c5ccc([nH]5)c(-c5cc(S(=O)(=O)[O-])ccc5F)c5nc(c(-c6cc(S(=O)(=O)[O-])ccc6F)c6ccc3[nH]6)C=C5)C=C4)cc1)CC(=O)N2C
REMARK SMILES IDX 22 1 21 2 20 3 19 4 17 5 18 6 16 8 10 9 11 10 15 11 12 13
REMARK SMILES IDX 14 14 13 15 95 16 92 17 93 18 96 19 94 20 9 21 8 22 7 23
REMARK SMILES IDX 6 24 1 25 2 26 3 27 4 28 5 29 23 30 24 31 25 32 26 33 27 34
REMARK SMILES IDX 28 36 29 37 30 38 91 39 31 40 90 41 32 42 33 43 34 44 84 45
REMARK SMILES IDX 35 46 89 47 83 48 85 49 36 50 88 51 82 52 81 53 37 55 69 56
REMARK SMILES IDX 49 57 68 58 50 59 53 60 67 61 86 62 51 63 52 64 66 66 87 67
REMARK SMILES IDX 54 68 38 69 39 70 47 71 40 72 46 73 48 74 45 75 41 76 42 77
REMARK SMILES IDX 43 78 44 79 70 80 71 81 79 82 72 83 78 84 80 85 77 86 73 87
REMARK SMILES IDX 74 88 75 89 76 90 55 91 56 92 64 93 57 94 63 95 65 96 62 97
REMARK SMILES IDX 58 98 59 99 60 100 61 101
REMARK H PARENT 19 7 10 12 26 35 85 54 53 65
REMARK Flexibility Score: inf
ROOT
ATOM      1  C   UNL     1       3.281   5.646  -6.242  1.00  0.00     0.002 C 
ENDROOT
BRANCH   1   2
ATOM      2  C   UNL     1       1.886   5.537  -5.631  1.00  0.00     0.021 C 
BRANCH   2   3
ATOM      3  C   UNL     1       1.795   5.613  -4.100  1.00  0.00     0.116 C 
BRANCH   3   4
ATOM      4  N   UNL     1       1.496   6.955  -3.652  1.00  0.00    -0.356 N 
ATOM      5  C   UNL     1       0.418   7.489  -3.013  1.00  0.00     0.226 C 
ATOM      6  O   UNL     1       0.472   8.715  -2.864  1.00  0.00    -0.275 OA
ATOM      7  H   UNL     1       2.208   7.607  -3.847  1.00  0.00     0.163 HD
BRANCH   5   8
ATOM      8  C   UNL     1      -0.685   6.643  -2.332  1.00  0.00     0.114 C 
ATOM      9  N   UNL     1      -1.201   3.050  -4.323  1.00  0.00    -0.335 N 
ATOM     10  C   UNL     1      -2.057   3.114  -3.170  1.00  0.00     0.264 C 
ATOM     11  C   UNL     1      -1.456   4.144  -5.247  1.00  0.00     0.264 C 
ATOM     12  H   UNL     1      -1.510   2.185  -4.766  1.00  0.00     0.348 HD
ATOM     13  C   UNL     1      -1.644   4.307  -2.328  1.00  0.00     0.091 C 
ATOM     14  C   UNL     1      -1.447   5.555  -4.625  1.00  0.00     0.091 C 
ATOM     15  C   UNL     1      -1.673   5.668  -3.095  1.00  0.00     0.065 C 
ATOM     16  N   UNL     1      -2.999   6.268  -2.850  1.00  0.00    -0.339 N 
ATOM     17  C   UNL     1      -1.604   7.571  -1.501  1.00  0.00     0.116 C 
ATOM     18  C   UNL     1      -3.016   7.205  -1.838  1.00  0.00     0.223 C 
ATOM     19  C   UNL     1      -4.246   5.759  -3.396  1.00  0.00     0.147 C 
ATOM     20  O   UNL     1      -3.999   7.666  -1.295  1.00  0.00    -0.275 OA
BRANCH   9  21
ATOM     21  C   UNL     1       0.105   2.409  -4.300  1.00  0.00     0.264 C 
BRANCH  21  22
ATOM     22  C   UNL     1       0.952   2.266  -3.013  1.00  0.00     0.083 C 
BRANCH  22  23
ATOM     23  C   UNL     1       0.419   1.500  -1.800  1.00  0.00     0.129 C 
BRANCH  23  24
ATOM     24  N   UNL     1       0.293   0.068  -1.952  1.00  0.00    -0.335 N 
ATOM     25  C   UNL     1       1.247  -0.576   0.302  1.00  0.00     0.087 C 
ATOM     26  C   UNL     1       0.739  -0.881  -1.059  1.00  0.00     0.105 A 
ATOM     27  N   UNL     1       0.623  -2.088  -1.577  1.00  0.00    -0.242 NA
ATOM     28  C   UNL     1      -0.037  -1.920  -2.763  1.00  0.00     0.131 A 
ATOM     29  C   UNL     1      -0.335  -0.595  -2.965  1.00  0.00     0.107 A 
ENDBRANCH  23  24
ENDBRANCH  22  23
ENDBRANCH  21  22
ENDBRANCH   9  21
ENDBRANCH   5   8
ENDBRANCH   3   4
ENDBRANCH   2   3
ENDBRANCH   1   2
BRANCH   1  30
ATOM     30  C   UNL     1       4.339   4.651  -5.748  1.00  0.00     0.002 C 
BRANCH  30  31
ATOM     31  C   UNL     1       3.971   3.160  -5.741  1.00  0.00     0.021 C 
BRANCH  31  32
ATOM     32  C   UNL     1       3.535   2.603  -7.086  1.00  0.00     0.116 C 
BRANCH  32  33
ATOM     33  N   UNL     1       4.585   2.656  -8.099  1.00  0.00    -0.352 N 
ATOM     34  C   UNL     1       4.590   2.095  -9.363  1.00  0.00     0.251 C 
ATOM     35  H   UNL     1       5.395   3.157  -7.850  1.00  0.00     0.163 HD
ATOM     36  O   UNL     1       5.652   1.920  -9.951  1.00  0.00    -0.269 OA
BRANCH  34  37
ATOM     37  C   UNL     1       3.308   1.720  -9.995  1.00  0.00     0.039 A 
ATOM     38  C   UNL     1       3.207   0.633 -10.871  1.00  0.00     0.014 A 
ATOM     39  C   UNL     1       2.188   2.501  -9.722  1.00  0.00     0.014 A 
ATOM     40  C   UNL     1       1.963   0.324 -11.421  1.00  0.00     0.010 A 
ATOM     41  C   UNL     1       0.942   2.095 -10.114  1.00  0.00     0.010 A 
ATOM     42  C   UNL     1       0.834   1.062 -11.030  1.00  0.00    -0.014 A 
BRANCH  42  43
ATOM     43  C   UNL     1      -0.513   0.704 -11.454  1.00  0.00     0.031 A 
ATOM     44  C   UNL     1      -0.895  -0.677 -11.079  1.00  0.00     0.074 A 
ATOM     45  C   UNL     1      -1.406   1.607 -11.918  1.00  0.00     0.049 A 
ATOM     46  N   UNL     1      -1.012  -1.685 -11.874  1.00  0.00    -0.248 NA
ATOM     47  C   UNL     1      -0.955  -1.040  -9.653  1.00  0.00     0.031 C 
ATOM     48  C   UNL     1      -1.237   3.056 -12.076  1.00  0.00     0.029 A 
ATOM     49  N   UNL     1      -2.715   1.433 -12.246  1.00  0.00    -0.354 N 
ATOM     50  C   UNL     1      -1.445  -2.740 -11.083  1.00  0.00     0.074 A 
ATOM     51  C   UNL     1      -1.144  -2.361  -9.729  1.00  0.00     0.031 C 
ATOM     52  C   UNL     1      -2.446   3.642 -12.231  1.00  0.00     0.029 A 
ATOM     53  C   UNL     1      -3.463   2.608 -12.331  1.00  0.00     0.049 A 
ATOM     54  H   UNL     1      -3.105   0.544 -12.412  1.00  0.00     0.167 HD
ATOM     55  C   UNL     1      -2.266  -3.697 -11.597  1.00  0.00     0.034 A 
ATOM     56  C   UNL     1      -4.818   2.721 -12.443  1.00  0.00     0.034 A 
ATOM     57  C   UNL     1      -2.312  -3.607 -13.044  1.00  0.00     0.049 A 
ATOM     58  C   UNL     1      -5.293   1.434 -13.019  1.00  0.00     0.074 A 
ATOM     59  C   UNL     1      -1.356  -3.641 -14.042  1.00  0.00     0.029 A 
ATOM     60  N   UNL     1      -3.421  -3.018 -13.617  1.00  0.00    -0.354 N 
ATOM     61  N   UNL     1      -4.974   1.039 -14.222  1.00  0.00    -0.248 NA
ATOM     62  C   UNL     1      -5.654   0.365 -12.098  1.00  0.00     0.031 C 
ATOM     63  C   UNL     1      -1.748  -2.618 -14.956  1.00  0.00     0.029 A 
ATOM     64  C   UNL     1      -2.976  -2.099 -14.537  1.00  0.00     0.049 A 
ATOM     65  H   UNL     1      -4.361  -3.220 -13.405  1.00  0.00     0.167 HD
ATOM     66  C   UNL     1      -4.633  -0.298 -14.080  1.00  0.00     0.074 A 
ATOM     67  C   UNL     1      -5.167  -0.684 -12.772  1.00  0.00     0.031 C 
ATOM     68  C   UNL     1      -3.691  -0.882 -14.883  1.00  0.00     0.034 A 
BRANCH  55  69
ATOM     69  C   UNL     1      -3.317  -4.452 -10.817  1.00  0.00     0.023 A 
ATOM     70  C   UNL     1      -4.049  -5.428 -11.518  1.00  0.00     0.031 A 
ATOM     71  C   UNL     1      -3.834  -4.088  -9.553  1.00  0.00     0.131 A 
ATOM     72  C   UNL     1      -5.275  -5.904 -11.027  1.00  0.00     0.055 A 
ATOM     73  C   UNL     1      -5.017  -4.620  -9.034  1.00  0.00     0.041 A 
ATOM     74  F   UNL     1      -3.288  -3.134  -8.790  1.00  0.00    -0.206 F 
ATOM     75  C   UNL     1      -5.765  -5.508  -9.787  1.00  0.00     0.022 A 
BRANCH  72  76
ATOM     76  S   UNL     1      -6.303  -6.906 -12.128  1.00  0.00     0.124 S 
ATOM     77  O   UNL     1      -6.424  -6.031 -13.290  1.00  0.00    -0.237 OA
ATOM     78  O   UNL     1      -5.482  -8.099 -12.302  1.00  0.00    -0.237 OA
ATOM     79  O   UNL     1      -7.531  -7.099 -11.361  1.00  0.00    -0.744 OA
ENDBRANCH  72  76
ENDBRANCH  55  69
BRANCH  56  80
ATOM     80  C   UNL     1      -5.718   3.717 -11.778  1.00  0.00     0.023 A 
ATOM     81  C   UNL     1      -7.077   3.900 -12.134  1.00  0.00     0.031 A 
ATOM     82  C   UNL     1      -5.300   4.344 -10.581  1.00  0.00     0.131 A 
ATOM     83  C   UNL     1      -7.942   4.666 -11.308  1.00  0.00     0.055 A 
ATOM     84  C   UNL     1      -6.157   5.094  -9.771  1.00  0.00     0.041 A 
ATOM     85  F   UNL     1      -4.058   4.177 -10.101  1.00  0.00    -0.206 F 
ATOM     86  C   UNL     1      -7.486   5.248 -10.124  1.00  0.00     0.022 A 
BRANCH  83  87
ATOM     87  S   UNL     1      -9.718   4.845 -11.701  1.00  0.00     0.124 S 
ATOM     88  O   UNL     1      -9.695   5.762 -12.834  1.00  0.00    -0.237 OA
ATOM     89  O   UNL     1     -10.122   3.472 -11.982  1.00  0.00    -0.237 OA
ATOM     90  O   UNL     1     -10.284   5.405 -10.472  1.00  0.00    -0.744 OA
ENDBRANCH  83  87
ENDBRANCH  56  80
BRANCH  68  91
ATOM     91  C   UNL     1      -3.216  -0.125 -16.115  1.00  0.00     0.023 A 
ATOM     92  C   UNL     1      -2.688   1.189 -16.115  1.00  0.00     0.031 A 
ATOM     93  C   UNL     1      -3.207  -0.822 -17.336  1.00  0.00     0.131 A 
ATOM     94  C   UNL     1      -2.204   1.760 -17.311  1.00  0.00     0.055 A 
ATOM     95  C   UNL     1      -2.701  -0.265 -18.511  1.00  0.00     0.041 A 
ATOM     96  F   UNL     1      -3.669  -2.081 -17.405  1.00  0.00    -0.206 F 
ATOM     97  C   UNL     1      -2.207   1.032 -18.505  1.00  0.00     0.022 A 
BRANCH  94  98
ATOM     98  S   UNL     1      -1.599   3.480 -17.350  1.00  0.00     0.124 S 
ATOM     99  O   UNL     1      -2.605   4.216 -16.594  1.00  0.00    -0.237 OA
ATOM    100  O   UNL     1      -0.285   3.367 -16.722  1.00  0.00    -0.237 OA
ATOM    101  O   UNL     1      -1.562   3.794 -18.780  1.00  0.00    -0.744 OA
ENDBRANCH  94  98
ENDBRANCH  68  91
ENDBRANCH  42  43
ENDBRANCH  34  37
ENDBRANCH  32  33
ENDBRANCH  31  32
ENDBRANCH  30  31
ENDBRANCH   1  30
TORSDOF 20
