REMARK SMILES CCC[C@@H]1CCc2nc3c(F)cccc3c(C(=O)NCCCCCCNC(=O)c3ccc(-c4c5nc(c(-c6cc(S(=O)(=O)[O-])ccc6F)c6ccc([nH]6)c(-c6cc(S(=O)(=O)[O-])ccc6F)c6nc(c(-c7cc(S(=O)(=O)[O-])ccc7F)c7ccc4[nH]7)C=C6)C=C5)cc3)c2C1
REMARK SMILES IDX 23 1 22 2 21 3 20 4 19 5 17 6 18 7 16 9 4 10 5 11 93 12 6 13
REMARK SMILES IDX 92 14 7 15 8 16 15 17 9 18 14 19 10 20 13 21 11 22 12 23
REMARK SMILES IDX 3 24 2 25 1 26 24 27 25 28 26 29 27 30 28 32 29 33 30 34
REMARK SMILES IDX 91 35 31 36 90 37 32 38 33 39 34 40 84 41 35 42 89 43 83 44
REMARK SMILES IDX 85 45 36 46 88 47 82 48 81 49 37 51 69 52 49 53 68 54 50 55
REMARK SMILES IDX 53 56 67 57 86 58 51 59 52 60 66 62 87 63 54 64 38 65 39 66
REMARK SMILES IDX 47 67 40 68 46 69 48 70 45 71 41 72 42 73 43 74 44 75 70 76
REMARK SMILES IDX 71 77 79 78 72 79 78 80 80 81 77 82 73 83 74 84 75 85 76 86
REMARK SMILES IDX 55 87 56 88 64 89 57 90 63 91 65 92 62 93 58 94 59 95 60 96
REMARK SMILES IDX 61 97
REMARK H PARENT 19 8 26 31 85 50 53 61
REMARK Flexibility Score: inf
ROOT
ATOM      1  C   UNL     1      -8.172  -2.334   2.824  1.00  0.00     0.002 C 
ENDROOT
BRANCH   1   2
ATOM      2  C   UNL     1      -6.700  -2.039   3.119  1.00  0.00     0.002 C 
BRANCH   2   3
ATOM      3  C   UNL     1      -5.734  -3.167   2.744  1.00  0.00     0.021 C 
BRANCH   3   4
ATOM      4  C   UNL     1      -5.532  -3.361   1.230  1.00  0.00     0.116 C 
BRANCH   4   5
ATOM      5  N   UNL     1      -4.449  -2.498   0.788  1.00  0.00    -0.352 N 
ATOM      6  C   UNL     1      -3.082  -2.650   0.868  1.00  0.00     0.252 C 
ATOM      7  O   UNL     1      -2.458  -1.629   1.158  1.00  0.00    -0.269 OA
ATOM      8  H   UNL     1      -4.743  -1.663   0.358  1.00  0.00     0.163 HD
BRANCH   6   9
ATOM      9  C   UNL     1      -2.345  -3.905   0.466  1.00  0.00     0.054 A 
ATOM     10  C   UNL     1       0.672  -2.457  -1.501  1.00  0.00    -0.006 C 
ATOM     11  C   UNL     1       0.872  -3.635  -2.457  1.00  0.00     0.010 C 
ATOM     12  C   UNL     1      -0.784  -2.448  -1.001  1.00  0.00     0.042 C 
ATOM     13  C   UNL     1       0.583  -4.948  -1.746  1.00  0.00     0.057 C 
ATOM     14  C   UNL     1      -1.278  -3.775  -0.466  1.00  0.00    -0.013 A 
ATOM     15  C   UNL     1      -0.687  -4.947  -0.935  1.00  0.00     0.045 A 
ATOM     16  N   UNL     1      -1.134  -6.173  -0.602  1.00  0.00    -0.249 NA
ATOM     17  C   UNL     1      -2.641  -5.194   0.993  1.00  0.00     0.016 A 
ATOM     18  C   UNL     1      -2.082  -6.306   0.338  1.00  0.00     0.107 A 
ATOM     19  C   UNL     1      -3.397  -5.455   2.161  1.00  0.00     0.011 A 
ATOM     20  C   UNL     1      -2.493  -7.587   0.713  1.00  0.00     0.149 A 
ATOM     21  C   UNL     1      -3.790  -6.742   2.530  1.00  0.00     0.004 A 
ATOM     22  F   UNL     1      -2.016  -8.658   0.055  1.00  0.00    -0.205 F 
ATOM     23  C   UNL     1      -3.367  -7.816   1.770  1.00  0.00     0.041 A 
BRANCH  10  24
ATOM     24  C   UNL     1       1.075  -1.135  -2.187  1.00  0.00     0.003 C 
BRANCH  24  25
ATOM     25  C   UNL     1       0.718   0.155  -1.439  1.00  0.00    -0.003 C 
ATOM     26  C   UNL     1       1.315   0.258  -0.043  1.00  0.00     0.004 C 
ENDBRANCH  24  25
ENDBRANCH  10  24
ENDBRANCH   6   9
ENDBRANCH   4   5
ENDBRANCH   3   4
ENDBRANCH   2   3
ENDBRANCH   1   2
BRANCH   1  27
ATOM     27  C   UNL     1      -8.685  -3.671   3.365  1.00  0.00     0.021 C 
BRANCH  27  28
ATOM     28  C   UNL     1      -8.466  -3.867   4.863  1.00  0.00     0.116 C 
BRANCH  28  29
ATOM     29  N   UNL     1      -9.277  -2.942   5.639  1.00  0.00    -0.352 N 
ATOM     30  C   UNL     1     -10.400  -3.223   6.376  1.00  0.00     0.251 C 
ATOM     31  H   UNL     1      -8.986  -2.002   5.635  1.00  0.00     0.163 HD
ATOM     32  O   UNL     1     -11.142  -2.324   6.761  1.00  0.00    -0.269 OA
BRANCH  30  33
ATOM     33  C   UNL     1     -10.698  -4.631   6.697  1.00  0.00     0.039 A 
ATOM     34  C   UNL     1     -11.944  -5.165   6.366  1.00  0.00     0.014 A 
ATOM     35  C   UNL     1      -9.719  -5.420   7.312  1.00  0.00     0.014 A 
ATOM     36  C   UNL     1     -12.201  -6.511   6.628  1.00  0.00     0.010 A 
ATOM     37  C   UNL     1      -9.958  -6.773   7.519  1.00  0.00     0.010 A 
ATOM     38  C   UNL     1     -11.208  -7.324   7.199  1.00  0.00    -0.014 A 
BRANCH  38  39
ATOM     39  C   UNL     1     -11.482  -8.741   7.532  1.00  0.00     0.031 A 
ATOM     40  C   UNL     1     -11.591  -9.150   8.973  1.00  0.00     0.074 A 
ATOM     41  C   UNL     1     -11.588  -9.656   6.551  1.00  0.00     0.049 A 
ATOM     42  N   UNL     1     -11.821 -10.333   9.476  1.00  0.00    -0.248 NA
ATOM     43  C   UNL     1     -11.395  -8.095   9.982  1.00  0.00     0.031 C 
ATOM     44  C   UNL     1     -11.451  -9.377   5.121  1.00  0.00     0.029 A 
ATOM     45  N   UNL     1     -11.826 -11.007   6.607  1.00  0.00    -0.354 N 
ATOM     46  C   UNL     1     -11.797 -10.166  10.855  1.00  0.00     0.074 A 
ATOM     47  C   UNL     1     -11.468  -8.783  11.112  1.00  0.00     0.031 C 
ATOM     48  C   UNL     1     -11.626 -10.518   4.435  1.00  0.00     0.029 A 
ATOM     49  C   UNL     1     -11.866 -11.613   5.373  1.00  0.00     0.049 A 
ATOM     50  H   UNL     1     -11.957 -11.495   7.451  1.00  0.00     0.167 HD
ATOM     51  C   UNL     1     -12.058 -11.078  11.819  1.00  0.00     0.034 A 
ATOM     52  C   UNL     1     -12.082 -12.902   5.038  1.00  0.00     0.034 A 
ATOM     53  C   UNL     1     -12.407 -12.446  11.549  1.00  0.00     0.049 A 
ATOM     54  C   UNL     1     -12.384 -13.899   6.128  1.00  0.00     0.074 A 
ATOM     55  C   UNL     1     -12.741 -13.436  12.455  1.00  0.00     0.029 A 
ATOM     56  N   UNL     1     -12.475 -13.014  10.286  1.00  0.00    -0.354 N 
ATOM     57  N   UNL     1     -12.451 -13.705   7.425  1.00  0.00    -0.248 NA
ATOM     58  C   UNL     1     -12.659 -15.283   5.717  1.00  0.00     0.031 C 
ATOM     59  C   UNL     1     -12.969 -14.614  11.743  1.00  0.00     0.029 A 
ATOM     60  C   UNL     1     -12.833 -14.346  10.390  1.00  0.00     0.049 A 
ATOM     61  H   UNL     1     -12.294 -12.541   9.442  1.00  0.00     0.167 HD
ATOM     62  C   UNL     1     -12.814 -14.930   7.978  1.00  0.00     0.074 A 
ATOM     63  C   UNL     1     -12.957 -15.857   6.876  1.00  0.00     0.031 C 
ATOM     64  C   UNL     1     -13.012 -15.251   9.281  1.00  0.00     0.034 A 
BRANCH  51  65
ATOM     65  C   UNL     1     -12.017 -10.631  13.255  1.00  0.00     0.023 A 
ATOM     66  C   UNL     1     -11.058 -11.167  14.134  1.00  0.00     0.031 A 
ATOM     67  C   UNL     1     -12.992  -9.762  13.776  1.00  0.00     0.131 A 
ATOM     68  C   UNL     1     -11.114 -10.849  15.496  1.00  0.00     0.055 A 
ATOM     69  C   UNL     1     -13.020  -9.420  15.128  1.00  0.00     0.041 A 
ATOM     70  F   UNL     1     -13.923  -9.223  12.973  1.00  0.00    -0.206 F 
ATOM     71  C   UNL     1     -12.083  -9.973  15.996  1.00  0.00     0.022 A 
BRANCH  68  72
ATOM     72  S   UNL     1      -9.950 -11.585  16.675  1.00  0.00     0.124 S 
ATOM     73  O   UNL     1      -9.404 -10.403  17.339  1.00  0.00    -0.237 OA
ATOM     74  O   UNL     1     -10.832 -12.410  17.495  1.00  0.00    -0.237 OA
ATOM     75  O   UNL     1      -9.007 -12.310  15.831  1.00  0.00    -0.744 OA
ENDBRANCH  68  72
ENDBRANCH  51  65
BRANCH  52  76
ATOM     76  C   UNL     1     -12.106 -13.283   3.598  1.00  0.00     0.023 A 
ATOM     77  C   UNL     1     -10.948 -13.199   2.805  1.00  0.00     0.031 A 
ATOM     78  C   UNL     1     -13.313 -13.642   2.974  1.00  0.00     0.131 A 
ATOM     79  C   UNL     1     -11.034 -13.421   1.424  1.00  0.00     0.055 A 
ATOM     80  C   UNL     1     -13.382 -13.920   1.609  1.00  0.00     0.041 A 
ATOM     81  F   UNL     1     -14.445 -13.720   3.690  1.00  0.00    -0.206 F 
ATOM     82  C   UNL     1     -12.239 -13.798   0.824  1.00  0.00     0.022 A 
BRANCH  79  83
ATOM     83  S   UNL     1      -9.603 -13.137   0.346  1.00  0.00     0.124 S 
ATOM     84  O   UNL     1      -9.494 -14.408  -0.362  1.00  0.00    -0.237 OA
ATOM     85  O   UNL     1     -10.059 -12.004  -0.455  1.00  0.00    -0.237 OA
ATOM     86  O   UNL     1      -8.521 -12.842   1.280  1.00  0.00    -0.744 OA
ENDBRANCH  79  83
ENDBRANCH  52  76
BRANCH  64  87
ATOM     87  C   UNL     1     -13.444 -16.653   9.628  1.00  0.00     0.023 A 
ATOM     88  C   UNL     1     -14.705 -16.863  10.218  1.00  0.00     0.031 A 
ATOM     89  C   UNL     1     -12.552 -17.734   9.550  1.00  0.00     0.131 A 
ATOM     90  C   UNL     1     -15.022 -18.117  10.753  1.00  0.00     0.055 A 
ATOM     91  C   UNL     1     -12.890 -18.994  10.046  1.00  0.00     0.041 A 
ATOM     92  F   UNL     1     -11.335 -17.576   9.007  1.00  0.00    -0.206 F 
ATOM     93  C   UNL     1     -14.123 -19.186  10.664  1.00  0.00     0.022 A 
BRANCH  90  94
ATOM     94  S   UNL     1     -16.574 -18.384  11.652  1.00  0.00     0.124 S 
ATOM     95  O   UNL     1     -17.158 -19.508  10.924  1.00  0.00    -0.237 OA
ATOM     96  O   UNL     1     -16.098 -18.691  12.998  1.00  0.00    -0.237 OA
ATOM     97  O   UNL     1     -17.286 -17.118  11.511  1.00  0.00    -0.744 OA
ENDBRANCH  90  94
ENDBRANCH  64  87
ENDBRANCH  38  39
ENDBRANCH  30  33
ENDBRANCH  28  29
ENDBRANCH  27  28
ENDBRANCH   1  27
TORSDOF 18
