REMARK SMILES CN(CC(C)(C)O)S(=O)(=O)c1cc(Cl)cc(C(=O)NCCCCCCNC(=O)c2ccc(-c3c4nc(c(-c5cc(S(=O)(=O)[O-])ccc5F)c5ccc([nH]5)c(-c5cc(S(=O)(=O)[O-])ccc5F)c5nc(c(-c6cc(S(=O)(=O)[O-])ccc6F)c6ccc3[nH]6)C=C5)C=C4)cc2)c1Cl
REMARK SMILES IDX 21 1 20 2 19 3 17 4 18 5 16 7 11 8 12 9 92 10 13 11 93 12
REMARK SMILES IDX 14 13 15 14 8 15 9 16 10 17 2 18 1 19 3 20 4 21 5 22 6 23
REMARK SMILES IDX 7 24 22 26 23 27 24 28 25 29 26 30 27 31 28 33 29 34 30 35
REMARK SMILES IDX 91 36 31 37 90 38 32 39 33 40 34 41 84 42 35 43 89 44 83 45
REMARK SMILES IDX 85 46 36 47 88 48 82 49 81 50 37 52 69 53 49 54 68 55 50 56
REMARK SMILES IDX 53 57 67 58 86 59 51 60 52 61 66 63 87 64 54 65 38 66 39 67
REMARK SMILES IDX 47 68 40 69 46 70 48 71 45 72 41 73 42 74 43 75 44 76 70 77
REMARK SMILES IDX 71 78 79 79 72 80 78 81 80 82 77 83 73 84 74 85 75 86 76 87
REMARK SMILES IDX 55 88 56 89 64 90 57 91 63 92 65 93 62 94 58 95 59 96 60 97
REMARK SMILES IDX 61 98
REMARK H PARENT 19 6 7 25 26 32 85 51 53 62
REMARK Flexibility Score: inf
ROOT
ATOM      1  C   UNL     1       1.883  -6.186   1.465  1.00  0.00     0.021 C 
ENDROOT
BRANCH   1   2
ATOM      2  C   UNL     1       2.054  -5.682   0.038  1.00  0.00     0.116 C 
BRANCH   2   3
ATOM      3  N   UNL     1       1.856  -6.664  -1.006  1.00  0.00    -0.352 N 
ATOM      4  C   UNL     1       1.527  -6.485  -2.331  1.00  0.00     0.252 C 
ATOM      5  O   UNL     1       1.519  -7.476  -3.064  1.00  0.00    -0.269 OA
ATOM      6  H   UNL     1       1.975  -7.601  -0.728  1.00  0.00     0.163 HD
BRANCH   4   7
ATOM      7  C   UNL     1       1.042  -5.188  -2.901  1.00  0.00     0.061 A 
ATOM      8  C   UNL     1       0.914  -2.785  -3.210  1.00  0.00     0.103 A 
ATOM      9  C   UNL     1      -0.166  -2.954  -4.094  1.00  0.00     0.044 A 
ATOM     10  C   UNL     1       1.597  -3.906  -2.704  1.00  0.00     0.073 A 
ATOM     11  C   UNL     1      -0.621  -4.226  -4.400  1.00  0.00     0.043 A 
ATOM     12  Cl  UNL     1       3.203  -3.753  -2.085  1.00  0.00    -0.082 Cl
ATOM     13  Cl  UNL     1      -1.896  -4.427  -5.533  1.00  0.00    -0.084 Cl
ATOM     14  C   UNL     1      -0.056  -5.331  -3.778  1.00  0.00     0.036 A 
BRANCH   8  15
ATOM     15  S   UNL     1       1.327  -1.098  -2.786  1.00  0.00     0.244 S 
ATOM     16  O   UNL     1       0.688  -0.256  -3.776  1.00  0.00    -0.207 OA
ATOM     17  O   UNL     1       2.750  -0.985  -2.587  1.00  0.00    -0.207 OA
BRANCH  15  18
ATOM     18  N   UNL     1       0.542  -0.869  -1.298  1.00  0.00    -0.198 NA
ATOM     19  C   UNL     1       1.148   0.129  -0.392  1.00  0.00     0.124 C 
BRANCH  18  20
ATOM     20  C   UNL     1      -0.929  -1.057  -1.121  1.00  0.00     0.136 C 
BRANCH  20  21
ATOM     21  C   UNL     1      -1.879   0.138  -1.432  1.00  0.00     0.073 C 
ATOM     22  C   UNL     1      -1.914   0.555  -2.902  1.00  0.00     0.043 C 
ATOM     23  C   UNL     1      -3.307  -0.272  -1.027  1.00  0.00     0.043 C 
BRANCH  21  24
ATOM     24  O   UNL     1      -1.553   1.262  -0.609  1.00  0.00    -0.389 OA
ATOM     25  H   UNL     1      -0.657   1.568  -0.819  1.00  0.00     0.211 HD
ENDBRANCH  21  24
ENDBRANCH  20  21
ENDBRANCH  18  20
ENDBRANCH  15  18
ENDBRANCH   8  15
ENDBRANCH   4   7
ENDBRANCH   2   3
ENDBRANCH   1   2
BRANCH   1  26
ATOM     26  C   UNL     1       3.029  -7.036   2.028  1.00  0.00     0.002 C 
BRANCH  26  27
ATOM     27  C   UNL     1       4.459  -6.514   1.832  1.00  0.00     0.002 C 
BRANCH  27  28
ATOM     28  C   UNL     1       4.740  -5.066   2.247  1.00  0.00     0.021 C 
BRANCH  28  29
ATOM     29  C   UNL     1       4.338  -4.686   3.668  1.00  0.00     0.116 C 
BRANCH  29  30
ATOM     30  N   UNL     1       4.910  -5.572   4.664  1.00  0.00    -0.352 N 
ATOM     31  C   UNL     1       5.664  -5.287   5.773  1.00  0.00     0.251 C 
ATOM     32  H   UNL     1       4.727  -6.529   4.521  1.00  0.00     0.163 HD
ATOM     33  O   UNL     1       6.209  -6.208   6.377  1.00  0.00    -0.269 OA
BRANCH  31  34
ATOM     34  C   UNL     1       5.839  -3.891   6.233  1.00  0.00     0.039 A 
ATOM     35  C   UNL     1       7.091  -3.498   6.712  1.00  0.00     0.014 A 
ATOM     36  C   UNL     1       4.776  -2.983   6.237  1.00  0.00     0.014 A 
ATOM     37  C   UNL     1       7.286  -2.188   7.157  1.00  0.00     0.010 A 
ATOM     38  C   UNL     1       4.993  -1.655   6.603  1.00  0.00     0.010 A 
ATOM     39  C   UNL     1       6.246  -1.247   7.082  1.00  0.00    -0.014 A 
BRANCH  39  40
ATOM     40  C   UNL     1       6.459   0.157   7.526  1.00  0.00     0.031 A 
ATOM     41  C   UNL     1       5.683   0.710   8.692  1.00  0.00     0.074 A 
ATOM     42  C   UNL     1       7.334   0.939   6.863  1.00  0.00     0.049 A 
ATOM     43  N   UNL     1       5.716   1.910   9.215  1.00  0.00    -0.248 NA
ATOM     44  C   UNL     1       4.721  -0.197   9.336  1.00  0.00     0.031 C 
ATOM     45  C   UNL     1       8.116   0.526   5.696  1.00  0.00     0.029 A 
ATOM     46  N   UNL     1       7.718   2.239   7.075  1.00  0.00    -0.354 N 
ATOM     47  C   UNL     1       4.780   1.903  10.244  1.00  0.00     0.074 A 
ATOM     48  C   UNL     1       4.145   0.603  10.220  1.00  0.00     0.031 C 
ATOM     49  C   UNL     1       8.913   1.539   5.320  1.00  0.00     0.029 A 
ATOM     50  C   UNL     1       8.665   2.688   6.184  1.00  0.00     0.049 A 
ATOM     51  H   UNL     1       7.350   2.798   7.797  1.00  0.00     0.167 HD
ATOM     52  C   UNL     1       4.496   2.880  11.142  1.00  0.00     0.034 A 
ATOM     53  C   UNL     1       9.261   3.892   6.070  1.00  0.00     0.034 A 
ATOM     54  C   UNL     1       5.143   4.170  11.151  1.00  0.00     0.049 A 
ATOM     55  C   UNL     1       8.904   4.973   7.058  1.00  0.00     0.074 A 
ATOM     56  C   UNL     1       4.965   5.217  12.039  1.00  0.00     0.029 A 
ATOM     57  N   UNL     1       6.085   4.597  10.222  1.00  0.00    -0.354 N 
ATOM     58  N   UNL     1       8.054   4.933   8.059  1.00  0.00    -0.248 NA
ATOM     59  C   UNL     1       9.600   6.257   6.910  1.00  0.00     0.031 C 
ATOM     60  C   UNL     1       5.734   6.301  11.600  1.00  0.00     0.029 A 
ATOM     61  C   UNL     1       6.468   5.902  10.495  1.00  0.00     0.049 A 
ATOM     62  H   UNL     1       6.431   4.051   9.479  1.00  0.00     0.167 HD
ATOM     63  C   UNL     1       8.140   6.177   8.680  1.00  0.00     0.074 A 
ATOM     64  C   UNL     1       9.142   6.931   7.954  1.00  0.00     0.031 C 
ATOM     65  C   UNL     1       7.456   6.653   9.753  1.00  0.00     0.034 A 
BRANCH  52  66
ATOM     66  C   UNL     1       3.418   2.595  12.164  1.00  0.00     0.023 A 
ATOM     67  C   UNL     1       3.536   1.544  13.093  1.00  0.00     0.031 A 
ATOM     68  C   UNL     1       2.241   3.364  12.194  1.00  0.00     0.131 A 
ATOM     69  C   UNL     1       2.467   1.241  13.950  1.00  0.00     0.055 A 
ATOM     70  C   UNL     1       1.219   3.115  13.113  1.00  0.00     0.041 A 
ATOM     71  F   UNL     1       2.056   4.365  11.319  1.00  0.00    -0.206 F 
ATOM     72  C   UNL     1       1.321   2.037  13.987  1.00  0.00     0.022 A 
BRANCH  69  73
ATOM     73  S   UNL     1       2.530  -0.303  14.899  1.00  0.00     0.124 S 
ATOM     74  O   UNL     1       2.674  -1.296  13.837  1.00  0.00    -0.237 OA
ATOM     75  O   UNL     1       3.697  -0.104  15.751  1.00  0.00    -0.237 OA
ATOM     76  O   UNL     1       1.246  -0.330  15.596  1.00  0.00    -0.744 OA
ENDBRANCH  69  73
ENDBRANCH  52  66
BRANCH  53  77
ATOM     77  C   UNL     1      10.249   4.149   4.981  1.00  0.00     0.023 A 
ATOM     78  C   UNL     1      11.586   4.466   5.272  1.00  0.00     0.031 A 
ATOM     79  C   UNL     1       9.858   4.129   3.630  1.00  0.00     0.131 A 
ATOM     80  C   UNL     1      12.468   4.803   4.234  1.00  0.00     0.055 A 
ATOM     81  C   UNL     1      10.755   4.403   2.597  1.00  0.00     0.041 A 
ATOM     82  F   UNL     1       8.593   3.832   3.293  1.00  0.00    -0.206 F 
ATOM     83  C   UNL     1      12.066   4.758   2.897  1.00  0.00     0.022 A 
BRANCH  80  84
ATOM     84  S   UNL     1      14.126   5.402   4.662  1.00  0.00     0.124 S 
ATOM     85  O   UNL     1      13.818   6.555   5.500  1.00  0.00    -0.237 OA
ATOM     86  O   UNL     1      14.698   4.247   5.346  1.00  0.00    -0.237 OA
ATOM     87  O   UNL     1      14.722   5.713   3.365  1.00  0.00    -0.744 OA
ENDBRANCH  80  84
ENDBRANCH  53  77
BRANCH  65  88
ATOM     88  C   UNL     1       7.810   8.044  10.228  1.00  0.00     0.023 A 
ATOM     89  C   UNL     1       7.611   9.177   9.420  1.00  0.00     0.031 A 
ATOM     90  C   UNL     1       8.391   8.233  11.495  1.00  0.00     0.131 A 
ATOM     91  C   UNL     1       8.063  10.433   9.852  1.00  0.00     0.055 A 
ATOM     92  C   UNL     1       8.765   9.498  11.953  1.00  0.00     0.041 A 
ATOM     93  F   UNL     1       8.611   7.189  12.311  1.00  0.00    -0.206 F 
ATOM     94  C   UNL     1       8.620  10.604  11.122  1.00  0.00     0.022 A 
BRANCH  91  95
ATOM     95  S   UNL     1       8.039  11.815   8.678  1.00  0.00     0.124 S 
ATOM     96  O   UNL     1       8.819  11.281   7.566  1.00  0.00    -0.237 OA
ATOM     97  O   UNL     1       6.612  11.989   8.429  1.00  0.00    -0.237 OA
ATOM     98  O   UNL     1       8.677  12.904   9.416  1.00  0.00    -0.744 OA
ENDBRANCH  91  95
ENDBRANCH  65  88
ENDBRANCH  39  40
ENDBRANCH  31  34
ENDBRANCH  29  30
ENDBRANCH  28  29
ENDBRANCH  27  28
ENDBRANCH  26  27
ENDBRANCH   1  26
TORSDOF 21
