REMARK SMILES O=C(NCCCCCCNC(=O)[C@@H](CCO)NC(=O)c1nc(C2CC2)n[nH]1)c1ccc(-c2c3nc(c(-c4cc(S(=O)(=O)[O-])ccc4F)c4ccc([nH]4)c(-c4cc(S(=O)(=O)[O-])ccc4F)c4nc(c(-c5cc(S(=O)(=O)[O-])ccc5F)c5ccc2[nH]5)C=C4)C=C3)cc1
REMARK SMILES IDX 6 1 5 2 4 3 3 4 1 5 2 6 28 8 29 9 90 10 30 11 89 12 31 13
REMARK SMILES IDX 32 14 33 15 83 16 34 17 88 18 82 19 84 20 35 21 87 22 81 23
REMARK SMILES IDX 80 24 36 26 68 27 48 28 67 29 49 30 52 31 66 32 85 33 50 34
REMARK SMILES IDX 51 35 65 37 86 38 53 39 37 40 38 41 46 42 39 43 45 44 47 45
REMARK SMILES IDX 44 46 40 47 41 48 42 49 43 50 69 51 70 52 78 53 71 54 77 55
REMARK SMILES IDX 79 56 76 57 72 58 73 59 74 60 75 61 54 62 55 63 63 64 56 65
REMARK SMILES IDX 62 66 64 67 61 68 57 69 58 70 59 71 60 72 7 73 8 74 9 75
REMARK SMILES IDX 10 76 11 77 12 79 13 80 14 81 15 82 16 83 17 85 18 86 19 88
REMARK SMILES IDX 20 89 21 90 27 91 22 92 26 93 23 95 24 96 25 97
REMARK H PARENT 3 7 84 25 52 36 10 78 16 84 17 87 27 94
REMARK Flexibility Score: inf
ROOT
ATOM      1  C   UNL     1       3.902  -3.916   0.094  1.00  0.00     0.002 C 
ENDROOT
BRANCH   1   2
ATOM      2  C   UNL     1       4.440  -2.637   0.740  1.00  0.00     0.021 C 
BRANCH   2   3
ATOM      3  C   UNL     1       4.353  -1.392  -0.136  1.00  0.00     0.116 C 
BRANCH   3   4
ATOM      4  N   UNL     1       2.979  -1.040  -0.456  1.00  0.00    -0.352 N 
ATOM      5  O   UNL     1       1.078   0.169  -0.349  1.00  0.00    -0.269 OA
ATOM      6  C   UNL     1       2.291   0.115  -0.171  1.00  0.00     0.251 C 
ATOM      7  H   UNL     1       2.469  -1.725  -0.946  1.00  0.00     0.163 HD
BRANCH   6   8
ATOM      8  C   UNL     1       3.019   1.285   0.364  1.00  0.00     0.039 A 
ATOM      9  C   UNL     1       4.218   1.702  -0.219  1.00  0.00     0.014 A 
ATOM     10  C   UNL     1       2.494   1.973   1.461  1.00  0.00     0.014 A 
ATOM     11  C   UNL     1       4.959   2.717   0.375  1.00  0.00     0.010 A 
ATOM     12  C   UNL     1       3.201   3.047   2.008  1.00  0.00     0.010 A 
ATOM     13  C   UNL     1       4.455   3.408   1.489  1.00  0.00    -0.014 A 
BRANCH  13  14
ATOM     14  C   UNL     1       5.243   4.526   2.070  1.00  0.00     0.031 A 
ATOM     15  C   UNL     1       5.806   4.436   3.462  1.00  0.00     0.074 A 
ATOM     16  C   UNL     1       5.470   5.620   1.317  1.00  0.00     0.049 A 
ATOM     17  N   UNL     1       6.530   5.306   4.119  1.00  0.00    -0.248 NA
ATOM     18  C   UNL     1       5.504   3.213   4.218  1.00  0.00     0.031 C 
ATOM     19  C   UNL     1       4.969   5.819  -0.046  1.00  0.00     0.029 A 
ATOM     20  N   UNL     1       6.192   6.755   1.573  1.00  0.00    -0.354 N 
ATOM     21  C   UNL     1       6.755   4.748   5.373  1.00  0.00     0.074 A 
ATOM     22  C   UNL     1       6.056   3.479   5.393  1.00  0.00     0.031 C 
ATOM     23  C   UNL     1       5.442   6.979  -0.523  1.00  0.00     0.029 A 
ATOM     24  C   UNL     1       6.223   7.637   0.518  1.00  0.00     0.049 A 
ATOM     25  H   UNL     1       6.646   6.924   2.431  1.00  0.00     0.167 HD
ATOM     26  C   UNL     1       7.482   5.247   6.406  1.00  0.00     0.034 A 
ATOM     27  C   UNL     1       6.805   8.846   0.403  1.00  0.00     0.034 A 
ATOM     28  C   UNL     1       8.174   6.515   6.363  1.00  0.00     0.049 A 
ATOM     29  C   UNL     1       7.578   9.391   1.572  1.00  0.00     0.074 A 
ATOM     30  C   UNL     1       8.967   7.101   7.335  1.00  0.00     0.029 A 
ATOM     31  N   UNL     1       8.148   7.402   5.292  1.00  0.00    -0.354 N 
ATOM     32  N   UNL     1       7.797   8.844   2.745  1.00  0.00    -0.248 NA
ATOM     33  C   UNL     1       8.186  10.714   1.397  1.00  0.00     0.031 C 
ATOM     34  C   UNL     1       9.362   8.366   6.881  1.00  0.00     0.029 A 
ATOM     35  C   UNL     1       8.883   8.540   5.593  1.00  0.00     0.049 A 
ATOM     36  H   UNL     1       7.676   7.245   4.442  1.00  0.00     0.167 HD
ATOM     37  C   UNL     1       8.592   9.748   3.441  1.00  0.00     0.074 A 
ATOM     38  C   UNL     1       8.824  10.867   2.548  1.00  0.00     0.031 C 
ATOM     39  C   UNL     1       9.091   9.659   4.700  1.00  0.00     0.034 A 
BRANCH  26  40
ATOM     40  C   UNL     1       7.515   4.439   7.684  1.00  0.00     0.023 A 
ATOM     41  C   UNL     1       8.065   3.145   7.734  1.00  0.00     0.031 A 
ATOM     42  C   UNL     1       6.946   4.953   8.864  1.00  0.00     0.131 A 
ATOM     43  C   UNL     1       7.957   2.380   8.906  1.00  0.00     0.055 A 
ATOM     44  C   UNL     1       6.918   4.218  10.052  1.00  0.00     0.041 A 
ATOM     45  F   UNL     1       6.388   6.173   8.878  1.00  0.00    -0.206 F 
ATOM     46  C   UNL     1       7.409   2.916  10.073  1.00  0.00     0.022 A 
BRANCH  43  47
ATOM     47  S   UNL     1       8.389   0.619   8.834  1.00  0.00     0.124 S 
ATOM     48  O   UNL     1       7.536   0.148   7.745  1.00  0.00    -0.237 OA
ATOM     49  O   UNL     1       9.819   0.657   8.553  1.00  0.00    -0.237 OA
ATOM     50  O   UNL     1       8.024   0.121  10.159  1.00  0.00    -0.744 OA
ENDBRANCH  43  47
ENDBRANCH  26  40
BRANCH  27  51
ATOM     51  C   UNL     1       6.667   9.622  -0.860  1.00  0.00     0.023 A 
ATOM     52  C   UNL     1       7.781   9.888  -1.669  1.00  0.00     0.031 A 
ATOM     53  C   UNL     1       5.415  10.116  -1.271  1.00  0.00     0.131 A 
ATOM     54  C   UNL     1       7.629  10.655  -2.835  1.00  0.00     0.055 A 
ATOM     55  C   UNL     1       5.261  10.835  -2.456  1.00  0.00     0.041 A 
ATOM     56  F   UNL     1       4.317   9.880  -0.535  1.00  0.00    -0.206 F 
ATOM     57  C   UNL     1       6.374  11.117  -3.241  1.00  0.00     0.022 A 
BRANCH  54  58
ATOM     58  S   UNL     1       9.109  11.087  -3.789  1.00  0.00     0.124 S 
ATOM     59  O   UNL     1       9.890  11.830  -2.807  1.00  0.00    -0.237 OA
ATOM     60  O   UNL     1       9.625   9.773  -4.159  1.00  0.00    -0.237 OA
ATOM     61  O   UNL     1       8.580  11.880  -4.897  1.00  0.00    -0.744 OA
ENDBRANCH  54  58
ENDBRANCH  27  51
BRANCH  39  62
ATOM     62  C   UNL     1       9.979  10.790   5.159  1.00  0.00     0.023 A 
ATOM     63  C   UNL     1       9.480  12.090   5.359  1.00  0.00     0.031 A 
ATOM     64  C   UNL     1      11.352  10.569   5.364  1.00  0.00     0.131 A 
ATOM     65  C   UNL     1      10.360  13.132   5.689  1.00  0.00     0.055 A 
ATOM     66  C   UNL     1      12.212  11.598   5.752  1.00  0.00     0.041 A 
ATOM     67  F   UNL     1      11.883   9.349   5.183  1.00  0.00    -0.206 F 
ATOM     68  C   UNL     1      11.720  12.891   5.902  1.00  0.00     0.022 A 
BRANCH  65  69
ATOM     69  S   UNL     1       9.722  14.830   5.733  1.00  0.00     0.124 S 
ATOM     70  O   UNL     1       9.178  14.985   4.388  1.00  0.00    -0.237 OA
ATOM     71  O   UNL     1       8.744  14.768   6.814  1.00  0.00    -0.237 OA
ATOM     72  O   UNL     1      10.909  15.635   6.017  1.00  0.00    -0.744 OA
ENDBRANCH  65  69
ENDBRANCH  39  62
ENDBRANCH  13  14
ENDBRANCH   6   8
ENDBRANCH   3   4
ENDBRANCH   2   3
ENDBRANCH   1   2
BRANCH   1  73
ATOM     73  C   UNL     1       4.517  -4.269  -1.264  1.00  0.00     0.002 C 
BRANCH  73  74
ATOM     74  C   UNL     1       6.049  -4.276  -1.303  1.00  0.00     0.021 C 
BRANCH  74  75
ATOM     75  C   UNL     1       6.693  -5.331  -0.402  1.00  0.00     0.116 C 
BRANCH  75  76
ATOM     76  N   UNL     1       6.630  -6.629  -1.040  1.00  0.00    -0.354 N 
ATOM     77  C   UNL     1       7.589  -7.393  -1.619  1.00  0.00     0.242 C 
ATOM     78  H   UNL     1       5.730  -7.028  -1.057  1.00  0.00     0.163 HD
ATOM     79  O   UNL     1       7.191  -8.259  -2.409  1.00  0.00    -0.273 OA
BRANCH  77  80
ATOM     80  C   UNL     1       9.107  -7.195  -1.399  1.00  0.00     0.174 C 
BRANCH  80  81
ATOM     81  C   UNL     1       9.813  -6.236  -2.366  1.00  0.00     0.063 C 
BRANCH  81  82
ATOM     82  C   UNL     1       9.611  -4.742  -2.170  1.00  0.00     0.158 C 
BRANCH  82  83
ATOM     83  O   UNL     1       9.890  -4.331  -0.843  1.00  0.00    -0.396 OA
ATOM     84  H   UNL     1       9.287  -4.781  -0.232  1.00  0.00     0.210 HD
ENDBRANCH  82  83
ENDBRANCH  81  82
ENDBRANCH  80  81
BRANCH  80  85
ATOM     85  N   UNL     1       9.499  -7.038   0.004  1.00  0.00    -0.337 N 
ATOM     86  C   UNL     1      10.269  -7.899   0.755  1.00  0.00     0.289 C 
ATOM     87  H   UNL     1       9.176  -6.227   0.460  1.00  0.00     0.164 HD
ATOM     88  O   UNL     1      10.221  -7.822   1.980  1.00  0.00    -0.266 OA
BRANCH  86  89
ATOM     89  C   UNL     1      11.076  -8.886   0.081  1.00  0.00     0.214 A 
ATOM     90  N   UNL     1      11.627  -8.784  -1.113  1.00  0.00    -0.207 NA
ATOM     91  N   UNL     1      11.394 -10.104   0.605  1.00  0.00    -0.255 N 
ATOM     92  C   UNL     1      12.172 -10.022  -1.319  1.00  0.00     0.154 A 
ATOM     93  N   UNL     1      12.035 -10.873  -0.296  1.00  0.00    -0.158 NA
ATOM     94  H   UNL     1      11.183 -10.384   1.524  1.00  0.00     0.192 HD
BRANCH  92  95
ATOM     95  C   UNL     1      12.842 -10.412  -2.625  1.00  0.00     0.060 C 
ATOM     96  C   UNL     1      12.470  -9.645  -3.881  1.00  0.00     0.012 C 
ATOM     97  C   UNL     1      13.810  -9.439  -3.265  1.00  0.00     0.012 C 
ENDBRANCH  92  95
ENDBRANCH  86  89
ENDBRANCH  80  85
ENDBRANCH  77  80
ENDBRANCH  75  76
ENDBRANCH  74  75
ENDBRANCH  73  74
ENDBRANCH   1  73
TORSDOF 22
