REMARK SMILES C[NH+]1CCC(C(=O)N2C[C@@H](C(=O)NCCCCCCNC(=O)c3ccc(-c4c5nc(c(-c6cc(S(=O)(=O)[O-])ccc6F)c6ccc([nH]6)c(-c6cc(S(=O)(=O)[O-])ccc6F)c6nc(c(-c7cc(S(=O)(=O)[O-])ccc7F)c7ccc4[nH]7)C=C6)C=C5)cc3)[C@H](c3ccc4c(c3)OCO4)C2)CC1
REMARK SMILES IDX 17 1 16 2 15 3 14 4 13 5 11 6 12 7 10 9 8 10 9 11 96 12
REMARK SMILES IDX 86 13 6 14 7 15 5 16 1 17 2 18 3 19 98 20 4 22 97 23 87 24
REMARK SMILES IDX 88 25 92 26 89 27 91 28 90 29 93 30 95 31 94 32 18 33 19 34
REMARK SMILES IDX 20 35 21 36 22 38 23 39 24 40 85 41 25 42 84 43 26 44 27 45
REMARK SMILES IDX 28 46 78 47 29 48 83 49 77 50 79 51 30 52 82 53 76 54 75 55
REMARK SMILES IDX 31 57 63 58 43 59 62 60 44 61 47 62 61 63 80 64 45 65 46 66
REMARK SMILES IDX 60 68 81 69 48 70 32 71 33 72 41 73 34 74 40 75 42 76 39 77
REMARK SMILES IDX 35 78 36 79 37 80 38 81 64 82 65 83 73 84 66 85 72 86 74 87
REMARK SMILES IDX 71 88 67 89 68 90 69 91 70 92 49 93 50 94 58 95 51 96 57 97
REMARK SMILES IDX 59 98 56 99 52 100 53 101 54 102 55 103
REMARK H PARENT 13 8 2 21 20 37 79 56 47 67
REMARK Flexibility Score: inf
ROOT
ATOM      1  C   UNL     1       1.201   0.670   9.406  1.00  0.00     0.002 C 
ENDROOT
BRANCH   1   2
ATOM      2  C   UNL     1       0.274  -0.022   8.401  1.00  0.00     0.002 C 
BRANCH   2   3
ATOM      3  C   UNL     1       0.245   0.573   6.988  1.00  0.00     0.021 C 
BRANCH   3   4
ATOM      4  C   UNL     1       1.607   0.722   6.313  1.00  0.00     0.116 C 
BRANCH   4   5
ATOM      5  N   UNL     1       2.275  -0.552   6.099  1.00  0.00    -0.356 N 
ATOM      6  C   UNL     1       3.021  -0.979   5.040  1.00  0.00     0.225 C 
ATOM      7  O   UNL     1       3.600  -2.063   5.129  1.00  0.00    -0.275 OA
ATOM      8  H   UNL     1       2.173  -1.206   6.828  1.00  0.00     0.163 HD
BRANCH   6   9
ATOM      9  C   UNL     1       3.124  -0.123   3.798  1.00  0.00     0.107 C 
ATOM     10  N   UNL     1       3.606  -0.066   1.540  1.00  0.00    -0.341 N 
ATOM     11  C   UNL     1       3.135  -0.985   2.553  1.00  0.00     0.133 C 
ATOM     12  C   UNL     1       4.611   0.819   2.128  1.00  0.00     0.128 C 
ATOM     13  C   UNL     1       4.463   0.636   3.661  1.00  0.00     0.053 C 
BRANCH  10  14
ATOM     14  C   UNL     1       3.274   0.039   0.214  1.00  0.00     0.226 C 
ATOM     15  O   UNL     1       4.104   0.473  -0.596  1.00  0.00    -0.275 OA
BRANCH  14  16
ATOM     16  C   UNL     1       1.813  -0.086  -0.241  1.00  0.00     0.090 C 
ATOM     17  C   UNL     1      -2.484   0.022  -0.281  1.00  0.00     0.332 C 
ATOM     18  N   UNL     1      -1.077  -0.051   0.105  1.00  0.00    -0.337 N 
ATOM     19  C   UNL     1      -0.376   1.185  -0.263  1.00  0.00     0.262 C 
ATOM     20  C   UNL     1      -0.422  -1.223  -0.494  1.00  0.00     0.262 C 
ATOM     21  H   UNL     1      -1.032  -0.154   1.119  1.00  0.00     0.347 HD
ATOM     22  C   UNL     1       1.060   1.158   0.253  1.00  0.00     0.075 C 
ATOM     23  C   UNL     1       1.006  -1.350   0.046  1.00  0.00     0.075 C 
ENDBRANCH  14  16
ENDBRANCH  10  14
BRANCH  13  24
ATOM     24  C   UNL     1       4.457   1.869   4.543  1.00  0.00    -0.038 A 
ATOM     25  C   UNL     1       3.827   3.077   4.162  1.00  0.00     0.008 A 
ATOM     26  C   UNL     1       4.948   1.740   5.857  1.00  0.00     0.054 A 
ATOM     27  C   UNL     1       3.655   4.122   5.079  1.00  0.00     0.051 A 
ATOM     28  C   UNL     1       4.731   2.771   6.746  1.00  0.00     0.166 A 
ATOM     29  C   UNL     1       4.095   3.927   6.370  1.00  0.00     0.165 A 
ATOM     30  O   UNL     1       5.026   2.748   8.074  1.00  0.00    -0.454 OA
ATOM     31  O   UNL     1       3.917   4.782   7.411  1.00  0.00    -0.454 OA
ATOM     32  C   UNL     1       4.425   3.989   8.503  1.00  0.00     0.468 C 
ENDBRANCH  13  24
ENDBRANCH   6   9
ENDBRANCH   4   5
ENDBRANCH   3   4
ENDBRANCH   2   3
ENDBRANCH   1   2
BRANCH   1  33
ATOM     33  C   UNL     1       1.006   2.179   9.569  1.00  0.00     0.021 C 
BRANCH  33  34
ATOM     34  C   UNL     1      -0.382   2.619  10.027  1.00  0.00     0.116 C 
BRANCH  34  35
ATOM     35  N   UNL     1      -0.669   2.214  11.394  1.00  0.00    -0.352 N 
ATOM     36  C   UNL     1      -1.020   2.969  12.485  1.00  0.00     0.251 C 
ATOM     37  H   UNL     1      -0.601   1.246  11.563  1.00  0.00     0.163 HD
ATOM     38  O   UNL     1      -1.038   2.433  13.598  1.00  0.00    -0.269 OA
BRANCH  36  39
ATOM     39  C   UNL     1      -1.349   4.409  12.357  1.00  0.00     0.039 A 
ATOM     40  C   UNL     1      -0.917   5.291  13.355  1.00  0.00     0.014 A 
ATOM     41  C   UNL     1      -2.109   4.898  11.291  1.00  0.00     0.014 A 
ATOM     42  C   UNL     1      -1.194   6.659  13.253  1.00  0.00     0.010 A 
ATOM     43  C   UNL     1      -2.321   6.271  11.153  1.00  0.00     0.010 A 
ATOM     44  C   UNL     1      -1.871   7.168  12.134  1.00  0.00    -0.014 A 
BRANCH  44  45
ATOM     45  C   UNL     1      -2.132   8.627  11.979  1.00  0.00     0.031 A 
ATOM     46  C   UNL     1      -3.550   9.140  11.938  1.00  0.00     0.074 A 
ATOM     47  C   UNL     1      -1.103   9.480  11.801  1.00  0.00     0.049 A 
ATOM     48  N   UNL     1      -3.986  10.350  11.701  1.00  0.00    -0.248 NA
ATOM     49  C   UNL     1      -4.617   8.152  12.162  1.00  0.00     0.031 C 
ATOM     50  C   UNL     1       0.313   9.104  11.775  1.00  0.00     0.029 A 
ATOM     51  N   UNL     1      -1.086  10.838  11.588  1.00  0.00    -0.354 N 
ATOM     52  C   UNL     1      -5.375  10.265  11.713  1.00  0.00     0.074 A 
ATOM     53  C   UNL     1      -5.707   8.875  11.944  1.00  0.00     0.031 C 
ATOM     54  C   UNL     1       1.057  10.203  11.566  1.00  0.00     0.029 A 
ATOM     55  C   UNL     1       0.176  11.355  11.399  1.00  0.00     0.049 A 
ATOM     56  H   UNL     1      -1.901  11.390  11.571  1.00  0.00     0.167 HD
ATOM     57  C   UNL     1      -6.289  11.255  11.560  1.00  0.00     0.034 A 
ATOM     58  C   UNL     1       0.579  12.608  11.107  1.00  0.00     0.034 A 
ATOM     59  C   UNL     1      -5.947  12.645  11.378  1.00  0.00     0.049 A 
ATOM     60  C   UNL     1      -0.458  13.696  10.969  1.00  0.00     0.074 A 
ATOM     61  C   UNL     1      -6.795  13.737  11.307  1.00  0.00     0.029 A 
ATOM     62  N   UNL     1      -4.657  13.135  11.235  1.00  0.00    -0.354 N 
ATOM     63  N   UNL     1      -1.765  13.605  11.052  1.00  0.00    -0.248 NA
ATOM     64  C   UNL     1       0.035  15.056  10.713  1.00  0.00     0.031 C 
ATOM     65  C   UNL     1      -6.023  14.878  11.063  1.00  0.00     0.029 A 
ATOM     66  C   UNL     1      -4.688  14.508  11.048  1.00  0.00     0.049 A 
ATOM     67  H   UNL     1      -3.839  12.588  11.263  1.00  0.00     0.167 HD
ATOM     68  C   UNL     1      -2.245  14.902  10.890  1.00  0.00     0.074 A 
ATOM     69  C   UNL     1      -1.090  15.757  10.722  1.00  0.00     0.031 C 
ATOM     70  C   UNL     1      -3.527  15.348  10.883  1.00  0.00     0.034 A 
BRANCH  57  71
ATOM     71  C   UNL     1      -7.748  10.873  11.558  1.00  0.00     0.023 A 
ATOM     72  C   UNL     1      -8.383  10.357  12.700  1.00  0.00     0.031 A 
ATOM     73  C   UNL     1      -8.519  11.038  10.393  1.00  0.00     0.131 A 
ATOM     74  C   UNL     1      -9.732   9.972  12.637  1.00  0.00     0.055 A 
ATOM     75  C   UNL     1      -9.878  10.720  10.357  1.00  0.00     0.041 A 
ATOM     76  F   UNL     1      -7.961  11.509   9.266  1.00  0.00    -0.206 F 
ATOM     77  C   UNL     1     -10.489  10.173  11.481  1.00  0.00     0.022 A 
BRANCH  74  78
ATOM     78  S   UNL     1     -10.456   9.107  14.057  1.00  0.00     0.124 S 
ATOM     79  O   UNL     1      -9.637   7.899  14.113  1.00  0.00    -0.237 OA
ATOM     80  O   UNL     1     -10.260  10.062  15.142  1.00  0.00    -0.237 OA
ATOM     81  O   UNL     1     -11.845   8.894  13.657  1.00  0.00    -0.744 OA
ENDBRANCH  74  78
ENDBRANCH  57  71
BRANCH  58  82
ATOM     82  C   UNL     1       2.025  12.914  10.897  1.00  0.00     0.023 A 
ATOM     83  C   UNL     1       2.712  13.793  11.750  1.00  0.00     0.031 A 
ATOM     84  C   UNL     1       2.723  12.385   9.797  1.00  0.00     0.131 A 
ATOM     85  C   UNL     1       4.033  14.164  11.456  1.00  0.00     0.055 A 
ATOM     86  C   UNL     1       4.056  12.712   9.541  1.00  0.00     0.041 A 
ATOM     87  F   UNL     1       2.116  11.536   8.952  1.00  0.00    -0.206 F 
ATOM     88  C   UNL     1       4.713  13.621  10.364  1.00  0.00     0.022 A 
BRANCH  85  89
ATOM     89  S   UNL     1       4.815  15.456  12.462  1.00  0.00     0.124 S 
ATOM     90  O   UNL     1       3.850  16.544  12.351  1.00  0.00    -0.237 OA
ATOM     91  O   UNL     1       4.905  14.809  13.766  1.00  0.00    -0.237 OA
ATOM     92  O   UNL     1       6.092  15.683  11.790  1.00  0.00    -0.744 OA
ENDBRANCH  85  89
ENDBRANCH  58  82
BRANCH  70  93
ATOM     93  C   UNL     1      -3.735  16.834  10.739  1.00  0.00     0.023 A 
ATOM     94  C   UNL     1      -3.436  17.511   9.545  1.00  0.00     0.031 A 
ATOM     95  C   UNL     1      -4.231  17.584  11.821  1.00  0.00     0.131 A 
ATOM     96  C   UNL     1      -3.586  18.904   9.476  1.00  0.00     0.055 A 
ATOM     97  C   UNL     1      -4.430  18.962  11.729  1.00  0.00     0.041 A 
ATOM     98  F   UNL     1      -4.532  16.987  12.985  1.00  0.00    -0.206 F 
ATOM     99  C   UNL     1      -4.095  19.632  10.555  1.00  0.00     0.022 A 
BRANCH  96 100
ATOM    100  S   UNL     1      -3.029  19.768   7.981  1.00  0.00     0.124 S 
ATOM    101  O   UNL     1      -1.616  19.408   7.931  1.00  0.00    -0.237 OA
ATOM    102  O   UNL     1      -3.874  19.179   6.947  1.00  0.00    -0.237 OA
ATOM    103  O   UNL     1      -3.301  21.174   8.275  1.00  0.00    -0.744 OA
ENDBRANCH  96 100
ENDBRANCH  70  93
ENDBRANCH  44  45
ENDBRANCH  36  39
ENDBRANCH  34  35
ENDBRANCH  33  34
ENDBRANCH   1  33
TORSDOF 19
