REMARK SMILES Cc1c(Cl)cccc1NC(=O)C[C@](C)(C(=O)NCCCCCCNC(=O)c1ccc(-c2c3nc(c(-c4cc(S(=O)(=O)[O-])ccc4F)c4ccc([nH]4)c(-c4cc(S(=O)(=O)[O-])ccc4F)c4nc(c(-c5cc(S(=O)(=O)[O-])ccc5F)c5ccc2[nH]5)C=C4)C=C3)cc1)c1ccccc1
REMARK SMILES IDX 20 1 19 2 18 3 17 4 15 5 16 6 13 8 14 9 12 10 10 11 9 12
REMARK SMILES IDX 11 14 8 15 1 16 2 17 3 18 4 19 5 20 7 21 6 22 90 23 91 24
REMARK SMILES IDX 95 25 92 26 94 27 93 28 21 29 22 30 23 31 24 32 25 33 26 35
REMARK SMILES IDX 27 36 28 37 89 38 29 39 88 40 30 41 31 42 32 43 82 44 33 45
REMARK SMILES IDX 87 46 81 47 83 48 34 49 86 50 80 51 79 52 35 54 67 55 47 56
REMARK SMILES IDX 66 57 48 58 51 59 65 60 84 61 49 62 50 63 64 65 85 66 52 67
REMARK SMILES IDX 36 68 37 69 45 70 38 71 44 72 46 73 43 74 39 75 40 76 41 77
REMARK SMILES IDX 42 78 68 79 69 80 77 81 70 82 76 83 78 84 75 85 71 86 72 87
REMARK SMILES IDX 73 88 74 89 53 90 54 91 62 92 55 93 61 94 63 95 60 96 56 97
REMARK SMILES IDX 57 98 58 99 59 100
REMARK H PARENT 17 7 9 13 24 34 83 53 51 64
REMARK Flexibility Score: inf
ROOT
ATOM      1  C   UNL     1      -5.753  -3.541   3.511  1.00  0.00     0.002 C 
ENDROOT
BRANCH   1   2
ATOM      2  C   UNL     1      -5.199  -2.168   3.118  1.00  0.00     0.021 C 
BRANCH   2   3
ATOM      3  C   UNL     1      -4.520  -2.141   1.560  1.00  0.00     0.116 C 
BRANCH   3   4
ATOM      4  N   UNL     1      -5.223  -1.392  -0.260  1.00  0.00    -0.355 N 
ATOM      5  C   UNL     1      -5.188  -0.528  -1.390  1.00  0.00     0.230 C 
ATOM      6  O   UNL     1      -6.141  -0.824  -2.137  1.00  0.00    -0.274 OA
ATOM      7  H   UNL     1      -6.022  -1.941  -0.429  1.00  0.00     0.163 HD
BRANCH   5   8
ATOM      8  C   UNL     1      -4.223   0.711  -1.770  1.00  0.00     0.080 C 
ATOM      9  C   UNL     1      -4.550   1.891  -0.777  1.00  0.00     0.027 C 
BRANCH   8  10
ATOM     10  C   UNL     1      -2.686   0.402  -1.838  1.00  0.00     0.121 C 
BRANCH  10  11
ATOM     11  C   UNL     1      -2.218  -1.010  -2.129  1.00  0.00     0.225 C 
ATOM     12  N   UNL     1      -2.329  -1.989  -1.185  1.00  0.00    -0.326 N 
ATOM     13  H   UNL     1      -1.701  -2.746  -1.215  1.00  0.00     0.169 HD
ATOM     14  O   UNL     1      -1.688  -1.297  -3.205  1.00  0.00    -0.275 OA
BRANCH  12  15
ATOM     15  C   UNL     1      -3.294  -1.964  -0.180  1.00  0.00     0.045 A 
ATOM     16  C   UNL     1      -4.017  -4.702  -0.694  1.00  0.00     0.048 C 
ATOM     17  C   UNL     1      -4.483  -3.330  -0.288  1.00  0.00    -0.009 A 
ATOM     18  C   UNL     1      -6.102  -3.155   0.474  1.00  0.00     0.046 A 
ATOM     19  Cl  UNL     1      -7.257  -4.428   0.363  1.00  0.00    -0.084 Cl
ATOM     20  C   UNL     1      -6.598  -1.594   1.230  1.00  0.00     0.021 A 
ATOM     21  C   UNL     1      -3.727  -0.413   0.694  1.00  0.00     0.026 A 
ATOM     22  C   UNL     1      -5.400  -0.237   1.393  1.00  0.00     0.004 A 
ENDBRANCH  12  15
ENDBRANCH  10  11
ENDBRANCH   8  10
BRANCH   8  23
ATOM     23  C   UNL     1      -4.527   1.403  -3.163  1.00  0.00    -0.032 A 
ATOM     24  C   UNL     1      -4.051   2.729  -3.372  1.00  0.00     0.005 A 
ATOM     25  C   UNL     1      -5.256   0.829  -4.207  1.00  0.00     0.005 A 
ATOM     26  C   UNL     1      -4.417   3.487  -4.480  1.00  0.00     0.000 A 
ATOM     27  C   UNL     1      -5.616   1.588  -5.330  1.00  0.00     0.000 A 
ATOM     28  C   UNL     1      -5.222   2.919  -5.453  1.00  0.00     0.000 A 
ENDBRANCH   8  23
ENDBRANCH   5   8
ENDBRANCH   3   4
ENDBRANCH   2   3
ENDBRANCH   1   2
BRANCH   1  29
ATOM     29  C   UNL     1      -4.747  -4.691   3.330  1.00  0.00     0.002 C 
BRANCH  29  30
ATOM     30  C   UNL     1      -3.481  -4.491   4.164  1.00  0.00     0.021 C 
BRANCH  30  31
ATOM     31  C   UNL     1      -3.829  -4.255   5.622  1.00  0.00     0.116 C 
BRANCH  31  32
ATOM     32  N   UNL     1      -4.876  -5.188   6.050  1.00  0.00    -0.352 N 
ATOM     33  C   UNL     1      -4.955  -5.893   7.210  1.00  0.00     0.251 C 
ATOM     34  H   UNL     1      -5.616  -5.322   5.415  1.00  0.00     0.163 HD
ATOM     35  O   UNL     1      -5.716  -6.838   7.348  1.00  0.00    -0.269 OA
BRANCH  33  36
ATOM     36  C   UNL     1      -4.075  -5.418   8.267  1.00  0.00     0.039 A 
ATOM     37  C   UNL     1      -3.115  -6.277   8.783  1.00  0.00     0.014 A 
ATOM     38  C   UNL     1      -4.099  -4.046   8.546  1.00  0.00     0.014 A 
ATOM     39  C   UNL     1      -2.152  -5.739   9.617  1.00  0.00     0.010 A 
ATOM     40  C   UNL     1      -3.054  -3.497   9.249  1.00  0.00     0.010 A 
ATOM     41  C   UNL     1      -2.113  -4.349   9.839  1.00  0.00    -0.014 A 
BRANCH  41  42
ATOM     42  C   UNL     1      -1.146  -3.776  10.786  1.00  0.00     0.031 A 
ATOM     43  C   UNL     1      -1.669  -3.095  12.017  1.00  0.00     0.074 A 
ATOM     44  C   UNL     1       0.168  -3.881  10.526  1.00  0.00     0.049 A 
ATOM     45  N   UNL     1      -1.005  -2.535  12.990  1.00  0.00    -0.248 NA
ATOM     46  C   UNL     1      -3.134  -2.993  12.155  1.00  0.00     0.031 C 
ATOM     47  C   UNL     1       0.748  -4.492   9.326  1.00  0.00     0.029 A 
ATOM     48  N   UNL     1       1.251  -3.503  11.266  1.00  0.00    -0.354 N 
ATOM     49  C   UNL     1      -1.970  -2.015  13.844  1.00  0.00     0.074 A 
ATOM     50  C   UNL     1      -3.255  -2.224  13.221  1.00  0.00     0.031 C 
ATOM     51  C   UNL     1       2.084  -4.508   9.448  1.00  0.00     0.029 A 
ATOM     52  C   UNL     1       2.451  -3.858  10.701  1.00  0.00     0.049 A 
ATOM     53  H   UNL     1       1.179  -3.022  12.122  1.00  0.00     0.167 HD
ATOM     54  C   UNL     1      -1.797  -1.457  15.063  1.00  0.00     0.034 A 
ATOM     55  C   UNL     1       3.703  -3.676  11.157  1.00  0.00     0.034 A 
ATOM     56  C   UNL     1      -0.500  -1.277  15.656  1.00  0.00     0.049 A 
ATOM     57  C   UNL     1       3.874  -3.009  12.498  1.00  0.00     0.074 A 
ATOM     58  C   UNL     1      -0.183  -0.751  16.893  1.00  0.00     0.029 A 
ATOM     59  N   UNL     1       0.702  -1.614  15.042  1.00  0.00    -0.354 N 
ATOM     60  N   UNL     1       2.954  -2.559  13.322  1.00  0.00    -0.248 NA
ATOM     61  C   UNL     1       5.249  -2.838  12.975  1.00  0.00     0.031 C 
ATOM     62  C   UNL     1       1.209  -0.685  16.990  1.00  0.00     0.029 A 
ATOM     63  C   UNL     1       1.764  -1.270  15.860  1.00  0.00     0.049 A 
ATOM     64  H   UNL     1       0.785  -2.035  14.156  1.00  0.00     0.167 HD
ATOM     65  C   UNL     1       3.640  -2.084  14.435  1.00  0.00     0.074 A 
ATOM     66  C   UNL     1       5.048  -2.321  14.178  1.00  0.00     0.031 C 
ATOM     67  C   UNL     1       3.159  -1.511  15.569  1.00  0.00     0.034 A 
BRANCH  54  68
ATOM     68  C   UNL     1      -3.033  -0.986  15.790  1.00  0.00     0.023 A 
ATOM     69  C   UNL     1      -4.076  -1.868  16.130  1.00  0.00     0.031 A 
ATOM     70  C   UNL     1      -3.200   0.376  16.093  1.00  0.00     0.131 A 
ATOM     71  C   UNL     1      -5.271  -1.366  16.665  1.00  0.00     0.055 A 
ATOM     72  C   UNL     1      -4.352   0.853  16.720  1.00  0.00     0.041 A 
ATOM     73  F   UNL     1      -2.258   1.272  15.760  1.00  0.00    -0.206 F 
ATOM     74  C   UNL     1      -5.404  -0.016  16.994  1.00  0.00     0.022 A 
BRANCH  71  75
ATOM     75  S   UNL     1      -6.709  -2.470  16.755  1.00  0.00     0.124 S 
ATOM     76  O   UNL     1      -6.867  -2.859  15.355  1.00  0.00    -0.237 OA
ATOM     77  O   UNL     1      -6.250  -3.515  17.661  1.00  0.00    -0.237 OA
ATOM     78  O   UNL     1      -7.768  -1.609  17.277  1.00  0.00    -0.744 OA
ENDBRANCH  71  75
ENDBRANCH  54  68
BRANCH  55  79
ATOM     79  C   UNL     1       4.873  -4.130  10.355  1.00  0.00     0.023 A 
ATOM     80  C   UNL     1       5.757  -5.102  10.848  1.00  0.00     0.031 A 
ATOM     81  C   UNL     1       5.147  -3.570   9.094  1.00  0.00     0.131 A 
ATOM     82  C   UNL     1       6.902  -5.443  10.112  1.00  0.00     0.055 A 
ATOM     83  C   UNL     1       6.251  -3.961   8.336  1.00  0.00     0.041 A 
ATOM     84  F   UNL     1       4.331  -2.640   8.572  1.00  0.00    -0.206 F 
ATOM     85  C   UNL     1       7.146  -4.892   8.852  1.00  0.00     0.022 A 
BRANCH  82  86
ATOM     86  S   UNL     1       8.128  -6.538  10.877  1.00  0.00     0.124 S 
ATOM     87  O   UNL     1       8.454  -5.809  12.097  1.00  0.00    -0.237 OA
ATOM     88  O   UNL     1       7.367  -7.771  11.050  1.00  0.00    -0.237 OA
ATOM     89  O   UNL     1       9.195  -6.599   9.881  1.00  0.00    -0.744 OA
ENDBRANCH  82  86
ENDBRANCH  55  79
BRANCH  67  90
ATOM     90  C   UNL     1       4.167  -1.153  16.633  1.00  0.00     0.023 A 
ATOM     91  C   UNL     1       5.165  -0.190  16.414  1.00  0.00     0.031 A 
ATOM     92  C   UNL     1       4.130  -1.798  17.883  1.00  0.00     0.131 A 
ATOM     93  C   UNL     1       6.133   0.043  17.400  1.00  0.00     0.055 A 
ATOM     94  C   UNL     1       5.043  -1.497  18.892  1.00  0.00     0.041 A 
ATOM     95  F   UNL     1       3.199  -2.729  18.145  1.00  0.00    -0.206 F 
ATOM     96  C   UNL     1       6.064  -0.585  18.646  1.00  0.00     0.022 A 
BRANCH  93  97
ATOM     97  S   UNL     1       7.563   1.076  16.979  1.00  0.00     0.124 S 
ATOM     98  O   UNL     1       8.101   0.384  15.813  1.00  0.00    -0.237 OA
ATOM     99  O   UNL     1       6.946   2.373  16.721  1.00  0.00    -0.237 OA
ATOM    100  O   UNL     1       8.395   1.012  18.179  1.00  0.00    -0.744 OA
ENDBRANCH  93  97
ENDBRANCH  67  90
ENDBRANCH  41  42
ENDBRANCH  33  36
ENDBRANCH  31  32
ENDBRANCH  30  31
ENDBRANCH  29  30
ENDBRANCH   1  29
TORSDOF 20
