REMARK SMILES O=C(CCCCCC(F)(F)c1ccccc1)NCCCCCCNC(=O)c1ccc(-c2c3nc(c(-c4cc(S(=O)(=O)[O-])ccc4F)c4ccc([nH]4)c(-c4cc(S(=O)(=O)[O-])ccc4F)c4nc(c(-c5cc(S(=O)(=O)[O-])ccc5F)c5ccc2[nH]5)C=C4)C=C3)cc1
REMARK SMILES IDX 19 1 18 2 17 3 1 4 2 5 3 7 4 8 5 9 6 10 7 11 8 12 9 13 10 14
REMARK SMILES IDX 11 15 12 16 16 17 13 18 15 19 14 20 20 21 21 22 22 23 23 24
REMARK SMILES IDX 24 25 25 26 26 28 27 29 28 30 89 31 29 32 88 33 30 34 31 35
REMARK SMILES IDX 32 36 82 37 33 38 87 39 81 40 83 41 34 42 86 43 80 44 79 45
REMARK SMILES IDX 35 47 67 48 47 49 66 50 48 51 51 52 65 53 84 54 49 55 50 56
REMARK SMILES IDX 64 58 85 59 52 60 36 61 37 62 45 63 38 64 44 65 46 66 43 67
REMARK SMILES IDX 39 68 40 69 41 70 42 71 68 72 69 73 77 74 70 75 76 76 78 77
REMARK SMILES IDX 75 78 71 79 72 80 73 81 74 82 53 83 54 84 62 85 55 86 61 87
REMARK SMILES IDX 63 88 60 89 56 90 57 91 58 92 59 93
REMARK H PARENT 17 6 24 27 83 46 51 57
REMARK Flexibility Score: inf
ROOT
ATOM      1  C   UNL     1       2.471   1.211   3.482  1.00  0.00     0.021 C 
ENDROOT
BRANCH   1   2
ATOM      2  C   UNL     1       1.828   1.318   2.102  1.00  0.00     0.116 C 
BRANCH   2   3
ATOM      3  N   UNL     1       2.353   0.302   1.220  1.00  0.00    -0.356 N 
ATOM      4  O   UNL     1       0.593   0.235  -0.260  1.00  0.00    -0.275 OA
ATOM      5  C   UNL     1       1.726  -0.097   0.069  1.00  0.00     0.219 C 
ATOM      6  H   UNL     1       3.207  -0.127   1.459  1.00  0.00     0.163 HD
BRANCH   5   7
ATOM      7  C   UNL     1       2.620  -0.946  -0.809  1.00  0.00     0.100 C 
BRANCH   7   8
ATOM      8  C   UNL     1       3.514  -0.062  -1.678  1.00  0.00     0.010 C 
BRANCH   8   9
ATOM      9  C   UNL     1       4.642   0.680  -0.945  1.00  0.00     0.001 C 
BRANCH   9  10
ATOM     10  C   UNL     1       5.803  -0.180  -0.430  1.00  0.00     0.007 C 
BRANCH  10  11
ATOM     11  C   UNL     1       6.565  -1.027  -1.462  1.00  0.00     0.082 C 
BRANCH  11  12
ATOM     12  C   UNL     1       7.508  -0.275  -2.424  1.00  0.00     0.273 C 
ATOM     13  F   UNL     1       8.493   0.294  -1.666  1.00  0.00    -0.201 F 
ATOM     14  F   UNL     1       8.148  -1.230  -3.169  1.00  0.00    -0.201 F 
BRANCH  12  15
ATOM     15  C   UNL     1       6.806   0.724  -3.317  1.00  0.00     0.021 A 
ATOM     16  C   UNL     1       7.050   2.100  -3.175  1.00  0.00     0.010 A 
ATOM     17  C   UNL     1       5.824   0.302  -4.228  1.00  0.00     0.010 A 
ATOM     18  C   UNL     1       6.259   3.031  -3.850  1.00  0.00     0.001 A 
ATOM     19  C   UNL     1       5.025   1.235  -4.890  1.00  0.00     0.001 A 
ATOM     20  C   UNL     1       5.231   2.598  -4.686  1.00  0.00     0.000 A 
ENDBRANCH  12  15
ENDBRANCH  11  12
ENDBRANCH  10  11
ENDBRANCH   9  10
ENDBRANCH   8   9
ENDBRANCH   7   8
ENDBRANCH   5   7
ENDBRANCH   2   3
ENDBRANCH   1   2
BRANCH   1  21
ATOM     21  C   UNL     1       3.988   1.463   3.503  1.00  0.00     0.002 C 
BRANCH  21  22
ATOM     22  C   UNL     1       4.425   2.883   3.131  1.00  0.00     0.002 C 
BRANCH  22  23
ATOM     23  C   UNL     1       3.810   3.994   3.983  1.00  0.00     0.021 C 
BRANCH  23  24
ATOM     24  C   UNL     1       3.973   3.819   5.490  1.00  0.00     0.116 C 
BRANCH  24  25
ATOM     25  N   UNL     1       5.365   3.829   5.905  1.00  0.00    -0.352 N 
ATOM     26  C   UNL     1       5.962   4.526   6.928  1.00  0.00     0.251 C 
ATOM     27  H   UNL     1       5.967   3.255   5.378  1.00  0.00     0.163 HD
ATOM     28  O   UNL     1       7.187   4.537   7.017  1.00  0.00    -0.269 OA
BRANCH  26  29
ATOM     29  C   UNL     1       5.134   5.285   7.894  1.00  0.00     0.039 A 
ATOM     30  C   UNL     1       5.546   6.567   8.266  1.00  0.00     0.014 A 
ATOM     31  C   UNL     1       3.961   4.746   8.431  1.00  0.00     0.014 A 
ATOM     32  C   UNL     1       4.751   7.328   9.125  1.00  0.00     0.010 A 
ATOM     33  C   UNL     1       3.130   5.536   9.223  1.00  0.00     0.010 A 
ATOM     34  C   UNL     1       3.515   6.836   9.581  1.00  0.00    -0.014 A 
BRANCH  34  35
ATOM     35  C   UNL     1       2.621   7.690  10.409  1.00  0.00     0.031 A 
ATOM     36  C   UNL     1       2.277   7.304  11.822  1.00  0.00     0.074 A 
ATOM     37  C   UNL     1       2.092   8.806   9.868  1.00  0.00     0.049 A 
ATOM     38  N   UNL     1       1.538   7.939  12.697  1.00  0.00    -0.248 NA
ATOM     39  C   UNL     1       2.809   6.022  12.305  1.00  0.00     0.031 C 
ATOM     40  C   UNL     1       2.309   9.260   8.492  1.00  0.00     0.029 A 
ATOM     41  N   UNL     1       1.276   9.769  10.407  1.00  0.00    -0.354 N 
ATOM     42  C   UNL     1       1.510   7.133  13.830  1.00  0.00     0.074 A 
ATOM     43  C   UNL     1       2.252   5.933  13.503  1.00  0.00     0.031 C 
ATOM     44  C   UNL     1       1.690  10.437   8.313  1.00  0.00     0.029 A 
ATOM     45  C   UNL     1       0.992  10.800   9.542  1.00  0.00     0.049 A 
ATOM     46  H   UNL     1       0.927   9.726  11.327  1.00  0.00     0.167 HD
ATOM     47  C   UNL     1       0.938   7.380  15.036  1.00  0.00     0.034 A 
ATOM     48  C   UNL     1       0.256  11.915   9.717  1.00  0.00     0.034 A 
ATOM     49  C   UNL     1       0.203   8.585  15.343  1.00  0.00     0.049 A 
ATOM     50  C   UNL     1      -0.390  12.155  11.057  1.00  0.00     0.074 A 
ATOM     51  C   UNL     1      -0.356   8.971  16.549  1.00  0.00     0.029 A 
ATOM     52  N   UNL     1      -0.096   9.593  14.432  1.00  0.00    -0.354 N 
ATOM     53  N   UNL     1      -0.341  11.420  12.145  1.00  0.00    -0.248 NA
ATOM     54  C   UNL     1      -1.181  13.383  11.193  1.00  0.00     0.031 C 
ATOM     55  C   UNL     1      -1.064  10.161  16.347  1.00  0.00     0.029 A 
ATOM     56  C   UNL     1      -0.871  10.573  15.038  1.00  0.00     0.049 A 
ATOM     57  H   UNL     1       0.200   9.609  13.494  1.00  0.00     0.167 HD
ATOM     58  C   UNL     1      -1.074  12.115  13.104  1.00  0.00     0.074 A 
ATOM     59  C   UNL     1      -1.525  13.338  12.470  1.00  0.00     0.031 C 
ATOM     60  C   UNL     1      -1.347  11.775  14.390  1.00  0.00     0.034 A 
BRANCH  47  61
ATOM     61  C   UNL     1       1.056   6.306  16.096  1.00  0.00     0.023 A 
ATOM     62  C   UNL     1       2.303   5.871  16.581  1.00  0.00     0.031 A 
ATOM     63  C   UNL     1      -0.097   5.680  16.605  1.00  0.00     0.131 A 
ATOM     64  C   UNL     1       2.372   4.788  17.471  1.00  0.00     0.055 A 
ATOM     65  C   UNL     1      -0.025   4.664  17.561  1.00  0.00     0.041 A 
ATOM     66  F   UNL     1      -1.316   6.032  16.168  1.00  0.00    -0.206 F 
ATOM     67  C   UNL     1       1.216   4.199  17.986  1.00  0.00     0.022 A 
BRANCH  64  68
ATOM     68  S   UNL     1       3.994   4.049  17.811  1.00  0.00     0.124 S 
ATOM     69  O   UNL     1       4.455   3.715  16.465  1.00  0.00    -0.237 OA
ATOM     70  O   UNL     1       4.702   5.135  18.478  1.00  0.00    -0.237 OA
ATOM     71  O   UNL     1       3.677   2.898  18.654  1.00  0.00    -0.744 OA
ENDBRANCH  64  68
ENDBRANCH  47  61
BRANCH  48  72
ATOM     72  C   UNL     1       0.094  12.898   8.607  1.00  0.00     0.023 A 
ATOM     73  C   UNL     1       0.593  14.206   8.724  1.00  0.00     0.031 A 
ATOM     74  C   UNL     1      -0.593  12.559   7.428  1.00  0.00     0.131 A 
ATOM     75  C   UNL     1       0.357  15.139   7.703  1.00  0.00     0.055 A 
ATOM     76  C   UNL     1      -0.775  13.474   6.391  1.00  0.00     0.041 A 
ATOM     77  F   UNL     1      -1.088  11.321   7.263  1.00  0.00    -0.206 F 
ATOM     78  C   UNL     1      -0.310  14.778   6.530  1.00  0.00     0.022 A 
BRANCH  75  79
ATOM     79  S   UNL     1       0.866  16.860   7.965  1.00  0.00     0.124 S 
ATOM     80  O   UNL     1       0.112  17.214   9.162  1.00  0.00    -0.237 OA
ATOM     81  O   UNL     1       2.310  16.728   8.131  1.00  0.00    -0.237 OA
ATOM     82  O   UNL     1       0.441  17.531   6.738  1.00  0.00    -0.744 OA
ENDBRANCH  75  79
ENDBRANCH  48  72
BRANCH  60  83
ATOM     83  C   UNL     1      -2.156  12.766  15.198  1.00  0.00     0.023 A 
ATOM     84  C   UNL     1      -3.474  13.108  14.841  1.00  0.00     0.031 A 
ATOM     85  C   UNL     1      -1.586  13.418  16.305  1.00  0.00     0.131 A 
ATOM     86  C   UNL     1      -4.141  14.135  15.525  1.00  0.00     0.055 A 
ATOM     87  C   UNL     1      -2.285  14.382  17.033  1.00  0.00     0.041 A 
ATOM     88  F   UNL     1      -0.331  13.140  16.692  1.00  0.00    -0.206 F 
ATOM     89  C   UNL     1      -3.563  14.761  16.632  1.00  0.00     0.022 A 
BRANCH  86  90
ATOM     90  S   UNL     1      -5.715  14.743  14.857  1.00  0.00     0.124 S 
ATOM     91  O   UNL     1      -5.342  15.111  13.494  1.00  0.00    -0.237 OA
ATOM     92  O   UNL     1      -6.581  13.576  14.988  1.00  0.00    -0.237 OA
ATOM     93  O   UNL     1      -6.048  15.865  15.732  1.00  0.00    -0.744 OA
ENDBRANCH  86  90
ENDBRANCH  60  83
ENDBRANCH  34  35
ENDBRANCH  26  29
ENDBRANCH  24  25
ENDBRANCH  23  24
ENDBRANCH  22  23
ENDBRANCH  21  22
ENDBRANCH   1  21
TORSDOF 22
