REMARK SMILES C[C@@H](CC(=O)NCCCCCCNC(=O)c1ccc(-c2c3nc(c(-c4cc(S(=O)(=O)[O-])ccc4F)c4ccc([nH]4)c(-c4cc(S(=O)(=O)[O-])ccc4F)c4nc(c(-c5cc(S(=O)(=O)[O-])ccc5F)c5ccc2[nH]5)C=C4)C=C3)cc1)NC(=O)CCCN1C(=O)CN(C)C1=O
REMARK SMILES IDX 8 1 7 2 6 3 4 4 5 5 3 7 2 8 1 9 79 10 80 11 81 13 82 14
REMARK SMILES IDX 83 15 84 16 85 17 86 18 91 19 87 20 88 21 89 22 92 23 90 24
REMARK SMILES IDX 9 25 10 26 11 27 12 28 13 29 14 30 15 32 16 33 17 34 78 35
REMARK SMILES IDX 18 36 77 37 19 38 20 39 21 40 71 41 22 42 76 43 70 44 72 45
REMARK SMILES IDX 23 46 75 47 69 48 68 49 24 51 56 52 36 53 55 54 37 55 40 56
REMARK SMILES IDX 54 57 73 58 38 59 39 60 53 62 74 63 41 64 25 65 26 66 34 67
REMARK SMILES IDX 27 68 33 69 35 70 32 71 28 72 29 73 30 74 31 75 57 76 58 77
REMARK SMILES IDX 66 78 59 79 65 80 67 81 64 82 60 83 61 84 62 85 63 86 42 87
REMARK SMILES IDX 43 88 51 89 44 90 50 91 52 92 49 93 45 94 46 95 47 96 48 97
REMARK H PARENT 6 6 79 12 13 31 72 50 40 61
REMARK Flexibility Score: inf
ROOT
ATOM      1  C   UNL     1       0.983   0.123  -2.835  1.00  0.00     0.021 C 
ENDROOT
BRANCH   1   2
ATOM      2  C   UNL     1       1.640   1.358  -2.219  1.00  0.00     0.116 C 
BRANCH   2   3
ATOM      3  N   UNL     1       0.655   2.414  -2.080  1.00  0.00    -0.356 N 
ATOM      4  C   UNL     1      -0.007   2.848  -0.973  1.00  0.00     0.222 C 
ATOM      5  O   UNL     1      -0.963   3.611  -1.117  1.00  0.00    -0.275 OA
ATOM      6  H   UNL     1       0.432   2.890  -2.912  1.00  0.00     0.163 HD
BRANCH   4   7
ATOM      7  C   UNL     1       0.481   2.463   0.402  1.00  0.00     0.124 C 
BRANCH   7   8
ATOM      8  C   UNL     1      -0.104   1.212   1.052  1.00  0.00     0.088 C 
ATOM      9  C   UNL     1       0.103  -0.108   0.328  1.00  0.00     0.031 C 
BRANCH   8  10
ATOM     10  N   UNL     1      -1.492   1.280   1.434  1.00  0.00    -0.353 N 
ATOM     11  C   UNL     1      -2.030   0.577   2.480  1.00  0.00     0.220 C 
ATOM     12  H   UNL     1      -2.088   1.865   0.914  1.00  0.00     0.163 HD
ATOM     13  O   UNL     1      -3.209   0.227   2.403  1.00  0.00    -0.275 OA
BRANCH  11  14
ATOM     14  C   UNL     1      -1.228   0.383   3.766  1.00  0.00     0.102 C 
BRANCH  14  15
ATOM     15  C   UNL     1      -0.127  -0.672   3.954  1.00  0.00     0.032 C 
BRANCH  15  16
ATOM     16  C   UNL     1       1.342  -0.573   3.484  1.00  0.00     0.131 C 
BRANCH  16  17
ATOM     17  N   UNL     1       2.158   0.638   3.520  1.00  0.00    -0.263 N 
ATOM     18  C   UNL     1       1.902   1.888   4.004  1.00  0.00     0.250 C 
ATOM     19  C   UNL     1       3.426   0.616   2.977  1.00  0.00     0.326 C 
ATOM     20  O   UNL     1       0.932   2.269   4.642  1.00  0.00    -0.272 OA
ATOM     21  C   UNL     1       3.008   2.832   3.564  1.00  0.00     0.221 C 
ATOM     22  N   UNL     1       3.955   1.890   3.047  1.00  0.00    -0.318 N 
ATOM     23  O   UNL     1       3.987  -0.352   2.494  1.00  0.00    -0.248 OA
ATOM     24  C   UNL     1       5.260   2.286   2.572  1.00  0.00     0.149 C 
ENDBRANCH  16  17
ENDBRANCH  15  16
ENDBRANCH  14  15
ENDBRANCH  11  14
ENDBRANCH   8  10
ENDBRANCH   7   8
ENDBRANCH   4   7
ENDBRANCH   2   3
ENDBRANCH   1   2
BRANCH   1  25
ATOM     25  C   UNL     1       0.761   0.229  -4.341  1.00  0.00     0.002 C 
BRANCH  25  26
ATOM     26  C   UNL     1       2.049   0.205  -5.161  1.00  0.00     0.002 C 
BRANCH  26  27
ATOM     27  C   UNL     1       2.943  -1.011  -4.904  1.00  0.00     0.021 C 
BRANCH  27  28
ATOM     28  C   UNL     1       2.228  -2.356  -5.014  1.00  0.00     0.116 C 
BRANCH  28  29
ATOM     29  N   UNL     1       1.600  -2.518  -6.314  1.00  0.00    -0.352 N 
ATOM     30  C   UNL     1       1.899  -3.410  -7.311  1.00  0.00     0.251 C 
ATOM     31  H   UNL     1       0.857  -1.901  -6.506  1.00  0.00     0.163 HD
ATOM     32  O   UNL     1       1.484  -3.218  -8.450  1.00  0.00    -0.269 OA
BRANCH  30  33
ATOM     33  C   UNL     1       2.731  -4.589  -7.000  1.00  0.00     0.039 A 
ATOM     34  C   UNL     1       3.760  -4.943  -7.873  1.00  0.00     0.014 A 
ATOM     35  C   UNL     1       2.490  -5.342  -5.846  1.00  0.00     0.014 A 
ATOM     36  C   UNL     1       4.582  -6.026  -7.560  1.00  0.00     0.010 A 
ATOM     37  C   UNL     1       3.359  -6.370  -5.497  1.00  0.00     0.010 A 
ATOM     38  C   UNL     1       4.410  -6.727  -6.354  1.00  0.00    -0.014 A 
BRANCH  38  39
ATOM     39  C   UNL     1       5.330  -7.831  -5.979  1.00  0.00     0.031 A 
ATOM     40  C   UNL     1       4.810  -9.235  -5.835  1.00  0.00     0.074 A 
ATOM     41  C   UNL     1       6.626  -7.556  -5.735  1.00  0.00     0.049 A 
ATOM     42  N   UNL     1       5.452 -10.323  -5.494  1.00  0.00    -0.248 NA
ATOM     43  C   UNL     1       3.374  -9.438  -6.080  1.00  0.00     0.031 C 
ATOM     44  C   UNL     1       7.232  -6.224  -5.803  1.00  0.00     0.029 A 
ATOM     45  N   UNL     1       7.668  -8.375  -5.382  1.00  0.00    -0.354 N 
ATOM     46  C   UNL     1       4.501 -11.337  -5.482  1.00  0.00     0.074 A 
ATOM     47  C   UNL     1       3.227 -10.719  -5.781  1.00  0.00     0.031 C 
ATOM     48  C   UNL     1       8.544  -6.324  -5.541  1.00  0.00     0.029 A 
ATOM     49  C   UNL     1       8.866  -7.713  -5.232  1.00  0.00     0.049 A 
ATOM     50  H   UNL     1       7.569  -9.345  -5.248  1.00  0.00     0.167 HD
ATOM     51  C   UNL     1       4.680 -12.664  -5.266  1.00  0.00     0.034 A 
ATOM     52  C   UNL     1      10.082  -8.172  -4.877  1.00  0.00     0.034 A 
ATOM     53  C   UNL     1       5.960 -13.260  -4.969  1.00  0.00     0.049 A 
ATOM     54  C   UNL     1      10.247  -9.645  -4.601  1.00  0.00     0.074 A 
ATOM     55  C   UNL     1       6.265 -14.597  -4.781  1.00  0.00     0.029 A 
ATOM     56  N   UNL     1       7.147 -12.557  -4.803  1.00  0.00    -0.354 N 
ATOM     57  N   UNL     1       9.347 -10.601  -4.650  1.00  0.00    -0.248 NA
ATOM     58  C   UNL     1      11.592 -10.102  -4.232  1.00  0.00     0.031 C 
ATOM     59  C   UNL     1       7.613 -14.693  -4.421  1.00  0.00     0.029 A 
ATOM     60  C   UNL     1       8.176 -13.428  -4.475  1.00  0.00     0.049 A 
ATOM     61  H   UNL     1       7.244 -11.582  -4.904  1.00  0.00     0.167 HD
ATOM     62  C   UNL     1      10.028 -11.778  -4.348  1.00  0.00     0.074 A 
ATOM     63  C   UNL     1      11.414 -11.411  -4.141  1.00  0.00     0.031 C 
ATOM     64  C   UNL     1       9.552 -13.046  -4.254  1.00  0.00     0.034 A 
BRANCH  51  65
ATOM     65  C   UNL     1       3.456 -13.550  -5.317  1.00  0.00     0.023 A 
ATOM     66  C   UNL     1       2.688 -13.685  -6.487  1.00  0.00     0.031 A 
ATOM     67  C   UNL     1       3.040 -14.258  -4.175  1.00  0.00     0.131 A 
ATOM     68  C   UNL     1       1.506 -14.442  -6.468  1.00  0.00     0.055 A 
ATOM     69  C   UNL     1       1.911 -15.080  -4.188  1.00  0.00     0.041 A 
ATOM     70  F   UNL     1       3.717 -14.153  -3.021  1.00  0.00    -0.206 F 
ATOM     71  C   UNL     1       1.128 -15.164  -5.335  1.00  0.00     0.022 A 
BRANCH  68  72
ATOM     72  S   UNL     1       0.395 -14.347  -7.899  1.00  0.00     0.124 S 
ATOM     73  O   UNL     1       0.118 -12.914  -7.962  1.00  0.00    -0.237 OA
ATOM     74  O   UNL     1       1.217 -14.887  -8.974  1.00  0.00    -0.237 OA
ATOM     75  O   UNL     1      -0.742 -15.176  -7.504  1.00  0.00    -0.744 OA
ENDBRANCH  68  72
ENDBRANCH  51  65
BRANCH  52  76
ATOM     76  C   UNL     1      11.237  -7.236  -4.749  1.00  0.00     0.023 A 
ATOM     77  C   UNL     1      12.369  -7.365  -5.569  1.00  0.00     0.031 A 
ATOM     78  C   UNL     1      11.244  -6.224  -3.772  1.00  0.00     0.131 A 
ATOM     79  C   UNL     1      13.481  -6.533  -5.363  1.00  0.00     0.055 A 
ATOM     80  C   UNL     1      12.327  -5.359  -3.612  1.00  0.00     0.041 A 
ATOM     81  F   UNL     1      10.187  -6.054  -2.962  1.00  0.00    -0.206 F 
ATOM     82  C   UNL     1      13.461  -5.521  -4.401  1.00  0.00     0.022 A 
BRANCH  79  83
ATOM     83  S   UNL     1      14.996  -6.860  -6.305  1.00  0.00     0.124 S 
ATOM     84  O   UNL     1      15.279  -8.243  -5.940  1.00  0.00    -0.237 OA
ATOM     85  O   UNL     1      14.554  -6.635  -7.677  1.00  0.00    -0.237 OA
ATOM     86  O   UNL     1      15.938  -5.871  -5.785  1.00  0.00    -0.744 OA
ENDBRANCH  79  83
ENDBRANCH  52  76
BRANCH  64  87
ATOM     87  C   UNL     1      10.556 -14.134  -3.949  1.00  0.00     0.023 A 
ATOM     88  C   UNL     1      11.251 -14.180  -2.728  1.00  0.00     0.031 A 
ATOM     89  C   UNL     1      10.835 -15.128  -4.904  1.00  0.00     0.131 A 
ATOM     90  C   UNL     1      12.236 -15.157  -2.520  1.00  0.00     0.055 A 
ATOM     91  C   UNL     1      11.764 -16.141  -4.663  1.00  0.00     0.041 A 
ATOM     92  F   UNL     1      10.207 -15.132  -6.091  1.00  0.00    -0.206 F 
ATOM     93  C   UNL     1      12.482 -16.150  -3.471  1.00  0.00     0.022 A 
BRANCH  90  94
ATOM     94  S   UNL     1      13.273 -15.044  -1.036  1.00  0.00     0.124 S 
ATOM     95  O   UNL     1      13.857 -13.714  -1.175  1.00  0.00    -0.237 OA
ATOM     96  O   UNL     1      12.299 -15.203   0.039  1.00  0.00    -0.237 OA
ATOM     97  O   UNL     1      14.213 -16.153  -1.190  1.00  0.00    -0.744 OA
ENDBRANCH  90  94
ENDBRANCH  64  87
ENDBRANCH  38  39
ENDBRANCH  30  33
ENDBRANCH  28  29
ENDBRANCH  27  28
ENDBRANCH  26  27
ENDBRANCH  25  26
ENDBRANCH   1  25
TORSDOF 22
