REMARK SMILES NS(=O)(=O)c1ccc(-n2nc(NC(=O)NCCCC(=O)NCCCCCCNC(=O)c3ccc(-c4c5nc(c(-c6cc(S(=O)(=O)[O-])ccc6F)c6ccc([nH]6)c(-c6cc(S(=O)(=O)[O-])ccc6F)c6nc(c(-c7cc(S(=O)(=O)[O-])ccc7F)c7ccc4[nH]7)C=C6)C=C5)cc3)cc2-c2ccccc2)cc1
REMARK SMILES IDX 22 1 21 2 19 3 20 4 18 6 17 7 16 8 15 9 12 10 13 11 14 13
REMARK SMILES IDX 11 15 9 16 10 17 95 18 94 19 8 20 5 21 6 22 103 23 7 24
REMARK SMILES IDX 102 25 2 26 3 27 4 28 1 29 96 32 97 33 101 34 98 35 100 36
REMARK SMILES IDX 99 37 23 38 24 39 25 40 26 41 27 42 28 43 29 44 30 46 31 47
REMARK SMILES IDX 32 48 93 49 33 50 92 51 34 52 35 53 36 54 86 55 37 56 91 57
REMARK SMILES IDX 85 58 87 59 38 60 90 61 84 62 83 63 39 65 71 66 51 67 70 68
REMARK SMILES IDX 52 69 55 70 69 71 88 72 53 73 54 74 68 76 89 77 56 78 40 79
REMARK SMILES IDX 41 80 49 81 42 82 48 83 50 84 47 85 43 86 44 87 45 88 46 89
REMARK SMILES IDX 72 90 73 91 81 92 74 93 80 94 82 95 79 96 75 97 76 98 77 99
REMARK SMILES IDX 78 100 57 101 58 102 66 103 59 104 65 105 67 106 64 107
REMARK SMILES IDX 60 108 61 109 62 110 63 111
REMARK H PARENT 21 5 12 12 15 14 1 30 1 31 28 45 87 64 55 75
REMARK Flexibility Score: inf
ROOT
ATOM      1  C   UNL     1       0.185   7.369   1.512  1.00  0.00     0.116 C 
ENDROOT
BRANCH   1   2
ATOM      2  N   UNL     1       0.439   6.004   1.944  1.00  0.00    -0.356 N 
ATOM      3  C   UNL     1       1.617   5.363   2.177  1.00  0.00     0.220 C 
ATOM      4  O   UNL     1       1.595   4.145   2.366  1.00  0.00    -0.275 OA
ATOM      5  H   UNL     1      -0.367   5.458   2.091  1.00  0.00     0.163 HD
BRANCH   3   6
ATOM      6  C   UNL     1       2.921   6.137   2.260  1.00  0.00     0.102 C 
BRANCH   6   7
ATOM      7  C   UNL     1       3.773   6.081   0.993  1.00  0.00     0.031 C 
BRANCH   7   8
ATOM      8  C   UNL     1       3.251   6.929  -0.156  1.00  0.00     0.118 C 
BRANCH   8   9
ATOM      9  N   UNL     1       3.170   8.357   0.103  1.00  0.00    -0.338 N 
ATOM     10  N   UNL     1       2.666   9.271  -2.041  1.00  0.00    -0.291 N 
ATOM     11  C   UNL     1       2.870   9.395  -0.712  1.00  0.00     0.320 C 
ATOM     12  H   UNL     1       2.700  10.115  -2.546  1.00  0.00     0.173 HD
ATOM     13  O   UNL     1       2.908  10.527  -0.217  1.00  0.00    -0.248 OA
ATOM     14  H   UNL     1       3.368   8.614   1.033  1.00  0.00     0.165 HD
BRANCH  10  15
ATOM     15  C   UNL     1       2.420   8.155  -2.797  1.00  0.00     0.157 A 
ATOM     16  N   UNL     1       1.971   6.131  -3.253  1.00  0.00    -0.231 N 
ATOM     17  N   UNL     1       1.618   7.154  -2.440  1.00  0.00    -0.149 NA
ATOM     18  C   UNL     1       2.691   6.604  -4.345  1.00  0.00     0.076 A 
ATOM     19  C   UNL     1       2.956   7.932  -4.075  1.00  0.00     0.078 A 
BRANCH  16  20
ATOM     20  C   UNL     1       1.692   4.787  -2.852  1.00  0.00     0.065 A 
ATOM     21  C   UNL     1       1.097   2.159  -2.076  1.00  0.00     0.082 A 
ATOM     22  C   UNL     1       2.325   2.446  -2.683  1.00  0.00     0.024 A 
ATOM     23  C   UNL     1       0.168   3.177  -1.851  1.00  0.00     0.024 A 
ATOM     24  C   UNL     1       2.623   3.759  -3.068  1.00  0.00     0.030 A 
ATOM     25  C   UNL     1       0.470   4.489  -2.230  1.00  0.00     0.030 A 
BRANCH  21  26
ATOM     26  S   UNL     1       0.679   0.478  -1.709  1.00  0.00     0.238 S 
ATOM     27  O   UNL     1       1.432  -0.407  -2.553  1.00  0.00    -0.207 OA
ATOM     28  O   UNL     1      -0.760   0.363  -1.549  1.00  0.00    -0.207 OA
BRANCH  26  29
ATOM     29  N   UNL     1       1.308   0.270  -0.166  1.00  0.00    -0.225 NA
ATOM     30  H   UNL     1       1.121  -0.682   0.152  1.00  0.00     0.137 HD
ATOM     31  H   UNL     1       0.869   0.933   0.472  1.00  0.00     0.137 HD
ENDBRANCH  26  29
ENDBRANCH  21  26
ENDBRANCH  16  20
BRANCH  18  32
ATOM     32  C   UNL     1       2.991   5.815  -5.525  1.00  0.00     0.000 A 
ATOM     33  C   UNL     1       2.000   4.974  -6.027  1.00  0.00     0.010 A 
ATOM     34  C   UNL     1       4.247   5.847  -6.140  1.00  0.00     0.010 A 
ATOM     35  C   UNL     1       2.298   4.104  -7.057  1.00  0.00     0.001 A 
ATOM     36  C   UNL     1       4.509   5.018  -7.234  1.00  0.00     0.001 A 
ATOM     37  C   UNL     1       3.535   4.134  -7.684  1.00  0.00     0.000 A 
ENDBRANCH  18  32
ENDBRANCH  10  15
ENDBRANCH   8   9
ENDBRANCH   7   8
ENDBRANCH   6   7
ENDBRANCH   3   6
ENDBRANCH   1   2
BRANCH   1  38
ATOM     38  C   UNL     1      -0.398   7.381   0.100  1.00  0.00     0.021 C 
BRANCH  38  39
ATOM     39  C   UNL     1      -1.911   7.180   0.018  1.00  0.00     0.002 C 
BRANCH  39  40
ATOM     40  C   UNL     1      -2.742   8.307   0.641  1.00  0.00     0.002 C 
BRANCH  40  41
ATOM     41  C   UNL     1      -2.477   9.715   0.087  1.00  0.00     0.021 C 
BRANCH  41  42
ATOM     42  C   UNL     1      -2.952   9.903  -1.347  1.00  0.00     0.116 C 
BRANCH  42  43
ATOM     43  N   UNL     1      -4.412   9.874  -1.441  1.00  0.00    -0.352 N 
ATOM     44  C   UNL     1      -5.196  10.048  -2.563  1.00  0.00     0.251 C 
ATOM     45  H   UNL     1      -4.895   9.710  -0.599  1.00  0.00     0.163 HD
ATOM     46  O   UNL     1      -6.369  10.387  -2.458  1.00  0.00    -0.269 OA
BRANCH  44  47
ATOM     47  C   UNL     1      -4.592   9.803  -3.884  1.00  0.00     0.039 A 
ATOM     48  C   UNL     1      -4.849  10.638  -4.976  1.00  0.00     0.014 A 
ATOM     49  C   UNL     1      -3.737   8.710  -4.006  1.00  0.00     0.014 A 
ATOM     50  C   UNL     1      -4.175  10.405  -6.174  1.00  0.00     0.010 A 
ATOM     51  C   UNL     1      -2.978   8.562  -5.137  1.00  0.00     0.010 A 
ATOM     52  C   UNL     1      -3.228   9.372  -6.240  1.00  0.00    -0.014 A 
BRANCH  52  53
ATOM     53  C   UNL     1      -2.370   9.185  -7.408  1.00  0.00     0.031 A 
ATOM     54  C   UNL     1      -1.531  10.362  -7.745  1.00  0.00     0.074 A 
ATOM     55  C   UNL     1      -2.188   7.969  -7.969  1.00  0.00     0.049 A 
ATOM     56  N   UNL     1      -1.620  11.117  -8.789  1.00  0.00    -0.248 NA
ATOM     57  C   UNL     1      -0.595  10.871  -6.730  1.00  0.00     0.031 C 
ATOM     58  C   UNL     1      -2.818   6.710  -7.579  1.00  0.00     0.029 A 
ATOM     59  N   UNL     1      -1.346   7.579  -8.967  1.00  0.00    -0.354 N 
ATOM     60  C   UNL     1      -0.594  12.050  -8.683  1.00  0.00     0.074 A 
ATOM     61  C   UNL     1      -0.151  11.985  -7.316  1.00  0.00     0.031 C 
ATOM     62  C   UNL     1      -2.227   5.684  -8.223  1.00  0.00     0.029 A 
ATOM     63  C   UNL     1      -1.232   6.191  -9.152  1.00  0.00     0.049 A 
ATOM     64  H   UNL     1      -0.851   8.226  -9.521  1.00  0.00     0.167 HD
ATOM     65  C   UNL     1      -0.045  12.620  -9.793  1.00  0.00     0.034 A 
ATOM     66  C   UNL     1      -0.406   5.527 -10.020  1.00  0.00     0.034 A 
ATOM     67  C   UNL     1      -0.892  12.400 -10.946  1.00  0.00     0.049 A 
ATOM     68  C   UNL     1      -0.073   6.546 -11.064  1.00  0.00     0.074 A 
ATOM     69  C   UNL     1      -2.188  12.755 -11.271  1.00  0.00     0.029 A 
ATOM     70  N   UNL     1      -0.565  11.365 -11.797  1.00  0.00    -0.354 N 
ATOM     71  N   UNL     1      -0.959   6.984 -11.920  1.00  0.00    -0.248 NA
ATOM     72  C   UNL     1       1.062   7.440 -10.857  1.00  0.00     0.031 C 
ATOM     73  C   UNL     1      -2.727  11.603 -11.916  1.00  0.00     0.029 A 
ATOM     74  C   UNL     1      -1.712  10.650 -12.042  1.00  0.00     0.049 A 
ATOM     75  H   UNL     1       0.330  11.173 -12.162  1.00  0.00     0.167 HD
ATOM     76  C   UNL     1      -0.733   8.349 -12.020  1.00  0.00     0.074 A 
ATOM     77  C   UNL     1       0.592   8.555 -11.433  1.00  0.00     0.031 C 
ATOM     78  C   UNL     1      -1.749   9.220 -12.301  1.00  0.00     0.034 A 
BRANCH  65  79
ATOM     79  C   UNL     1       1.400  13.049  -9.941  1.00  0.00     0.023 A 
ATOM     80  C   UNL     1       1.791  13.560 -11.195  1.00  0.00     0.031 A 
ATOM     81  C   UNL     1       2.455  12.733  -9.057  1.00  0.00     0.131 A 
ATOM     82  C   UNL     1       3.145  13.622 -11.565  1.00  0.00     0.055 A 
ATOM     83  C   UNL     1       3.804  12.857  -9.406  1.00  0.00     0.041 A 
ATOM     84  F   UNL     1       2.259  12.205  -7.844  1.00  0.00    -0.206 F 
ATOM     85  C   UNL     1       4.157  13.269 -10.678  1.00  0.00     0.022 A 
BRANCH  82  86
ATOM     86  S   UNL     1       3.550  13.992 -13.291  1.00  0.00     0.124 S 
ATOM     87  O   UNL     1       2.741  13.008 -14.001  1.00  0.00    -0.237 OA
ATOM     88  O   UNL     1       3.124  15.383 -13.406  1.00  0.00    -0.237 OA
ATOM     89  O   UNL     1       4.993  13.775 -13.353  1.00  0.00    -0.744 OA
ENDBRANCH  82  86
ENDBRANCH  65  79
BRANCH  66  90
ATOM     90  C   UNL     1       0.110   4.107 -10.069  1.00  0.00     0.023 A 
ATOM     91  C   UNL     1       1.122   3.718 -10.990  1.00  0.00     0.031 A 
ATOM     92  C   UNL     1      -0.210   3.129  -9.100  1.00  0.00     0.131 A 
ATOM     93  C   UNL     1       1.788   2.469 -10.868  1.00  0.00     0.055 A 
ATOM     94  C   UNL     1       0.430   1.881  -9.004  1.00  0.00     0.041 A 
ATOM     95  F   UNL     1      -1.031   3.385  -8.076  1.00  0.00    -0.206 F 
ATOM     96  C   UNL     1       1.458   1.560  -9.865  1.00  0.00     0.022 A 
BRANCH  93  97
ATOM     97  S   UNL     1       3.191   1.983 -11.923  1.00  0.00     0.124 S 
ATOM     98  O   UNL     1       2.659   0.816 -12.621  1.00  0.00    -0.237 OA
ATOM     99  O   UNL     1       3.436   3.161 -12.744  1.00  0.00    -0.237 OA
ATOM    100  O   UNL     1       4.228   1.693 -10.932  1.00  0.00    -0.744 OA
ENDBRANCH  93  97
ENDBRANCH  66  90
BRANCH  78 101
ATOM    101  C   UNL     1      -3.088   8.643 -12.727  1.00  0.00     0.023 A 
ATOM    102  C   UNL     1      -3.872   7.758 -11.949  1.00  0.00     0.031 A 
ATOM    103  C   UNL     1      -3.650   9.130 -13.921  1.00  0.00     0.131 A 
ATOM    104  C   UNL     1      -5.162   7.389 -12.383  1.00  0.00     0.055 A 
ATOM    105  C   UNL     1      -4.935   8.783 -14.333  1.00  0.00     0.041 A 
ATOM    106  F   UNL     1      -2.968   9.995 -14.690  1.00  0.00    -0.206 F 
ATOM    107  C   UNL     1      -5.695   7.907 -13.568  1.00  0.00     0.022 A 
BRANCH 104 108
ATOM    108  S   UNL     1      -6.171   6.210 -11.425  1.00  0.00     0.124 S 
ATOM    109  O   UNL     1      -5.242   5.124 -11.134  1.00  0.00    -0.237 OA
ATOM    110  O   UNL     1      -6.596   7.012 -10.281  1.00  0.00    -0.237 OA
ATOM    111  O   UNL     1      -7.249   5.855 -12.351  1.00  0.00    -0.744 OA
ENDBRANCH 104 108
ENDBRANCH  78 101
ENDBRANCH  52  53
ENDBRANCH  44  47
ENDBRANCH  42  43
ENDBRANCH  41  42
ENDBRANCH  40  41
ENDBRANCH  39  40
ENDBRANCH  38  39
ENDBRANCH   1  38
TORSDOF 24
