REMARK SMILES COc1cc(/C=C/c2nc3sc4c(c3c(=O)[nH]2)CCCC4)ccc1OCC(=O)NCCCCCCNC(=O)c1ccc(-c2c3nc(c(-c4cc(S(=O)(=O)[O-])ccc4F)c4ccc([nH]4)c(-c4cc(S(=O)(=O)[O-])ccc4F)c4nc(c(-c5cc(S(=O)(=O)[O-])ccc5F)c5ccc2[nH]5)C=C4)C=C3)cc1
REMARK SMILES IDX 32 1 31 2 30 3 29 4 27 5 28 6 26 8 25 9 24 10 3 11 4 12 5 13
REMARK SMILES IDX 23 14 22 15 2 16 1 17 6 18 7 19 8 20 9 21 17 22 10 23 15 24
REMARK SMILES IDX 11 26 14 27 16 28 12 29 13 30 21 31 18 32 20 33 19 34 33 35
REMARK SMILES IDX 34 36 35 37 36 38 37 39 38 41 39 42 40 43 101 44 41 45
REMARK SMILES IDX 100 46 42 47 43 48 44 49 94 50 45 51 99 52 93 53 95 54 46 55
REMARK SMILES IDX 98 56 92 57 91 58 47 60 79 61 59 62 78 63 60 64 63 65 77 66
REMARK SMILES IDX 96 67 61 68 62 69 76 71 97 72 64 73 48 74 49 75 57 76 50 77
REMARK SMILES IDX 56 78 58 79 55 80 51 81 52 82 53 83 54 84 80 85 81 86 89 87
REMARK SMILES IDX 82 88 88 89 90 90 87 91 83 92 84 93 85 94 86 95 65 96 66 97
REMARK SMILES IDX 74 98 67 99 73 100 75 101 72 102 68 103 69 104 70 105 71 106
REMARK H PARENT 29 7 17 25 36 40 95 59 63 70
REMARK Flexibility Score: inf
ROOT
ATOM      1  C   UNL     1       1.970  -3.756   3.373  1.00  0.00     0.002 C 
ENDROOT
BRANCH   1   2
ATOM      2  C   UNL     1       2.929  -2.564   3.269  1.00  0.00     0.021 C 
BRANCH   2   3
ATOM      3  C   UNL     1       3.531  -2.327   1.887  1.00  0.00     0.116 C 
BRANCH   3   4
ATOM      4  N   UNL     1       2.523  -2.125   0.869  1.00  0.00    -0.353 N 
ATOM      5  C   UNL     1       2.395  -1.079   0.004  1.00  0.00     0.257 C 
ATOM      6  O   UNL     1       1.630  -1.217  -0.955  1.00  0.00    -0.271 OA
ATOM      7  H   UNL     1       1.843  -2.832   0.792  1.00  0.00     0.163 HD
BRANCH   5   8
ATOM      8  C   UNL     1       3.246   0.184   0.192  1.00  0.00     0.329 C 
BRANCH   8   9
ATOM      9  O   UNL     1       3.403   0.703   1.501  1.00  0.00    -0.480 OA
BRANCH   9  10
ATOM     10  C   UNL     1       2.351   1.259   2.170  1.00  0.00     0.161 A 
ATOM     11  C   UNL     1       1.125   1.693   1.664  1.00  0.00     0.161 A 
ATOM     12  C   UNL     1       0.190   2.309   2.516  1.00  0.00     0.058 A 
ATOM     13  C   UNL     1       0.449   2.491   3.886  1.00  0.00    -0.022 A 
ATOM     14  C   UNL     1       2.607   1.432   3.537  1.00  0.00     0.051 A 
ATOM     15  C   UNL     1       1.673   2.037   4.385  1.00  0.00     0.012 A 
BRANCH  11  16
ATOM     16  O   UNL     1       0.885   1.683   0.316  1.00  0.00    -0.493 OA
ATOM     17  C   UNL     1      -0.263   0.912  -0.041  1.00  0.00     0.278 C 
ENDBRANCH  11  16
BRANCH  13  18
ATOM     18  C   UNL     1      -0.453   3.248   4.781  1.00  0.00     0.012 C 
ATOM     19  C   UNL     1      -1.756   3.453   4.533  1.00  0.00     0.048 C 
BRANCH  19  20
ATOM     20  C   UNL     1      -2.678   4.272   5.359  1.00  0.00     0.134 A 
ATOM     21  N   UNL     1      -3.932   3.946   5.425  1.00  0.00    -0.220 NA
ATOM     22  N   UNL     1      -2.147   5.404   5.934  1.00  0.00    -0.306 N 
ATOM     23  C   UNL     1      -4.710   4.809   6.127  1.00  0.00     0.131 A 
ATOM     24  C   UNL     1      -2.904   6.335   6.621  1.00  0.00     0.260 A 
ATOM     25  H   UNL     1      -1.178   5.559   5.853  1.00  0.00     0.171 HD
ATOM     26  S   UNL     1      -6.375   4.516   6.349  1.00  0.00    -0.120 S 
ATOM     27  C   UNL     1      -4.310   5.990   6.717  1.00  0.00     0.080 A 
ATOM     28  O   UNL     1      -2.412   7.357   7.081  1.00  0.00    -0.269 OA
ATOM     29  C   UNL     1      -6.575   5.968   7.211  1.00  0.00     0.011 A 
ATOM     30  C   UNL     1      -5.402   6.694   7.323  1.00  0.00    -0.019 A 
ATOM     31  C   UNL     1      -7.910   6.391   7.740  1.00  0.00     0.047 C 
ATOM     32  C   UNL     1      -5.355   8.017   8.032  1.00  0.00     0.037 C 
ATOM     33  C   UNL     1      -7.740   7.511   8.775  1.00  0.00     0.006 C 
ATOM     34  C   UNL     1      -6.763   8.588   8.282  1.00  0.00     0.005 C 
ENDBRANCH  19  20
ENDBRANCH  13  18
ENDBRANCH   9  10
ENDBRANCH   8   9
ENDBRANCH   5   8
ENDBRANCH   3   4
ENDBRANCH   2   3
ENDBRANCH   1   2
BRANCH   1  35
ATOM     35  C   UNL     1       2.477  -5.077   2.787  1.00  0.00     0.002 C 
BRANCH  35  36
ATOM     36  C   UNL     1       3.851  -5.534   3.276  1.00  0.00     0.021 C 
BRANCH  36  37
ATOM     37  C   UNL     1       3.979  -5.676   4.786  1.00  0.00     0.116 C 
BRANCH  37  38
ATOM     38  N   UNL     1       3.123  -6.724   5.312  1.00  0.00    -0.352 N 
ATOM     39  C   UNL     1       3.461  -7.801   6.094  1.00  0.00     0.251 C 
ATOM     40  H   UNL     1       2.169  -6.652   5.077  1.00  0.00     0.163 HD
ATOM     41  O   UNL     1       2.648  -8.702   6.279  1.00  0.00    -0.269 OA
BRANCH  39  42
ATOM     42  C   UNL     1       4.818  -7.881   6.681  1.00  0.00     0.039 A 
ATOM     43  C   UNL     1       5.513  -9.089   6.619  1.00  0.00     0.014 A 
ATOM     44  C   UNL     1       5.407  -6.761   7.277  1.00  0.00     0.014 A 
ATOM     45  C   UNL     1       6.823  -9.158   7.099  1.00  0.00     0.010 A 
ATOM     46  C   UNL     1       6.739  -6.809   7.676  1.00  0.00     0.010 A 
ATOM     47  C   UNL     1       7.461  -8.009   7.598  1.00  0.00    -0.014 A 
BRANCH  47  48
ATOM     48  C   UNL     1       8.877  -8.050   8.048  1.00  0.00     0.031 A 
ATOM     49  C   UNL     1       9.222  -7.757   9.483  1.00  0.00     0.074 A 
ATOM     50  C   UNL     1       9.856  -8.298   7.155  1.00  0.00     0.049 A 
ATOM     51  N   UNL     1      10.397  -7.687  10.055  1.00  0.00    -0.248 NA
ATOM     52  C   UNL     1       8.097  -7.476  10.386  1.00  0.00     0.031 C 
ATOM     53  C   UNL     1       9.649  -8.561   5.729  1.00  0.00     0.029 A 
ATOM     54  N   UNL     1      11.217  -8.368   7.309  1.00  0.00    -0.354 N 
ATOM     55  C   UNL     1      10.153  -7.347  11.382  1.00  0.00     0.074 A 
ATOM     56  C   UNL     1       8.724  -7.152  11.505  1.00  0.00     0.031 C 
ATOM     57  C   UNL     1      10.836  -8.800   5.149  1.00  0.00     0.029 A 
ATOM     58  C   UNL     1      11.893  -8.653   6.145  1.00  0.00     0.049 A 
ATOM     59  H   UNL     1      11.669  -8.227   8.173  1.00  0.00     0.167 HD
ATOM     60  C   UNL     1      11.035  -7.233  12.406  1.00  0.00     0.034 A 
ATOM     61  C   UNL     1      13.214  -8.771   5.903  1.00  0.00     0.034 A 
ATOM     62  C   UNL     1      12.458  -7.431  12.262  1.00  0.00     0.049 A 
ATOM     63  C   UNL     1      14.182  -8.591   7.045  1.00  0.00     0.074 A 
ATOM     64  C   UNL     1      13.437  -7.389  13.239  1.00  0.00     0.029 A 
ATOM     65  N   UNL     1      13.109  -7.695  11.062  1.00  0.00    -0.354 N 
ATOM     66  N   UNL     1      13.932  -8.317   8.305  1.00  0.00    -0.248 NA
ATOM     67  C   UNL     1      15.608  -8.744   6.733  1.00  0.00     0.031 C 
ATOM     68  C   UNL     1      14.682  -7.540  12.619  1.00  0.00     0.029 A 
ATOM     69  C   UNL     1      14.478  -7.775  11.269  1.00  0.00     0.049 A 
ATOM     70  H   UNL     1      12.662  -7.809  10.192  1.00  0.00     0.167 HD
ATOM     71  C   UNL     1      15.170  -8.300   8.942  1.00  0.00     0.074 A 
ATOM     72  C   UNL     1      16.160  -8.603   7.929  1.00  0.00     0.031 C 
ATOM     73  C   UNL     1      15.461  -8.062  10.248  1.00  0.00     0.034 A 
BRANCH  60  74
ATOM     74  C   UNL     1      10.481  -6.845  13.759  1.00  0.00     0.023 A 
ATOM     75  C   UNL     1       9.530  -7.640  14.424  1.00  0.00     0.031 A 
ATOM     76  C   UNL     1      10.876  -5.644  14.375  1.00  0.00     0.131 A 
ATOM     77  C   UNL     1       8.938  -7.181  15.611  1.00  0.00     0.055 A 
ATOM     78  C   UNL     1      10.353  -5.240  15.605  1.00  0.00     0.041 A 
ATOM     79  F   UNL     1      11.762  -4.829  13.781  1.00  0.00    -0.206 F 
ATOM     80  C   UNL     1       9.364  -6.000  16.221  1.00  0.00     0.022 A 
BRANCH  77  81
ATOM     81  S   UNL     1       7.482  -8.058  16.244  1.00  0.00     0.124 S 
ATOM     82  O   UNL     1       6.577  -7.991  15.098  1.00  0.00    -0.237 OA
ATOM     83  O   UNL     1       8.019  -9.376  16.558  1.00  0.00    -0.237 OA
ATOM     84  O   UNL     1       7.074  -7.258  17.397  1.00  0.00    -0.744 OA
ENDBRANCH  77  81
ENDBRANCH  60  74
BRANCH  61  85
ATOM     85  C   UNL     1      13.703  -9.069   4.526  1.00  0.00     0.023 A 
ATOM     86  C   UNL     1      14.383 -10.264   4.242  1.00  0.00     0.031 A 
ATOM     87  C   UNL     1      13.524  -8.148   3.477  1.00  0.00     0.131 A 
ATOM     88  C   UNL     1      14.896 -10.489   2.955  1.00  0.00     0.055 A 
ATOM     89  C   UNL     1      13.985  -8.402   2.185  1.00  0.00     0.041 A 
ATOM     90  F   UNL     1      12.878  -6.990   3.693  1.00  0.00    -0.206 F 
ATOM     91  C   UNL     1      14.687  -9.574   1.920  1.00  0.00     0.022 A 
BRANCH  88  92
ATOM     92  S   UNL     1      15.914 -11.962   2.670  1.00  0.00     0.124 S 
ATOM     93  O   UNL     1      16.998 -11.761   3.624  1.00  0.00    -0.237 OA
ATOM     94  O   UNL     1      14.980 -13.040   2.976  1.00  0.00    -0.237 OA
ATOM     95  O   UNL     1      16.291 -11.848   1.263  1.00  0.00    -0.744 OA
ENDBRANCH  88  92
ENDBRANCH  61  85
BRANCH  73  96
ATOM     96  C   UNL     1      16.910  -8.167  10.662  1.00  0.00     0.023 A 
ATOM     97  C   UNL     1      17.889  -7.282  10.177  1.00  0.00     0.031 A 
ATOM     98  C   UNL     1      17.318  -9.179  11.550  1.00  0.00     0.131 A 
ATOM     99  C   UNL     1      19.233  -7.461  10.537  1.00  0.00     0.055 A 
ATOM    100  C   UNL     1      18.646  -9.308  11.960  1.00  0.00     0.041 A 
ATOM    101  F   UNL     1      16.430 -10.057  12.041  1.00  0.00    -0.206 F 
ATOM    102  C   UNL     1      19.615  -8.455  11.441  1.00  0.00     0.022 A 
BRANCH  99 103
ATOM    103  S   UNL     1      20.495  -6.443   9.723  1.00  0.00     0.124 S 
ATOM    104  O   UNL     1      20.275  -6.756   8.315  1.00  0.00    -0.237 OA
ATOM    105  O   UNL     1      20.127  -5.094  10.142  1.00  0.00    -0.237 OA
ATOM    106  O   UNL     1      21.751  -6.943  10.280  1.00  0.00    -0.744 OA
ENDBRANCH  99 103
ENDBRANCH  73  96
ENDBRANCH  47  48
ENDBRANCH  39  42
ENDBRANCH  37  38
ENDBRANCH  36  37
ENDBRANCH  35  36
ENDBRANCH   1  35
TORSDOF 21
