REMARK SMILES CCc1noc(C)c1C(=O)Nc1cc(Cl)ccc1C(=O)NCCCCCCNC(=O)c1ccc(-c2c3nc(c(-c4cc(S(=O)(=O)[O-])ccc4F)c4ccc([nH]4)c(-c4cc(S(=O)(=O)[O-])ccc4F)c4nc(c(-c5cc(S(=O)(=O)[O-])ccc5F)c5ccc2[nH]5)C=C4)C=C3)cc1
REMARK SMILES IDX 24 1 23 2 22 3 21 4 19 5 20 6 18 8 12 9 13 10 14 11 17 12
REMARK SMILES IDX 15 13 16 14 11 15 9 16 10 17 8 19 3 20 4 21 5 22 6 23 7 24
REMARK SMILES IDX 2 25 1 26 25 27 26 28 27 29 28 30 29 31 30 33 31 34 32 35
REMARK SMILES IDX 93 36 33 37 92 38 34 39 35 40 36 41 86 42 37 43 91 44 85 45
REMARK SMILES IDX 87 46 38 47 90 48 84 49 83 50 39 52 71 53 51 54 70 55 52 56
REMARK SMILES IDX 55 57 69 58 88 59 53 60 54 61 68 63 89 64 56 65 40 66 41 67
REMARK SMILES IDX 49 68 42 69 48 70 50 71 47 72 43 73 44 74 45 75 46 76 72 77
REMARK SMILES IDX 73 78 81 79 74 80 80 81 82 82 79 83 75 84 76 85 77 86 78 87
REMARK SMILES IDX 57 88 58 89 66 90 59 91 65 92 67 93 64 94 60 95 61 96 62 97
REMARK SMILES IDX 63 98
REMARK H PARENT 21 7 11 18 28 32 87 51 55 62
REMARK Flexibility Score: inf
ROOT
ATOM      1  C   UNL     1      -3.232  -3.935  -1.497  1.00  0.00     0.002 C 
ENDROOT
BRANCH   1   2
ATOM      2  C   UNL     1      -2.502  -2.858  -2.303  1.00  0.00     0.021 C 
BRANCH   2   3
ATOM      3  C   UNL     1      -1.159  -3.232  -2.914  1.00  0.00     0.116 C 
BRANCH   3   4
ATOM      4  N   UNL     1      -1.161  -4.293  -3.890  1.00  0.00    -0.352 N 
ATOM      5  C   UNL     1      -0.266  -4.646  -4.872  1.00  0.00     0.253 C 
ATOM      6  O   UNL     1      -0.564  -5.653  -5.524  1.00  0.00    -0.269 OA
ATOM      7  H   UNL     1      -1.954  -4.874  -3.845  1.00  0.00     0.163 HD
BRANCH   5   8
ATOM      8  C   UNL     1       1.000  -3.921  -5.260  1.00  0.00     0.063 A 
ATOM      9  C   UNL     1       1.861  -3.123  -4.477  1.00  0.00     0.055 A 
ATOM     10  C   UNL     1       3.072  -2.636  -5.008  1.00  0.00     0.047 A 
ATOM     11  C   UNL     1       3.402  -2.863  -6.341  1.00  0.00     0.043 A 
ATOM     12  C   UNL     1       1.356  -4.100  -6.619  1.00  0.00     0.017 A 
ATOM     13  Cl  UNL     1       4.872  -2.244  -6.980  1.00  0.00    -0.084 Cl
ATOM     14  C   UNL     1       2.534  -3.571  -7.158  1.00  0.00     0.021 A 
BRANCH   9  15
ATOM     15  N   UNL     1       1.660  -2.907  -3.122  1.00  0.00    -0.321 N 
ATOM     16  C   UNL     1       1.564  -1.762  -2.356  1.00  0.00     0.261 C 
ATOM     17  O   UNL     1       1.526  -2.005  -1.147  1.00  0.00    -0.269 OA
ATOM     18  H   UNL     1       1.567  -3.737  -2.601  1.00  0.00     0.170 HD
BRANCH  16  19
ATOM     19  C   UNL     1       1.368  -0.393  -2.849  1.00  0.00     0.105 A 
ATOM     20  C   UNL     1       1.060   0.767  -2.019  1.00  0.00     0.096 A 
ATOM     21  N   UNL     1       1.050   1.889  -2.750  1.00  0.00    -0.084 NA
ATOM     22  O   UNL     1       1.183   1.506  -4.042  1.00  0.00    -0.361 OA
ATOM     23  C   UNL     1       1.260   0.154  -4.128  1.00  0.00     0.146 A 
ATOM     24  C   UNL     1       1.148  -0.274  -5.535  1.00  0.00     0.092 C 
BRANCH  20  25
ATOM     25  C   UNL     1       0.596   0.952  -0.601  1.00  0.00     0.057 C 
ATOM     26  C   UNL     1       1.262   0.188   0.519  1.00  0.00     0.011 C 
ENDBRANCH  20  25
ENDBRANCH  16  19
ENDBRANCH   9  15
ENDBRANCH   5   8
ENDBRANCH   3   4
ENDBRANCH   2   3
ENDBRANCH   1   2
BRANCH   1  27
ATOM     27  C   UNL     1      -2.434  -4.721  -0.453  1.00  0.00     0.002 C 
BRANCH  27  28
ATOM     28  C   UNL     1      -1.629  -3.929   0.580  1.00  0.00     0.021 C 
BRANCH  28  29
ATOM     29  C   UNL     1      -2.363  -2.825   1.333  1.00  0.00     0.116 C 
BRANCH  29  30
ATOM     30  N   UNL     1      -3.526  -3.301   2.057  1.00  0.00    -0.352 N 
ATOM     31  C   UNL     1      -3.917  -3.074   3.354  1.00  0.00     0.251 C 
ATOM     32  H   UNL     1      -4.131  -3.877   1.536  1.00  0.00     0.163 HD
ATOM     33  O   UNL     1      -4.886  -3.687   3.796  1.00  0.00    -0.269 OA
BRANCH  31  34
ATOM     34  C   UNL     1      -3.176  -2.132   4.231  1.00  0.00     0.039 A 
ATOM     35  C   UNL     1      -3.012  -2.466   5.579  1.00  0.00     0.014 A 
ATOM     36  C   UNL     1      -2.688  -0.908   3.762  1.00  0.00     0.014 A 
ATOM     37  C   UNL     1      -2.331  -1.601   6.441  1.00  0.00     0.010 A 
ATOM     38  C   UNL     1      -1.944  -0.080   4.604  1.00  0.00     0.010 A 
ATOM     39  C   UNL     1      -1.772  -0.407   5.958  1.00  0.00    -0.014 A 
BRANCH  39  40
ATOM     40  C   UNL     1      -1.055   0.528   6.868  1.00  0.00     0.031 A 
ATOM     41  C   UNL     1      -1.613   1.905   7.125  1.00  0.00     0.074 A 
ATOM     42  C   UNL     1       0.109   0.158   7.438  1.00  0.00     0.049 A 
ATOM     43  N   UNL     1      -1.119   2.882   7.842  1.00  0.00    -0.248 NA
ATOM     44  C   UNL     1      -2.883   2.233   6.460  1.00  0.00     0.031 C 
ATOM     45  C   UNL     1       0.770  -1.134   7.244  1.00  0.00     0.029 A 
ATOM     46  N   UNL     1       0.944   0.831   8.295  1.00  0.00    -0.354 N 
ATOM     47  C   UNL     1      -2.009   3.944   7.705  1.00  0.00     0.074 A 
ATOM     48  C   UNL     1      -3.035   3.509   6.780  1.00  0.00     0.031 C 
ATOM     49  C   UNL     1       1.892  -1.169   7.982  1.00  0.00     0.029 A 
ATOM     50  C   UNL     1       2.054   0.109   8.669  1.00  0.00     0.049 A 
ATOM     51  H   UNL     1       0.765   1.745   8.613  1.00  0.00     0.167 HD
ATOM     52  C   UNL     1      -1.990   5.158   8.311  1.00  0.00     0.034 A 
ATOM     53  C   UNL     1       3.087   0.439   9.471  1.00  0.00     0.034 A 
ATOM     54  C   UNL     1      -0.966   5.573   9.240  1.00  0.00     0.049 A 
ATOM     55  C   UNL     1       3.092   1.797  10.129  1.00  0.00     0.074 A 
ATOM     56  C   UNL     1      -0.861   6.766   9.935  1.00  0.00     0.029 A 
ATOM     57  N   UNL     1       0.135   4.807   9.607  1.00  0.00    -0.354 N 
ATOM     58  N   UNL     1       2.224   2.777  10.015  1.00  0.00    -0.248 NA
ATOM     59  C   UNL     1       4.207   2.084  11.040  1.00  0.00     0.031 C 
ATOM     60  C   UNL     1       0.330   6.746  10.670  1.00  0.00     0.029 A 
ATOM     61  C   UNL     1       0.929   5.509  10.502  1.00  0.00     0.049 A 
ATOM     62  H   UNL     1       0.323   3.898   9.278  1.00  0.00     0.167 HD
ATOM     63  C   UNL     1       2.668   3.777  10.877  1.00  0.00     0.074 A 
ATOM     64  C   UNL     1       3.870   3.275  11.510  1.00  0.00     0.031 C 
ATOM     65  C   UNL     1       2.127   4.998  11.127  1.00  0.00     0.034 A 
BRANCH  52  66
ATOM     66  C   UNL     1      -3.098   6.125   7.961  1.00  0.00     0.023 A 
ATOM     67  C   UNL     1      -4.448   5.832   8.228  1.00  0.00     0.031 A 
ATOM     68  C   UNL     1      -2.809   7.342   7.317  1.00  0.00     0.131 A 
ATOM     69  C   UNL     1      -5.458   6.695   7.777  1.00  0.00     0.055 A 
ATOM     70  C   UNL     1      -3.814   8.240   6.951  1.00  0.00     0.041 A 
ATOM     71  F   UNL     1      -1.543   7.672   7.016  1.00  0.00    -0.206 F 
ATOM     72  C   UNL     1      -5.149   7.911   7.164  1.00  0.00     0.022 A 
BRANCH  69  73
ATOM     73  S   UNL     1      -7.180   6.130   7.859  1.00  0.00     0.124 S 
ATOM     74  O   UNL     1      -7.130   4.915   7.050  1.00  0.00    -0.237 OA
ATOM     75  O   UNL     1      -7.382   5.938   9.290  1.00  0.00    -0.237 OA
ATOM     76  O   UNL     1      -7.931   7.234   7.264  1.00  0.00    -0.744 OA
ENDBRANCH  69  73
ENDBRANCH  52  66
BRANCH  53  77
ATOM     77  C   UNL     1       4.201  -0.524   9.709  1.00  0.00     0.023 A 
ATOM     78  C   UNL     1       4.446  -1.045  10.990  1.00  0.00     0.031 A 
ATOM     79  C   UNL     1       5.070  -0.898   8.669  1.00  0.00     0.131 A 
ATOM     80  C   UNL     1       5.564  -1.865  11.211  1.00  0.00     0.055 A 
ATOM     81  C   UNL     1       6.148  -1.759   8.883  1.00  0.00     0.041 A 
ATOM     82  F   UNL     1       4.879  -0.434   7.424  1.00  0.00    -0.206 F 
ATOM     83  C   UNL     1       6.409  -2.236  10.164  1.00  0.00     0.022 A 
BRANCH  80  84
ATOM     84  S   UNL     1       5.952  -2.365  12.912  1.00  0.00     0.124 S 
ATOM     85  O   UNL     1       6.096  -1.075  13.575  1.00  0.00    -0.237 OA
ATOM     86  O   UNL     1       4.773  -3.146  13.273  1.00  0.00    -0.237 OA
ATOM     87  O   UNL     1       7.185  -3.135  12.766  1.00  0.00    -0.744 OA
ENDBRANCH  80  84
ENDBRANCH  53  77
BRANCH  65  88
ATOM     88  C   UNL     1       2.801   5.842  12.185  1.00  0.00     0.023 A 
ATOM     89  C   UNL     1       4.111   6.329  12.030  1.00  0.00     0.031 A 
ATOM     90  C   UNL     1       2.128   6.132  13.386  1.00  0.00     0.131 A 
ATOM     91  C   UNL     1       4.733   7.013  13.086  1.00  0.00     0.055 A 
ATOM     92  C   UNL     1       2.727   6.873  14.405  1.00  0.00     0.041 A 
ATOM     93  F   UNL     1       0.876   5.693  13.592  1.00  0.00    -0.206 F 
ATOM     94  C   UNL     1       4.043   7.302  14.266  1.00  0.00     0.022 A 
BRANCH  91  95
ATOM     95  S   UNL     1       6.498   7.409  12.947  1.00  0.00     0.124 S 
ATOM     96  O   UNL     1       7.082   6.101  12.670  1.00  0.00    -0.237 OA
ATOM     97  O   UNL     1       6.517   8.362  11.842  1.00  0.00    -0.237 OA
ATOM     98  O   UNL     1       6.827   7.971  14.256  1.00  0.00    -0.744 OA
ENDBRANCH  91  95
ENDBRANCH  65  88
ENDBRANCH  39  40
ENDBRANCH  31  34
ENDBRANCH  29  30
ENDBRANCH  28  29
ENDBRANCH  27  28
ENDBRANCH   1  27
TORSDOF 19
