REMARK SMILES O=C(NCCCCCCNC(=O)c1cc(/C=C/c2cc(O)cc(O)c2)ccc1O)c1ccc(-c2c3nc(c(-c4cc(S(=O)(=O)[O-])ccc4F)c4ccc([nH]4)c(-c4cc(S(=O)(=O)[O-])ccc4F)c4nc(c(-c5cc(S(=O)(=O)[O-])ccc5F)c5ccc2[nH]5)C=C4)C=C3)cc1
REMARK SMILES IDX 6 1 5 2 4 3 3 4 1 5 2 6 30 8 31 9 92 10 32 11 91 12 33 13
REMARK SMILES IDX 34 14 35 15 85 16 36 17 90 18 84 19 86 20 37 21 89 22 83 23
REMARK SMILES IDX 82 24 38 26 70 27 50 28 69 29 51 30 54 31 68 32 87 33 52 34
REMARK SMILES IDX 53 35 67 37 88 38 55 39 39 40 40 41 48 42 41 43 47 44 49 45
REMARK SMILES IDX 46 46 42 47 43 48 44 49 45 50 71 51 72 52 80 53 73 54 79 55
REMARK SMILES IDX 81 56 78 57 74 58 75 59 76 60 77 61 56 62 57 63 65 64 58 65
REMARK SMILES IDX 64 66 66 67 63 68 59 69 60 70 61 71 62 72 7 73 8 74 9 75
REMARK SMILES IDX 10 76 11 77 12 79 13 80 14 81 28 82 15 83 27 84 26 85 29 86
REMARK SMILES IDX 16 88 17 89 18 90 19 91 25 92 20 93 23 94 22 95 21 96 24 98
REMARK H PARENT 3 7 86 25 54 36 10 78 29 87 21 97 24 99
REMARK Flexibility Score: inf
ROOT
ATOM      1  C   UNL     1       4.188   1.013  -3.831  1.00  0.00     0.002 C 
ENDROOT
BRANCH   1   2
ATOM      2  C   UNL     1       4.641  -0.013  -2.793  1.00  0.00     0.021 C 
BRANCH   2   3
ATOM      3  C   UNL     1       4.424   0.384  -1.339  1.00  0.00     0.116 C 
BRANCH   3   4
ATOM      4  N   UNL     1       3.021   0.507  -0.979  1.00  0.00    -0.352 N 
ATOM      5  O   UNL     1       1.152   0.112   0.225  1.00  0.00    -0.269 OA
ATOM      6  C   UNL     1       2.373   0.015   0.130  1.00  0.00     0.251 C 
ATOM      7  H   UNL     1       2.460   1.010  -1.614  1.00  0.00     0.163 HD
BRANCH   6   8
ATOM      8  C   UNL     1       3.151  -0.658   1.196  1.00  0.00     0.039 A 
ATOM      9  C   UNL     1       4.345  -0.103   1.662  1.00  0.00     0.014 A 
ATOM     10  C   UNL     1       2.688  -1.866   1.727  1.00  0.00     0.014 A 
ATOM     11  C   UNL     1       5.144  -0.823   2.542  1.00  0.00     0.010 A 
ATOM     12  C   UNL     1       3.452  -2.547   2.682  1.00  0.00     0.010 A 
ATOM     13  C   UNL     1       4.702  -2.046   3.075  1.00  0.00    -0.014 A 
BRANCH  13  14
ATOM     14  C   UNL     1       5.552  -2.734   4.084  1.00  0.00     0.031 A 
ATOM     15  C   UNL     1       6.183  -4.070   3.800  1.00  0.00     0.074 A 
ATOM     16  C   UNL     1       5.803  -2.099   5.246  1.00  0.00     0.049 A 
ATOM     17  N   UNL     1       7.005  -4.766   4.544  1.00  0.00    -0.248 NA
ATOM     18  C   UNL     1       5.843  -4.712   2.522  1.00  0.00     0.031 C 
ATOM     19  C   UNL     1       5.226  -0.808   5.636  1.00  0.00     0.029 A 
ATOM     20  N   UNL     1       6.622  -2.425   6.296  1.00  0.00    -0.354 N 
ATOM     21  C   UNL     1       7.279  -5.929   3.832  1.00  0.00     0.074 A 
ATOM     22  C   UNL     1       6.501  -5.860   2.611  1.00  0.00     0.031 C 
ATOM     23  C   UNL     1       5.753  -0.427   6.808  1.00  0.00     0.029 A 
ATOM     24  C   UNL     1       6.653  -1.470   7.285  1.00  0.00     0.049 A 
ATOM     25  H   UNL     1       7.138  -3.262   6.338  1.00  0.00     0.167 HD
ATOM     26  C   UNL     1       8.109  -6.951   4.161  1.00  0.00     0.034 A 
ATOM     27  C   UNL     1       7.322  -1.437   8.454  1.00  0.00     0.034 A 
ATOM     28  C   UNL     1       8.871  -7.009   5.388  1.00  0.00     0.049 A 
ATOM     29  C   UNL     1       8.230  -2.586   8.795  1.00  0.00     0.074 A 
ATOM     30  C   UNL     1       9.736  -7.999   5.824  1.00  0.00     0.029 A 
ATOM     31  N   UNL     1       8.859  -6.035   6.380  1.00  0.00    -0.354 N 
ATOM     32  N   UNL     1       8.479  -3.674   8.103  1.00  0.00    -0.248 NA
ATOM     33  C   UNL     1       8.953  -2.498  10.068  1.00  0.00     0.031 C 
ATOM     34  C   UNL     1      10.204  -7.649   7.097  1.00  0.00     0.029 A 
ATOM     35  C   UNL     1       9.685  -6.409   7.430  1.00  0.00     0.049 A 
ATOM     36  H   UNL     1       8.338  -5.200   6.343  1.00  0.00     0.167 HD
ATOM     37  C   UNL     1       9.392  -4.400   8.860  1.00  0.00     0.074 A 
ATOM     38  C   UNL     1       9.680  -3.605  10.037  1.00  0.00     0.031 C 
ATOM     39  C   UNL     1       9.938  -5.618   8.611  1.00  0.00     0.034 A 
BRANCH  26  40
ATOM     40  C   UNL     1       8.208  -8.106   3.192  1.00  0.00     0.023 A 
ATOM     41  C   UNL     1       8.760  -7.947   1.909  1.00  0.00     0.031 A 
ATOM     42  C   UNL     1       7.737  -9.382   3.551  1.00  0.00     0.131 A 
ATOM     43  C   UNL     1       8.775  -9.027   1.012  1.00  0.00     0.055 A 
ATOM     44  C   UNL     1       7.818 -10.470   2.679  1.00  0.00     0.041 A 
ATOM     45  F   UNL     1       7.183  -9.591   4.756  1.00  0.00    -0.206 F 
ATOM     46  C   UNL     1       8.329 -10.293   1.396  1.00  0.00     0.022 A 
BRANCH  43  47
ATOM     47  S   UNL     1       9.279  -8.723  -0.705  1.00  0.00     0.124 S 
ATOM     48  O   UNL     1       8.296  -7.731  -1.132  1.00  0.00    -0.237 OA
ATOM     49  O   UNL     1      10.647  -8.240  -0.553  1.00  0.00    -0.237 OA
ATOM     50  O   UNL     1       9.148 -10.034  -1.338  1.00  0.00    -0.744 OA
ENDBRANCH  43  47
ENDBRANCH  26  40
BRANCH  27  51
ATOM     51  C   UNL     1       7.131  -0.297   9.394  1.00  0.00     0.023 A 
ATOM     52  C   UNL     1       8.189   0.562   9.724  1.00  0.00     0.031 A 
ATOM     53  C   UNL     1       5.880  -0.069   9.998  1.00  0.00     0.131 A 
ATOM     54  C   UNL     1       7.989   1.586  10.663  1.00  0.00     0.055 A 
ATOM     55  C   UNL     1       5.672   0.983  10.889  1.00  0.00     0.041 A 
ATOM     56  F   UNL     1       4.833  -0.860   9.711  1.00  0.00    -0.206 F 
ATOM     57  C   UNL     1       6.735   1.811  11.237  1.00  0.00     0.022 A 
BRANCH  54  58
ATOM     58  S   UNL     1       9.417   2.571  11.192  1.00  0.00     0.124 S 
ATOM     59  O   UNL     1      10.341   1.538  11.645  1.00  0.00    -0.237 OA
ATOM     60  O   UNL     1       9.780   3.260   9.958  1.00  0.00    -0.237 OA
ATOM     61  O   UNL     1       8.870   3.425  12.244  1.00  0.00    -0.744 OA
ENDBRANCH  54  58
ENDBRANCH  27  51
BRANCH  39  62
ATOM     62  C   UNL     1      10.909  -6.139   9.639  1.00  0.00     0.023 A 
ATOM     63  C   UNL     1      10.488  -6.479  10.938  1.00  0.00     0.031 A 
ATOM     64  C   UNL     1      12.277  -6.246   9.337  1.00  0.00     0.131 A 
ATOM     65  C   UNL     1      11.435  -6.841  11.907  1.00  0.00     0.055 A 
ATOM     66  C   UNL     1      13.208  -6.665  10.289  1.00  0.00     0.041 A 
ATOM     67  F   UNL     1      12.733  -5.932   8.114  1.00  0.00    -0.206 F 
ATOM     68  C   UNL     1      12.791  -6.949  11.587  1.00  0.00     0.022 A 
BRANCH  65  69
ATOM     69  S   UNL     1      10.884  -7.059  13.621  1.00  0.00     0.124 S 
ATOM     70  O   UNL     1      10.271  -5.766  13.909  1.00  0.00    -0.237 OA
ATOM     71  O   UNL     1       9.967  -8.189  13.512  1.00  0.00    -0.237 OA
ATOM     72  O   UNL     1      12.122  -7.333  14.347  1.00  0.00    -0.744 OA
ENDBRANCH  65  69
ENDBRANCH  39  62
ENDBRANCH  13  14
ENDBRANCH   6   8
ENDBRANCH   3   4
ENDBRANCH   2   3
ENDBRANCH   1   2
BRANCH   1  73
ATOM     73  C   UNL     1       4.757   2.426  -3.672  1.00  0.00     0.002 C 
BRANCH  73  74
ATOM     74  C   UNL     1       6.281   2.534  -3.550  1.00  0.00     0.021 C 
BRANCH  74  75
ATOM     75  C   UNL     1       7.087   1.843  -4.648  1.00  0.00     0.116 C 
BRANCH  75  76
ATOM     76  N   UNL     1       6.789   2.369  -5.967  1.00  0.00    -0.352 N 
ATOM     77  C   UNL     1       7.663   2.715  -6.965  1.00  0.00     0.255 C 
ATOM     78  H   UNL     1       5.834   2.493  -6.172  1.00  0.00     0.163 HD
ATOM     79  O   UNL     1       7.245   3.203  -8.013  1.00  0.00    -0.269 OA
BRANCH  77  80
ATOM     80  C   UNL     1       9.120   2.599  -6.751  1.00  0.00     0.082 A 
ATOM     81  C   UNL     1       9.866   3.783  -6.845  1.00  0.00     0.025 A 
ATOM     82  C   UNL     1       9.758   1.383  -6.497  1.00  0.00     0.128 A 
ATOM     83  C   UNL     1      11.252   3.775  -6.649  1.00  0.00    -0.025 A 
ATOM     84  C   UNL     1      11.134   1.359  -6.289  1.00  0.00     0.047 A 
ATOM     85  C   UNL     1      11.871   2.548  -6.359  1.00  0.00     0.012 A 
BRANCH  82  86
ATOM     86  O   UNL     1       9.044   0.221  -6.452  1.00  0.00    -0.507 OA
ATOM     87  H   UNL     1       8.117   0.234  -6.592  1.00  0.00     0.293 HD
ENDBRANCH  82  86
BRANCH  83  88
ATOM     88  C   UNL     1      12.093   4.984  -6.740  1.00  0.00     0.009 C 
ATOM     89  C   UNL     1      11.663   6.220  -7.046  1.00  0.00     0.009 C 
BRANCH  89  90
ATOM     90  C   UNL     1      12.556   7.383  -7.150  1.00  0.00    -0.018 A 
ATOM     91  C   UNL     1      13.755   7.324  -7.874  1.00  0.00     0.054 A 
ATOM     92  C   UNL     1      12.160   8.598  -6.574  1.00  0.00     0.054 A 
ATOM     93  C   UNL     1      14.547   8.465  -7.998  1.00  0.00     0.119 A 
ATOM     94  C   UNL     1      12.969   9.726  -6.709  1.00  0.00     0.119 A 
ATOM     95  C   UNL     1      14.161   9.668  -7.419  1.00  0.00     0.092 A 
BRANCH  93  96
ATOM     96  O   UNL     1      15.717   8.441  -8.700  1.00  0.00    -0.508 OA
ATOM     97  H   UNL     1      16.005   7.646  -9.103  1.00  0.00     0.293 HD
ENDBRANCH  93  96
BRANCH  94  98
ATOM     98  O   UNL     1      12.614  10.921  -6.155  1.00  0.00    -0.508 OA
ATOM     99  H   UNL     1      13.171  11.668  -6.257  1.00  0.00     0.293 HD
ENDBRANCH  94  98
ENDBRANCH  89  90
ENDBRANCH  83  88
ENDBRANCH  77  80
ENDBRANCH  75  76
ENDBRANCH  74  75
ENDBRANCH  73  74
ENDBRANCH   1  73
TORSDOF 21
