REMARK SMILES Cc1ccccc1CN1C(=O)[C@H](CC(=O)NCCCCCCNC(=O)c2ccc(-c3c4nc(c(-c5cc(S(=O)(=O)[O-])ccc5F)c5ccc([nH]5)c(-c5cc(S(=O)(=O)[O-])ccc5F)c5nc(c(-c6cc(S(=O)(=O)[O-])ccc6F)c6ccc3[nH]6)C=C5)C=C4)cc2)n2c(nc3ccccc32)[C@H]1C
REMARK SMILES IDX 19 1 18 2 17 3 16 4 14 5 15 6 13 8 12 9 9 10 10 11 98 12
REMARK SMILES IDX 11 13 90 14 99 15 89 16 91 17 97 18 92 19 96 20 93 21 95 22
REMARK SMILES IDX 94 23 8 24 7 25 1 26 2 27 3 28 4 29 6 30 5 31 20 32 21 33
REMARK SMILES IDX 22 34 23 35 24 36 25 38 26 39 27 40 88 41 28 42 87 43 29 44
REMARK SMILES IDX 30 45 31 46 81 47 32 48 86 49 80 50 82 51 33 52 85 53 79 54
REMARK SMILES IDX 78 55 34 57 66 58 46 59 65 60 47 61 50 62 64 63 83 64 48 65
REMARK SMILES IDX 49 66 63 68 84 69 51 70 35 71 36 72 44 73 37 74 43 75 45 76
REMARK SMILES IDX 42 77 38 78 39 79 40 80 41 81 67 82 68 83 76 84 69 85 75 86
REMARK SMILES IDX 77 87 74 88 70 89 71 90 72 91 73 92 52 93 53 94 61 95 54 96
REMARK SMILES IDX 60 97 62 98 59 99 55 100 56 101 57 102 58 103
REMARK H PARENT 16 7 23 37 82 56 50 67
REMARK Flexibility Score: inf
ROOT
ATOM      1  C   UNL     1       5.329   4.628  -0.280  1.00  0.00     0.002 C 
ENDROOT
BRANCH   1   2
ATOM      2  C   UNL     1       4.064   4.521  -1.123  1.00  0.00     0.021 C 
BRANCH   2   3
ATOM      3  C   UNL     1       4.177   5.101  -2.542  1.00  0.00     0.116 C 
BRANCH   3   4
ATOM      4  N   UNL     1       4.352   4.041  -3.527  1.00  0.00    -0.356 N 
ATOM      5  C   UNL     1       3.453   3.417  -4.336  1.00  0.00     0.222 C 
ATOM      6  O   UNL     1       3.845   2.473  -5.027  1.00  0.00    -0.275 OA
ATOM      7  H   UNL     1       5.279   3.722  -3.623  1.00  0.00     0.163 HD
BRANCH   5   8
ATOM      8  C   UNL     1       2.012   3.872  -4.440  1.00  0.00     0.135 C 
BRANCH   8   9
ATOM      9  C   UNL     1       1.074   3.009  -3.583  1.00  0.00     0.187 C 
ATOM     10  N   UNL     1       0.054   2.949  -1.392  1.00  0.00    -0.327 N 
ATOM     11  C   UNL     1       1.030   3.564  -2.159  1.00  0.00     0.247 C 
ATOM     12  C   UNL     1      -1.224   3.559  -1.754  1.00  0.00     0.149 C 
ATOM     13  O   UNL     1       1.472   4.656  -1.818  1.00  0.00    -0.272 OA
ATOM     14  C   UNL     1      -1.405   3.274  -3.232  1.00  0.00     0.133 A 
ATOM     15  C   UNL     1      -2.462   3.223  -0.947  1.00  0.00     0.040 C 
ATOM     16  N   UNL     1      -0.319   2.989  -4.055  1.00  0.00    -0.313 N 
ATOM     17  N   UNL     1      -2.526   3.293  -3.920  1.00  0.00    -0.231 NA
ATOM     18  C   UNL     1      -0.815   2.627  -5.284  1.00  0.00     0.069 A 
ATOM     19  C   UNL     1      -2.184   2.869  -5.175  1.00  0.00     0.089 A 
ATOM     20  C   UNL     1      -0.237   2.129  -6.458  1.00  0.00     0.028 A 
ATOM     21  C   UNL     1      -3.021   2.658  -6.279  1.00  0.00     0.030 A 
ATOM     22  C   UNL     1      -1.090   1.924  -7.551  1.00  0.00     0.002 A 
ATOM     23  C   UNL     1      -2.458   2.190  -7.469  1.00  0.00     0.002 A 
BRANCH  10  24
ATOM     24  C   UNL     1       0.390   2.466  -0.052  1.00  0.00     0.156 C 
BRANCH  24  25
ATOM     25  C   UNL     1      -0.026   1.018   0.124  1.00  0.00    -0.026 A 
ATOM     26  C   UNL     1       2.166  -0.025  -0.774  1.00  0.00     0.044 C 
ATOM     27  C   UNL     1       0.737  -0.087  -0.309  1.00  0.00    -0.046 A 
ATOM     28  C   UNL     1       0.165  -1.376  -0.271  1.00  0.00     0.004 A 
ATOM     29  C   UNL     1      -1.130  -1.582   0.193  1.00  0.00     0.000 A 
ATOM     30  C   UNL     1      -1.289   0.763   0.690  1.00  0.00     0.006 A 
ATOM     31  C   UNL     1      -1.852  -0.512   0.694  1.00  0.00     0.000 A 
ENDBRANCH  24  25
ENDBRANCH  10  24
ENDBRANCH   8   9
ENDBRANCH   5   8
ENDBRANCH   3   4
ENDBRANCH   2   3
ENDBRANCH   1   2
BRANCH   1  32
ATOM     32  C   UNL     1       5.609   6.049   0.221  1.00  0.00     0.002 C 
BRANCH  32  33
ATOM     33  C   UNL     1       4.562   6.638   1.188  1.00  0.00     0.021 C 
BRANCH  33  34
ATOM     34  C   UNL     1       4.382   5.888   2.526  1.00  0.00     0.116 C 
BRANCH  34  35
ATOM     35  N   UNL     1       5.623   5.861   3.292  1.00  0.00    -0.352 N 
ATOM     36  C   UNL     1       5.737   5.756   4.664  1.00  0.00     0.251 C 
ATOM     37  H   UNL     1       6.462   5.924   2.781  1.00  0.00     0.163 HD
ATOM     38  O   UNL     1       6.203   6.737   5.251  1.00  0.00    -0.269 OA
BRANCH  36  39
ATOM     39  C   UNL     1       5.510   4.470   5.419  1.00  0.00     0.039 A 
ATOM     40  C   UNL     1       5.996   4.404   6.736  1.00  0.00     0.014 A 
ATOM     41  C   UNL     1       4.896   3.322   4.923  1.00  0.00     0.014 A 
ATOM     42  C   UNL     1       5.853   3.239   7.532  1.00  0.00     0.010 A 
ATOM     43  C   UNL     1       4.746   2.152   5.734  1.00  0.00     0.010 A 
ATOM     44  C   UNL     1       5.204   2.078   7.059  1.00  0.00    -0.014 A 
BRANCH  44  45
ATOM     45  C   UNL     1       4.626   1.143   8.125  1.00  0.00     0.031 A 
ATOM     46  C   UNL     1       3.219   1.753   8.417  1.00  0.00     0.074 A 
ATOM     47  C   UNL     1       4.690  -0.217   8.426  1.00  0.00     0.049 A 
ATOM     48  N   UNL     1       2.320   1.871   7.472  1.00  0.00    -0.248 NA
ATOM     49  C   UNL     1       2.785   2.475   9.625  1.00  0.00     0.031 C 
ATOM     50  C   UNL     1       4.607  -0.662   9.839  1.00  0.00     0.029 A 
ATOM     51  N   UNL     1       4.923  -1.479   7.777  1.00  0.00    -0.354 N 
ATOM     52  C   UNL     1       1.100   2.153   8.095  1.00  0.00     0.074 A 
ATOM     53  C   UNL     1       1.491   2.767   9.349  1.00  0.00     0.031 C 
ATOM     54  C   UNL     1       4.599  -2.013   9.948  1.00  0.00     0.029 A 
ATOM     55  C   UNL     1       4.591  -2.635   8.628  1.00  0.00     0.049 A 
ATOM     56  H   UNL     1       5.269  -1.562   6.860  1.00  0.00     0.167 HD
ATOM     57  C   UNL     1       0.018   1.339   7.817  1.00  0.00     0.034 A 
ATOM     58  C   UNL     1       4.052  -3.909   8.373  1.00  0.00     0.034 A 
ATOM     59  C   UNL     1       0.597   0.113   7.377  1.00  0.00     0.049 A 
ATOM     60  C   UNL     1       3.710  -4.115   6.915  1.00  0.00     0.074 A 
ATOM     61  C   UNL     1       1.152  -0.753   8.269  1.00  0.00     0.029 A 
ATOM     62  N   UNL     1       0.834  -0.292   6.083  1.00  0.00    -0.354 N 
ATOM     63  N   UNL     1       2.525  -3.837   6.447  1.00  0.00    -0.248 NA
ATOM     64  C   UNL     1       4.627  -4.489   5.838  1.00  0.00     0.031 C 
ATOM     65  C   UNL     1       1.917  -1.531   7.464  1.00  0.00     0.029 A 
ATOM     66  C   UNL     1       1.765  -1.312   6.113  1.00  0.00     0.049 A 
ATOM     67  H   UNL     1       0.412   0.081   5.276  1.00  0.00     0.167 HD
ATOM     68  C   UNL     1       2.793  -3.269   5.228  1.00  0.00     0.074 A 
ATOM     69  C   UNL     1       3.900  -4.088   4.778  1.00  0.00     0.031 C 
ATOM     70  C   UNL     1       2.459  -1.945   4.978  1.00  0.00     0.034 A 
BRANCH  57  71
ATOM     71  C   UNL     1      -1.387   1.111   8.354  1.00  0.00     0.023 A 
ATOM     72  C   UNL     1      -1.860  -0.242   8.425  1.00  0.00     0.031 A 
ATOM     73  C   UNL     1      -2.353   2.086   8.553  1.00  0.00     0.131 A 
ATOM     74  C   UNL     1      -3.194  -0.595   8.599  1.00  0.00     0.055 A 
ATOM     75  C   UNL     1      -3.708   1.736   8.759  1.00  0.00     0.041 A 
ATOM     76  F   UNL     1      -2.034   3.388   8.487  1.00  0.00    -0.206 F 
ATOM     77  C   UNL     1      -4.138   0.399   8.763  1.00  0.00     0.022 A 
BRANCH  74  78
ATOM     78  S   UNL     1      -3.629  -2.358   8.470  1.00  0.00     0.124 S 
ATOM     79  O   UNL     1      -3.169  -2.692   7.126  1.00  0.00    -0.237 OA
ATOM     80  O   UNL     1      -2.882  -2.943   9.579  1.00  0.00    -0.237 OA
ATOM     81  O   UNL     1      -5.081  -2.353   8.636  1.00  0.00    -0.744 OA
ENDBRANCH  74  78
ENDBRANCH  57  71
BRANCH  58  82
ATOM     82  C   UNL     1       3.097  -4.746   9.312  1.00  0.00     0.023 A 
ATOM     83  C   UNL     1       3.473  -5.875  10.073  1.00  0.00     0.031 A 
ATOM     84  C   UNL     1       1.680  -4.548   9.257  1.00  0.00     0.131 A 
ATOM     85  C   UNL     1       2.473  -6.714  10.682  1.00  0.00     0.055 A 
ATOM     86  C   UNL     1       0.712  -5.375   9.832  1.00  0.00     0.041 A 
ATOM     87  F   UNL     1       1.127  -3.539   8.599  1.00  0.00    -0.206 F 
ATOM     88  C   UNL     1       1.104  -6.475  10.548  1.00  0.00     0.022 A 
BRANCH  85  89
ATOM     89  S   UNL     1       2.927  -8.152  11.708  1.00  0.00     0.124 S 
ATOM     90  O   UNL     1       3.253  -9.161  10.705  1.00  0.00    -0.237 OA
ATOM     91  O   UNL     1       4.051  -7.644  12.489  1.00  0.00    -0.237 OA
ATOM     92  O   UNL     1       1.721  -8.427  12.490  1.00  0.00    -0.744 OA
ENDBRANCH  85  89
ENDBRANCH  58  82
BRANCH  70  93
ATOM     93  C   UNL     1       3.075  -1.123   3.852  1.00  0.00     0.023 A 
ATOM     94  C   UNL     1       4.111  -1.615   3.047  1.00  0.00     0.031 A 
ATOM     95  C   UNL     1       2.695   0.202   3.544  1.00  0.00     0.131 A 
ATOM     96  C   UNL     1       4.684  -0.876   2.005  1.00  0.00     0.055 A 
ATOM     97  C   UNL     1       3.335   0.984   2.570  1.00  0.00     0.041 A 
ATOM     98  F   UNL     1       1.696   0.831   4.174  1.00  0.00    -0.206 F 
ATOM     99  C   UNL     1       4.344   0.448   1.791  1.00  0.00     0.022 A 
BRANCH  96 100
ATOM    100  S   UNL     1       5.672  -1.782   0.785  1.00  0.00     0.124 S 
ATOM    101  O   UNL     1       6.918  -2.025   1.515  1.00  0.00    -0.237 OA
ATOM    102  O   UNL     1       4.843  -2.964   0.543  1.00  0.00    -0.237 OA
ATOM    103  O   UNL     1       5.759  -0.852  -0.328  1.00  0.00    -0.744 OA
ENDBRANCH  96 100
ENDBRANCH  70  93
ENDBRANCH  44  45
ENDBRANCH  36  39
ENDBRANCH  34  35
ENDBRANCH  33  34
ENDBRANCH  32  33
ENDBRANCH   1  32
TORSDOF 19
