REMARK SMILES CCOC(=O)[C@H](C)NC(=O)N1CC[C@H](C(=O)NCCCCCCNC(=O)c2ccc(-c3c4nc(c(-c5cc(S(=O)(=O)[O-])ccc5F)c5ccc([nH]5)c(-c5cc(S(=O)(=O)[O-])ccc5F)c5nc(c(-c6cc(S(=O)(=O)[O-])ccc6F)c6ccc3[nH]6)C=C5)C=C4)cc2)[C@@H]1C
REMARK SMILES IDX 19 1 18 2 17 3 15 4 16 5 14 7 11 8 12 9 90 10 13 11 91 12
REMARK SMILES IDX 9 13 8 14 10 16 6 17 7 18 4 19 5 20 3 21 2 22 1 23 20 24
REMARK SMILES IDX 21 25 22 26 23 27 24 28 25 29 26 31 27 32 28 33 89 34 29 35
REMARK SMILES IDX 88 36 30 37 31 38 32 39 82 40 33 41 87 42 81 43 83 44 34 45
REMARK SMILES IDX 86 46 80 47 79 48 35 50 67 51 47 52 66 53 48 54 51 55 65 56
REMARK SMILES IDX 84 57 49 58 50 59 64 61 85 62 52 63 36 64 37 65 45 66 38 67
REMARK SMILES IDX 44 68 46 69 43 70 39 71 40 72 41 73 42 74 68 75 69 76 77 77
REMARK SMILES IDX 70 78 76 79 78 80 75 81 71 82 72 83 73 84 74 85 53 86 54 87
REMARK SMILES IDX 62 88 55 89 61 90 63 91 60 92 56 93 57 94 58 95 59 96
REMARK H PARENT 17 6 8 15 24 30 83 49 51 60
REMARK Flexibility Score: inf
ROOT
ATOM      1  C   UNL     1       9.076   1.511   7.392  1.00  0.00     0.021 C 
ENDROOT
BRANCH   1   2
ATOM      2  C   UNL     1       8.036   2.603   7.144  1.00  0.00     0.116 C 
BRANCH   2   3
ATOM      3  N   UNL     1       8.388   3.409   5.998  1.00  0.00    -0.356 N 
ATOM      4  C   UNL     1       7.952   3.387   4.716  1.00  0.00     0.225 C 
ATOM      5  O   UNL     1       8.475   4.199   3.942  1.00  0.00    -0.275 OA
ATOM      6  H   UNL     1       9.067   4.098   6.182  1.00  0.00     0.163 HD
BRANCH   4   7
ATOM      7  C   UNL     1       6.817   2.506   4.207  1.00  0.00     0.102 C 
ATOM      8  N   UNL     1       4.585   1.973   4.858  1.00  0.00    -0.321 N 
ATOM      9  C   UNL     1       5.408   0.924   5.403  1.00  0.00     0.122 C 
ATOM     10  C   UNL     1       5.398   3.092   4.355  1.00  0.00     0.096 C 
ATOM     11  C   UNL     1       6.720   1.042   4.650  1.00  0.00     0.037 C 
ATOM     12  C   UNL     1       5.278   4.344   5.224  1.00  0.00     0.032 C 
BRANCH   8  13
ATOM     13  C   UNL     1       3.269   2.030   5.208  1.00  0.00     0.318 C 
ATOM     14  N   UNL     1       2.380   2.448   4.282  1.00  0.00    -0.325 N 
ATOM     15  H   UNL     1       1.534   2.816   4.627  1.00  0.00     0.166 HD
ATOM     16  O   UNL     1       2.856   1.655   6.303  1.00  0.00    -0.249 OA
BRANCH  14  17
ATOM     17  C   UNL     1       2.525   2.418   2.833  1.00  0.00     0.190 C 
ATOM     18  C   UNL     1       1.849   1.185   2.246  1.00  0.00     0.043 C 
BRANCH  17  19
ATOM     19  C   UNL     1       1.905   3.698   2.294  1.00  0.00     0.328 C 
ATOM     20  O   UNL     1       0.707   3.965   2.332  1.00  0.00    -0.250 OA
BRANCH  19  21
ATOM     21  O   UNL     1       2.887   4.544   1.871  1.00  0.00    -0.464 OA
BRANCH  21  22
ATOM     22  C   UNL     1       2.458   5.861   1.506  1.00  0.00     0.229 C 
ATOM     23  C   UNL     1       2.054   5.880   0.045  1.00  0.00     0.049 C 
ENDBRANCH  21  22
ENDBRANCH  19  21
ENDBRANCH  17  19
ENDBRANCH  14  17
ENDBRANCH   8  13
ENDBRANCH   4   7
ENDBRANCH   2   3
ENDBRANCH   1   2
BRANCH   1  24
ATOM     24  C   UNL     1      10.312   2.008   8.149  1.00  0.00     0.002 C 
BRANCH  24  25
ATOM     25  C   UNL     1      10.028   2.553   9.553  1.00  0.00     0.002 C 
BRANCH  25  26
ATOM     26  C   UNL     1       9.255   1.605  10.473  1.00  0.00     0.021 C 
BRANCH  26  27
ATOM     27  C   UNL     1       9.931   0.257  10.706  1.00  0.00     0.116 C 
BRANCH  27  28
ATOM     28  N   UNL     1      11.233   0.412  11.332  1.00  0.00    -0.352 N 
ATOM     29  C   UNL     1      11.704  -0.128  12.501  1.00  0.00     0.251 C 
ATOM     30  H   UNL     1      11.868   0.987  10.847  1.00  0.00     0.163 HD
ATOM     31  O   UNL     1      12.737   0.314  13.000  1.00  0.00    -0.269 OA
BRANCH  29  32
ATOM     32  C   UNL     1      10.965  -1.226  13.158  1.00  0.00     0.039 A 
ATOM     33  C   UNL     1      10.808  -1.203  14.546  1.00  0.00     0.014 A 
ATOM     34  C   UNL     1      10.453  -2.291  12.410  1.00  0.00     0.014 A 
ATOM     35  C   UNL     1      10.100  -2.227  15.179  1.00  0.00     0.010 A 
ATOM     36  C   UNL     1       9.690  -3.274  13.034  1.00  0.00     0.010 A 
ATOM     37  C   UNL     1       9.515  -3.259  14.427  1.00  0.00    -0.014 A 
BRANCH  37  38
ATOM     38  C   UNL     1       8.748  -4.349  15.083  1.00  0.00     0.031 A 
ATOM     39  C   UNL     1       9.259  -5.763  15.027  1.00  0.00     0.074 A 
ATOM     40  C   UNL     1       7.577  -4.073  15.689  1.00  0.00     0.049 A 
ATOM     41  N   UNL     1       8.707  -6.864  15.469  1.00  0.00    -0.248 NA
ATOM     42  C   UNL     1      10.554  -5.968  14.359  1.00  0.00     0.031 C 
ATOM     43  C   UNL     1       6.968  -2.744  15.787  1.00  0.00     0.029 A 
ATOM     44  N   UNL     1       6.686  -4.892  16.336  1.00  0.00    -0.354 N 
ATOM     45  C   UNL     1       9.582  -7.891  15.131  1.00  0.00     0.074 A 
ATOM     46  C   UNL     1      10.666  -7.288  14.384  1.00  0.00     0.031 C 
ATOM     47  C   UNL     1       5.821  -2.836  16.479  1.00  0.00     0.029 A 
ATOM     48  C   UNL     1       5.586  -4.232  16.833  1.00  0.00     0.049 A 
ATOM     49  H   UNL     1       6.822  -5.862  16.435  1.00  0.00     0.167 HD
ATOM     50  C   UNL     1       9.505  -9.209  15.440  1.00  0.00     0.034 A 
ATOM     51  C   UNL     1       4.508  -4.702  17.492  1.00  0.00     0.034 A 
ATOM     52  C   UNL     1       8.420  -9.794  16.190  1.00  0.00     0.049 A 
ATOM     53  C   UNL     1       4.424  -6.180  17.785  1.00  0.00     0.074 A 
ATOM     54  C   UNL     1       8.247 -11.112  16.575  1.00  0.00     0.029 A 
ATOM     55  N   UNL     1       7.321  -9.094  16.673  1.00  0.00    -0.354 N 
ATOM     56  N   UNL     1       5.274  -7.134  17.480  1.00  0.00    -0.248 NA
ATOM     57  C   UNL     1       3.241  -6.642  18.522  1.00  0.00     0.031 C 
ATOM     58  C   UNL     1       7.020 -11.220  17.237  1.00  0.00     0.029 A 
ATOM     59  C   UNL     1       6.460  -9.957  17.334  1.00  0.00     0.049 A 
ATOM     60  H   UNL     1       7.175  -8.127  16.562  1.00  0.00     0.167 HD
ATOM     61  C   UNL     1       4.746  -8.300  18.029  1.00  0.00     0.074 A 
ATOM     62  C   UNL     1       3.514  -7.927  18.691  1.00  0.00     0.031 C 
ATOM     63  C   UNL     1       5.236  -9.566  17.993  1.00  0.00     0.034 A 
BRANCH  50  64
ATOM     64  C   UNL     1      10.619 -10.102  14.947  1.00  0.00     0.023 A 
ATOM     65  C   UNL     1      11.946  -9.927  15.380  1.00  0.00     0.031 A 
ATOM     66  C   UNL     1      10.362 -11.124  14.017  1.00  0.00     0.131 A 
ATOM     67  C   UNL     1      12.973 -10.706  14.828  1.00  0.00     0.055 A 
ATOM     68  C   UNL     1      11.377 -11.953  13.534  1.00  0.00     0.041 A 
ATOM     69  F   UNL     1       9.120 -11.327  13.550  1.00  0.00    -0.206 F 
ATOM     70  C   UNL     1      12.694 -11.737  13.928  1.00  0.00     0.022 A 
BRANCH  67  71
ATOM     71  S   UNL     1      14.691 -10.260  15.196  1.00  0.00     0.124 S 
ATOM     72  O   UNL     1      14.760  -8.899  14.670  1.00  0.00    -0.237 OA
ATOM     73  O   UNL     1      14.748 -10.387  16.648  1.00  0.00    -0.237 OA
ATOM     74  O   UNL     1      15.470 -11.248  14.452  1.00  0.00    -0.744 OA
ENDBRANCH  67  71
ENDBRANCH  50  64
BRANCH  51  75
ATOM     75  C   UNL     1       3.416  -3.782  17.924  1.00  0.00     0.023 A 
ATOM     76  C   UNL     1       3.113  -3.615  19.285  1.00  0.00     0.031 A 
ATOM     77  C   UNL     1       2.614  -3.110  16.985  1.00  0.00     0.131 A 
ATOM     78  C   UNL     1       2.001  -2.850  19.667  1.00  0.00     0.055 A 
ATOM     79  C   UNL     1       1.545  -2.300  17.373  1.00  0.00     0.041 A 
ATOM     80  F   UNL     1       2.861  -3.230  15.670  1.00  0.00    -0.206 F 
ATOM     81  C   UNL     1       1.222  -2.181  18.721  1.00  0.00     0.022 A 
BRANCH  78  82
ATOM     82  S   UNL     1       1.518  -2.838  21.416  1.00  0.00     0.124 S 
ATOM     83  O   UNL     1       1.351  -4.261  21.687  1.00  0.00    -0.237 OA
ATOM     84  O   UNL     1       2.669  -2.195  22.041  1.00  0.00    -0.237 OA
ATOM     85  O   UNL     1       0.287  -2.051  21.422  1.00  0.00    -0.744 OA
ENDBRANCH  78  82
ENDBRANCH  51  75
BRANCH  63  86
ATOM     86  C   UNL     1       4.465 -10.620  18.749  1.00  0.00     0.023 A 
ATOM     87  C   UNL     1       3.176 -11.022  18.359  1.00  0.00     0.031 A 
ATOM     88  C   UNL     1       5.027 -11.218  19.892  1.00  0.00     0.131 A 
ATOM     89  C   UNL     1       2.466 -11.946  19.139  1.00  0.00     0.055 A 
ATOM     90  C   UNL     1       4.340 -12.183  20.629  1.00  0.00     0.041 A 
ATOM     91  F   UNL     1       6.254 -10.872  20.311  1.00  0.00    -0.206 F 
ATOM     92  C   UNL     1       3.046 -12.542  20.262  1.00  0.00     0.022 A 
BRANCH  89  93
ATOM     93  S   UNL     1       0.734 -12.290  18.723  1.00  0.00     0.124 S 
ATOM     94  O   UNL     1       0.134 -10.962  18.799  1.00  0.00    -0.237 OA
ATOM     95  O   UNL     1       0.843 -12.863  17.385  1.00  0.00    -0.237 OA
ATOM     96  O   UNL     1       0.309 -13.224  19.764  1.00  0.00    -0.744 OA
ENDBRANCH  89  93
ENDBRANCH  63  86
ENDBRANCH  37  38
ENDBRANCH  29  32
ENDBRANCH  27  28
ENDBRANCH  26  27
ENDBRANCH  25  26
ENDBRANCH  24  25
ENDBRANCH   1  24
TORSDOF 21
