REMARK SMILES Cc1cc(S(F)(F)(F)(F)F)cc2c1O[C@H](C(F)(F)F)C(C(=O)NCCCCCCNC(=O)c1ccc(-c3c4nc(c(-c5cc(S(=O)(=O)[O-])ccc5F)c5ccc([nH]5)c(-c5cc(S(=O)(=O)[O-])ccc5F)c5nc(c(-c6cc(S(=O)(=O)[O-])ccc6F)c6ccc3[nH]6)C=C5)C=C4)cc1)=C2
REMARK SMILES IDX 27 1 26 2 25 3 24 4 23 5 21 6 22 7 20 9 1 10 2 11 3 12 13 13
REMARK SMILES IDX 4 14 12 15 14 16 11 17 96 18 15 19 5 20 6 21 7 22 8 23 9 24
REMARK SMILES IDX 10 25 16 26 17 27 18 28 19 29 28 30 29 31 30 32 31 33 32 35
REMARK SMILES IDX 33 36 34 37 95 38 35 39 94 40 36 41 37 42 38 43 88 44 39 45
REMARK SMILES IDX 93 46 87 47 89 48 40 49 92 50 86 51 85 52 41 54 73 55 53 56
REMARK SMILES IDX 72 57 54 58 57 59 71 60 90 61 55 62 56 63 70 65 91 66 58 67
REMARK SMILES IDX 42 68 43 69 51 70 44 71 50 72 52 73 49 74 45 75 46 76 47 77
REMARK SMILES IDX 48 78 74 79 75 80 83 81 76 82 82 83 84 84 81 85 77 86 78 87
REMARK SMILES IDX 79 88 80 89 59 90 60 91 68 92 61 93 67 94 69 95 66 96 62 97
REMARK SMILES IDX 63 98 64 99 65 100
REMARK H PARENT 23 8 30 34 89 53 57 64
REMARK Flexibility Score: inf
ROOT
ATOM      1  C   UNL     1       2.890  -8.818   1.346  1.00  0.00     0.002 C 
ENDROOT
BRANCH   1   2
ATOM      2  C   UNL     1       1.420  -8.553   1.067  1.00  0.00     0.002 C 
BRANCH   2   3
ATOM      3  C   UNL     1       1.164  -7.054   1.077  1.00  0.00     0.021 C 
BRANCH   3   4
ATOM      4  C   UNL     1       2.011  -6.389   0.004  1.00  0.00     0.116 C 
BRANCH   4   5
ATOM      5  N   UNL     1       1.655  -6.939  -1.312  1.00  0.00    -0.352 N 
ATOM      6  C   UNL     1       1.141  -6.051  -2.365  1.00  0.00     0.251 C 
ATOM      7  O   UNL     1       0.833  -6.526  -3.503  1.00  0.00    -0.270 OA
ATOM      8  H   UNL     1       1.761  -7.901  -1.489  1.00  0.00     0.163 HD
BRANCH   6   9
ATOM      9  C   UNL     1       0.977  -4.564  -2.092  1.00  0.00     0.067 C 
ATOM     10  C   UNL     1       1.048   0.086   0.017  1.00  0.00     0.048 C 
ATOM     11  C   UNL     1       0.542  -0.478  -1.300  1.00  0.00    -0.007 A 
ATOM     12  C   UNL     1       0.057   0.339  -2.298  1.00  0.00     0.031 A 
ATOM     13  C   UNL     1       0.694  -1.842  -1.546  1.00  0.00     0.130 A 
ATOM     14  C   UNL     1      -0.283  -0.183  -3.540  1.00  0.00     0.108 A 
ATOM     15  C   UNL     1       0.351  -2.368  -2.812  1.00  0.00     0.019 A 
ATOM     16  O   UNL     1       1.204  -2.764  -0.524  1.00  0.00    -0.475 OA
ATOM     17  C   UNL     1      -0.136  -1.516  -3.804  1.00  0.00     0.036 A 
ATOM     18  C   UNL     1       0.520  -3.803  -3.042  1.00  0.00     0.025 C 
ATOM     19  C   UNL     1       1.324  -4.073  -0.833  1.00  0.00     0.314 C 
BRANCH  14  20
ATOM     20  S   UNL     1      -0.930   0.916  -4.824  1.00  0.00     0.310 S 
ATOM     21  F   UNL     1      -2.389   1.157  -4.250  1.00  0.00    -0.094 F 
ATOM     22  F   UNL     1      -1.525  -0.294  -5.638  1.00  0.00    -0.094 F 
ATOM     23  F   UNL     1      -1.286   1.901  -5.973  1.00  0.00    -0.094 F 
ATOM     24  F   UNL     1      -0.459   2.135  -3.937  1.00  0.00    -0.094 F 
ATOM     25  F   UNL     1      -0.668  -0.054  -3.604  1.00  0.00    -0.094 F 
ENDBRANCH  14  20
BRANCH  19  26
ATOM     26  C   UNL     1       2.831  -4.273  -0.812  1.00  0.00     0.429 C 
ATOM     27  F   UNL     1       3.309  -3.912   0.375  1.00  0.00    -0.167 F 
ATOM     28  F   UNL     1       3.111  -5.554  -1.032  1.00  0.00    -0.167 F 
ATOM     29  F   UNL     1       3.390  -3.528  -1.761  1.00  0.00    -0.167 F 
ENDBRANCH  19  26
ENDBRANCH   6   9
ENDBRANCH   4   5
ENDBRANCH   3   4
ENDBRANCH   2   3
ENDBRANCH   1   2
BRANCH   1  30
ATOM     30  C   UNL     1       3.259  -8.250   2.707  1.00  0.00     0.021 C 
BRANCH  30  31
ATOM     31  C   UNL     1       2.412  -8.915   3.779  1.00  0.00     0.116 C 
BRANCH  31  32
ATOM     32  N   UNL     1       2.659 -10.364   3.770  1.00  0.00    -0.352 N 
ATOM     33  C   UNL     1       3.185 -11.027   4.971  1.00  0.00     0.251 C 
ATOM     34  H   UNL     1       2.472 -10.890   2.959  1.00  0.00     0.163 HD
ATOM     35  O   UNL     1       3.399 -12.280   4.963  1.00  0.00    -0.269 OA
BRANCH  33  36
ATOM     36  C   UNL     1       3.474 -10.215   6.223  1.00  0.00     0.039 A 
ATOM     37  C   UNL     1       4.705 -10.267   6.868  1.00  0.00     0.014 A 
ATOM     38  C   UNL     1       2.591  -9.329   6.632  1.00  0.00     0.014 A 
ATOM     39  C   UNL     1       5.118  -9.093   7.537  1.00  0.00     0.010 A 
ATOM     40  C   UNL     1       2.881  -8.467   7.695  1.00  0.00     0.010 A 
ATOM     41  C   UNL     1       4.112  -8.343   8.145  1.00  0.00    -0.014 A 
BRANCH  41  42
ATOM     42  C   UNL     1       4.429  -7.404   9.297  1.00  0.00     0.031 A 
ATOM     43  C   UNL     1       3.779  -7.667  10.504  1.00  0.00     0.074 A 
ATOM     44  C   UNL     1       5.433  -6.462   9.148  1.00  0.00     0.049 A 
ATOM     45  N   UNL     1       4.015  -7.111  11.693  1.00  0.00    -0.248 NA
ATOM     46  C   UNL     1       2.689  -8.642  10.657  1.00  0.00     0.031 C 
ATOM     47  C   UNL     1       6.101  -6.197   7.936  1.00  0.00     0.029 A 
ATOM     48  N   UNL     1       5.961  -5.630  10.110  1.00  0.00    -0.354 N 
ATOM     49  C   UNL     1       3.203  -7.633  12.615  1.00  0.00     0.074 A 
ATOM     50  C   UNL     1       2.334  -8.620  11.961  1.00  0.00     0.031 C 
ATOM     51  C   UNL     1       7.008  -5.212   8.161  1.00  0.00     0.029 A 
ATOM     52  C   UNL     1       6.925  -4.844   9.518  1.00  0.00     0.049 A 
ATOM     53  H   UNL     1       5.695  -5.601  11.057  1.00  0.00     0.167 HD
ATOM     54  C   UNL     1       3.154  -7.325  13.976  1.00  0.00     0.034 A 
ATOM     55  C   UNL     1       7.697  -3.857  10.109  1.00  0.00     0.034 A 
ATOM     56  C   UNL     1       3.957  -6.368  14.576  1.00  0.00     0.049 A 
ATOM     57  C   UNL     1       7.607  -3.508  11.459  1.00  0.00     0.074 A 
ATOM     58  C   UNL     1       3.925  -6.051  15.948  1.00  0.00     0.029 A 
ATOM     59  N   UNL     1       4.903  -5.565  13.979  1.00  0.00    -0.354 N 
ATOM     60  N   UNL     1       6.823  -4.057  12.388  1.00  0.00    -0.248 NA
ATOM     61  C   UNL     1       8.397  -2.442  12.090  1.00  0.00     0.031 C 
ATOM     62  C   UNL     1       4.834  -5.064  16.173  1.00  0.00     0.029 A 
ATOM     63  C   UNL     1       5.447  -4.748  14.945  1.00  0.00     0.049 A 
ATOM     64  H   UNL     1       5.149  -5.574  13.026  1.00  0.00     0.167 HD
ATOM     65  C   UNL     1       7.031  -3.472  13.569  1.00  0.00     0.074 A 
ATOM     66  C   UNL     1       8.041  -2.419  13.393  1.00  0.00     0.031 C 
ATOM     67  C   UNL     1       6.421  -3.775  14.788  1.00  0.00     0.034 A 
BRANCH  54  68
ATOM     68  C   UNL     1       2.166  -8.082  14.848  1.00  0.00     0.023 A 
ATOM     69  C   UNL     1       1.196  -7.324  15.513  1.00  0.00     0.031 A 
ATOM     70  C   UNL     1       2.171  -9.395  14.935  1.00  0.00     0.131 A 
ATOM     71  C   UNL     1       0.430  -7.870  16.433  1.00  0.00     0.055 A 
ATOM     72  C   UNL     1       1.189 -10.011  15.709  1.00  0.00     0.041 A 
ATOM     73  F   UNL     1       3.090 -10.117  14.300  1.00  0.00    -0.206 F 
ATOM     74  C   UNL     1       0.603  -9.219  16.722  1.00  0.00     0.022 A 
BRANCH  71  75
ATOM     75  S   UNL     1      -0.817  -6.888  17.303  1.00  0.00     0.124 S 
ATOM     76  O   UNL     1      -2.203  -7.487  17.055  1.00  0.00    -0.237 OA
ATOM     77  O   UNL     1      -0.518  -6.898  18.804  1.00  0.00    -0.237 OA
ATOM     78  O   UNL     1      -0.780  -5.278  16.726  1.00  0.00    -0.744 OA
ENDBRANCH  71  75
ENDBRANCH  54  68
BRANCH  55  79
ATOM     79  C   UNL     1       8.697  -3.112   9.241  1.00  0.00     0.023 A 
ATOM     80  C   UNL     1       8.210  -2.399   8.139  1.00  0.00     0.031 A 
ATOM     81  C   UNL     1       9.990  -3.194   9.472  1.00  0.00     0.131 A 
ATOM     82  C   UNL     1       9.020  -2.012   7.177  1.00  0.00     0.055 A 
ATOM     83  C   UNL     1      10.861  -2.556   8.590  1.00  0.00     0.041 A 
ATOM     84  F   UNL     1      10.454  -3.868  10.521  1.00  0.00    -0.206 F 
ATOM     85  C   UNL     1      10.371  -2.321   7.286  1.00  0.00     0.022 A 
BRANCH  82  86
ATOM     86  S   UNL     1       8.390  -1.101   5.745  1.00  0.00     0.124 S 
ATOM     87  O   UNL     1       9.076   0.265   5.668  1.00  0.00    -0.237 OA
ATOM     88  O   UNL     1       8.681  -1.892   4.468  1.00  0.00    -0.237 OA
ATOM     89  O   UNL     1       6.702  -0.881   5.907  1.00  0.00    -0.744 OA
ENDBRANCH  82  86
ENDBRANCH  55  79
BRANCH  67  90
ATOM     90  C   UNL     1       6.853  -2.991  16.017  1.00  0.00     0.023 A 
ATOM     91  C   UNL     1       7.391  -3.755  17.058  1.00  0.00     0.031 A 
ATOM     92  C   UNL     1       6.852  -1.676  16.077  1.00  0.00     0.131 A 
ATOM     93  C   UNL     1       7.676  -3.206  18.219  1.00  0.00     0.055 A 
ATOM     94  C   UNL     1       7.398  -1.066  17.205  1.00  0.00     0.041 A 
ATOM     95  F   UNL     1       6.344  -0.948  15.087  1.00  0.00    -0.206 F 
ATOM     96  C   UNL     1       7.437  -1.846  18.382  1.00  0.00     0.022 A 
BRANCH  93  97
ATOM     97  S   UNL     1       8.361  -4.196  19.570  1.00  0.00     0.124 S 
ATOM     98  O   UNL     1       9.729  -3.638  19.969  1.00  0.00    -0.237 OA
ATOM     99  O   UNL     1       7.417  -4.140  20.773  1.00  0.00    -0.237 OA
ATOM    100  O   UNL     1       8.535  -5.818  19.057  1.00  0.00    -0.744 OA
ENDBRANCH  93  97
ENDBRANCH  67  90
ENDBRANCH  41  42
ENDBRANCH  33  36
ENDBRANCH  31  32
ENDBRANCH  30  31
ENDBRANCH   1  30
TORSDOF 18
