REMARK SMILES COc1cc(-c2nnc(S)n2-c2ccc(C(=O)NCCCCCCNC(=O)c3ccc(-c4c5nc(c(-c6cc(S(=O)(=O)[O-])ccc6F)c6ccc([nH]6)c(-c6cc(S(=O)(=O)[O-])ccc6F)c6nc(c(-c7cc(S(=O)(=O)[O-])ccc7F)c7ccc4[nH]7)C=C6)C=C5)cc3)cc2)cc(OC)c1OC
REMARK SMILES IDX 21 1 20 2 19 3 18 4 16 5 17 6 15 8 12 9 13 10 92 11 14 12
REMARK SMILES IDX 91 13 11 14 6 15 7 16 8 17 9 18 5 19 3 20 4 21 97 22 94 23
REMARK SMILES IDX 93 24 2 25 1 26 98 27 99 28 95 29 96 30 10 31 22 33 23 34
REMARK SMILES IDX 24 35 25 36 26 37 27 39 28 40 29 41 90 42 30 43 89 44 31 45
REMARK SMILES IDX 32 46 33 47 83 48 34 49 88 50 82 51 84 52 35 53 87 54 81 55
REMARK SMILES IDX 80 56 36 58 68 59 48 60 67 61 49 62 52 63 66 64 85 65 50 66
REMARK SMILES IDX 51 67 65 69 86 70 53 71 37 72 38 73 46 74 39 75 45 76 47 77
REMARK SMILES IDX 44 78 40 79 41 80 42 81 43 82 69 83 70 84 78 85 71 86 77 87
REMARK SMILES IDX 79 88 76 89 72 90 73 91 74 92 75 93 54 94 55 95 63 96 56 97
REMARK SMILES IDX 62 98 64 99 61 100 57 101 58 102 59 103 60 104
REMARK H PARENT 18 7 10 32 25 38 84 57 52 68
REMARK Flexibility Score: inf
ROOT
ATOM      1  C   UNL     1       4.936   6.577  -5.338  1.00  0.00     0.002 C 
ENDROOT
BRANCH   1   2
ATOM      2  C   UNL     1       3.828   6.415  -4.290  1.00  0.00     0.021 C 
BRANCH   2   3
ATOM      3  C   UNL     1       4.365   6.128  -2.886  1.00  0.00     0.116 C 
BRANCH   3   4
ATOM      4  N   UNL     1       4.840   7.355  -2.271  1.00  0.00    -0.352 N 
ATOM      5  C   UNL     1       4.330   8.153  -1.280  1.00  0.00     0.251 C 
ATOM      6  O   UNL     1       4.979   9.145  -0.946  1.00  0.00    -0.269 OA
ATOM      7  H   UNL     1       5.695   7.677  -2.638  1.00  0.00     0.163 HD
BRANCH   5   8
ATOM      8  C   UNL     1       3.081   7.824  -0.539  1.00  0.00     0.039 A 
ATOM      9  C   UNL     1       0.913   7.089   1.056  1.00  0.00     0.050 A 
ATOM     10  C   UNL     1       1.890   7.934   1.586  1.00  0.00     0.027 A 
ATOM     11  C   UNL     1       0.964   6.674  -0.275  1.00  0.00     0.027 A 
ATOM     12  C   UNL     1       2.984   8.278   0.789  1.00  0.00     0.016 A 
ATOM     13  C   UNL     1       2.017   7.099  -1.082  1.00  0.00     0.016 A 
BRANCH   9  14
ATOM     14  N   UNL     1      -0.159   6.646   1.854  1.00  0.00    -0.270 N 
ATOM     15  C   UNL     1      -0.454   5.326   2.185  1.00  0.00     0.169 A 
ATOM     16  N   UNL     1      -1.593   5.304   2.853  1.00  0.00    -0.129 NA
ATOM     17  N   UNL     1      -2.038   6.601   2.996  1.00  0.00    -0.123 NA
ATOM     18  C   UNL     1      -1.179   7.392   2.394  1.00  0.00     0.193 A 
BRANCH  15  19
ATOM     19  C   UNL     1       0.428   4.185   1.929  1.00  0.00     0.027 A 
ATOM     20  C   UNL     1       1.000   2.158   0.710  1.00  0.00     0.165 A 
ATOM     21  C   UNL     1       0.071   3.161   1.049  1.00  0.00     0.062 A 
ATOM     22  C   UNL     1       2.300   2.149   1.257  1.00  0.00     0.203 A 
ATOM     23  C   UNL     1       2.634   3.159   2.183  1.00  0.00     0.165 A 
ATOM     24  C   UNL     1       1.696   4.148   2.516  1.00  0.00     0.062 A 
BRANCH  20  25
ATOM     25  O   UNL     1       0.651   1.323  -0.324  1.00  0.00    -0.493 OA
ATOM     26  C   UNL     1      -0.140   0.213   0.101  1.00  0.00     0.278 C 
ENDBRANCH  20  25
BRANCH  22  27
ATOM     27  O   UNL     1       3.304   1.279   0.938  1.00  0.00    -0.490 OA
ATOM     28  C   UNL     1       3.042   0.066   0.259  1.00  0.00     0.278 C 
ENDBRANCH  22  27
BRANCH  23  29
ATOM     29  O   UNL     1       3.821   3.351   2.849  1.00  0.00    -0.493 OA
ATOM     30  C   UNL     1       4.976   2.647   2.419  1.00  0.00     0.278 C 
ENDBRANCH  23  29
ENDBRANCH  15  19
BRANCH  18  31
ATOM     31  S   UNL     1      -1.380   9.101   2.181  1.00  0.00    -0.103 SA
ATOM     32  H   UNL     1      -2.490   9.514   2.849  1.00  0.00     0.111 HD
ENDBRANCH  18  31
ENDBRANCH   9  14
ENDBRANCH   5   8
ENDBRANCH   3   4
ENDBRANCH   2   3
ENDBRANCH   1   2
BRANCH   1  33
ATOM     33  C   UNL     1       5.907   5.391  -5.459  1.00  0.00     0.002 C 
BRANCH  33  34
ATOM     34  C   UNL     1       5.264   4.005  -5.629  1.00  0.00     0.021 C 
BRANCH  34  35
ATOM     35  C   UNL     1       4.605   3.814  -6.985  1.00  0.00     0.116 C 
BRANCH  35  36
ATOM     36  N   UNL     1       5.587   3.780  -8.071  1.00  0.00    -0.352 N 
ATOM     37  C   UNL     1       5.365   3.719  -9.439  1.00  0.00     0.251 C 
ATOM     38  H   UNL     1       6.531   3.802  -7.793  1.00  0.00     0.163 HD
ATOM     39  O   UNL     1       6.229   3.315 -10.192  1.00  0.00    -0.269 OA
BRANCH  37  40
ATOM     40  C   UNL     1       4.053   4.168  -9.943  1.00  0.00     0.039 A 
ATOM     41  C   UNL     1       3.382   3.517 -10.982  1.00  0.00     0.014 A 
ATOM     42  C   UNL     1       3.482   5.259  -9.302  1.00  0.00     0.014 A 
ATOM     43  C   UNL     1       2.095   3.942 -11.313  1.00  0.00     0.010 A 
ATOM     44  C   UNL     1       2.153   5.518  -9.469  1.00  0.00     0.010 A 
ATOM     45  C   UNL     1       1.486   4.941 -10.540  1.00  0.00    -0.014 A 
BRANCH  45  46
ATOM     46  C   UNL     1       0.118   5.389 -10.770  1.00  0.00     0.031 A 
ATOM     47  C   UNL     1      -0.908   4.324 -10.636  1.00  0.00     0.074 A 
ATOM     48  C   UNL     1      -0.199   6.704 -10.812  1.00  0.00     0.049 A 
ATOM     49  N   UNL     1      -1.625   3.784 -11.563  1.00  0.00    -0.248 NA
ATOM     50  C   UNL     1      -1.038   3.655  -9.329  1.00  0.00     0.031 C 
ATOM     51  C   UNL     1       0.691   7.858 -10.592  1.00  0.00     0.029 A 
ATOM     52  N   UNL     1      -1.414   7.298 -10.940  1.00  0.00    -0.354 N 
ATOM     53  C   UNL     1      -2.476   2.889 -10.917  1.00  0.00     0.074 A 
ATOM     54  C   UNL     1      -1.910   2.686  -9.613  1.00  0.00     0.031 C 
ATOM     55  C   UNL     1      -0.042   8.970 -10.368  1.00  0.00     0.029 A 
ATOM     56  C   UNL     1      -1.432   8.658 -10.634  1.00  0.00     0.049 A 
ATOM     57  H   UNL     1      -2.219   6.806 -11.225  1.00  0.00     0.167 HD
ATOM     58  C   UNL     1      -3.711   2.606 -11.420  1.00  0.00     0.034 A 
ATOM     59  C   UNL     1      -2.511   9.481 -10.608  1.00  0.00     0.034 A 
ATOM     60  C   UNL     1      -3.826   3.104 -12.772  1.00  0.00     0.049 A 
ATOM     61  C   UNL     1      -3.550   8.823 -11.433  1.00  0.00     0.074 A 
ATOM     62  C   UNL     1      -3.255   2.798 -13.989  1.00  0.00     0.029 A 
ATOM     63  N   UNL     1      -4.354   4.369 -12.893  1.00  0.00    -0.354 N 
ATOM     64  N   UNL     1      -3.405   8.587 -12.709  1.00  0.00    -0.248 NA
ATOM     65  C   UNL     1      -4.570   8.024 -10.772  1.00  0.00     0.031 C 
ATOM     66  C   UNL     1      -3.123   4.048 -14.667  1.00  0.00     0.029 A 
ATOM     67  C   UNL     1      -3.681   5.054 -13.873  1.00  0.00     0.049 A 
ATOM     68  H   UNL     1      -5.099   4.728 -12.358  1.00  0.00     0.167 HD
ATOM     69  C   UNL     1      -3.988   7.348 -12.914  1.00  0.00     0.074 A 
ATOM     70  C   UNL     1      -4.818   7.128 -11.733  1.00  0.00     0.031 C 
ATOM     71  C   UNL     1      -3.518   6.502 -13.879  1.00  0.00     0.034 A 
BRANCH  58  72
ATOM     72  C   UNL     1      -4.948   2.264 -10.605  1.00  0.00     0.023 A 
ATOM     73  C   UNL     1      -6.149   2.042 -11.313  1.00  0.00     0.031 A 
ATOM     74  C   UNL     1      -5.089   2.410  -9.206  1.00  0.00     0.131 A 
ATOM     75  C   UNL     1      -7.396   2.058 -10.660  1.00  0.00     0.055 A 
ATOM     76  C   UNL     1      -6.327   2.367  -8.554  1.00  0.00     0.041 A 
ATOM     77  F   UNL     1      -4.065   2.694  -8.396  1.00  0.00    -0.206 F 
ATOM     78  C   UNL     1      -7.492   2.220  -9.282  1.00  0.00     0.022 A 
BRANCH  75  79
ATOM     79  S   UNL     1      -8.906   2.026 -11.662  1.00  0.00     0.124 S 
ATOM     80  O   UNL     1      -8.677   3.133 -12.584  1.00  0.00    -0.237 OA
ATOM     81  O   UNL     1      -8.857   0.686 -12.236  1.00  0.00    -0.237 OA
ATOM     82  O   UNL     1      -9.967   2.244 -10.681  1.00  0.00    -0.744 OA
ENDBRANCH  75  79
ENDBRANCH  58  72
BRANCH  59  83
ATOM     83  C   UNL     1      -2.789  10.569  -9.633  1.00  0.00     0.023 A 
ATOM     84  C   UNL     1      -3.630  11.667  -9.911  1.00  0.00     0.031 A 
ATOM     85  C   UNL     1      -2.403  10.390  -8.285  1.00  0.00     0.131 A 
ATOM     86  C   UNL     1      -4.055  12.522  -8.864  1.00  0.00     0.055 A 
ATOM     87  C   UNL     1      -2.829  11.233  -7.256  1.00  0.00     0.041 A 
ATOM     88  F   UNL     1      -1.662   9.332  -7.914  1.00  0.00    -0.206 F 
ATOM     89  C   UNL     1      -3.666  12.299  -7.541  1.00  0.00     0.022 A 
BRANCH  86  90
ATOM     90  S   UNL     1      -5.189  13.911  -9.201  1.00  0.00     0.124 S 
ATOM     91  O   UNL     1      -4.398  14.749 -10.095  1.00  0.00    -0.237 OA
ATOM     92  O   UNL     1      -6.339  13.236  -9.792  1.00  0.00    -0.237 OA
ATOM     93  O   UNL     1      -5.430  14.485  -7.877  1.00  0.00    -0.744 OA
ENDBRANCH  86  90
ENDBRANCH  59  83
BRANCH  71  94
ATOM     94  C   UNL     1      -2.640   7.092 -14.968  1.00  0.00     0.023 A 
ATOM     95  C   UNL     1      -1.362   7.667 -14.777  1.00  0.00     0.031 A 
ATOM     96  C   UNL     1      -3.108   6.966 -16.288  1.00  0.00     0.131 A 
ATOM     97  C   UNL     1      -0.607   8.088 -15.893  1.00  0.00     0.055 A 
ATOM     98  C   UNL     1      -2.350   7.363 -17.387  1.00  0.00     0.041 A 
ATOM     99  F   UNL     1      -4.308   6.413 -16.532  1.00  0.00    -0.206 F 
ATOM    100  C   UNL     1      -1.097   7.929 -17.194  1.00  0.00     0.022 A 
BRANCH  97 101
ATOM    101  S   UNL     1       1.029   8.868 -15.679  1.00  0.00     0.124 S 
ATOM    102  O   UNL     1       0.782   9.913 -14.692  1.00  0.00    -0.237 OA
ATOM    103  O   UNL     1       1.859   7.751 -15.235  1.00  0.00    -0.237 OA
ATOM    104  O   UNL     1       1.349   9.364 -17.020  1.00  0.00    -0.744 OA
ENDBRANCH  97 101
ENDBRANCH  71  94
ENDBRANCH  45  46
ENDBRANCH  37  40
ENDBRANCH  35  36
ENDBRANCH  34  35
ENDBRANCH  33  34
ENDBRANCH   1  33
TORSDOF 22
