REMARK SMILES O=C(NCCCCCCNC(=O)[C@@H]1[C@H](C(=O)Nc2cccc(Cl)c2F)[C@@H]2C=C[C@H]1C2)c1ccc(-c2c3nc(c(-c4cc(S(=O)(=O)[O-])ccc4F)c4ccc([nH]4)c(-c4cc(S(=O)(=O)[O-])ccc4F)c4nc(c(-c5cc(S(=O)(=O)[O-])ccc5F)c5ccc2[nH]5)C=C4)C=C3)cc1
REMARK SMILES IDX 6 1 5 2 4 3 3 4 1 5 2 6 31 8 32 9 93 10 33 11 92 12 34 13
REMARK SMILES IDX 35 14 36 15 86 16 37 17 91 18 85 19 87 20 38 21 90 22 84 23
REMARK SMILES IDX 83 24 39 26 71 27 51 28 70 29 52 30 55 31 69 32 88 33 53 34
REMARK SMILES IDX 54 35 68 37 89 38 56 39 40 40 41 41 49 42 42 43 48 44 50 45
REMARK SMILES IDX 47 46 43 47 44 48 45 49 46 50 72 51 73 52 81 53 74 54 80 55
REMARK SMILES IDX 82 56 79 57 75 58 76 59 77 60 78 61 57 62 58 63 66 64 59 65
REMARK SMILES IDX 65 66 67 67 64 68 60 69 61 70 62 71 63 72 7 73 8 74 9 75
REMARK SMILES IDX 10 76 11 77 12 79 13 80 14 81 29 82 26 83 28 84 30 85 27 86
REMARK SMILES IDX 15 87 16 88 17 89 18 91 19 92 24 93 20 94 22 95 25 96 21 97
REMARK SMILES IDX 23 98
REMARK H PARENT 3 7 87 25 55 36 10 78 17 90
REMARK Flexibility Score: inf
ROOT
ATOM      1  C   UNL     1       3.789   0.104   3.713  1.00  0.00     0.002 C 
ENDROOT
BRANCH   1   2
ATOM      2  C   UNL     1       4.198   0.789   2.406  1.00  0.00     0.021 C 
BRANCH   2   3
ATOM      3  C   UNL     1       4.178  -0.106   1.169  1.00  0.00     0.116 C 
BRANCH   3   4
ATOM      4  N   UNL     1       2.823  -0.479   0.798  1.00  0.00    -0.352 N 
ATOM      5  O   UNL     1       0.885  -0.248  -0.345  1.00  0.00    -0.269 OA
ATOM      6  C   UNL     1       2.104  -0.058  -0.290  1.00  0.00     0.251 C 
ATOM      7  H   UNL     1       2.367  -1.109   1.401  1.00  0.00     0.163 HD
BRANCH   6   8
ATOM      8  C   UNL     1       2.803   0.623  -1.396  1.00  0.00     0.039 A 
ATOM      9  C   UNL     1       3.943   0.043  -1.962  1.00  0.00     0.014 A 
ATOM     10  C   UNL     1       2.316   1.841  -1.872  1.00  0.00     0.014 A 
ATOM     11  C   UNL     1       4.649   0.724  -2.947  1.00  0.00     0.010 A 
ATOM     12  C   UNL     1       2.987   2.490  -2.910  1.00  0.00     0.010 A 
ATOM     13  C   UNL     1       4.162   1.939  -3.452  1.00  0.00    -0.014 A 
BRANCH  13  14
ATOM     14  C   UNL     1       4.836   2.590  -4.604  1.00  0.00     0.031 A 
ATOM     15  C   UNL     1       5.473   3.940  -4.462  1.00  0.00     0.074 A 
ATOM     16  C   UNL     1       4.824   1.964  -5.796  1.00  0.00     0.049 A 
ATOM     17  N   UNL     1       6.004   4.704  -5.382  1.00  0.00    -0.248 NA
ATOM     18  C   UNL     1       5.503   4.512  -3.110  1.00  0.00     0.031 C 
ATOM     19  C   UNL     1       4.230   0.648  -6.045  1.00  0.00     0.029 A 
ATOM     20  N   UNL     1       5.303   2.350  -7.021  1.00  0.00    -0.354 N 
ATOM     21  C   UNL     1       6.414   5.860  -4.728  1.00  0.00     0.074 A 
ATOM     22  C   UNL     1       6.035   5.705  -3.337  1.00  0.00     0.031 C 
ATOM     23  C   UNL     1       4.381   0.336  -7.339  1.00  0.00     0.029 A 
ATOM     24  C   UNL     1       5.010   1.458  -8.026  1.00  0.00     0.049 A 
ATOM     25  H   UNL     1       5.807   3.183  -7.167  1.00  0.00     0.167 HD
ATOM     26  C   UNL     1       7.049   6.943  -5.245  1.00  0.00     0.034 A 
ATOM     27  C   UNL     1       5.176   1.550  -9.360  1.00  0.00     0.034 A 
ATOM     28  C   UNL     1       7.397   7.073  -6.642  1.00  0.00     0.049 A 
ATOM     29  C   UNL     1       5.816   2.787  -9.926  1.00  0.00     0.074 A 
ATOM     30  C   UNL     1       8.077   8.102  -7.269  1.00  0.00     0.029 A 
ATOM     31  N   UNL     1       7.069   6.156  -7.635  1.00  0.00    -0.354 N 
ATOM     32  N   UNL     1       6.228   3.862  -9.294  1.00  0.00    -0.248 NA
ATOM     33  C   UNL     1       6.021   2.824 -11.378  1.00  0.00     0.031 C 
ATOM     34  C   UNL     1       8.080   7.852  -8.646  1.00  0.00     0.029 A 
ATOM     35  C   UNL     1       7.491   6.618  -8.873  1.00  0.00     0.049 A 
ATOM     36  H   UNL     1       6.603   5.302  -7.481  1.00  0.00     0.167 HD
ATOM     37  C   UNL     1       6.766   4.694 -10.270  1.00  0.00     0.074 A 
ATOM     38  C   UNL     1       6.627   3.994 -11.532  1.00  0.00     0.031 C 
ATOM     39  C   UNL     1       7.335   5.918 -10.130  1.00  0.00     0.034 A 
BRANCH  26  40
ATOM     40  C   UNL     1       7.343   8.091  -4.304  1.00  0.00     0.023 A 
ATOM     41  C   UNL     1       8.156   7.931  -3.167  1.00  0.00     0.031 A 
ATOM     42  C   UNL     1       6.757   9.353  -4.514  1.00  0.00     0.131 A 
ATOM     43  C   UNL     1       8.274   8.974  -2.236  1.00  0.00     0.055 A 
ATOM     44  C   UNL     1       6.959  10.418  -3.634  1.00  0.00     0.041 A 
ATOM     45  F   UNL     1       5.955   9.568  -5.569  1.00  0.00    -0.206 F 
ATOM     46  C   UNL     1       7.703  10.226  -2.474  1.00  0.00     0.022 A 
BRANCH  43  47
ATOM     47  S   UNL     1       9.017   8.608  -0.621  1.00  0.00     0.124 S 
ATOM     48  O   UNL     1       8.208   7.477  -0.171  1.00  0.00    -0.237 OA
ATOM     49  O   UNL     1      10.399   8.303  -0.972  1.00  0.00    -0.237 OA
ATOM     50  O   UNL     1       8.821   9.842   0.135  1.00  0.00    -0.744 OA
ENDBRANCH  43  47
ENDBRANCH  26  40
BRANCH  27  51
ATOM     51  C   UNL     1       4.668   0.458 -10.236  1.00  0.00     0.023 A 
ATOM     52  C   UNL     1       5.541  -0.359 -10.968  1.00  0.00     0.031 A 
ATOM     53  C   UNL     1       3.287   0.201 -10.327  1.00  0.00     0.131 A 
ATOM     54  C   UNL     1       5.022  -1.385 -11.774  1.00  0.00     0.055 A 
ATOM     55  C   UNL     1       2.780  -0.852 -11.088  1.00  0.00     0.041 A 
ATOM     56  F   UNL     1       2.410   0.951  -9.640  1.00  0.00    -0.206 F 
ATOM     57  C   UNL     1       3.650  -1.648 -11.824  1.00  0.00     0.022 A 
BRANCH  54  58
ATOM     58  S   UNL     1       6.165  -2.347 -12.801  1.00  0.00     0.124 S 
ATOM     59  O   UNL     1       6.755  -1.310 -13.639  1.00  0.00    -0.237 OA
ATOM     60  O   UNL     1       7.045  -2.942 -11.800  1.00  0.00    -0.237 OA
ATOM     61  O   UNL     1       5.290  -3.289 -13.495  1.00  0.00    -0.744 OA
ENDBRANCH  54  58
ENDBRANCH  27  51
BRANCH  39  62
ATOM     62  C   UNL     1       7.907   6.562 -11.369  1.00  0.00     0.023 A 
ATOM     63  C   UNL     1       7.093   7.029 -12.415  1.00  0.00     0.031 A 
ATOM     64  C   UNL     1       9.299   6.737 -11.484  1.00  0.00     0.131 A 
ATOM     65  C   UNL     1       7.680   7.622 -13.544  1.00  0.00     0.055 A 
ATOM     66  C   UNL     1       9.872   7.378 -12.582  1.00  0.00     0.041 A 
ATOM     67  F   UNL     1      10.123   6.302 -10.518  1.00  0.00    -0.206 F 
ATOM     68  C   UNL     1       9.062   7.819 -13.623  1.00  0.00     0.022 A 
BRANCH  65  69
ATOM     69  S   UNL     1       6.621   8.082 -14.943  1.00  0.00     0.124 S 
ATOM     70  O   UNL     1       6.056   6.794 -15.331  1.00  0.00    -0.237 OA
ATOM     71  O   UNL     1       5.692   9.030 -14.336  1.00  0.00    -0.237 OA
ATOM     72  O   UNL     1       7.557   8.663 -15.905  1.00  0.00    -0.744 OA
ENDBRANCH  65  69
ENDBRANCH  39  62
ENDBRANCH  13  14
ENDBRANCH   6   8
ENDBRANCH   3   4
ENDBRANCH   2   3
ENDBRANCH   1   2
BRANCH   1  73
ATOM     73  C   UNL     1       4.502  -1.211   4.020  1.00  0.00     0.002 C 
BRANCH  73  74
ATOM     74  C   UNL     1       6.023  -1.190   3.883  1.00  0.00     0.021 C 
BRANCH  74  75
ATOM     75  C   UNL     1       6.824  -0.525   5.002  1.00  0.00     0.116 C 
BRANCH  75  76
ATOM     76  N   UNL     1       6.819  -1.277   6.248  1.00  0.00    -0.356 N 
ATOM     77  C   UNL     1       7.838  -1.813   6.983  1.00  0.00     0.224 C 
ATOM     78  H   UNL     1       5.923  -1.427   6.628  1.00  0.00     0.163 HD
ATOM     79  O   UNL     1       7.634  -1.960   8.194  1.00  0.00    -0.275 OA
BRANCH  77  80
ATOM     80  C   UNL     1       9.216  -2.078   6.403  1.00  0.00     0.098 C 
ATOM     81  C   UNL     1       9.502  -2.524   4.961  1.00  0.00     0.099 C 
ATOM     82  C   UNL     1      10.210  -2.989   7.208  1.00  0.00     0.025 C 
ATOM     83  C   UNL     1      10.833  -3.320   5.080  1.00  0.00     0.025 C 
ATOM     84  C   UNL     1      10.124  -4.479   6.898  1.00  0.00    -0.027 C 
ATOM     85  C   UNL     1      11.468  -2.736   6.356  1.00  0.00     0.017 C 
ATOM     86  C   UNL     1      10.521  -4.676   5.632  1.00  0.00    -0.027 C 
BRANCH  81  87
ATOM     87  C   UNL     1       8.504  -3.166   4.011  1.00  0.00     0.228 C 
ATOM     88  O   UNL     1       8.475  -2.669   2.865  1.00  0.00    -0.274 OA
ATOM     89  N   UNL     1       7.730  -4.271   4.100  1.00  0.00    -0.323 N 
ATOM     90  H   UNL     1       7.247  -4.401   3.252  1.00  0.00     0.170 HD
BRANCH  89  91
ATOM     91  C   UNL     1       7.382  -5.297   4.999  1.00  0.00     0.078 A 
ATOM     92  C   UNL     1       7.142  -6.542   4.399  1.00  0.00     0.029 A 
ATOM     93  C   UNL     1       7.230  -5.234   6.379  1.00  0.00     0.165 A 
ATOM     94  C   UNL     1       6.931  -7.696   5.162  1.00  0.00     0.004 A 
ATOM     95  C   UNL     1       7.032  -6.381   7.157  1.00  0.00     0.078 A 
ATOM     96  F   UNL     1       7.183  -4.064   6.995  1.00  0.00    -0.203 F 
ATOM     97  C   UNL     1       6.914  -7.623   6.550  1.00  0.00     0.024 A 
ATOM     98  Cl  UNL     1       6.949  -6.278   8.877  1.00  0.00    -0.081 Cl
ENDBRANCH  89  91
ENDBRANCH  81  87
ENDBRANCH  77  80
ENDBRANCH  75  76
ENDBRANCH  74  75
ENDBRANCH  73  74
ENDBRANCH   1  73
TORSDOF 18
