REMARK SMILES Cc1ccccc1NC(=O)NC[C@@H]1CC[C@@H](C(=O)NCCCCCCNC(=O)c2ccc(-c3c4nc(c(-c5cc(S(=O)(=O)[O-])ccc5F)c5ccc([nH]5)c(-c5cc(S(=O)(=O)[O-])ccc5F)c5nc(c(-c6cc(S(=O)(=O)[O-])ccc6F)c6ccc3[nH]6)C=C5)C=C4)cc2)O1
REMARK SMILES IDX 22 1 21 2 20 3 19 4 17 5 18 6 16 8 13 9 14 10 92 11 15 12
REMARK SMILES IDX 12 13 11 14 8 15 9 16 10 18 7 20 1 21 2 22 3 23 4 24 6 25
REMARK SMILES IDX 5 26 23 27 24 28 25 29 26 30 27 31 28 33 29 34 30 35 91 36
REMARK SMILES IDX 31 37 90 38 32 39 33 40 34 41 84 42 35 43 89 44 83 45 85 46
REMARK SMILES IDX 36 47 88 48 82 49 81 50 37 52 69 53 49 54 68 55 50 56 53 57
REMARK SMILES IDX 67 58 86 59 51 60 52 61 66 63 87 64 54 65 38 66 39 67 47 68
REMARK SMILES IDX 40 69 46 70 48 71 45 72 41 73 42 74 43 75 44 76 70 77 71 78
REMARK SMILES IDX 79 79 72 80 78 81 80 82 77 83 73 84 74 85 75 86 76 87 55 88
REMARK SMILES IDX 56 89 64 90 57 91 63 92 65 93 62 94 58 95 59 96 60 97 61 98
REMARK H PARENT 19 7 8 17 11 19 26 32 85 51 53 62
REMARK Flexibility Score: inf
ROOT
ATOM      1  C   UNL     1      -7.510   1.975   6.128  1.00  0.00     0.002 C 
ENDROOT
BRANCH   1   2
ATOM      2  C   UNL     1      -6.969   1.482   4.777  1.00  0.00     0.021 C 
BRANCH   2   3
ATOM      3  C   UNL     1      -7.389   2.329   3.574  1.00  0.00     0.116 C 
BRANCH   3   4
ATOM      4  N   UNL     1      -6.719   3.614   3.564  1.00  0.00    -0.354 N 
ATOM      5  C   UNL     1      -5.744   4.101   2.741  1.00  0.00     0.249 C 
ATOM      6  O   UNL     1      -5.340   5.248   2.952  1.00  0.00    -0.272 OA
ATOM      7  H   UNL     1      -7.015   4.237   4.265  1.00  0.00     0.163 HD
BRANCH   5   8
ATOM      8  C   UNL     1      -5.241   3.263   1.544  1.00  0.00     0.207 C 
ATOM      9  C   UNL     1      -3.000   3.134   0.830  1.00  0.00     0.138 C 
ATOM     10  C   UNL     1      -3.533   1.724   0.943  1.00  0.00     0.037 C 
ATOM     11  O   UNL     1      -4.195   3.946   0.816  1.00  0.00    -0.363 OA
ATOM     12  C   UNL     1      -4.676   1.898   1.909  1.00  0.00     0.045 C 
BRANCH   9  13
ATOM     13  C   UNL     1      -2.181   3.429  -0.437  1.00  0.00     0.149 C 
BRANCH  13  14
ATOM     14  N   UNL     1      -0.803   3.810  -0.174  1.00  0.00    -0.335 N 
ATOM     15  N   UNL     1       0.859   2.058  -0.133  1.00  0.00    -0.308 N 
ATOM     16  C   UNL     1       0.417   3.310  -0.104  1.00  0.00     0.319 C 
ATOM     17  H   UNL     1       1.841   2.081  -0.071  1.00  0.00     0.171 HD
ATOM     18  O   UNL     1       1.308   4.165   0.040  1.00  0.00    -0.249 OA
ATOM     19  H   UNL     1      -0.767   4.775   0.018  1.00  0.00     0.165 HD
BRANCH  15  20
ATOM     20  C   UNL     1       0.459   0.714  -0.219  1.00  0.00     0.045 A 
ATOM     21  C   UNL     1       2.901  -0.086   0.215  1.00  0.00     0.046 C 
ATOM     22  C   UNL     1       1.424  -0.306  -0.005  1.00  0.00    -0.027 A 
ATOM     23  C   UNL     1       1.022  -1.661   0.009  1.00  0.00     0.005 A 
ATOM     24  C   UNL     1      -0.299  -2.026  -0.209  1.00  0.00     0.000 A 
ATOM     25  C   UNL     1      -0.839   0.307  -0.496  1.00  0.00     0.026 A 
ATOM     26  C   UNL     1      -1.228  -1.038  -0.481  1.00  0.00     0.002 A 
ENDBRANCH  15  20
ENDBRANCH  13  14
ENDBRANCH   9  13
ENDBRANCH   5   8
ENDBRANCH   3   4
ENDBRANCH   2   3
ENDBRANCH   1   2
BRANCH   1  27
ATOM     27  C   UNL     1      -9.028   2.203   6.211  1.00  0.00     0.002 C 
BRANCH  27  28
ATOM     28  C   UNL     1      -9.902   1.032   5.758  1.00  0.00     0.021 C 
BRANCH  28  29
ATOM     29  C   UNL     1      -9.843  -0.169   6.697  1.00  0.00     0.116 C 
BRANCH  29  30
ATOM     30  N   UNL     1     -11.083  -0.399   7.436  1.00  0.00    -0.352 N 
ATOM     31  C   UNL     1     -11.355  -1.414   8.335  1.00  0.00     0.251 C 
ATOM     32  H   UNL     1     -11.810   0.244   7.276  1.00  0.00     0.163 HD
ATOM     33  O   UNL     1     -12.442  -1.516   8.897  1.00  0.00    -0.269 OA
BRANCH  31  34
ATOM     34  C   UNL     1     -10.254  -2.336   8.681  1.00  0.00     0.039 A 
ATOM     35  C   UNL     1      -9.762  -2.296   9.988  1.00  0.00     0.014 A 
ATOM     36  C   UNL     1      -9.556  -2.991   7.668  1.00  0.00     0.014 A 
ATOM     37  C   UNL     1      -8.461  -2.727  10.233  1.00  0.00     0.010 A 
ATOM     38  C   UNL     1      -8.235  -3.336   7.895  1.00  0.00     0.010 A 
ATOM     39  C   UNL     1      -7.665  -3.140   9.160  1.00  0.00    -0.014 A 
BRANCH  39  40
ATOM     40  C   UNL     1      -6.205  -3.179   9.245  1.00  0.00     0.031 A 
ATOM     41  C   UNL     1      -5.451  -4.450   9.186  1.00  0.00     0.074 A 
ATOM     42  C   UNL     1      -5.509  -2.027   9.386  1.00  0.00     0.049 A 
ATOM     43  N   UNL     1      -4.300  -4.636   9.744  1.00  0.00    -0.248 NA
ATOM     44  C   UNL     1      -5.961  -5.640   8.518  1.00  0.00     0.031 C 
ATOM     45  C   UNL     1      -4.065  -1.845   9.261  1.00  0.00     0.029 A 
ATOM     46  N   UNL     1      -5.958  -0.829   9.927  1.00  0.00    -0.354 N 
ATOM     47  C   UNL     1      -3.794  -5.829   9.284  1.00  0.00     0.074 A 
ATOM     48  C   UNL     1      -4.896  -6.446   8.577  1.00  0.00     0.031 C 
ATOM     49  C   UNL     1      -3.708  -0.738   9.928  1.00  0.00     0.029 A 
ATOM     50  C   UNL     1      -4.888  -0.231  10.604  1.00  0.00     0.049 A 
ATOM     51  H   UNL     1      -6.869  -0.463   9.848  1.00  0.00     0.167 HD
ATOM     52  C   UNL     1      -2.465  -6.106   9.427  1.00  0.00     0.034 A 
ATOM     53  C   UNL     1      -4.965   0.079  11.930  1.00  0.00     0.034 A 
ATOM     54  C   UNL     1      -1.756  -5.053  10.154  1.00  0.00     0.049 A 
ATOM     55  C   UNL     1      -3.926  -0.613  12.781  1.00  0.00     0.074 A 
ATOM     56  C   UNL     1      -0.924  -4.023   9.745  1.00  0.00     0.029 A 
ATOM     57  N   UNL     1      -2.051  -4.808  11.492  1.00  0.00    -0.354 N 
ATOM     58  N   UNL     1      -3.214  -1.632  12.386  1.00  0.00    -0.248 NA
ATOM     59  C   UNL     1      -3.633  -0.228  14.157  1.00  0.00     0.031 C 
ATOM     60  C   UNL     1      -0.746  -3.137  10.838  1.00  0.00     0.029 A 
ATOM     61  C   UNL     1      -1.454  -3.636  11.918  1.00  0.00     0.049 A 
ATOM     62  H   UNL     1      -2.609  -5.390  12.057  1.00  0.00     0.167 HD
ATOM     63  C   UNL     1      -2.415  -2.064  13.418  1.00  0.00     0.074 A 
ATOM     64  C   UNL     1      -2.692  -1.127  14.493  1.00  0.00     0.031 C 
ATOM     65  C   UNL     1      -1.613  -3.166  13.290  1.00  0.00     0.034 A 
BRANCH  52  66
ATOM     66  C   UNL     1      -1.749  -7.184   8.637  1.00  0.00     0.023 A 
ATOM     67  C   UNL     1      -0.401  -6.995   8.261  1.00  0.00     0.031 A 
ATOM     68  C   UNL     1      -2.333  -8.383   8.187  1.00  0.00     0.131 A 
ATOM     69  C   UNL     1       0.255  -7.885   7.389  1.00  0.00     0.055 A 
ATOM     70  C   UNL     1      -1.706  -9.237   7.268  1.00  0.00     0.041 A 
ATOM     71  F   UNL     1      -3.515  -8.806   8.657  1.00  0.00    -0.206 F 
ATOM     72  C   UNL     1      -0.410  -8.980   6.849  1.00  0.00     0.022 A 
BRANCH  69  73
ATOM     73  S   UNL     1       1.996  -7.593   6.970  1.00  0.00     0.124 S 
ATOM     74  O   UNL     1       1.960  -6.247   6.406  1.00  0.00    -0.237 OA
ATOM     75  O   UNL     1       2.652  -7.735   8.265  1.00  0.00    -0.237 OA
ATOM     76  O   UNL     1       2.296  -8.654   6.009  1.00  0.00    -0.744 OA
ENDBRANCH  69  73
ENDBRANCH  52  66
BRANCH  53  77
ATOM     77  C   UNL     1      -6.330   0.464  12.378  1.00  0.00     0.023 A 
ATOM     78  C   UNL     1      -6.915   1.590  11.763  1.00  0.00     0.031 A 
ATOM     79  C   UNL     1      -7.169  -0.418  13.071  1.00  0.00     0.131 A 
ATOM     80  C   UNL     1      -8.307   1.729  11.720  1.00  0.00     0.055 A 
ATOM     81  C   UNL     1      -8.559  -0.243  13.077  1.00  0.00     0.041 A 
ATOM     82  F   UNL     1      -6.674  -1.525  13.644  1.00  0.00    -0.206 F 
ATOM     83  C   UNL     1      -9.137   0.810  12.365  1.00  0.00     0.022 A 
BRANCH  80  84
ATOM     84  S   UNL     1      -9.028   2.961  10.595  1.00  0.00     0.124 S 
ATOM     85  O   UNL     1      -9.193   4.114  11.472  1.00  0.00    -0.237 OA
ATOM     86  O   UNL     1      -8.006   3.091   9.558  1.00  0.00    -0.237 OA
ATOM     87  O   UNL     1     -10.262   2.322  10.145  1.00  0.00    -0.744 OA
ENDBRANCH  80  84
ENDBRANCH  53  77
BRANCH  65  88
ATOM     88  C   UNL     1      -0.830  -3.846  14.400  1.00  0.00     0.023 A 
ATOM     89  C   UNL     1      -1.024  -3.590  15.766  1.00  0.00     0.031 A 
ATOM     90  C   UNL     1       0.126  -4.853  14.107  1.00  0.00     0.131 A 
ATOM     91  C   UNL     1      -0.249  -4.231  16.754  1.00  0.00     0.055 A 
ATOM     92  C   UNL     1       0.846  -5.540  15.091  1.00  0.00     0.041 A 
ATOM     93  F   UNL     1       0.398  -5.226  12.848  1.00  0.00    -0.206 F 
ATOM     94  C   UNL     1       0.674  -5.218  16.427  1.00  0.00     0.022 A 
BRANCH  91  95
ATOM     95  S   UNL     1      -0.441  -3.701  18.477  1.00  0.00     0.124 S 
ATOM     96  O   UNL     1      -0.025  -2.303  18.410  1.00  0.00    -0.237 OA
ATOM     97  O   UNL     1      -1.863  -3.927  18.717  1.00  0.00    -0.237 OA
ATOM     98  O   UNL     1       0.461  -4.583  19.214  1.00  0.00    -0.744 OA
ENDBRANCH  91  95
ENDBRANCH  65  88
ENDBRANCH  39  40
ENDBRANCH  31  34
ENDBRANCH  29  30
ENDBRANCH  28  29
ENDBRANCH  27  28
ENDBRANCH   1  27
TORSDOF 19
