REMARK SMILES CCCNC(=O)N1[C@@H](C(=O)NCCCCCCNC(=O)c2ccc(-c3c4nc(c(-c5cc(S(=O)(=O)[O-])ccc5F)c5ccc([nH]5)c(-c5cc(S(=O)(=O)[O-])ccc5F)c5nc(c(-c6cc(S(=O)(=O)[O-])ccc6F)c6ccc3[nH]6)C=C5)C=C4)cc2)CC[C@H]2CCCC[C@@H]21
REMARK SMILES IDX 14 1 13 2 12 3 11 4 9 5 10 6 8 8 7 9 91 10 84 11 86 12 90 13
REMARK SMILES IDX 85 14 87 15 89 16 88 17 5 18 4 19 6 21 3 22 2 23 1 24 15 25
REMARK SMILES IDX 16 26 17 27 18 28 19 29 20 31 21 32 22 33 83 34 23 35 82 36
REMARK SMILES IDX 24 37 25 38 26 39 76 40 27 41 81 42 75 43 77 44 28 45 80 46
REMARK SMILES IDX 74 47 73 48 29 50 61 51 41 52 60 53 42 54 45 55 59 56 78 57
REMARK SMILES IDX 43 58 44 59 58 61 79 62 46 63 30 64 31 65 39 66 32 67 38 68
REMARK SMILES IDX 40 69 37 70 33 71 34 72 35 73 36 74 62 75 63 76 71 77 64 78
REMARK SMILES IDX 70 79 72 80 69 81 65 82 66 83 67 84 68 85 47 86 48 87 56 88
REMARK SMILES IDX 49 89 55 90 57 91 54 92 50 93 51 94 52 95 53 96
REMARK H PARENT 11 7 4 20 18 30 77 49 45 60
REMARK Flexibility Score: inf
ROOT
ATOM      1  C   UNL     1      -6.522   3.350   6.517  1.00  0.00     0.002 C 
ENDROOT
BRANCH   1   2
ATOM      2  C   UNL     1      -5.184   2.885   7.097  1.00  0.00     0.021 C 
BRANCH   2   3
ATOM      3  C   UNL     1      -4.483   1.787   6.305  1.00  0.00     0.116 C 
BRANCH   3   4
ATOM      4  N   UNL     1      -4.103   2.199   4.964  1.00  0.00    -0.354 N 
ATOM      5  C   UNL     1      -2.967   1.875   4.256  1.00  0.00     0.242 C 
ATOM      6  O   UNL     1      -2.978   2.058   3.039  1.00  0.00    -0.273 OA
ATOM      7  H   UNL     1      -4.743   2.786   4.500  1.00  0.00     0.163 HD
BRANCH   5   8
ATOM      8  C   UNL     1      -1.815   1.168   5.019  1.00  0.00     0.176 C 
ATOM      9  N   UNL     1      -0.434   1.234   4.526  1.00  0.00    -0.310 N 
ATOM     10  C   UNL     1       0.589   0.588   5.361  1.00  0.00     0.091 C 
ATOM     11  C   UNL     1      -2.204  -0.333   5.068  1.00  0.00     0.036 C 
ATOM     12  C   UNL     1      -0.027  -0.443   6.328  1.00  0.00     0.012 C 
ATOM     13  C   UNL     1       1.458   1.558   6.174  1.00  0.00     0.025 C 
ATOM     14  C   UNL     1      -1.095  -1.252   5.601  1.00  0.00     0.008 C 
ATOM     15  C   UNL     1       1.089  -1.297   6.928  1.00  0.00     0.006 C 
ATOM     16  C   UNL     1       2.591   0.774   6.849  1.00  0.00     0.002 C 
ATOM     17  C   UNL     1       2.087  -0.411   7.680  1.00  0.00     0.000 C 
BRANCH   9  18
ATOM     18  C   UNL     1      -0.086   2.071   3.501  1.00  0.00     0.318 C 
ATOM     19  N   UNL     1       0.634   1.527   2.477  1.00  0.00    -0.338 N 
ATOM     20  H   UNL     1       1.002   2.169   1.828  1.00  0.00     0.165 HD
ATOM     21  O   UNL     1      -0.392   3.260   3.471  1.00  0.00    -0.249 OA
BRANCH  19  22
ATOM     22  C   UNL     1       0.931   0.128   2.211  1.00  0.00     0.117 C 
BRANCH  22  23
ATOM     23  C   UNL     1       0.406  -0.381   0.874  1.00  0.00     0.018 C 
ATOM     24  C   UNL     1       1.091   0.248  -0.324  1.00  0.00     0.006 C 
ENDBRANCH  22  23
ENDBRANCH  19  22
ENDBRANCH   9  18
ENDBRANCH   5   8
ENDBRANCH   3   4
ENDBRANCH   2   3
ENDBRANCH   1   2
BRANCH   1  25
ATOM     25  C   UNL     1      -7.563   2.250   6.288  1.00  0.00     0.002 C 
BRANCH  25  26
ATOM     26  C   UNL     1      -7.905   1.395   7.512  1.00  0.00     0.021 C 
BRANCH  26  27
ATOM     27  C   UNL     1      -8.358   2.172   8.745  1.00  0.00     0.116 C 
BRANCH  27  28
ATOM     28  N   UNL     1      -9.555   2.960   8.498  1.00  0.00    -0.352 N 
ATOM     29  C   UNL     1     -10.750   2.971   9.176  1.00  0.00     0.251 C 
ATOM     30  H   UNL     1      -9.501   3.576   7.732  1.00  0.00     0.163 HD
ATOM     31  O   UNL     1     -11.709   3.581   8.709  1.00  0.00    -0.269 OA
BRANCH  29  32
ATOM     32  C   UNL     1     -10.889   2.221  10.443  1.00  0.00     0.039 A 
ATOM     33  C   UNL     1     -12.010   1.408  10.625  1.00  0.00     0.014 A 
ATOM     34  C   UNL     1      -9.911   2.302  11.440  1.00  0.00     0.014 A 
ATOM     35  C   UNL     1     -12.107   0.608  11.766  1.00  0.00     0.010 A 
ATOM     36  C   UNL     1      -9.977   1.454  12.544  1.00  0.00     0.010 A 
ATOM     37  C   UNL     1     -11.066   0.584  12.708  1.00  0.00    -0.014 A 
BRANCH  37  38
ATOM     38  C   UNL     1     -11.073  -0.386  13.835  1.00  0.00     0.031 A 
ATOM     39  C   UNL     1     -11.129   0.093  15.258  1.00  0.00     0.074 A 
ATOM     40  C   UNL     1     -10.959  -1.703  13.568  1.00  0.00     0.049 A 
ATOM     41  N   UNL     1     -11.067  -0.600  16.366  1.00  0.00    -0.248 NA
ATOM     42  C   UNL     1     -11.248   1.544  15.462  1.00  0.00     0.031 C 
ATOM     43  C   UNL     1     -10.863  -2.286  12.227  1.00  0.00     0.029 A 
ATOM     44  N   UNL     1     -10.892  -2.791  14.404  1.00  0.00    -0.354 N 
ATOM     45  C   UNL     1     -11.136   0.327  17.400  1.00  0.00     0.074 A 
ATOM     46  C   UNL     1     -11.187   1.636  16.783  1.00  0.00     0.031 C 
ATOM     47  C   UNL     1     -10.775  -3.621  12.332  1.00  0.00     0.029 A 
ATOM     48  C   UNL     1     -10.748  -3.989  13.743  1.00  0.00     0.049 A 
ATOM     49  H   UNL     1     -10.943  -2.719  15.385  1.00  0.00     0.167 HD
ATOM     50  C   UNL     1     -11.172   0.103  18.738  1.00  0.00     0.034 A 
ATOM     51  C   UNL     1     -10.587  -5.241  14.216  1.00  0.00     0.034 A 
ATOM     52  C   UNL     1     -11.119  -1.210  19.334  1.00  0.00     0.049 A 
ATOM     53  C   UNL     1     -10.564  -5.456  15.708  1.00  0.00     0.074 A 
ATOM     54  C   UNL     1     -11.213  -1.553  20.672  1.00  0.00     0.029 A 
ATOM     55  N   UNL     1     -10.937  -2.398  18.636  1.00  0.00    -0.354 N 
ATOM     56  N   UNL     1     -10.695  -4.572  16.671  1.00  0.00    -0.248 NA
ATOM     57  C   UNL     1     -10.371  -6.834  16.177  1.00  0.00     0.031 C 
ATOM     58  C   UNL     1     -11.004  -2.931  20.790  1.00  0.00     0.029 A 
ATOM     59  C   UNL     1     -10.863  -3.465  19.519  1.00  0.00     0.049 A 
ATOM     60  H   UNL     1     -10.871  -2.471  17.656  1.00  0.00     0.167 HD
ATOM     61  C   UNL     1     -10.617  -5.293  17.860  1.00  0.00     0.074 A 
ATOM     62  C   UNL     1     -10.455  -6.685  17.491  1.00  0.00     0.031 C 
ATOM     63  C   UNL     1     -10.673  -4.846  19.140  1.00  0.00     0.034 A 
BRANCH  50  64
ATOM     64  C   UNL     1     -11.245   1.308  19.646  1.00  0.00     0.023 A 
ATOM     65  C   UNL     1     -12.342   2.187  19.623  1.00  0.00     0.031 A 
ATOM     66  C   UNL     1     -10.199   1.588  20.544  1.00  0.00     0.131 A 
ATOM     67  C   UNL     1     -12.336   3.337  20.426  1.00  0.00     0.055 A 
ATOM     68  C   UNL     1     -10.237   2.690  21.400  1.00  0.00     0.041 A 
ATOM     69  F   UNL     1      -9.115   0.798  20.598  1.00  0.00    -0.206 F 
ATOM     70  C   UNL     1     -11.303   3.581  21.334  1.00  0.00     0.022 A 
BRANCH  67  71
ATOM     71  S   UNL     1     -13.628   4.583  20.162  1.00  0.00     0.124 S 
ATOM     72  O   UNL     1     -13.445   4.903  18.748  1.00  0.00    -0.237 OA
ATOM     73  O   UNL     1     -14.844   3.852  20.500  1.00  0.00    -0.237 OA
ATOM     74  O   UNL     1     -13.264   5.654  21.087  1.00  0.00    -0.744 OA
ENDBRANCH  67  71
ENDBRANCH  50  64
BRANCH  51  75
ATOM     75  C   UNL     1     -10.400  -6.387  13.279  1.00  0.00     0.023 A 
ATOM     76  C   UNL     1     -11.326  -7.440  13.230  1.00  0.00     0.031 A 
ATOM     77  C   UNL     1      -9.267  -6.467  12.449  1.00  0.00     0.131 A 
ATOM     78  C   UNL     1     -11.081  -8.550  12.406  1.00  0.00     0.055 A 
ATOM     79  C   UNL     1      -9.058  -7.545  11.586  1.00  0.00     0.041 A 
ATOM     80  F   UNL     1      -8.348  -5.489  12.456  1.00  0.00    -0.206 F 
ATOM     81  C   UNL     1      -9.962  -8.601  11.572  1.00  0.00     0.022 A 
BRANCH  78  82
ATOM     82  S   UNL     1     -12.200  -9.973  12.511  1.00  0.00     0.124 S 
ATOM     83  O   UNL     1     -12.101 -10.323  13.924  1.00  0.00    -0.237 OA
ATOM     84  O   UNL     1     -13.468  -9.394  12.080  1.00  0.00    -0.237 OA
ATOM     85  O   UNL     1     -11.610 -10.938  11.585  1.00  0.00    -0.744 OA
ENDBRANCH  78  82
ENDBRANCH  51  75
BRANCH  63  86
ATOM     86  C   UNL     1     -10.569  -5.881  20.233  1.00  0.00     0.023 A 
ATOM     87  C   UNL     1      -9.384  -6.608  20.446  1.00  0.00     0.031 A 
ATOM     88  C   UNL     1     -11.667  -6.149  21.069  1.00  0.00     0.131 A 
ATOM     89  C   UNL     1      -9.340  -7.601  21.436  1.00  0.00     0.055 A 
ATOM     90  C   UNL     1     -11.597  -7.093  22.095  1.00  0.00     0.041 A 
ATOM     91  F   UNL     1     -12.826  -5.489  20.908  1.00  0.00    -0.206 F 
ATOM     92  C   UNL     1     -10.433  -7.834  22.275  1.00  0.00     0.022 A 
BRANCH  89  93
ATOM     93  S   UNL     1      -7.862  -8.643  21.558  1.00  0.00     0.124 S 
ATOM     94  O   UNL     1      -7.824  -9.270  20.240  1.00  0.00    -0.237 OA
ATOM     95  O   UNL     1      -6.811  -7.668  21.829  1.00  0.00    -0.237 OA
ATOM     96  O   UNL     1      -8.169  -9.546  22.665  1.00  0.00    -0.744 OA
ENDBRANCH  89  93
ENDBRANCH  63  86
ENDBRANCH  37  38
ENDBRANCH  29  32
ENDBRANCH  27  28
ENDBRANCH  26  27
ENDBRANCH  25  26
ENDBRANCH   1  25
TORSDOF 19
