REMARK SMILES Cc1ccc([C@H]2CC(c3cccs3)=NN2C(=O)CCC(=O)NCCCCCCNC(=O)c2ccc(-c3c4nc(c(-c5cc(S(=O)(=O)[O-])ccc5F)c5ccc([nH]5)c(-c5cc(S(=O)(=O)[O-])ccc5F)c5nc(c(-c6cc(S(=O)(=O)[O-])ccc6F)c6ccc3[nH]6)C=C5)C=C4)cc2)o1
REMARK SMILES IDX 25 1 24 2 23 3 22 4 20 5 21 6 19 8 18 9 16 10 17 11 15 12
REMARK SMILES IDX 6 13 7 14 8 15 14 16 5 17 1 18 2 19 3 20 95 21 4 22 9 23
REMARK SMILES IDX 10 24 13 25 11 26 12 27 26 28 27 29 28 30 29 31 30 32 31 34
REMARK SMILES IDX 32 35 33 36 94 37 34 38 93 39 35 40 36 41 37 42 87 43 38 44
REMARK SMILES IDX 92 45 86 46 88 47 39 48 91 49 85 50 84 51 40 53 72 54 52 55
REMARK SMILES IDX 71 56 53 57 56 58 70 59 89 60 54 61 55 62 69 64 90 65 57 66
REMARK SMILES IDX 41 67 42 68 50 69 43 70 49 71 51 72 48 73 44 74 45 75 46 76
REMARK SMILES IDX 47 77 73 78 74 79 82 80 75 81 81 82 83 83 80 84 76 85 77 86
REMARK SMILES IDX 78 87 79 88 58 89 59 90 67 91 60 92 66 93 68 94 65 95 61 96
REMARK SMILES IDX 62 97 63 98 64 99
REMARK H PARENT 22 7 29 33 88 52 56 63
REMARK Flexibility Score: inf
ROOT
ATOM      1  C   UNL     1      -5.952   1.706   0.918  1.00  0.00     0.002 C 
ENDROOT
BRANCH   1   2
ATOM      2  C   UNL     1      -5.481   1.587   2.372  1.00  0.00     0.021 C 
BRANCH   2   3
ATOM      3  C   UNL     1      -4.793   0.309   2.849  1.00  0.00     0.116 C 
BRANCH   3   4
ATOM      4  N   UNL     1      -3.673  -0.191   2.073  1.00  0.00    -0.356 N 
ATOM      5  C   UNL     1      -2.339   0.004   2.230  1.00  0.00     0.220 C 
ATOM      6  O   UNL     1      -1.562  -0.810   1.728  1.00  0.00    -0.275 OA
ATOM      7  H   UNL     1      -3.921  -0.763   1.311  1.00  0.00     0.163 HD
BRANCH   5   8
ATOM      8  C   UNL     1      -1.821   1.222   2.955  1.00  0.00     0.110 C 
BRANCH   8   9
ATOM      9  C   UNL     1      -1.108   2.154   1.969  1.00  0.00     0.112 C 
BRANCH   9  10
ATOM     10  C   UNL     1      -2.110   2.644   0.948  1.00  0.00     0.243 C 
ATOM     11  O   UNL     1      -2.945   3.490   1.274  1.00  0.00    -0.273 OA
BRANCH  10  12
ATOM     12  N   UNL     1      -2.102   2.002  -0.279  1.00  0.00    -0.222 N 
ATOM     13  C   UNL     1      -0.987   1.989  -1.224  1.00  0.00     0.183 C 
ATOM     14  C   UNL     1      -1.675   2.077  -2.586  1.00  0.00     0.095 C 
ATOM     15  C   UNL     1      -3.080   1.765  -2.178  1.00  0.00     0.081 C 
ATOM     16  N   UNL     1      -3.299   1.779  -0.904  1.00  0.00    -0.173 NA
BRANCH  13  17
ATOM     17  C   UNL     1      -0.189   0.742  -1.069  1.00  0.00     0.129 A 
ATOM     18  C   UNL     1       3.067  -0.373  -0.130  1.00  0.00     0.087 C 
ATOM     19  C   UNL     1       1.660  -0.327  -0.568  1.00  0.00     0.101 A 
ATOM     20  C   UNL     1       0.711  -1.294  -0.814  1.00  0.00     0.045 A 
ATOM     21  O   UNL     1       1.127   0.912  -0.748  1.00  0.00    -0.464 OA
ATOM     22  C   UNL     1      -0.481  -0.605  -1.144  1.00  0.00     0.048 A 
ENDBRANCH  13  17
BRANCH  15  23
ATOM     23  C   UNL     1      -4.155   1.560  -3.103  1.00  0.00     0.050 A 
ATOM     24  C   UNL     1      -4.803   0.386  -3.427  1.00  0.00     0.022 A 
ATOM     25  S   UNL     1      -4.893   2.921  -3.825  1.00  0.00    -0.142 S 
ATOM     26  C   UNL     1      -5.946   0.618  -4.248  1.00  0.00     0.012 A 
ATOM     27  C   UNL     1      -6.129   1.958  -4.511  1.00  0.00     0.065 A 
ENDBRANCH  15  23
ENDBRANCH  10  12
ENDBRANCH   9  10
ENDBRANCH   8   9
ENDBRANCH   5   8
ENDBRANCH   3   4
ENDBRANCH   2   3
ENDBRANCH   1   2
BRANCH   1  28
ATOM     28  C   UNL     1      -6.273   0.428   0.143  1.00  0.00     0.002 C 
BRANCH  28  29
ATOM     29  C   UNL     1      -7.685  -0.114   0.342  1.00  0.00     0.021 C 
BRANCH  29  30
ATOM     30  C   UNL     1      -8.767   0.767  -0.269  1.00  0.00     0.116 C 
BRANCH  30  31
ATOM     31  N   UNL     1      -8.659   0.933  -1.718  1.00  0.00    -0.352 N 
ATOM     32  C   UNL     1      -9.626   1.437  -2.559  1.00  0.00     0.251 C 
ATOM     33  H   UNL     1      -7.810   0.657  -2.133  1.00  0.00     0.163 HD
ATOM     34  O   UNL     1      -9.478   1.470  -3.775  1.00  0.00    -0.269 OA
BRANCH  32  35
ATOM     35  C   UNL     1     -10.880   1.887  -1.926  1.00  0.00     0.039 A 
ATOM     36  C   UNL     1     -12.047   1.155  -2.146  1.00  0.00     0.014 A 
ATOM     37  C   UNL     1     -10.820   2.879  -0.945  1.00  0.00     0.014 A 
ATOM     38  C   UNL     1     -13.136   1.349  -1.297  1.00  0.00     0.010 A 
ATOM     39  C   UNL     1     -11.872   3.006  -0.050  1.00  0.00     0.010 A 
ATOM     40  C   UNL     1     -13.030   2.228  -0.205  1.00  0.00    -0.014 A 
BRANCH  40  41
ATOM     41  C   UNL     1     -14.113   2.332   0.804  1.00  0.00     0.031 A 
ATOM     42  C   UNL     1     -14.832   3.638   0.982  1.00  0.00     0.074 A 
ATOM     43  C   UNL     1     -14.380   1.280   1.605  1.00  0.00     0.049 A 
ATOM     44  N   UNL     1     -15.745   3.969   1.857  1.00  0.00    -0.248 NA
ATOM     45  C   UNL     1     -14.438   4.729   0.079  1.00  0.00     0.031 C 
ATOM     46  C   UNL     1     -13.689  -0.012   1.564  1.00  0.00     0.029 A 
ATOM     47  N   UNL     1     -15.296   1.130   2.615  1.00  0.00    -0.354 N 
ATOM     48  C   UNL     1     -16.026   5.309   1.616  1.00  0.00     0.074 A 
ATOM     49  C   UNL     1     -15.128   5.746   0.569  1.00  0.00     0.031 C 
ATOM     50  C   UNL     1     -14.224  -0.829   2.487  1.00  0.00     0.029 A 
ATOM     51  C   UNL     1     -15.270  -0.112   3.208  1.00  0.00     0.049 A 
ATOM     52  H   UNL     1     -15.914   1.844   2.891  1.00  0.00     0.167 HD
ATOM     53  C   UNL     1     -16.971   6.093   2.192  1.00  0.00     0.034 A 
ATOM     54  C   UNL     1     -16.008  -0.611   4.220  1.00  0.00     0.034 A 
ATOM     55  C   UNL     1     -17.858   5.630   3.230  1.00  0.00     0.049 A 
ATOM     56  C   UNL     1     -17.065   0.272   4.835  1.00  0.00     0.074 A 
ATOM     57  C   UNL     1     -18.867   6.318   3.879  1.00  0.00     0.029 A 
ATOM     58  N   UNL     1     -17.837   4.350   3.772  1.00  0.00    -0.354 N 
ATOM     59  N   UNL     1     -17.356   1.524   4.560  1.00  0.00    -0.248 NA
ATOM     60  C   UNL     1     -17.905  -0.327   5.879  1.00  0.00     0.031 C 
ATOM     61  C   UNL     1     -19.427   5.468   4.841  1.00  0.00     0.029 A 
ATOM     62  C   UNL     1     -18.809   4.231   4.751  1.00  0.00     0.049 A 
ATOM     63  H   UNL     1     -17.221   3.632   3.498  1.00  0.00     0.167 HD
ATOM     64  C   UNL     1     -18.432   1.852   5.379  1.00  0.00     0.074 A 
ATOM     65  C   UNL     1     -18.748   0.661   6.141  1.00  0.00     0.031 C 
ATOM     66  C   UNL     1     -19.100   3.028   5.495  1.00  0.00     0.034 A 
BRANCH  53  67
ATOM     67  C   UNL     1     -17.065   7.519   1.706  1.00  0.00     0.023 A 
ATOM     68  C   UNL     1     -17.375   7.814   0.365  1.00  0.00     0.031 A 
ATOM     69  C   UNL     1     -16.777   8.594   2.564  1.00  0.00     0.131 A 
ATOM     70  C   UNL     1     -17.293   9.135  -0.100  1.00  0.00     0.055 A 
ATOM     71  C   UNL     1     -16.785   9.917   2.114  1.00  0.00     0.041 A 
ATOM     72  F   UNL     1     -16.454   8.376   3.849  1.00  0.00    -0.206 F 
ATOM     73  C   UNL     1     -17.025  10.192   0.770  1.00  0.00     0.022 A 
BRANCH  70  74
ATOM     74  S   UNL     1     -17.384   9.427  -1.888  1.00  0.00     0.124 S 
ATOM     75  O   UNL     1     -16.224   8.678  -2.367  1.00  0.00    -0.237 OA
ATOM     76  O   UNL     1     -18.688   8.873  -2.234  1.00  0.00    -0.237 OA
ATOM     77  O   UNL     1     -17.271  10.879  -2.005  1.00  0.00    -0.744 OA
ENDBRANCH  70  74
ENDBRANCH  53  67
BRANCH  54  78
ATOM     78  C   UNL     1     -15.789  -2.002   4.713  1.00  0.00     0.023 A 
ATOM     79  C   UNL     1     -16.787  -2.983   4.584  1.00  0.00     0.031 A 
ATOM     80  C   UNL     1     -14.593  -2.364   5.359  1.00  0.00     0.131 A 
ATOM     81  C   UNL     1     -16.593  -4.259   5.137  1.00  0.00     0.055 A 
ATOM     82  C   UNL     1     -14.386  -3.650   5.863  1.00  0.00     0.041 A 
ATOM     83  F   UNL     1     -13.601  -1.471   5.501  1.00  0.00    -0.206 F 
ATOM     84  C   UNL     1     -15.395  -4.602   5.767  1.00  0.00     0.022 A 
BRANCH  81  85
ATOM     85  S   UNL     1     -17.970  -5.441   5.101  1.00  0.00     0.124 S 
ATOM     86  O   UNL     1     -19.032  -4.683   5.752  1.00  0.00    -0.237 OA
ATOM     87  O   UNL     1     -18.131  -5.671   3.669  1.00  0.00    -0.237 OA
ATOM     88  O   UNL     1     -17.460  -6.580   5.860  1.00  0.00    -0.744 OA
ENDBRANCH  81  85
ENDBRANCH  54  78
BRANCH  66  89
ATOM     89  C   UNL     1     -20.263   3.054   6.452  1.00  0.00     0.023 A 
ATOM     90  C   UNL     1     -20.076   2.959   7.842  1.00  0.00     0.031 A 
ATOM     91  C   UNL     1     -21.576   3.163   5.962  1.00  0.00     0.131 A 
ATOM     92  C   UNL     1     -21.190   2.920   8.693  1.00  0.00     0.055 A 
ATOM     93  C   UNL     1     -22.677   3.180   6.818  1.00  0.00     0.041 A 
ATOM     94  F   UNL     1     -21.807   3.256   4.643  1.00  0.00    -0.206 F 
ATOM     95  C   UNL     1     -22.488   3.045   8.191  1.00  0.00     0.022 A 
BRANCH  92  96
ATOM     96  S   UNL     1     -20.922   2.620  10.460  1.00  0.00     0.124 S 
ATOM     97  O   UNL     1     -20.251   1.324  10.450  1.00  0.00    -0.237 OA
ATOM     98  O   UNL     1     -20.099   3.760  10.850  1.00  0.00    -0.237 OA
ATOM     99  O   UNL     1     -22.274   2.614  11.016  1.00  0.00    -0.744 OA
ENDBRANCH  92  96
ENDBRANCH  66  89
ENDBRANCH  40  41
ENDBRANCH  32  35
ENDBRANCH  30  31
ENDBRANCH  29  30
ENDBRANCH  28  29
ENDBRANCH   1  28
TORSDOF 21
