REMARK SMILES CCCc1cc2c(cc1Cl)C=C(C(=O)NCCCCCCNC(=O)c1ccc(-c3c4nc(c(-c5cc(S(=O)(=O)[O-])ccc5F)c5ccc([nH]5)c(-c5cc(S(=O)(=O)[O-])ccc5F)c5nc(c(-c6cc(S(=O)(=O)[O-])ccc6F)c6ccc3[nH]6)C=C5)C=C4)cc1)[C@H](C(F)(F)F)O2
REMARK SMILES IDX 19 1 18 2 17 3 16 4 15 5 13 6 14 7 12 9 4 10 5 11 9 12 6 13
REMARK SMILES IDX 8 14 10 15 7 16 93 17 11 18 88 19 3 20 2 21 1 22 89 23 90 24
REMARK SMILES IDX 91 25 92 26 20 27 21 28 22 29 23 30 24 32 25 33 26 34 87 35
REMARK SMILES IDX 27 36 86 37 28 38 29 39 30 40 80 41 31 42 85 43 79 44 81 45
REMARK SMILES IDX 32 46 84 47 78 48 77 49 33 51 65 52 45 53 64 54 46 55 49 56
REMARK SMILES IDX 63 57 82 58 47 59 48 60 62 62 83 63 50 64 34 65 35 66 43 67
REMARK SMILES IDX 36 68 42 69 44 70 41 71 37 72 38 73 39 74 40 75 66 76 67 77
REMARK SMILES IDX 75 78 68 79 74 80 76 81 73 82 69 83 70 84 71 85 72 86 51 87
REMARK SMILES IDX 52 88 60 89 53 90 59 91 61 92 58 93 54 94 55 95 56 96 57 97
REMARK H PARENT 15 8 22 31 81 50 49 61
REMARK Flexibility Score: inf
ROOT
ATOM      1  C   UNL     1      -3.393  -4.708  11.799  1.00  0.00     0.002 C 
ENDROOT
BRANCH   1   2
ATOM      2  C   UNL     1      -2.004  -4.128  11.506  1.00  0.00     0.002 C 
BRANCH   2   3
ATOM      3  C   UNL     1      -1.517  -4.281  10.062  1.00  0.00     0.021 C 
BRANCH   3   4
ATOM      4  C   UNL     1      -2.438  -3.654   9.018  1.00  0.00     0.116 C 
BRANCH   4   5
ATOM      5  N   UNL     1      -2.207  -2.228   8.887  1.00  0.00    -0.352 N 
ATOM      6  C   UNL     1      -1.694  -1.386   7.962  1.00  0.00     0.251 C 
ATOM      7  O   UNL     1      -1.666  -0.197   8.302  1.00  0.00    -0.270 OA
ATOM      8  H   UNL     1      -2.504  -1.741   9.689  1.00  0.00     0.163 HD
BRANCH   6   9
ATOM      9  C   UNL     1      -1.186  -1.776   6.613  1.00  0.00     0.067 C 
ATOM     10  C   UNL     1       0.833  -1.679   1.981  1.00  0.00    -0.026 A 
ATOM     11  C   UNL     1       0.011  -2.586   2.676  1.00  0.00     0.052 A 
ATOM     12  C   UNL     1       1.176  -0.474   2.617  1.00  0.00     0.045 A 
ATOM     13  C   UNL     1      -0.434  -2.296   3.966  1.00  0.00     0.128 A 
ATOM     14  C   UNL     1       0.663  -0.159   3.881  1.00  0.00     0.032 A 
ATOM     15  Cl  UNL     1       2.278   0.662   1.922  1.00  0.00    -0.084 Cl
ATOM     16  C   UNL     1      -0.142  -1.072   4.559  1.00  0.00     0.019 A 
ATOM     17  O   UNL     1      -1.175  -3.252   4.603  1.00  0.00    -0.475 OA
ATOM     18  C   UNL     1      -0.692  -0.767   5.872  1.00  0.00     0.025 C 
ATOM     19  C   UNL     1      -1.163  -3.177   6.061  1.00  0.00     0.314 C 
BRANCH  10  20
ATOM     20  C   UNL     1       1.312  -2.063   0.599  1.00  0.00     0.037 C 
BRANCH  20  21
ATOM     21  C   UNL     1       0.403  -1.592  -0.544  1.00  0.00     0.001 C 
ATOM     22  C   UNL     1       0.526  -0.110  -0.867  1.00  0.00     0.004 C 
ENDBRANCH  20  21
ENDBRANCH  10  20
BRANCH  19  23
ATOM     23  C   UNL     1      -0.005  -4.020   6.639  1.00  0.00     0.429 C 
ATOM     24  F   UNL     1       0.486  -3.503   7.791  1.00  0.00    -0.167 F 
ATOM     25  F   UNL     1      -0.424  -5.276   6.928  1.00  0.00    -0.167 F 
ATOM     26  F   UNL     1       1.042  -4.131   5.789  1.00  0.00    -0.167 F 
ENDBRANCH  19  23
ENDBRANCH   6   9
ENDBRANCH   4   5
ENDBRANCH   3   4
ENDBRANCH   2   3
ENDBRANCH   1   2
BRANCH   1  27
ATOM     27  C   UNL     1      -3.628  -6.135  11.299  1.00  0.00     0.021 C 
BRANCH  27  28
ATOM     28  C   UNL     1      -2.639  -7.166  11.830  1.00  0.00     0.116 C 
BRANCH  28  29
ATOM     29  N   UNL     1      -2.738  -7.330  13.271  1.00  0.00    -0.352 N 
ATOM     30  C   UNL     1      -3.010  -8.466  13.996  1.00  0.00     0.251 C 
ATOM     31  H   UNL     1      -2.590  -6.514  13.802  1.00  0.00     0.163 HD
ATOM     32  O   UNL     1      -3.250  -8.386  15.197  1.00  0.00    -0.269 OA
BRANCH  30  33
ATOM     33  C   UNL     1      -3.042  -9.773  13.307  1.00  0.00     0.039 A 
ATOM     34  C   UNL     1      -2.025 -10.125  12.415  1.00  0.00     0.014 A 
ATOM     35  C   UNL     1      -4.118 -10.635  13.526  1.00  0.00     0.014 A 
ATOM     36  C   UNL     1      -2.168 -11.258  11.622  1.00  0.00     0.010 A 
ATOM     37  C   UNL     1      -4.216 -11.817  12.787  1.00  0.00     0.010 A 
ATOM     38  C   UNL     1      -3.268 -12.114  11.795  1.00  0.00    -0.014 A 
BRANCH  38  39
ATOM     39  C   UNL     1      -3.412 -13.315  10.931  1.00  0.00     0.031 A 
ATOM     40  C   UNL     1      -4.573 -13.441   9.982  1.00  0.00     0.074 A 
ATOM     41  C   UNL     1      -2.472 -14.280  10.984  1.00  0.00     0.049 A 
ATOM     42  N   UNL     1      -4.872 -14.426   9.176  1.00  0.00    -0.248 NA
ATOM     43  C   UNL     1      -5.522 -12.317   9.930  1.00  0.00     0.031 C 
ATOM     44  C   UNL     1      -1.294 -14.249  11.851  1.00  0.00     0.029 A 
ATOM     45  N   UNL     1      -2.346 -15.460  10.294  1.00  0.00    -0.354 N 
ATOM     46  C   UNL     1      -6.049 -14.053   8.536  1.00  0.00     0.074 A 
ATOM     47  C   UNL     1      -6.429 -12.764   9.071  1.00  0.00     0.031 C 
ATOM     48  C   UNL     1      -0.544 -15.333  11.611  1.00  0.00     0.029 A 
ATOM     49  C   UNL     1      -1.225 -16.180  10.635  1.00  0.00     0.049 A 
ATOM     50  H   UNL     1      -2.997 -15.762   9.619  1.00  0.00     0.167 HD
ATOM     51  C   UNL     1      -6.737 -14.720   7.579  1.00  0.00     0.034 A 
ATOM     52  C   UNL     1      -0.800 -17.395  10.231  1.00  0.00     0.034 A 
ATOM     53  C   UNL     1      -6.328 -15.993   7.041  1.00  0.00     0.049 A 
ATOM     54  C   UNL     1      -1.617 -18.143   9.210  1.00  0.00     0.074 A 
ATOM     55  C   UNL     1      -6.940 -16.733   6.045  1.00  0.00     0.029 A 
ATOM     56  N   UNL     1      -5.213 -16.713   7.445  1.00  0.00    -0.354 N 
ATOM     57  N   UNL     1      -2.706 -17.759   8.586  1.00  0.00    -0.248 NA
ATOM     58  C   UNL     1      -1.159 -19.489   8.840  1.00  0.00     0.031 C 
ATOM     59  C   UNL     1      -6.236 -17.927   5.895  1.00  0.00     0.029 A 
ATOM     60  C   UNL     1      -5.139 -17.904   6.742  1.00  0.00     0.049 A 
ATOM     61  H   UNL     1      -4.569 -16.420   8.130  1.00  0.00     0.167 HD
ATOM     62  C   UNL     1      -3.055 -18.807   7.740  1.00  0.00     0.074 A 
ATOM     63  C   UNL     1      -2.044 -19.831   7.911  1.00  0.00     0.031 C 
ATOM     64  C   UNL     1      -4.119 -18.913   6.907  1.00  0.00     0.034 A 
BRANCH  51  65
ATOM     65  C   UNL     1      -7.998 -14.105   7.022  1.00  0.00     0.023 A 
ATOM     66  C   UNL     1      -9.232 -14.765   7.180  1.00  0.00     0.031 A 
ATOM     67  C   UNL     1      -7.960 -12.954   6.215  1.00  0.00     0.131 A 
ATOM     68  C   UNL     1     -10.367 -14.293   6.508  1.00  0.00     0.055 A 
ATOM     69  C   UNL     1      -9.102 -12.464   5.581  1.00  0.00     0.041 A 
ATOM     70  F   UNL     1      -6.808 -12.288   6.032  1.00  0.00    -0.206 F 
ATOM     71  C   UNL     1     -10.310 -13.143   5.715  1.00  0.00     0.022 A 
BRANCH  68  72
ATOM     72  S   UNL     1     -11.942 -15.190   6.578  1.00  0.00     0.124 S 
ATOM     73  O   UNL     1     -12.840 -14.174   7.123  1.00  0.00    -0.237 OA
ATOM     74  O   UNL     1     -12.162 -15.529   5.175  1.00  0.00    -0.237 OA
ATOM     75  O   UNL     1     -11.666 -16.315   7.465  1.00  0.00    -0.744 OA
ENDBRANCH  68  72
ENDBRANCH  51  65
BRANCH  52  76
ATOM     76  C   UNL     1       0.473 -17.942  10.786  1.00  0.00     0.023 A 
ATOM     77  C   UNL     1       0.629 -18.151  12.169  1.00  0.00     0.031 A 
ATOM     78  C   UNL     1       1.588 -18.152   9.959  1.00  0.00     0.131 A 
ATOM     79  C   UNL     1       1.889 -18.473  12.690  1.00  0.00     0.055 A 
ATOM     80  C   UNL     1       2.823 -18.550  10.474  1.00  0.00     0.041 A 
ATOM     81  F   UNL     1       1.494 -17.956   8.634  1.00  0.00    -0.206 F 
ATOM     82  C   UNL     1       2.983 -18.691  11.849  1.00  0.00     0.022 A 
BRANCH  79  83
ATOM     83  S   UNL     1       2.181 -18.470  14.481  1.00  0.00     0.124 S 
ATOM     84  O   UNL     1       2.597 -19.847  14.724  1.00  0.00    -0.237 OA
ATOM     85  O   UNL     1       3.231 -17.461  14.610  1.00  0.00    -0.237 OA
ATOM     86  O   UNL     1       0.888 -18.091  15.041  1.00  0.00    -0.744 OA
ENDBRANCH  79  83
ENDBRANCH  52  76
BRANCH  64  87
ATOM     87  C   UNL     1      -4.282 -20.175   6.094  1.00  0.00     0.023 A 
ATOM     88  C   UNL     1      -4.256 -20.114   4.687  1.00  0.00     0.031 A 
ATOM     89  C   UNL     1      -4.642 -21.390   6.702  1.00  0.00     0.131 A 
ATOM     90  C   UNL     1      -4.644 -21.229   3.935  1.00  0.00     0.055 A 
ATOM     91  C   UNL     1      -4.976 -22.515   5.946  1.00  0.00     0.041 A 
ATOM     92  F   UNL     1      -4.689 -21.495   8.040  1.00  0.00    -0.206 F 
ATOM     93  C   UNL     1      -4.995 -22.431   4.557  1.00  0.00     0.022 A 
BRANCH  90  94
ATOM     94  S   UNL     1      -4.802 -21.130   2.130  1.00  0.00     0.124 S 
ATOM     95  O   UNL     1      -3.890 -22.182   1.688  1.00  0.00    -0.237 OA
ATOM     96  O   UNL     1      -6.221 -21.411   1.932  1.00  0.00    -0.237 OA
ATOM     97  O   UNL     1      -4.380 -19.770   1.813  1.00  0.00    -0.744 OA
ENDBRANCH  90  94
ENDBRANCH  64  87
ENDBRANCH  38  39
ENDBRANCH  30  33
ENDBRANCH  28  29
ENDBRANCH  27  28
ENDBRANCH   1  27
TORSDOF 19
