REMARK SMILES C[NH+](C)Cc1ccccc1[C@H]1[NH2+][C@@H](C(=O)NCCCCCCNC(=O)c2ccc(-c3c4nc(c(-c5cc(S(=O)(=O)[O-])ccc5F)c5ccc([nH]5)c(-c5cc(S(=O)(=O)[O-])ccc5F)c5nc(c(-c6cc(S(=O)(=O)[O-])ccc6F)c6ccc3[nH]6)C=C5)C=C4)cc2)C(C)(C)S1
REMARK SMILES IDX 19 1 18 2 17 3 16 4 14 5 15 6 13 8 11 9 12 10 92 11 89 14
REMARK SMILES IDX 90 15 91 16 10 17 5 18 6 19 7 20 9 21 8 22 4 23 2 24 1 25
REMARK SMILES IDX 3 26 20 28 21 29 22 30 23 31 24 32 25 34 26 35 27 36 88 37
REMARK SMILES IDX 28 38 87 39 29 40 30 41 31 42 81 43 32 44 86 45 80 46 82 47
REMARK SMILES IDX 33 48 85 49 79 50 78 51 34 53 66 54 46 55 65 56 47 57 50 58
REMARK SMILES IDX 64 59 83 60 48 61 49 62 63 64 84 65 51 66 35 67 36 68 44 69
REMARK SMILES IDX 37 70 43 71 45 72 42 73 38 74 39 75 40 76 41 77 67 78 68 79
REMARK SMILES IDX 76 80 69 81 75 82 77 83 74 84 70 85 71 86 72 87 73 88 52 89
REMARK SMILES IDX 53 90 61 91 54 92 60 93 62 94 59 95 55 96 56 97 57 98 58 99
REMARK H PARENT 16 7 12 12 12 13 2 27 23 33 82 52 50 63
REMARK Flexibility Score: inf
ROOT
ATOM      1  C   UNL     1      -0.784   1.120  -5.758  1.00  0.00     0.002 C 
ENDROOT
BRANCH   1   2
ATOM      2  C   UNL     1       0.059   0.547  -4.614  1.00  0.00     0.021 C 
BRANCH   2   3
ATOM      3  C   UNL     1      -0.723   0.161  -3.360  1.00  0.00     0.116 C 
BRANCH   3   4
ATOM      4  N   UNL     1      -0.909  -1.238  -3.083  1.00  0.00    -0.351 N 
ATOM      5  C   UNL     1      -0.882  -1.852  -1.858  1.00  0.00     0.279 C 
ATOM      6  O   UNL     1      -1.462  -2.946  -1.793  1.00  0.00    -0.268 OA
ATOM      7  H   UNL     1      -1.074  -1.820  -3.860  1.00  0.00     0.163 HD
BRANCH   5   8
ATOM      8  C   UNL     1      -0.106  -1.338  -0.600  1.00  0.00     0.289 C 
ATOM      9  C   UNL     1       0.423   0.343   1.031  1.00  0.00     0.275 C 
ATOM     10  N   UNL     1      -0.475   0.041  -0.114  1.00  0.00    -0.320 N 
ATOM     11  S   UNL     1       2.058  -0.386   0.661  1.00  0.00    -0.081 SA
ATOM     12  H   UNL     1      -0.338   0.725  -0.858  1.00  0.00     0.348 HD
ATOM     13  H   UNL     1      -1.455   0.082   0.167  1.00  0.00     0.348 HD
ATOM     14  C   UNL     1       1.434  -1.533  -0.672  1.00  0.00     0.077 C 
ATOM     15  C   UNL     1       2.141  -1.222  -2.002  1.00  0.00     0.030 C 
ATOM     16  C   UNL     1       1.799  -2.994  -0.342  1.00  0.00     0.030 C 
BRANCH   9  17
ATOM     17  C   UNL     1       0.384   1.730   1.772  1.00  0.00     0.029 A 
ATOM     18  C   UNL     1       0.561   3.094   1.357  1.00  0.00     0.016 A 
ATOM     19  C   UNL     1       0.518   4.145   2.337  1.00  0.00     0.010 A 
ATOM     20  C   UNL     1       0.252   3.937   3.673  1.00  0.00     0.001 A 
ATOM     21  C   UNL     1       0.130   1.582   3.177  1.00  0.00     0.011 A 
ATOM     22  C   UNL     1       0.048   2.646   4.094  1.00  0.00     0.001 A 
BRANCH  18  23
ATOM     23  C   UNL     1       0.803   3.785   0.018  1.00  0.00     0.299 C 
BRANCH  23  24
ATOM     24  N   UNL     1       0.435   3.144  -1.213  1.00  0.00    -0.336 N 
ATOM     25  C   UNL     1       1.455   2.192  -1.564  1.00  0.00     0.332 C 
ATOM     26  C   UNL     1      -0.981   2.811  -1.214  1.00  0.00     0.332 C 
ATOM     27  H   UNL     1       0.447   3.743  -2.038  1.00  0.00     0.347 HD
ENDBRANCH  23  24
ENDBRANCH  18  23
ENDBRANCH   9  17
ENDBRANCH   5   8
ENDBRANCH   3   4
ENDBRANCH   2   3
ENDBRANCH   1   2
BRANCH   1  28
ATOM     28  C   UNL     1      -1.645   2.352  -5.436  1.00  0.00     0.002 C 
BRANCH  28  29
ATOM     29  C   UNL     1      -0.920   3.607  -4.940  1.00  0.00     0.021 C 
BRANCH  29  30
ATOM     30  C   UNL     1       0.180   4.157  -5.843  1.00  0.00     0.116 C 
BRANCH  30  31
ATOM     31  N   UNL     1      -0.282   4.400  -7.201  1.00  0.00    -0.352 N 
ATOM     32  C   UNL     1      -0.186   5.521  -7.980  1.00  0.00     0.251 C 
ATOM     33  H   UNL     1      -0.735   3.636  -7.627  1.00  0.00     0.163 HD
ATOM     34  O   UNL     1      -0.817   5.564  -9.046  1.00  0.00    -0.269 OA
BRANCH  32  35
ATOM     35  C   UNL     1       0.638   6.676  -7.567  1.00  0.00     0.039 A 
ATOM     36  C   UNL     1       0.163   7.969  -7.811  1.00  0.00     0.014 A 
ATOM     37  C   UNL     1       1.897   6.498  -6.985  1.00  0.00     0.014 A 
ATOM     38  C   UNL     1       0.926   9.077  -7.433  1.00  0.00     0.010 A 
ATOM     39  C   UNL     1       2.623   7.603  -6.541  1.00  0.00     0.010 A 
ATOM     40  C   UNL     1       2.153   8.905  -6.772  1.00  0.00    -0.014 A 
BRANCH  40  41
ATOM     41  C   UNL     1       2.974  10.072  -6.351  1.00  0.00     0.031 A 
ATOM     42  C   UNL     1       4.336  10.288  -6.958  1.00  0.00     0.074 A 
ATOM     43  C   UNL     1       2.518  10.908  -5.397  1.00  0.00     0.049 A 
ATOM     44  N   UNL     1       5.237  11.193  -6.673  1.00  0.00    -0.248 NA
ATOM     45  C   UNL     1       4.748   9.341  -8.005  1.00  0.00     0.031 C 
ATOM     46  C   UNL     1       1.226  10.788  -4.718  1.00  0.00     0.029 A 
ATOM     47  N   UNL     1       3.089  12.019  -4.827  1.00  0.00    -0.354 N 
ATOM     48  C   UNL     1       6.326  10.918  -7.495  1.00  0.00     0.074 A 
ATOM     49  C   UNL     1       5.995   9.721  -8.240  1.00  0.00     0.031 C 
ATOM     50  C   UNL     1       1.093  11.800  -3.844  1.00  0.00     0.029 A 
ATOM     51  C   UNL     1       2.307  12.611  -3.861  1.00  0.00     0.049 A 
ATOM     52  H   UNL     1       3.975  12.361  -5.085  1.00  0.00     0.167 HD
ATOM     53  C   UNL     1       7.483  11.612  -7.635  1.00  0.00     0.034 A 
ATOM     54  C   UNL     1       2.546  13.676  -3.070  1.00  0.00     0.034 A 
ATOM     55  C   UNL     1       7.792  12.809  -6.893  1.00  0.00     0.049 A 
ATOM     56  C   UNL     1       3.858  14.410  -3.217  1.00  0.00     0.074 A 
ATOM     57  C   UNL     1       8.916  13.613  -6.981  1.00  0.00     0.029 A 
ATOM     58  N   UNL     1       6.976  13.376  -5.920  1.00  0.00    -0.354 N 
ATOM     59  N   UNL     1       4.862  14.157  -4.026  1.00  0.00    -0.248 NA
ATOM     60  C   UNL     1       4.062  15.581  -2.355  1.00  0.00     0.031 C 
ATOM     61  C   UNL     1       8.813  14.619  -6.015  1.00  0.00     0.029 A 
ATOM     62  C   UNL     1       7.586  14.500  -5.384  1.00  0.00     0.049 A 
ATOM     63  H   UNL     1       6.095  13.030  -5.652  1.00  0.00     0.167 HD
ATOM     64  C   UNL     1       5.796  15.165  -3.798  1.00  0.00     0.074 A 
ATOM     65  C   UNL     1       5.230  16.033  -2.787  1.00  0.00     0.031 C 
ATOM     66  C   UNL     1       7.009  15.359  -4.376  1.00  0.00     0.034 A 
BRANCH  53  67
ATOM     67  C   UNL     1       8.504  11.075  -8.611  1.00  0.00     0.023 A 
ATOM     68  C   UNL     1       8.227  10.966  -9.986  1.00  0.00     0.031 A 
ATOM     69  C   UNL     1       9.767  10.648  -8.162  1.00  0.00     0.131 A 
ATOM     70  C   UNL     1       9.165  10.375 -10.847  1.00  0.00     0.055 A 
ATOM     71  C   UNL     1      10.729  10.141  -9.038  1.00  0.00     0.041 A 
ATOM     72  F   UNL     1      10.084  10.706  -6.859  1.00  0.00    -0.206 F 
ATOM     73  C   UNL     1      10.425   9.987 -10.387  1.00  0.00     0.022 A 
BRANCH  70  74
ATOM     74  S   UNL     1       8.657   9.986 -12.544  1.00  0.00     0.124 S 
ATOM     75  O   UNL     1       7.526   9.091 -12.315  1.00  0.00    -0.237 OA
ATOM     76  O   UNL     1       8.332  11.301 -13.086  1.00  0.00    -0.237 OA
ATOM     77  O   UNL     1       9.841   9.349 -13.118  1.00  0.00    -0.744 OA
ENDBRANCH  70  74
ENDBRANCH  53  67
BRANCH  54  78
ATOM     78  C   UNL     1       1.539  14.118  -2.061  1.00  0.00     0.023 A 
ATOM     79  C   UNL     1       0.950  15.390  -2.136  1.00  0.00     0.031 A 
ATOM     80  C   UNL     1       1.197  13.300  -0.969  1.00  0.00     0.131 A 
ATOM     81  C   UNL     1       0.099  15.831  -1.110  1.00  0.00     0.055 A 
ATOM     82  C   UNL     1       0.300  13.718   0.016  1.00  0.00     0.041 A 
ATOM     83  F   UNL     1       1.728  12.073  -0.845  1.00  0.00    -0.206 F 
ATOM     84  C   UNL     1      -0.242  14.998  -0.043  1.00  0.00     0.022 A 
BRANCH  81  85
ATOM     85  S   UNL     1      -0.468  17.554  -1.134  1.00  0.00     0.124 S 
ATOM     86  O   UNL     1       0.797  18.281  -1.158  1.00  0.00    -0.237 OA
ATOM     87  O   UNL     1      -1.257  17.596  -2.360  1.00  0.00    -0.237 OA
ATOM     88  O   UNL     1      -1.235  17.676   0.104  1.00  0.00    -0.744 OA
ENDBRANCH  81  85
ENDBRANCH  54  78
BRANCH  66  89
ATOM     89  C   UNL     1       7.774  16.597  -3.973  1.00  0.00     0.023 A 
ATOM     90  C   UNL     1       8.265  16.780  -2.669  1.00  0.00     0.031 A 
ATOM     91  C   UNL     1       8.008  17.616  -4.915  1.00  0.00     0.131 A 
ATOM     92  C   UNL     1       8.910  17.978  -2.326  1.00  0.00     0.055 A 
ATOM     93  C   UNL     1       8.709  18.776  -4.586  1.00  0.00     0.041 A 
ATOM     94  F   UNL     1       7.559  17.498  -6.175  1.00  0.00    -0.206 F 
ATOM     95  C   UNL     1       9.152  18.969  -3.282  1.00  0.00     0.022 A 
BRANCH  92  96
ATOM     96  S   UNL     1       9.339  18.271  -0.588  1.00  0.00     0.124 S 
ATOM     97  O   UNL     1       8.042  18.153   0.069  1.00  0.00    -0.237 OA
ATOM     98  O   UNL     1      10.290  17.198  -0.317  1.00  0.00    -0.237 OA
ATOM     99  O   UNL     1       9.910  19.617  -0.598  1.00  0.00    -0.744 OA
ENDBRANCH  92  96
ENDBRANCH  66  89
ENDBRANCH  40  41
ENDBRANCH  32  35
ENDBRANCH  30  31
ENDBRANCH  29  30
ENDBRANCH  28  29
ENDBRANCH   1  28
TORSDOF 19
