REMARK SMILES O=C(C[C@@H](c1c[nH]c2ccccc12)C(F)(F)F)NCCCCCCNC(=O)c1ccc(-c2c3nc(c(-c4cc(S(=O)(=O)[O-])ccc4F)c4ccc([nH]4)c(-c4cc(S(=O)(=O)[O-])ccc4F)c4nc(c(-c5cc(S(=O)(=O)[O-])ccc5F)c5ccc2[nH]5)C=C4)C=C3)cc1
REMARK SMILES IDX 22 1 21 2 20 3 19 4 18 5 1 6 2 7 3 9 4 10 5 11 6 12 13 13
REMARK SMILES IDX 7 14 8 15 12 16 9 18 11 19 10 20 14 21 15 22 16 23 17 24
REMARK SMILES IDX 23 25 24 26 25 27 26 28 27 30 28 31 29 32 90 33 30 34 89 35
REMARK SMILES IDX 31 36 32 37 33 38 83 39 34 40 88 41 82 42 84 43 35 44 87 45
REMARK SMILES IDX 81 46 80 47 36 49 68 50 48 51 67 52 49 53 52 54 66 55 85 56
REMARK SMILES IDX 50 57 51 58 65 60 86 61 53 62 37 63 38 64 46 65 39 66 45 67
REMARK SMILES IDX 47 68 44 69 40 70 41 71 42 72 43 73 69 74 70 75 78 76 71 77
REMARK SMILES IDX 77 78 79 79 76 80 72 81 73 82 74 83 75 84 54 85 55 86 63 87
REMARK SMILES IDX 56 88 62 89 64 90 61 91 57 92 58 93 59 94 60 95
REMARK H PARENT 18 8 7 17 25 29 84 48 52 59
REMARK Flexibility Score: inf
ROOT
ATOM      1  C   UNL     1       4.343   3.711  -2.216  1.00  0.00     0.002 C 
ENDROOT
BRANCH   1   2
ATOM      2  C   UNL     1       3.755   3.692  -0.803  1.00  0.00     0.002 C 
BRANCH   2   3
ATOM      3  C   UNL     1       2.256   3.377  -0.702  1.00  0.00     0.021 C 
BRANCH   3   4
ATOM      4  C   UNL     1       1.799   2.095  -1.409  1.00  0.00     0.116 C 
BRANCH   4   5
ATOM      5  N   UNL     1       2.528   0.931  -0.936  1.00  0.00    -0.356 N 
ATOM      6  O   UNL     1       0.808   0.021   0.253  1.00  0.00    -0.275 OA
ATOM      7  C   UNL     1       1.997   0.019  -0.064  1.00  0.00     0.220 C 
ATOM      8  H   UNL     1       3.448   0.792  -1.258  1.00  0.00     0.163 HD
BRANCH   7   9
ATOM      9  C   UNL     1       2.969  -0.917   0.637  1.00  0.00     0.117 C 
BRANCH   9  10
ATOM     10  C   UNL     1       4.014  -1.677  -0.205  1.00  0.00     0.136 C 
BRANCH  10  11
ATOM     11  C   UNL     1       5.210  -0.832  -0.633  1.00  0.00    -0.010 A 
ATOM     12  C   UNL     1       5.570   0.415  -0.150  1.00  0.00     0.087 A 
ATOM     13  C   UNL     1       6.206  -1.171  -1.619  1.00  0.00     0.003 A 
ATOM     14  N   UNL     1       6.601   0.902  -0.905  1.00  0.00    -0.361 N 
ATOM     15  C   UNL     1       7.032  -0.057  -1.784  1.00  0.00     0.046 A 
ATOM     16  C   UNL     1       6.491  -2.319  -2.391  1.00  0.00     0.010 A 
ATOM     17  H   UNL     1       6.977   1.809  -0.829  1.00  0.00     0.166 HD
ATOM     18  C   UNL     1       8.092  -0.016  -2.698  1.00  0.00     0.026 A 
ATOM     19  C   UNL     1       7.586  -2.316  -3.266  1.00  0.00     0.001 A 
ATOM     20  C   UNL     1       8.365  -1.174  -3.426  1.00  0.00     0.002 A 
ENDBRANCH  10  11
BRANCH  10  21
ATOM     21  C   UNL     1       4.444  -2.909   0.605  1.00  0.00     0.396 C 
ATOM     22  F   UNL     1       3.372  -3.683   0.910  1.00  0.00    -0.170 F 
ATOM     23  F   UNL     1       5.303  -3.707  -0.065  1.00  0.00    -0.170 F 
ATOM     24  F   UNL     1       5.028  -2.564   1.775  1.00  0.00    -0.170 F 
ENDBRANCH  10  21
ENDBRANCH   9  10
ENDBRANCH   7   9
ENDBRANCH   4   5
ENDBRANCH   3   4
ENDBRANCH   2   3
ENDBRANCH   1   2
BRANCH   1  25
ATOM     25  C   UNL     1       3.742   4.762  -3.151  1.00  0.00     0.021 C 
BRANCH  25  26
ATOM     26  C   UNL     1       3.909   6.208  -2.691  1.00  0.00     0.116 C 
BRANCH  26  27
ATOM     27  N   UNL     1       5.303   6.623  -2.628  1.00  0.00    -0.352 N 
ATOM     28  C   UNL     1       5.899   7.751  -3.142  1.00  0.00     0.251 C 
ATOM     29  H   UNL     1       5.905   6.008  -2.150  1.00  0.00     0.163 HD
ATOM     30  O   UNL     1       7.123   7.857  -3.117  1.00  0.00    -0.269 OA
BRANCH  28  31
ATOM     31  C   UNL     1       5.067   8.811  -3.755  1.00  0.00     0.039 A 
ATOM     32  C   UNL     1       5.441   9.332  -4.996  1.00  0.00     0.014 A 
ATOM     33  C   UNL     1       3.906   9.267  -3.124  1.00  0.00     0.014 A 
ATOM     34  C   UNL     1       4.604  10.243  -5.645  1.00  0.00     0.010 A 
ATOM     35  C   UNL     1       3.040  10.121  -3.802  1.00  0.00     0.010 A 
ATOM     36  C   UNL     1       3.372  10.606  -5.077  1.00  0.00    -0.014 A 
BRANCH  36  37
ATOM     37  C   UNL     1       2.401  11.456  -5.815  1.00  0.00     0.031 A 
ATOM     38  C   UNL     1       2.007  12.805  -5.280  1.00  0.00     0.074 A 
ATOM     39  C   UNL     1       1.806  10.972  -6.923  1.00  0.00     0.049 A 
ATOM     40  N   UNL     1       1.109  13.644  -5.728  1.00  0.00    -0.248 NA
ATOM     41  C   UNL     1       2.694  13.250  -4.060  1.00  0.00     0.031 C 
ATOM     42  C   UNL     1       2.062   9.655  -7.511  1.00  0.00     0.029 A 
ATOM     43  N   UNL     1       0.849  11.518  -7.742  1.00  0.00    -0.354 N 
ATOM     44  C   UNL     1       1.119  14.718  -4.844  1.00  0.00     0.074 A 
ATOM     45  C   UNL     1       2.063  14.384  -3.797  1.00  0.00     0.031 C 
ATOM     46  C   UNL     1       1.289   9.499  -8.596  1.00  0.00     0.029 A 
ATOM     47  C   UNL     1       0.450  10.682  -8.759  1.00  0.00     0.049 A 
ATOM     48  H   UNL     1       0.483  12.423  -7.613  1.00  0.00     0.167 HD
ATOM     49  C   UNL     1       0.425  15.883  -4.913  1.00  0.00     0.034 A 
ATOM     50  C   UNL     1      -0.499  10.837  -9.702  1.00  0.00     0.034 A 
ATOM     51  C   UNL     1      -0.519  16.194  -5.961  1.00  0.00     0.049 A 
ATOM     52  C   UNL     1      -1.288  12.119  -9.742  1.00  0.00     0.074 A 
ATOM     53  C   UNL     1      -1.232  17.363  -6.162  1.00  0.00     0.029 A 
ATOM     54  N   UNL     1      -0.897  15.323  -6.977  1.00  0.00    -0.354 N 
ATOM     55  N   UNL     1      -1.221  13.153  -8.936  1.00  0.00    -0.248 NA
ATOM     56  C   UNL     1      -2.270  12.258 -10.824  1.00  0.00     0.031 C 
ATOM     57  C   UNL     1      -2.090  17.175  -7.252  1.00  0.00     0.029 A 
ATOM     58  C   UNL     1      -1.861  15.915  -7.781  1.00  0.00     0.049 A 
ATOM     59  H   UNL     1      -0.534  14.418  -7.106  1.00  0.00     0.167 HD
ATOM     60  C   UNL     1      -2.146  14.073  -9.422  1.00  0.00     0.074 A 
ATOM     61  C   UNL     1      -2.740  13.478 -10.603  1.00  0.00     0.031 C 
ATOM     62  C   UNL     1      -2.471  15.299  -8.938  1.00  0.00     0.034 A 
BRANCH  49  63
ATOM     63  C   UNL     1       0.653  16.885  -3.804  1.00  0.00     0.023 A 
ATOM     64  C   UNL     1       1.925  17.438  -3.564  1.00  0.00     0.031 A 
ATOM     65  C   UNL     1      -0.394  17.254  -2.943  1.00  0.00     0.131 A 
ATOM     66  C   UNL     1       2.138  18.245  -2.437  1.00  0.00     0.055 A 
ATOM     67  C   UNL     1      -0.195  18.133  -1.875  1.00  0.00     0.041 A 
ATOM     68  F   UNL     1      -1.626  16.748  -3.107  1.00  0.00    -0.206 F 
ATOM     69  C   UNL     1       1.082  18.617  -1.604  1.00  0.00     0.022 A 
BRANCH  66  70
ATOM     70  S   UNL     1       3.846  18.650  -1.978  1.00  0.00     0.124 S 
ATOM     71  O   UNL     1       4.440  17.320  -1.851  1.00  0.00    -0.237 OA
ATOM     72  O   UNL     1       4.298  19.445  -3.113  1.00  0.00    -0.237 OA
ATOM     73  O   UNL     1       3.699  19.380  -0.720  1.00  0.00    -0.744 OA
ENDBRANCH  66  70
ENDBRANCH  49  63
BRANCH  50  74
ATOM     74  C   UNL     1      -0.777   9.735 -10.665  1.00  0.00     0.023 A 
ATOM     75  C   UNL     1      -0.486   9.871 -12.031  1.00  0.00     0.031 A 
ATOM     76  C   UNL     1      -1.345   8.525 -10.227  1.00  0.00     0.131 A 
ATOM     77  C   UNL     1      -0.791   8.825 -12.917  1.00  0.00     0.055 A 
ATOM     78  C   UNL     1      -1.605   7.471 -11.104  1.00  0.00     0.041 A 
ATOM     79  F   UNL     1      -1.633   8.342  -8.928  1.00  0.00    -0.206 F 
ATOM     80  C   UNL     1      -1.336   7.622 -12.461  1.00  0.00     0.022 A 
BRANCH  77  81
ATOM     81  S   UNL     1      -0.512   9.078 -14.691  1.00  0.00     0.124 S 
ATOM     82  O   UNL     1      -1.379  10.217 -14.969  1.00  0.00    -0.237 OA
ATOM     83  O   UNL     1       0.923   9.337 -14.738  1.00  0.00    -0.237 OA
ATOM     84  O   UNL     1      -0.933   7.812 -15.286  1.00  0.00    -0.744 OA
ENDBRANCH  77  81
ENDBRANCH  50  74
BRANCH  62  85
ATOM     85  C   UNL     1      -3.509  16.082  -9.704  1.00  0.00     0.023 A 
ATOM     86  C   UNL     1      -4.852  15.669  -9.760  1.00  0.00     0.031 A 
ATOM     87  C   UNL     1      -3.148  17.251 -10.398  1.00  0.00     0.131 A 
ATOM     88  C   UNL     1      -5.774  16.389 -10.535  1.00  0.00     0.055 A 
ATOM     89  C   UNL     1      -4.082  17.996 -11.120  1.00  0.00     0.041 A 
ATOM     90  F   UNL     1      -1.879  17.689 -10.384  1.00  0.00    -0.206 F 
ATOM     91  C   UNL     1      -5.401  17.559 -11.201  1.00  0.00     0.022 A 
BRANCH  88  92
ATOM     92  S   UNL     1      -7.453  15.731 -10.729  1.00  0.00     0.124 S 
ATOM     93  O   UNL     1      -7.200  14.433 -11.346  1.00  0.00    -0.237 OA
ATOM     94  O   UNL     1      -7.939  15.700  -9.354  1.00  0.00    -0.237 OA
ATOM     95  O   UNL     1      -8.108  16.711 -11.595  1.00  0.00    -0.744 OA
ENDBRANCH  88  92
ENDBRANCH  62  85
ENDBRANCH  36  37
ENDBRANCH  28  31
ENDBRANCH  26  27
ENDBRANCH  25  26
ENDBRANCH   1  25
TORSDOF 19
