REMARK SMILES O=C(NCCCCCCNC(=O)c1c(-c2ccc(Cl)cc2)noc1CO[C@@H]1CCCCO1)c1ccc(-c2c3nc(c(-c4cc(S(=O)(=O)[O-])ccc4F)c4ccc([nH]4)c(-c4cc(S(=O)(=O)[O-])ccc4F)c4nc(c(-c5cc(S(=O)(=O)[O-])ccc5F)c5ccc2[nH]5)C=C4)C=C3)cc1
REMARK SMILES IDX 6 1 5 2 4 3 3 4 1 5 2 6 33 8 34 9 95 10 35 11 94 12 36 13
REMARK SMILES IDX 37 14 38 15 88 16 39 17 93 18 87 19 89 20 40 21 92 22 86 23
REMARK SMILES IDX 85 24 41 26 73 27 53 28 72 29 54 30 57 31 71 32 90 33 55 34
REMARK SMILES IDX 56 35 70 37 91 38 58 39 42 40 43 41 51 42 44 43 50 44 52 45
REMARK SMILES IDX 49 46 45 47 46 48 47 49 48 50 74 51 75 52 83 53 76 54 82 55
REMARK SMILES IDX 84 56 81 57 77 58 78 59 79 60 80 61 59 62 60 63 68 64 61 65
REMARK SMILES IDX 67 66 69 67 66 68 62 69 63 70 64 71 65 72 7 73 8 74 9 75
REMARK SMILES IDX 10 76 11 77 12 79 13 80 14 81 24 82 22 83 23 84 15 85 16 86
REMARK SMILES IDX 21 87 17 88 20 89 18 90 19 91 25 92 26 93 27 94 28 95 32 96
REMARK SMILES IDX 29 97 31 98 30 99
REMARK H PARENT 3 7 89 25 57 36 10 78
REMARK Flexibility Score: inf
ROOT
ATOM      1  C   UNL     1       4.150   2.619  -2.988  1.00  0.00     0.002 C 
ENDROOT
BRANCH   1   2
ATOM      2  C   UNL     1       4.480   1.135  -2.819  1.00  0.00     0.021 C 
BRANCH   2   3
ATOM      3  C   UNL     1       4.258   0.557  -1.428  1.00  0.00     0.116 C 
BRANCH   3   4
ATOM      4  N   UNL     1       2.874   0.579  -0.993  1.00  0.00    -0.352 N 
ATOM      5  O   UNL     1       1.061  -0.179   0.120  1.00  0.00    -0.269 OA
ATOM      6  C   UNL     1       2.270  -0.255  -0.078  1.00  0.00     0.251 C 
ATOM      7  H   UNL     1       2.301   1.270  -1.398  1.00  0.00     0.163 HD
BRANCH   6   8
ATOM      8  C   UNL     1       3.082  -1.270   0.635  1.00  0.00     0.039 A 
ATOM      9  C   UNL     1       4.295  -0.927   1.237  1.00  0.00     0.014 A 
ATOM     10  C   UNL     1       2.621  -2.590   0.694  1.00  0.00     0.014 A 
ATOM     11  C   UNL     1       5.101  -1.919   1.791  1.00  0.00     0.010 A 
ATOM     12  C   UNL     1       3.404  -3.575   1.305  1.00  0.00     0.010 A 
ATOM     13  C   UNL     1       4.663  -3.252   1.833  1.00  0.00    -0.014 A 
BRANCH  13  14
ATOM     14  C   UNL     1       5.523  -4.275   2.480  1.00  0.00     0.031 A 
ATOM     15  C   UNL     1       6.203  -5.342   1.669  1.00  0.00     0.074 A 
ATOM     16  C   UNL     1       5.723  -4.203   3.810  1.00  0.00     0.049 A 
ATOM     17  N   UNL     1       7.020  -6.285   2.067  1.00  0.00    -0.248 NA
ATOM     18  C   UNL     1       5.925  -5.358   0.226  1.00  0.00     0.031 C 
ATOM     19  C   UNL     1       5.102  -3.219   4.701  1.00  0.00     0.029 A 
ATOM     20  N   UNL     1       6.516  -4.949   4.640  1.00  0.00    -0.354 N 
ATOM     21  C   UNL     1       7.344  -7.017   0.930  1.00  0.00     0.074 A 
ATOM     22  C   UNL     1       6.617  -6.418  -0.172  1.00  0.00     0.031 C 
ATOM     23  C   UNL     1       5.569  -3.397   5.945  1.00  0.00     0.029 A 
ATOM     24  C   UNL     1       6.490  -4.529   5.949  1.00  0.00     0.049 A 
ATOM     25  H   UNL     1       7.054  -5.713   4.330  1.00  0.00     0.167 HD
ATOM     26  C   UNL     1       8.171  -8.086   0.816  1.00  0.00     0.034 A 
ATOM     27  C   UNL     1       7.132  -5.002   7.033  1.00  0.00     0.034 A 
ATOM     28  C   UNL     1       8.890  -8.675   1.920  1.00  0.00     0.049 A 
ATOM     29  C   UNL     1       8.063  -6.171   6.874  1.00  0.00     0.074 A 
ATOM     30  C   UNL     1       9.751  -9.761   1.913  1.00  0.00     0.029 A 
ATOM     31  N   UNL     1       8.833  -8.227   3.234  1.00  0.00    -0.354 N 
ATOM     32  N   UNL     1       8.348  -6.855   5.791  1.00  0.00    -0.248 NA
ATOM     33  C   UNL     1       8.759  -6.627   8.083  1.00  0.00     0.031 C 
ATOM     34  C   UNL     1      10.182  -9.992   3.226  1.00  0.00     0.029 A 
ATOM     35  C   UNL     1       9.630  -9.021   4.045  1.00  0.00     0.049 A 
ATOM     36  H   UNL     1       8.303  -7.457   3.544  1.00  0.00     0.167 HD
ATOM     37  C   UNL     1       9.252  -7.832   6.192  1.00  0.00     0.074 A 
ATOM     38  C   UNL     1       9.491  -7.623   7.606  1.00  0.00     0.031 C 
ATOM     39  C   UNL     1       9.826  -8.819   5.460  1.00  0.00     0.034 A 
BRANCH  26  40
ATOM     40  C   UNL     1       8.302  -8.713  -0.548  1.00  0.00     0.023 A 
ATOM     41  C   UNL     1       8.954  -8.053  -1.603  1.00  0.00     0.031 A 
ATOM     42  C   UNL     1       7.750  -9.981  -0.801  1.00  0.00     0.131 A 
ATOM     43  C   UNL     1       8.993  -8.640  -2.877  1.00  0.00     0.055 A 
ATOM     44  C   UNL     1       7.844 -10.587  -2.056  1.00  0.00     0.041 A 
ATOM     45  F   UNL     1       7.099 -10.647   0.165  1.00  0.00    -0.206 F 
ATOM     46  C   UNL     1       8.460  -9.911  -3.106  1.00  0.00     0.022 A 
BRANCH  43  47
ATOM     47  S   UNL     1       9.660  -7.674  -4.260  1.00  0.00     0.124 S 
ATOM     48  O   UNL     1       8.735  -6.544  -4.304  1.00  0.00    -0.237 OA
ATOM     49  O   UNL     1      11.014  -7.373  -3.812  1.00  0.00    -0.237 OA
ATOM     50  O   UNL     1       9.568  -8.591  -5.395  1.00  0.00    -0.744 OA
ENDBRANCH  43  47
ENDBRANCH  26  40
BRANCH  27  51
ATOM     51  C   UNL     1       6.898  -4.385   8.364  1.00  0.00     0.023 A 
ATOM     52  C   UNL     1       7.899  -3.640   9.004  1.00  0.00     0.031 A 
ATOM     53  C   UNL     1       5.663  -4.540   9.016  1.00  0.00     0.131 A 
ATOM     54  C   UNL     1       7.657  -3.096  10.274  1.00  0.00     0.055 A 
ATOM     55  C   UNL     1       5.415  -3.969  10.264  1.00  0.00     0.041 A 
ATOM     56  F   UNL     1       4.673  -5.234   8.435  1.00  0.00    -0.206 F 
ATOM     57  C   UNL     1       6.420  -3.250  10.904  1.00  0.00     0.022 A 
BRANCH  54  58
ATOM     58  S   UNL     1       9.005  -2.227  11.118  1.00  0.00     0.124 S 
ATOM     59  O   UNL     1      10.063  -3.231  11.114  1.00  0.00    -0.237 OA
ATOM     60  O   UNL     1       9.214  -1.077  10.246  1.00  0.00    -0.237 OA
ATOM     61  O   UNL     1       8.443  -1.917  12.431  1.00  0.00    -0.744 OA
ENDBRANCH  54  58
ENDBRANCH  27  51
BRANCH  39  62
ATOM     62  C   UNL     1      10.759  -9.738   6.200  1.00  0.00     0.023 A 
ATOM     63  C   UNL     1      10.271 -10.669   7.133  1.00  0.00     0.031 A 
ATOM     64  C   UNL     1      12.148  -9.648   6.011  1.00  0.00     0.131 A 
ATOM     65  C   UNL     1      11.170 -11.437   7.886  1.00  0.00     0.055 A 
ATOM     66  C   UNL     1      13.036 -10.445   6.732  1.00  0.00     0.041 A 
ATOM     67  F   UNL     1      12.661  -8.771   5.133  1.00  0.00    -0.206 F 
ATOM     68  C   UNL     1      12.549 -11.337   7.686  1.00  0.00     0.022 A 
BRANCH  65  69
ATOM     69  S   UNL     1      10.515 -12.505   9.197  1.00  0.00     0.124 S 
ATOM     70  O   UNL     1       9.777 -11.556  10.025  1.00  0.00    -0.237 OA
ATOM     71  O   UNL     1       9.705 -13.459   8.447  1.00  0.00    -0.237 OA
ATOM     72  O   UNL     1      11.715 -13.064   9.817  1.00  0.00    -0.744 OA
ENDBRANCH  65  69
ENDBRANCH  39  62
ENDBRANCH  13  14
ENDBRANCH   6   8
ENDBRANCH   3   4
ENDBRANCH   2   3
ENDBRANCH   1   2
BRANCH   1  73
ATOM     73  C   UNL     1       4.743   3.583  -1.956  1.00  0.00     0.002 C 
BRANCH  73  74
ATOM     74  C   UNL     1       6.258   3.517  -1.722  1.00  0.00     0.021 C 
BRANCH  74  75
ATOM     75  C   UNL     1       7.141   3.575  -2.968  1.00  0.00     0.116 C 
BRANCH  75  76
ATOM     76  N   UNL     1       6.854   4.734  -3.788  1.00  0.00    -0.352 N 
ATOM     77  C   UNL     1       7.690   5.650  -4.364  1.00  0.00     0.257 C 
ATOM     78  H   UNL     1       5.897   4.888  -3.961  1.00  0.00     0.163 HD
ATOM     79  O   UNL     1       7.177   6.613  -4.930  1.00  0.00    -0.269 OA
BRANCH  77  80
ATOM     80  C   UNL     1       9.121   5.476  -4.305  1.00  0.00     0.113 A 
ATOM     81  C   UNL     1      10.098   6.481  -4.037  1.00  0.00     0.127 A 
ATOM     82  C   UNL     1       9.871   4.389  -4.709  1.00  0.00     0.175 A 
ATOM     83  N   UNL     1      11.338   5.985  -4.139  1.00  0.00    -0.079 NA
ATOM     84  O   UNL     1      11.192   4.677  -4.545  1.00  0.00    -0.357 OA
BRANCH  81  85
ATOM     85  C   UNL     1       9.879   7.895  -3.768  1.00  0.00     0.005 A 
ATOM     86  C   UNL     1       9.066   8.313  -2.707  1.00  0.00     0.012 A 
ATOM     87  C   UNL     1      10.441   8.851  -4.626  1.00  0.00     0.012 A 
ATOM     88  C   UNL     1       8.802   9.674  -2.522  1.00  0.00     0.021 A 
ATOM     89  C   UNL     1      10.171  10.208  -4.445  1.00  0.00     0.021 A 
ATOM     90  C   UNL     1       9.348  10.613  -3.397  1.00  0.00     0.041 A 
ATOM     91  Cl  UNL     1       8.995  12.283  -3.187  1.00  0.00    -0.084 Cl
ENDBRANCH  81  85
BRANCH  82  92
ATOM     92  C   UNL     1       9.582   3.061  -5.295  1.00  0.00     0.242 C 
BRANCH  92  93
ATOM     93  O   UNL     1      10.255   2.944  -6.537  1.00  0.00    -0.345 OA
BRANCH  93  94
ATOM     94  C   UNL     1       9.562   3.272  -7.739  1.00  0.00     0.250 C 
ATOM     95  C   UNL     1       9.860   4.689  -8.245  1.00  0.00     0.062 C 
ATOM     96  O   UNL     1       8.211   2.839  -7.839  1.00  0.00    -0.353 OA
ATOM     97  C   UNL     1       8.749   5.696  -8.006  1.00  0.00     0.008 C 
ATOM     98  C   UNL     1       7.204   3.799  -7.560  1.00  0.00     0.163 C 
ATOM     99  C   UNL     1       7.394   5.093  -8.325  1.00  0.00     0.029 C 
ENDBRANCH  93  94
ENDBRANCH  92  93
ENDBRANCH  82  92
ENDBRANCH  77  80
ENDBRANCH  75  76
ENDBRANCH  74  75
ENDBRANCH  73  74
ENDBRANCH   1  73
TORSDOF 20
