REMARK SMILES Cc1ccc([C@@H](C(=O)N(CC(=O)NCCCCCCNC(=O)c2ccc(-c3c4nc(c(-c5cc(S(=O)(=O)[O-])ccc5F)c5ccc([nH]5)c(-c5cc(S(=O)(=O)[O-])ccc5F)c5nc(c(-c6cc(S(=O)(=O)[O-])ccc6F)c6ccc3[nH]6)C=C5)C=C4)cc2)C2CC[NH+](C)CC2)[NH+](C)C)cc1
REMARK SMILES IDX 16 1 15 2 14 3 13 4 11 5 12 6 10 8 9 9 7 10 8 11 6 12 5 13
REMARK SMILES IDX 1 14 2 15 3 16 97 17 4 18 96 19 93 20 94 21 95 22 86 24
REMARK SMILES IDX 87 25 92 26 88 27 91 28 89 29 90 30 17 32 18 33 19 34 20 35
REMARK SMILES IDX 21 36 22 38 23 39 24 40 85 41 25 42 84 43 26 44 27 45 28 46
REMARK SMILES IDX 78 47 29 48 83 49 77 50 79 51 30 52 82 53 76 54 75 55 31 57
REMARK SMILES IDX 63 58 43 59 62 60 44 61 47 62 61 63 80 64 45 65 46 66 60 68
REMARK SMILES IDX 81 69 48 70 32 71 33 72 41 73 34 74 40 75 42 76 39 77 35 78
REMARK SMILES IDX 36 79 37 80 38 81 64 82 65 83 73 84 66 85 72 86 74 87 71 88
REMARK SMILES IDX 67 89 68 90 69 91 70 92 49 93 50 94 58 95 51 96 57 97 59 98
REMARK SMILES IDX 56 99 52 100 53 101 54 102 55 103
REMARK H PARENT 13 7 93 23 89 31 20 37 79 56 47 67
REMARK Flexibility Score: inf
ROOT
ATOM      1  C   UNL     1       1.110  -3.246  -3.220  1.00  0.00     0.002 C 
ENDROOT
BRANCH   1   2
ATOM      2  C   UNL     1      -0.267  -2.712  -2.805  1.00  0.00     0.021 C 
BRANCH   2   3
ATOM      3  C   UNL     1      -0.322  -1.236  -2.430  1.00  0.00     0.116 C 
BRANCH   3   4
ATOM      4  N   UNL     1      -0.435  -0.317  -3.538  1.00  0.00    -0.355 N 
ATOM      5  C   UNL     1      -1.236   0.787  -3.621  1.00  0.00     0.239 C 
ATOM      6  O   UNL     1      -0.919   1.686  -4.407  1.00  0.00    -0.273 OA
ATOM      7  H   UNL     1       0.128  -0.508  -4.323  1.00  0.00     0.163 HD
BRANCH   5   8
ATOM      8  C   UNL     1      -2.447   0.985  -2.680  1.00  0.00     0.219 C 
BRANCH   8   9
ATOM      9  N   UNL     1      -3.376  -0.133  -2.469  1.00  0.00    -0.324 N 
BRANCH   9  10
ATOM     10  C   UNL     1      -3.500  -0.795  -1.219  1.00  0.00     0.286 C 
ATOM     11  O   UNL     1      -3.861  -1.977  -1.200  1.00  0.00    -0.267 OA
BRANCH  10  12
ATOM     12  C   UNL     1      -3.291   0.026   0.130  1.00  0.00     0.305 C 
BRANCH  12  13
ATOM     13  C   UNL     1      -1.825   0.215   0.551  1.00  0.00     0.019 A 
ATOM     14  C   UNL     1       2.455   0.745   0.787  1.00  0.00     0.044 C 
ATOM     15  C   UNL     1       0.963   0.607   0.875  1.00  0.00    -0.051 A 
ATOM     16  C   UNL     1       0.391  -0.651   1.072  1.00  0.00     0.004 A 
ATOM     17  C   UNL     1       0.123   1.693   0.635  1.00  0.00     0.004 A 
ATOM     18  C   UNL     1      -0.979  -0.854   0.870  1.00  0.00     0.011 A 
ATOM     19  C   UNL     1      -1.258   1.506   0.533  1.00  0.00     0.011 A 
ENDBRANCH  12  13
BRANCH  12  20
ATOM     20  N   UNL     1      -4.176  -0.419   1.263  1.00  0.00    -0.326 N 
ATOM     21  C   UNL     1      -5.593  -0.305   0.919  1.00  0.00     0.333 C 
ATOM     22  C   UNL     1      -3.905  -1.758   1.792  1.00  0.00     0.333 C 
ATOM     23  H   UNL     1      -3.942   0.229   2.015  1.00  0.00     0.348 HD
ENDBRANCH  12  20
ENDBRANCH  10  12
ENDBRANCH   9  10
BRANCH   9  24
ATOM     24  C   UNL     1      -4.050  -0.764  -3.653  1.00  0.00     0.097 C 
ATOM     25  C   UNL     1      -3.798  -0.182  -5.062  1.00  0.00     0.086 C 
ATOM     26  C   UNL     1      -5.580  -0.794  -3.476  1.00  0.00     0.086 C 
ATOM     27  C   UNL     1      -4.491   1.158  -5.327  1.00  0.00     0.264 C 
ATOM     28  C   UNL     1      -6.187   0.596  -3.659  1.00  0.00     0.264 C 
ATOM     29  N   UNL     1      -5.920   1.145  -4.993  1.00  0.00    -0.337 N 
ATOM     30  C   UNL     1      -6.481   2.493  -5.110  1.00  0.00     0.332 C 
ATOM     31  H   UNL     1      -6.374   0.527  -5.665  1.00  0.00     0.347 HD
ENDBRANCH   9  24
ENDBRANCH   8   9
ENDBRANCH   5   8
ENDBRANCH   3   4
ENDBRANCH   2   3
ENDBRANCH   1   2
BRANCH   1  32
ATOM     32  C   UNL     1       2.302  -2.880  -2.320  1.00  0.00     0.002 C 
BRANCH  32  33
ATOM     33  C   UNL     1       2.125  -3.147  -0.829  1.00  0.00     0.021 C 
BRANCH  33  34
ATOM     34  C   UNL     1       2.096  -4.615  -0.422  1.00  0.00     0.116 C 
BRANCH  34  35
ATOM     35  N   UNL     1       3.276  -5.030   0.335  1.00  0.00    -0.352 N 
ATOM     36  C   UNL     1       3.467  -6.183   1.085  1.00  0.00     0.251 C 
ATOM     37  H   UNL     1       4.038  -4.407   0.310  1.00  0.00     0.163 HD
ATOM     38  O   UNL     1       4.495  -6.409   1.692  1.00  0.00    -0.269 OA
BRANCH  36  39
ATOM     39  C   UNL     1       2.416  -7.224   1.002  1.00  0.00     0.039 A 
ATOM     40  C   UNL     1       2.766  -8.411   0.352  1.00  0.00     0.014 A 
ATOM     41  C   UNL     1       1.084  -6.896   1.234  1.00  0.00     0.014 A 
ATOM     42  C   UNL     1       1.779  -9.135  -0.306  1.00  0.00     0.010 A 
ATOM     43  C   UNL     1       0.117  -7.559   0.501  1.00  0.00     0.010 A 
ATOM     44  C   UNL     1       0.479  -8.628  -0.330  1.00  0.00    -0.014 A 
BRANCH  44  45
ATOM     45  C   UNL     1      -0.505  -9.054  -1.320  1.00  0.00     0.031 A 
ATOM     46  C   UNL     1      -1.659  -9.883  -0.932  1.00  0.00     0.074 A 
ATOM     47  C   UNL     1      -0.379  -8.683  -2.615  1.00  0.00     0.049 A 
ATOM     48  N   UNL     1      -2.267 -10.692  -1.733  1.00  0.00    -0.248 NA
ATOM     49  C   UNL     1      -2.197  -9.897   0.420  1.00  0.00     0.031 C 
ATOM     50  C   UNL     1      -1.366  -8.834  -3.680  1.00  0.00     0.029 A 
ATOM     51  N   UNL     1       0.794  -8.325  -3.277  1.00  0.00    -0.354 N 
ATOM     52  C   UNL     1      -3.430 -11.089  -1.120  1.00  0.00     0.074 A 
ATOM     53  C   UNL     1      -3.300 -10.630   0.245  1.00  0.00     0.031 C 
ATOM     54  C   UNL     1      -0.728  -8.852  -4.860  1.00  0.00     0.029 A 
ATOM     55  C   UNL     1       0.696  -8.835  -4.588  1.00  0.00     0.049 A 
ATOM     56  H   UNL     1       1.548  -7.815  -2.902  1.00  0.00     0.167 HD
ATOM     57  C   UNL     1      -4.430 -11.638  -1.868  1.00  0.00     0.034 A 
ATOM     58  C   UNL     1       1.615  -9.723  -5.067  1.00  0.00     0.034 A 
ATOM     59  C   UNL     1      -4.050 -11.792  -3.276  1.00  0.00     0.049 A 
ATOM     60  C   UNL     1       1.032 -11.069  -5.462  1.00  0.00     0.074 A 
ATOM     61  C   UNL     1      -4.382 -11.136  -4.452  1.00  0.00     0.029 A 
ATOM     62  N   UNL     1      -2.985 -12.618  -3.598  1.00  0.00    -0.354 N 
ATOM     63  N   UNL     1      -0.226 -11.397  -5.342  1.00  0.00    -0.248 NA
ATOM     64  C   UNL     1       1.846 -12.187  -5.937  1.00  0.00     0.031 C 
ATOM     65  C   UNL     1      -3.517 -11.601  -5.485  1.00  0.00     0.029 A 
ATOM     66  C   UNL     1      -2.668 -12.546  -4.941  1.00  0.00     0.049 A 
ATOM     67  H   UNL     1      -2.513 -13.188  -2.948  1.00  0.00     0.167 HD
ATOM     68  C   UNL     1      -0.385 -12.735  -5.615  1.00  0.00     0.074 A 
ATOM     69  C   UNL     1       0.944 -13.182  -5.993  1.00  0.00     0.031 C 
ATOM     70  C   UNL     1      -1.584 -13.376  -5.451  1.00  0.00     0.034 A 
BRANCH  57  71
ATOM     71  C   UNL     1      -5.853 -11.791  -1.374  1.00  0.00     0.023 A 
ATOM     72  C   UNL     1      -6.916 -11.739  -2.299  1.00  0.00     0.031 A 
ATOM     73  C   UNL     1      -6.237 -11.952  -0.029  1.00  0.00     0.131 A 
ATOM     74  C   UNL     1      -8.258 -11.717  -1.878  1.00  0.00     0.055 A 
ATOM     75  C   UNL     1      -7.568 -11.858   0.400  1.00  0.00     0.041 A 
ATOM     76  F   UNL     1      -5.350 -12.271   0.923  1.00  0.00    -0.206 F 
ATOM     77  C   UNL     1      -8.589 -11.722  -0.527  1.00  0.00     0.022 A 
BRANCH  74  78
ATOM     78  S   UNL     1      -9.572 -11.694  -3.127  1.00  0.00     0.124 S 
ATOM     79  O   UNL     1      -9.260 -10.488  -3.886  1.00  0.00    -0.237 OA
ATOM     80  O   UNL     1      -9.363 -12.963  -3.815  1.00  0.00    -0.237 OA
ATOM     81  O   UNL     1     -10.796 -11.621  -2.329  1.00  0.00    -0.744 OA
ENDBRANCH  74  78
ENDBRANCH  57  71
BRANCH  58  82
ATOM     82  C   UNL     1       2.981  -9.481  -4.511  1.00  0.00     0.023 A 
ATOM     83  C   UNL     1       3.532  -8.194  -4.708  1.00  0.00     0.031 A 
ATOM     84  C   UNL     1       3.531 -10.278  -3.501  1.00  0.00     0.131 A 
ATOM     85  C   UNL     1       4.463  -7.675  -3.798  1.00  0.00     0.055 A 
ATOM     86  C   UNL     1       4.523  -9.784  -2.643  1.00  0.00     0.041 A 
ATOM     87  F   UNL     1       3.031 -11.495  -3.238  1.00  0.00    -0.206 F 
ATOM     88  C   UNL     1       4.955  -8.461  -2.756  1.00  0.00     0.022 A 
BRANCH  85  89
ATOM     89  S   UNL     1       4.793  -5.886  -3.803  1.00  0.00     0.124 S 
ATOM     90  O   UNL     1       6.013  -5.800  -4.596  1.00  0.00    -0.237 OA
ATOM     91  O   UNL     1       3.591  -5.334  -4.425  1.00  0.00    -0.237 OA
ATOM     92  O   UNL     1       4.935  -5.562  -2.384  1.00  0.00    -0.744 OA
ENDBRANCH  85  89
ENDBRANCH  58  82
BRANCH  70  93
ATOM     93  C   UNL     1      -1.837 -14.851  -5.708  1.00  0.00     0.023 A 
ATOM     94  C   UNL     1      -1.117 -15.601  -6.652  1.00  0.00     0.031 A 
ATOM     95  C   UNL     1      -2.879 -15.549  -5.046  1.00  0.00     0.131 A 
ATOM     96  C   UNL     1      -1.369 -16.977  -6.835  1.00  0.00     0.055 A 
ATOM     97  C   UNL     1      -3.172 -16.896  -5.278  1.00  0.00     0.041 A 
ATOM     98  F   UNL     1      -3.652 -14.966  -4.120  1.00  0.00    -0.206 F 
ATOM     99  C   UNL     1      -2.402 -17.626  -6.164  1.00  0.00     0.022 A 
BRANCH  96 100
ATOM    100  S   UNL     1      -0.282 -17.922  -7.934  1.00  0.00     0.124 S 
ATOM    101  O   UNL     1      -0.368 -17.174  -9.184  1.00  0.00    -0.237 OA
ATOM    102  O   UNL     1       0.996 -17.841  -7.232  1.00  0.00    -0.237 OA
ATOM    103  O   UNL     1      -0.889 -19.252  -7.962  1.00  0.00    -0.744 OA
ENDBRANCH  96 100
ENDBRANCH  70  93
ENDBRANCH  44  45
ENDBRANCH  36  39
ENDBRANCH  34  35
ENDBRANCH  33  34
ENDBRANCH  32  33
ENDBRANCH   1  32
TORSDOF 22
