REMARK SMILES Cc1ccccc1[C@@H]1[NH2+][C@@H](C(=O)NCCCCCCNC(=O)c2ccc(-c3c4nc(c(-c5cc(S(=O)(=O)[O-])ccc5F)c5ccc([nH]5)c(-c5cc(S(=O)(=O)[O-])ccc5F)c5nc(c(-c6cc(S(=O)(=O)[O-])ccc6F)c6ccc3[nH]6)C=C5)C=C4)cc2)CC2=c3ccccc3=N[C@H]21
REMARK SMILES IDX 17 1 16 2 15 3 14 4 13 5 11 6 12 7 10 9 8 10 9 11 95 12
REMARK SMILES IDX 87 15 94 16 86 17 88 18 93 19 89 20 92 21 90 22 91 23 7 24
REMARK SMILES IDX 1 25 2 26 3 27 4 28 6 29 5 30 18 31 19 32 20 33 21 34 22 36
REMARK SMILES IDX 23 37 24 38 85 39 25 40 84 41 26 42 27 43 28 44 78 45 29 46
REMARK SMILES IDX 83 47 77 48 79 49 30 50 82 51 76 52 75 53 31 55 63 56 43 57
REMARK SMILES IDX 62 58 44 59 47 60 61 61 80 62 45 63 46 64 60 66 81 67 48 68
REMARK SMILES IDX 32 69 33 70 41 71 34 72 40 73 42 74 39 75 35 76 36 77 37 78
REMARK SMILES IDX 38 79 64 80 65 81 73 82 66 83 72 84 74 85 71 86 67 87 68 88
REMARK SMILES IDX 69 89 70 90 49 91 50 92 58 93 51 94 57 95 59 96 56 97 52 98
REMARK SMILES IDX 53 99 54 100 55 101
REMARK H PARENT 13 8 9 13 9 14 20 35 79 54 47 65
REMARK Flexibility Score: inf
ROOT
ATOM      1  C   UNL     1      -5.974   7.948  -0.849  1.00  0.00     0.002 C 
ENDROOT
BRANCH   1   2
ATOM      2  C   UNL     1      -4.456   7.884  -1.106  1.00  0.00     0.002 C 
BRANCH   2   3
ATOM      3  C   UNL     1      -3.611   6.970  -0.204  1.00  0.00     0.021 C 
BRANCH   3   4
ATOM      4  C   UNL     1      -4.091   5.524  -0.070  1.00  0.00     0.116 C 
BRANCH   4   5
ATOM      5  N   UNL     1      -3.585   4.572  -1.045  1.00  0.00    -0.351 N 
ATOM      6  C   UNL     1      -2.471   3.776  -1.033  1.00  0.00     0.278 C 
ATOM      7  O   UNL     1      -2.564   2.693  -1.629  1.00  0.00    -0.268 OA
ATOM      8  H   UNL     1      -4.139   4.484  -1.854  1.00  0.00     0.163 HD
BRANCH   6   9
ATOM      9  C   UNL     1      -1.089   4.261  -0.496  1.00  0.00     0.277 C 
ATOM     10  C   UNL     1       0.624   2.495   0.289  1.00  0.00     0.243 C 
ATOM     11  N   UNL     1      -0.040   3.237  -0.814  1.00  0.00    -0.327 N 
ATOM     12  C   UNL     1       0.565   3.092   1.730  1.00  0.00     0.196 C 
ATOM     13  H   UNL     1      -0.480   2.541  -1.416  1.00  0.00     0.347 HD
ATOM     14  H   UNL     1       0.717   3.790  -1.216  1.00  0.00     0.347 HD
ATOM     15  C   UNL     1      -0.750   3.773   1.911  1.00  0.00    -0.024 C 
ATOM     16  N   UNL     1       0.594   2.038   2.795  1.00  0.00    -0.270 NA
ATOM     17  C   UNL     1      -1.033   4.834   0.920  1.00  0.00     0.109 C 
ATOM     18  C   UNL     1      -1.459   3.236   2.893  1.00  0.00     0.002 A 
ATOM     19  C   UNL     1      -0.537   2.210   3.410  1.00  0.00     0.066 A 
ATOM     20  C   UNL     1      -2.773   3.402   3.416  1.00  0.00     0.010 A 
ATOM     21  C   UNL     1      -0.999   1.461   4.599  1.00  0.00     0.028 A 
ATOM     22  C   UNL     1      -3.152   2.638   4.453  1.00  0.00     0.001 A 
ATOM     23  C   UNL     1      -2.237   1.691   5.070  1.00  0.00     0.002 A 
BRANCH  10  24
ATOM     24  C   UNL     1       2.093   2.213  -0.075  1.00  0.00     0.015 A 
ATOM     25  C   UNL     1       2.724   4.701  -0.366  1.00  0.00     0.045 C 
ATOM     26  C   UNL     1       3.045   3.229  -0.344  1.00  0.00    -0.042 A 
ATOM     27  C   UNL     1       4.396   2.876  -0.533  1.00  0.00     0.004 A 
ATOM     28  C   UNL     1       4.808   1.546  -0.503  1.00  0.00     0.000 A 
ATOM     29  C   UNL     1       2.533   0.872  -0.067  1.00  0.00     0.010 A 
ATOM     30  C   UNL     1       3.874   0.542  -0.283  1.00  0.00     0.001 A 
ENDBRANCH  10  24
ENDBRANCH   6   9
ENDBRANCH   4   5
ENDBRANCH   3   4
ENDBRANCH   2   3
ENDBRANCH   1   2
BRANCH   1  31
ATOM     31  C   UNL     1      -6.428   8.149   0.599  1.00  0.00     0.021 C 
BRANCH  31  32
ATOM     32  C   UNL     1      -6.100   9.520   1.186  1.00  0.00     0.116 C 
BRANCH  32  33
ATOM     33  N   UNL     1      -7.254  10.403   1.332  1.00  0.00    -0.352 N 
ATOM     34  C   UNL     1      -7.328  11.666   1.901  1.00  0.00     0.251 C 
ATOM     35  H   UNL     1      -8.102  10.051   0.975  1.00  0.00     0.163 HD
ATOM     36  O   UNL     1      -8.396  12.245   2.022  1.00  0.00    -0.269 OA
BRANCH  34  37
ATOM     37  C   UNL     1      -6.068  12.368   2.252  1.00  0.00     0.039 A 
ATOM     38  C   UNL     1      -5.874  13.652   1.726  1.00  0.00     0.014 A 
ATOM     39  C   UNL     1      -5.021  11.701   2.877  1.00  0.00     0.014 A 
ATOM     40  C   UNL     1      -4.579  14.151   1.599  1.00  0.00     0.010 A 
ATOM     41  C   UNL     1      -3.732  12.144   2.661  1.00  0.00     0.010 A 
ATOM     42  C   UNL     1      -3.508  13.335   1.960  1.00  0.00    -0.014 A 
BRANCH  42  43
ATOM     43  C   UNL     1      -2.140  13.559   1.506  1.00  0.00     0.031 A 
ATOM     44  C   UNL     1      -1.076  13.962   2.446  1.00  0.00     0.074 A 
ATOM     45  C   UNL     1      -1.818  13.284   0.223  1.00  0.00     0.049 A 
ATOM     46  N   UNL     1       0.035  14.511   2.090  1.00  0.00    -0.248 NA
ATOM     47  C   UNL     1      -1.200  13.800   3.887  1.00  0.00     0.031 C 
ATOM     48  C   UNL     1      -0.483  13.155  -0.354  1.00  0.00     0.029 A 
ATOM     49  N   UNL     1      -2.670  13.309  -0.879  1.00  0.00    -0.354 N 
ATOM     50  C   UNL     1       0.875  14.508   3.178  1.00  0.00     0.074 A 
ATOM     51  C   UNL     1       0.037  14.113   4.287  1.00  0.00     0.031 C 
ATOM     52  C   UNL     1      -0.559  13.384  -1.673  1.00  0.00     0.029 A 
ATOM     53  C   UNL     1      -1.917  13.804  -1.964  1.00  0.00     0.049 A 
ATOM     54  H   UNL     1      -3.615  13.036  -0.897  1.00  0.00     0.167 HD
ATOM     55  C   UNL     1       2.211  14.718   2.992  1.00  0.00     0.034 A 
ATOM     56  C   UNL     1      -2.279  14.971  -2.575  1.00  0.00     0.034 A 
ATOM     57  C   UNL     1       2.526  15.036   1.597  1.00  0.00     0.049 A 
ATOM     58  C   UNL     1      -1.252  16.082  -2.440  1.00  0.00     0.074 A 
ATOM     59  C   UNL     1       3.075  14.338   0.533  1.00  0.00     0.029 A 
ATOM     60  N   UNL     1       2.019  16.205   1.058  1.00  0.00    -0.354 N 
ATOM     61  N   UNL     1      -0.117  15.966  -1.806  1.00  0.00    -0.248 NA
ATOM     62  C   UNL     1      -1.463  17.442  -2.942  1.00  0.00     0.031 C 
ATOM     63  C   UNL     1       2.854  15.096  -0.656  1.00  0.00     0.029 A 
ATOM     64  C   UNL     1       2.193  16.261  -0.310  1.00  0.00     0.049 A 
ATOM     65  H   UNL     1       1.586  16.913   1.587  1.00  0.00     0.167 HD
ATOM     66  C   UNL     1       0.499  17.189  -1.736  1.00  0.00     0.074 A 
ATOM     67  C   UNL     1      -0.375  18.080  -2.477  1.00  0.00     0.031 C 
ATOM     68  C   UNL     1       1.651  17.400  -1.034  1.00  0.00     0.034 A 
BRANCH  55  69
ATOM     69  C   UNL     1       3.270  14.408   4.024  1.00  0.00     0.023 A 
ATOM     70  C   UNL     1       4.567  14.062   3.592  1.00  0.00     0.031 A 
ATOM     71  C   UNL     1       3.081  14.398   5.420  1.00  0.00     0.131 A 
ATOM     72  C   UNL     1       5.555  13.630   4.496  1.00  0.00     0.055 A 
ATOM     73  C   UNL     1       4.039  13.905   6.316  1.00  0.00     0.041 A 
ATOM     74  F   UNL     1       1.988  14.924   5.987  1.00  0.00    -0.206 F 
ATOM     75  C   UNL     1       5.282  13.503   5.854  1.00  0.00     0.022 A 
BRANCH  72  76
ATOM     76  S   UNL     1       7.212  13.246   3.869  1.00  0.00     0.124 S 
ATOM     77  O   UNL     1       6.937  12.204   2.885  1.00  0.00    -0.237 OA
ATOM     78  O   UNL     1       7.646  14.535   3.343  1.00  0.00    -0.237 OA
ATOM     79  O   UNL     1       7.928  12.795   5.062  1.00  0.00    -0.744 OA
ENDBRANCH  72  76
ENDBRANCH  55  69
BRANCH  56  80
ATOM     80  C   UNL     1      -3.764  15.132  -2.632  1.00  0.00     0.023 A 
ATOM     81  C   UNL     1      -4.489  14.094  -3.263  1.00  0.00     0.031 A 
ATOM     82  C   UNL     1      -4.459  15.980  -1.762  1.00  0.00     0.131 A 
ATOM     83  C   UNL     1      -5.805  13.812  -2.871  1.00  0.00     0.055 A 
ATOM     84  C   UNL     1      -5.803  15.748  -1.442  1.00  0.00     0.041 A 
ATOM     85  F   UNL     1      -3.822  16.959  -1.103  1.00  0.00    -0.206 F 
ATOM     86  C   UNL     1      -6.466  14.631  -1.955  1.00  0.00     0.022 A 
BRANCH  83  87
ATOM     87  S   UNL     1      -6.530  12.204  -3.327  1.00  0.00     0.124 S 
ATOM     88  O   UNL     1      -7.234  12.528  -4.562  1.00  0.00    -0.237 OA
ATOM     89  O   UNL     1      -5.358  11.342  -3.467  1.00  0.00    -0.237 OA
ATOM     90  O   UNL     1      -7.377  11.877  -2.182  1.00  0.00    -0.744 OA
ENDBRANCH  83  87
ENDBRANCH  56  80
BRANCH  68  91
ATOM     91  C   UNL     1       2.343  18.736  -0.963  1.00  0.00     0.023 A 
ATOM     92  C   UNL     1       2.482  19.558  -2.092  1.00  0.00     0.031 A 
ATOM     93  C   UNL     1       2.962  19.189   0.224  1.00  0.00     0.131 A 
ATOM     94  C   UNL     1       3.158  20.788  -2.003  1.00  0.00     0.055 A 
ATOM     95  C   UNL     1       3.708  20.369   0.285  1.00  0.00     0.041 A 
ATOM     96  F   UNL     1       2.832  18.529   1.384  1.00  0.00    -0.206 F 
ATOM     97  C   UNL     1       3.801  21.184  -0.831  1.00  0.00     0.022 A 
BRANCH  94  98
ATOM     98  S   UNL     1       3.110  21.908  -3.426  1.00  0.00     0.124 S 
ATOM     99  O   UNL     1       3.625  21.074  -4.507  1.00  0.00    -0.237 OA
ATOM    100  O   UNL     1       1.687  22.232  -3.497  1.00  0.00    -0.237 OA
ATOM    101  O   UNL     1       3.976  23.014  -3.025  1.00  0.00    -0.744 OA
ENDBRANCH  94  98
ENDBRANCH  68  91
ENDBRANCH  42  43
ENDBRANCH  34  37
ENDBRANCH  32  33
ENDBRANCH  31  32
ENDBRANCH   1  31
TORSDOF 17
