REMARK SMILES C=CCOC(=O)N[C@@H](Cc1ccccc1)C(=O)NCCCCCCNC(=O)c1ccc(-c2c3nc(c(-c4cc(S(=O)(=O)[O-])ccc4F)c4ccc([nH]4)c(-c4cc(S(=O)(=O)[O-])ccc4F)c4nc(c(-c5cc(S(=O)(=O)[O-])ccc5F)c5ccc2[nH]5)C=C4)C=C3)cc1
REMARK SMILES IDX 21 1 20 2 19 3 18 4 16 5 17 6 8 8 7 9 5 10 6 11 4 13 3 14
REMARK SMILES IDX 2 15 1 16 9 17 10 18 11 19 15 20 12 21 14 22 13 23 22 24
REMARK SMILES IDX 23 25 24 26 25 27 26 28 27 30 28 31 29 32 90 33 30 34 89 35
REMARK SMILES IDX 31 36 32 37 33 38 83 39 34 40 88 41 82 42 84 43 35 44 87 45
REMARK SMILES IDX 81 46 80 47 36 49 68 50 48 51 67 52 49 53 52 54 66 55 85 56
REMARK SMILES IDX 50 57 51 58 65 60 86 61 53 62 37 63 38 64 46 65 39 66 45 67
REMARK SMILES IDX 47 68 44 69 40 70 41 71 42 72 43 73 69 74 70 75 78 76 71 77
REMARK SMILES IDX 77 78 79 79 76 80 72 81 73 82 74 83 75 84 54 85 55 86 63 87
REMARK SMILES IDX 56 88 62 89 64 90 61 91 57 92 58 93 59 94 60 95
REMARK H PARENT 18 7 7 12 25 29 84 48 52 59
REMARK Flexibility Score: inf
ROOT
ATOM      1  C   UNL     1       0.324   1.017   8.848  1.00  0.00     0.002 C 
ENDROOT
BRANCH   1   2
ATOM      2  C   UNL     1      -0.043   0.358   7.517  1.00  0.00     0.021 C 
BRANCH   2   3
ATOM      3  C   UNL     1      -1.366   0.823   6.929  1.00  0.00     0.116 C 
BRANCH   3   4
ATOM      4  N   UNL     1      -1.316   2.133   6.319  1.00  0.00    -0.354 N 
ATOM      5  C   UNL     1      -2.029   2.626   5.264  1.00  0.00     0.243 C 
ATOM      6  O   UNL     1      -2.118   3.858   5.185  1.00  0.00    -0.273 OA
ATOM      7  H   UNL     1      -0.676   2.762   6.724  1.00  0.00     0.163 HD
BRANCH   5   8
ATOM      8  C   UNL     1      -2.816   1.732   4.275  1.00  0.00     0.179 C 
BRANCH   8   9
ATOM      9  N   UNL     1      -2.106   0.541   3.810  1.00  0.00    -0.309 N 
ATOM     10  C   UNL     1      -1.532   0.331   2.596  1.00  0.00     0.408 C 
ATOM     11  O   UNL     1      -1.041  -0.759   2.326  1.00  0.00    -0.225 OA
ATOM     12  H   UNL     1      -2.034  -0.199   4.455  1.00  0.00     0.167 HD
BRANCH  10  13
ATOM     13  O   UNL     1      -1.612   1.392   1.759  1.00  0.00    -0.445 OA
BRANCH  13  14
ATOM     14  C   UNL     1      -1.206   1.128   0.411  1.00  0.00     0.262 C 
BRANCH  14  15
ATOM     15  C   UNL     1       0.285   1.211   0.278  1.00  0.00     0.006 C 
ATOM     16  C   UNL     1       1.050   0.196  -0.146  1.00  0.00     0.007 C 
ENDBRANCH  14  15
ENDBRANCH  13  14
ENDBRANCH  10  13
ENDBRANCH   8   9
BRANCH   8  17
ATOM     17  C   UNL     1      -4.263   1.426   4.727  1.00  0.00     0.070 C 
BRANCH  17  18
ATOM     18  C   UNL     1      -4.444   0.572   5.962  1.00  0.00    -0.045 A 
ATOM     19  C   UNL     1      -4.254  -0.818   5.918  1.00  0.00     0.004 A 
ATOM     20  C   UNL     1      -4.784   1.167   7.187  1.00  0.00     0.004 A 
ATOM     21  C   UNL     1      -4.330  -1.582   7.085  1.00  0.00     0.000 A 
ATOM     22  C   UNL     1      -4.877   0.398   8.349  1.00  0.00     0.000 A 
ATOM     23  C   UNL     1      -4.635  -0.973   8.301  1.00  0.00     0.000 A 
ENDBRANCH  17  18
ENDBRANCH   8  17
ENDBRANCH   5   8
ENDBRANCH   3   4
ENDBRANCH   2   3
ENDBRANCH   1   2
BRANCH   1  24
ATOM     24  C   UNL     1      -0.733   0.920   9.957  1.00  0.00     0.002 C 
BRANCH  24  25
ATOM     25  C   UNL     1      -1.262  -0.486  10.253  1.00  0.00     0.021 C 
BRANCH  25  26
ATOM     26  C   UNL     1      -0.198  -1.522  10.597  1.00  0.00     0.116 C 
BRANCH  26  27
ATOM     27  N   UNL     1       0.598  -1.132  11.747  1.00  0.00    -0.352 N 
ATOM     28  C   UNL     1       0.868  -1.824  12.901  1.00  0.00     0.251 C 
ATOM     29  H   UNL     1       1.006  -0.238  11.690  1.00  0.00     0.163 HD
ATOM     30  O   UNL     1       1.405  -1.245  13.842  1.00  0.00    -0.269 OA
BRANCH  28  31
ATOM     31  C   UNL     1       0.488  -3.249  13.019  1.00  0.00     0.039 A 
ATOM     32  C   UNL     1      -0.081  -3.696  14.214  1.00  0.00     0.014 A 
ATOM     33  C   UNL     1       0.697  -4.143  11.966  1.00  0.00     0.014 A 
ATOM     34  C   UNL     1      -0.494  -5.025  14.329  1.00  0.00     0.010 A 
ATOM     35  C   UNL     1       0.211  -5.446  12.053  1.00  0.00     0.010 A 
ATOM     36  C   UNL     1      -0.386  -5.903  13.238  1.00  0.00    -0.014 A 
BRANCH  36  37
ATOM     37  C   UNL     1      -0.885  -7.301  13.325  1.00  0.00     0.031 A 
ATOM     38  C   UNL     1       0.070  -8.456  13.188  1.00  0.00     0.074 A 
ATOM     39  C   UNL     1      -2.205  -7.528  13.481  1.00  0.00     0.049 A 
ATOM     40  N   UNL     1      -0.180  -9.740  13.178  1.00  0.00    -0.248 NA
ATOM     41  C   UNL     1       1.491  -8.120  13.010  1.00  0.00     0.031 C 
ATOM     42  C   UNL     1      -3.232  -6.490  13.594  1.00  0.00     0.029 A 
ATOM     43  N   UNL     1      -2.912  -8.701  13.570  1.00  0.00    -0.354 N 
ATOM     44  C   UNL     1       1.048 -10.365  12.987  1.00  0.00     0.074 A 
ATOM     45  C   UNL     1       2.029  -9.315  12.817  1.00  0.00     0.031 C 
ATOM     46  C   UNL     1      -4.429  -7.072  13.769  1.00  0.00     0.029 A 
ATOM     47  C   UNL     1      -4.267  -8.522  13.725  1.00  0.00     0.049 A 
ATOM     48  H   UNL     1      -2.488  -9.589  13.527  1.00  0.00     0.167 HD
ATOM     49  C   UNL     1       1.333 -11.691  12.978  1.00  0.00     0.034 A 
ATOM     50  C   UNL     1      -5.269  -9.421  13.807  1.00  0.00     0.034 A 
ATOM     51  C   UNL     1       0.341 -12.724  13.154  1.00  0.00     0.049 A 
ATOM     52  C   UNL     1      -4.932 -10.890  13.746  1.00  0.00     0.074 A 
ATOM     53  C   UNL     1       0.527 -14.094  13.211  1.00  0.00     0.029 A 
ATOM     54  N   UNL     1      -1.024 -12.505  13.287  1.00  0.00    -0.354 N 
ATOM     55  N   UNL     1      -3.758 -11.464  13.615  1.00  0.00    -0.248 NA
ATOM     56  C   UNL     1      -6.053 -11.832  13.852  1.00  0.00     0.031 C 
ATOM     57  C   UNL     1      -0.729 -14.704  13.293  1.00  0.00     0.029 A 
ATOM     58  C   UNL     1      -1.695 -13.715  13.385  1.00  0.00     0.049 A 
ATOM     59  H   UNL     1      -1.454 -11.619  13.310  1.00  0.00     0.167 HD
ATOM     60  C   UNL     1      -4.000 -12.835  13.658  1.00  0.00     0.074 A 
ATOM     61  C   UNL     1      -5.427 -12.998  13.844  1.00  0.00     0.031 C 
ATOM     62  C   UNL     1      -3.121 -13.866  13.557  1.00  0.00     0.034 A 
BRANCH  49  63
ATOM     63  C   UNL     1       2.771 -12.094  12.742  1.00  0.00     0.023 A 
ATOM     64  C   UNL     1       3.799 -11.719  13.626  1.00  0.00     0.031 A 
ATOM     65  C   UNL     1       3.123 -12.847  11.608  1.00  0.00     0.131 A 
ATOM     66  C   UNL     1       5.133 -12.029  13.321  1.00  0.00     0.055 A 
ATOM     67  C   UNL     1       4.442 -13.229  11.357  1.00  0.00     0.041 A 
ATOM     68  F   UNL     1       2.191 -13.215  10.715  1.00  0.00    -0.206 F 
ATOM     69  C   UNL     1       5.459 -12.806  12.208  1.00  0.00     0.022 A 
BRANCH  66  70
ATOM     70  S   UNL     1       6.446 -11.270  14.316  1.00  0.00     0.124 S 
ATOM     71  O   UNL     1       6.165  -9.847  14.138  1.00  0.00    -0.237 OA
ATOM     72  O   UNL     1       6.188 -11.811  15.645  1.00  0.00    -0.237 OA
ATOM     73  O   UNL     1       7.674 -11.740  13.678  1.00  0.00    -0.744 OA
ENDBRANCH  66  70
ENDBRANCH  49  63
BRANCH  50  74
ATOM     74  C   UNL     1      -6.685  -8.968  13.938  1.00  0.00     0.023 A 
ATOM     75  C   UNL     1      -7.449  -9.295  15.069  1.00  0.00     0.031 A 
ATOM     76  C   UNL     1      -7.312  -8.244  12.908  1.00  0.00     0.131 A 
ATOM     77  C   UNL     1      -8.808  -8.947  15.121  1.00  0.00     0.055 A 
ATOM     78  C   UNL     1      -8.647  -7.844  12.992  1.00  0.00     0.041 A 
ATOM     79  F   UNL     1      -6.630  -7.903  11.803  1.00  0.00    -0.206 F 
ATOM     80  C   UNL     1      -9.408  -8.209  14.098  1.00  0.00     0.022 A 
BRANCH  77  81
ATOM     81  S   UNL     1      -9.810  -9.562  16.502  1.00  0.00     0.124 S 
ATOM     82  O   UNL     1      -9.627 -11.004  16.380  1.00  0.00    -0.237 OA
ATOM     83  O   UNL     1      -9.169  -8.927  17.648  1.00  0.00    -0.237 OA
ATOM     84  O   UNL     1     -11.152  -9.075  16.191  1.00  0.00    -0.744 OA
ENDBRANCH  77  81
ENDBRANCH  50  74
BRANCH  62  85
ATOM     85  C   UNL     1      -3.679 -15.263  13.694  1.00  0.00     0.023 A 
ATOM     86  C   UNL     1      -4.576 -15.800  12.753  1.00  0.00     0.031 A 
ATOM     87  C   UNL     1      -3.313 -16.067  14.789  1.00  0.00     0.131 A 
ATOM     88  C   UNL     1      -5.121 -17.077  12.957  1.00  0.00     0.055 A 
ATOM     89  C   UNL     1      -3.803 -17.363  14.948  1.00  0.00     0.041 A 
ATOM     90  F   UNL     1      -2.465 -15.605  15.722  1.00  0.00    -0.206 F 
ATOM     91  C   UNL     1      -4.724 -17.870  14.036  1.00  0.00     0.022 A 
BRANCH  88  92
ATOM     92  S   UNL     1      -6.437 -17.649  11.847  1.00  0.00     0.124 S 
ATOM     93  O   UNL     1      -7.447 -16.609  12.015  1.00  0.00    -0.237 OA
ATOM     94  O   UNL     1      -5.764 -17.679  10.553  1.00  0.00    -0.237 OA
ATOM     95  O   UNL     1      -6.798 -18.958  12.389  1.00  0.00    -0.744 OA
ENDBRANCH  88  92
ENDBRANCH  62  85
ENDBRANCH  36  37
ENDBRANCH  28  31
ENDBRANCH  26  27
ENDBRANCH  25  26
ENDBRANCH  24  25
ENDBRANCH   1  24
TORSDOF 22
