REMARK SMILES O=C(NCCCCCCNC(=O)c1cccc2nc(Cl)c(Cl)nc12)c1ccc(-c2c3nc(c(-c4cc(S(=O)(=O)[O-])ccc4F)c4ccc([nH]4)c(-c4cc(S(=O)(=O)[O-])ccc4F)c4nc(c(-c5cc(S(=O)(=O)[O-])ccc5F)c5ccc2[nH]5)C=C4)C=C3)cc1
REMARK SMILES IDX 5 1 4 2 3 3 1 4 2 5 25 7 26 8 87 9 27 10 86 11 28 12 29 13
REMARK SMILES IDX 30 14 80 15 31 16 85 17 79 18 81 19 32 20 84 21 78 22 77 23
REMARK SMILES IDX 33 25 65 26 45 27 64 28 46 29 49 30 63 31 82 32 47 33 48 34
REMARK SMILES IDX 62 36 83 37 50 38 34 39 35 40 43 41 36 42 42 43 44 44 41 45
REMARK SMILES IDX 37 46 38 47 39 48 40 49 66 50 67 51 75 52 68 53 74 54 76 55
REMARK SMILES IDX 73 56 69 57 70 58 71 59 72 60 51 61 52 62 60 63 53 64 59 65
REMARK SMILES IDX 61 66 58 67 54 68 55 69 56 70 57 71 6 72 7 73 8 74 9 75
REMARK SMILES IDX 10 76 11 77 12 79 13 80 14 81 24 82 15 83 17 84 23 85 16 86
REMARK SMILES IDX 18 87 21 88 19 89 22 90 20 91
REMARK H PARENT 3 6 81 24 49 35 10 78
REMARK Flexibility Score: inf
ROOT
ATOM      1  C   UNL     1       4.702   0.321  -2.789  1.00  0.00     0.021 C 
ENDROOT
BRANCH   1   2
ATOM      2  C   UNL     1       4.438   0.490  -1.298  1.00  0.00     0.116 C 
BRANCH   2   3
ATOM      3  N   UNL     1       3.024   0.598  -0.981  1.00  0.00    -0.352 N 
ATOM      4  O   UNL     1       1.084   0.101   0.046  1.00  0.00    -0.269 OA
ATOM      5  C   UNL     1       2.311  -0.015   0.019  1.00  0.00     0.251 C 
ATOM      6  H   UNL     1       2.504   1.194  -1.566  1.00  0.00     0.163 HD
BRANCH   5   7
ATOM      7  C   UNL     1       2.998  -0.829   1.049  1.00  0.00     0.039 A 
ATOM      8  C   UNL     1       2.408  -2.026   1.463  1.00  0.00     0.014 A 
ATOM      9  C   UNL     1       4.200  -0.410   1.629  1.00  0.00     0.014 A 
ATOM     10  C   UNL     1       3.038  -2.814   2.429  1.00  0.00     0.010 A 
ATOM     11  C   UNL     1       4.869  -1.239   2.528  1.00  0.00     0.010 A 
ATOM     12  C   UNL     1       4.283  -2.437   2.959  1.00  0.00    -0.014 A 
BRANCH  12  13
ATOM     13  C   UNL     1       4.959  -3.269   3.990  1.00  0.00     0.031 A 
ATOM     14  C   UNL     1       5.199  -2.723   5.372  1.00  0.00     0.074 A 
ATOM     15  C   UNL     1       5.380  -4.510   3.678  1.00  0.00     0.049 A 
ATOM     16  N   UNL     1       5.760  -3.301   6.402  1.00  0.00    -0.248 NA
ATOM     17  C   UNL     1       4.781  -1.333   5.621  1.00  0.00     0.031 C 
ATOM     18  C   UNL     1       5.265  -5.125   2.356  1.00  0.00     0.029 A 
ATOM     19  N   UNL     1       5.985  -5.476   4.445  1.00  0.00    -0.354 N 
ATOM     20  C   UNL     1       5.757  -2.352   7.418  1.00  0.00     0.074 A 
ATOM     21  C   UNL     1       5.223  -1.134   6.853  1.00  0.00     0.031 C 
ATOM     22  C   UNL     1       5.749  -6.375   2.412  1.00  0.00     0.029 A 
ATOM     23  C   UNL     1       6.239  -6.643   3.764  1.00  0.00     0.049 A 
ATOM     24  H   UNL     1       6.215  -5.344   5.393  1.00  0.00     0.167 HD
ATOM     25  C   UNL     1       6.121  -2.493   8.716  1.00  0.00     0.034 A 
ATOM     26  C   UNL     1       6.792  -7.802   4.178  1.00  0.00     0.034 A 
ATOM     27  C   UNL     1       6.641  -3.716   9.271  1.00  0.00     0.049 A 
ATOM     28  C   UNL     1       7.178  -7.949   5.628  1.00  0.00     0.074 A 
ATOM     29  C   UNL     1       7.010  -3.973  10.579  1.00  0.00     0.029 A 
ATOM     30  N   UNL     1       6.859  -4.887   8.559  1.00  0.00    -0.354 N 
ATOM     31  N   UNL     1       7.088  -7.068   6.598  1.00  0.00    -0.248 NA
ATOM     32  C   UNL     1       7.718  -9.248   6.050  1.00  0.00     0.031 C 
ATOM     33  C   UNL     1       7.497  -5.280  10.647  1.00  0.00     0.029 A 
ATOM     34  C   UNL     1       7.372  -5.865   9.396  1.00  0.00     0.049 A 
ATOM     35  H   UNL     1       6.676  -5.006   7.598  1.00  0.00     0.167 HD
ATOM     36  C   UNL     1       7.553  -7.708   7.744  1.00  0.00     0.074 A 
ATOM     37  C   UNL     1       7.880  -9.064   7.354  1.00  0.00     0.031 C 
ATOM     38  C   UNL     1       7.704  -7.214   9.000  1.00  0.00     0.034 A 
BRANCH  25  39
ATOM     39  C   UNL     1       5.931  -1.312   9.638  1.00  0.00     0.023 A 
ATOM     40  C   UNL     1       7.033  -0.727  10.288  1.00  0.00     0.031 A 
ATOM     41  C   UNL     1       4.646  -0.824   9.941  1.00  0.00     0.131 A 
ATOM     42  C   UNL     1       6.826   0.300  11.219  1.00  0.00     0.055 A 
ATOM     43  C   UNL     1       4.449   0.230  10.834  1.00  0.00     0.041 A 
ATOM     44  F   UNL     1       3.560  -1.349   9.351  1.00  0.00    -0.206 F 
ATOM     45  C   UNL     1       5.542   0.789  11.486  1.00  0.00     0.022 A 
BRANCH  42  46
ATOM     46  S   UNL     1       8.204   1.005  12.164  1.00  0.00     0.124 S 
ATOM     47  O   UNL     1       8.146   2.412  11.772  1.00  0.00    -0.237 OA
ATOM     48  O   UNL     1       7.804   0.724  13.541  1.00  0.00    -0.237 OA
ATOM     49  O   UNL     1       9.370   0.274  11.684  1.00  0.00    -0.744 OA
ENDBRANCH  42  46
ENDBRANCH  25  39
BRANCH  26  50
ATOM     50  C   UNL     1       6.922  -8.925   3.203  1.00  0.00     0.023 A 
ATOM     51  C   UNL     1       7.725  -8.794   2.054  1.00  0.00     0.031 A 
ATOM     52  C   UNL     1       6.143 -10.086   3.334  1.00  0.00     0.131 A 
ATOM     53  C   UNL     1       7.670  -9.769   1.050  1.00  0.00     0.055 A 
ATOM     54  C   UNL     1       6.149 -11.092   2.366  1.00  0.00     0.041 A 
ATOM     55  F   UNL     1       5.349 -10.250   4.404  1.00  0.00    -0.206 F 
ATOM     56  C   UNL     1       6.900 -10.926   1.206  1.00  0.00     0.022 A 
BRANCH  53  57
ATOM     57  S   UNL     1       8.477  -9.498  -0.553  1.00  0.00     0.124 S 
ATOM     58  O   UNL     1       9.375 -10.645  -0.642  1.00  0.00    -0.237 OA
ATOM     59  O   UNL     1       7.336  -9.517  -1.467  1.00  0.00    -0.237 OA
ATOM     60  O   UNL     1       9.125  -8.200  -0.399  1.00  0.00    -0.744 OA
ENDBRANCH  53  57
ENDBRANCH  26  50
BRANCH  38  61
ATOM     61  C   UNL     1       8.276  -8.123  10.065  1.00  0.00     0.023 A 
ATOM     62  C   UNL     1       7.519  -8.444  11.208  1.00  0.00     0.031 A 
ATOM     63  C   UNL     1       9.613  -8.557  10.011  1.00  0.00     0.131 A 
ATOM     64  C   UNL     1       8.113  -9.150  12.263  1.00  0.00     0.055 A 
ATOM     65  C   UNL     1      10.185  -9.302  11.044  1.00  0.00     0.041 A 
ATOM     66  F   UNL     1      10.383  -8.264   8.951  1.00  0.00    -0.206 F 
ATOM     67  C   UNL     1       9.438  -9.589  12.182  1.00  0.00     0.022 A 
BRANCH  64  68
ATOM     68  S   UNL     1       7.221  -9.443  13.816  1.00  0.00     0.124 S 
ATOM     69  O   UNL     1       7.121 -10.900  13.833  1.00  0.00    -0.237 OA
ATOM     70  O   UNL     1       8.129  -8.869  14.806  1.00  0.00    -0.237 OA
ATOM     71  O   UNL     1       5.959  -8.733  13.637  1.00  0.00    -0.744 OA
ENDBRANCH  64  68
ENDBRANCH  38  61
ENDBRANCH  12  13
ENDBRANCH   5   7
ENDBRANCH   2   3
ENDBRANCH   1   2
BRANCH   1  72
ATOM     72  C   UNL     1       4.248   1.482  -3.675  1.00  0.00     0.002 C 
BRANCH  72  73
ATOM     73  C   UNL     1       4.787   2.864  -3.295  1.00  0.00     0.002 C 
BRANCH  73  74
ATOM     74  C   UNL     1       6.311   2.981  -3.168  1.00  0.00     0.021 C 
BRANCH  74  75
ATOM     75  C   UNL     1       7.113   2.514  -4.381  1.00  0.00     0.116 C 
BRANCH  75  76
ATOM     76  N   UNL     1       6.777   3.253  -5.587  1.00  0.00    -0.352 N 
ATOM     77  C   UNL     1       7.606   3.862  -6.490  1.00  0.00     0.253 C 
ATOM     78  H   UNL     1       5.815   3.326  -5.782  1.00  0.00     0.163 HD
ATOM     79  O   UNL     1       7.136   4.442  -7.473  1.00  0.00    -0.269 OA
BRANCH  77  80
ATOM     80  C   UNL     1       9.066   3.757  -6.337  1.00  0.00     0.067 A 
ATOM     81  C   UNL     1       9.646   2.481  -6.419  1.00  0.00     0.016 A 
ATOM     82  C   UNL     1       9.834   4.921  -6.194  1.00  0.00     0.103 A 
ATOM     83  C   UNL     1      11.021   2.350  -6.323  1.00  0.00     0.003 A 
ATOM     84  C   UNL     1      11.244   4.764  -6.128  1.00  0.00     0.091 A 
ATOM     85  N   UNL     1       9.286   6.162  -6.110  1.00  0.00    -0.230 NA
ATOM     86  C   UNL     1      11.805   3.493  -6.181  1.00  0.00     0.031 A 
ATOM     87  N   UNL     1      12.078   5.815  -6.014  1.00  0.00    -0.231 NA
ATOM     88  C   UNL     1      10.134   7.209  -6.005  1.00  0.00     0.167 A 
ATOM     89  C   UNL     1      11.505   7.038  -5.963  1.00  0.00     0.167 A 
ATOM     90  Cl  UNL     1       9.352   8.735  -5.938  1.00  0.00    -0.059 Cl
ATOM     91  Cl  UNL     1      12.636   8.325  -5.852  1.00  0.00    -0.059 Cl
ENDBRANCH  77  80
ENDBRANCH  75  76
ENDBRANCH  74  75
ENDBRANCH  73  74
ENDBRANCH  72  73
ENDBRANCH   1  72
TORSDOF 16
