REMARK SMILES O=C(NCCCCCCNC(=O)[C@@]1([NH2+]C2CC2)CCC[C@@H](Sc2ncn[nH]2)C1)c1ccc(-c2c3nc(c(-c4cc(S(=O)(=O)[O-])ccc4F)c4ccc([nH]4)c(-c4cc(S(=O)(=O)[O-])ccc4F)c4nc(c(-c5cc(S(=O)(=O)[O-])ccc5F)c5ccc2[nH]5)C=C4)C=C3)cc1
REMARK SMILES IDX 6 1 5 2 4 3 3 4 1 5 2 6 29 8 30 9 91 10 31 11 90 12 32 13
REMARK SMILES IDX 33 14 34 15 84 16 35 17 89 18 83 19 85 20 36 21 88 22 82 23
REMARK SMILES IDX 81 24 37 26 69 27 49 28 68 29 50 30 53 31 67 32 86 33 51 34
REMARK SMILES IDX 52 35 66 37 87 38 54 39 38 40 39 41 47 42 40 43 46 44 48 45
REMARK SMILES IDX 45 46 41 47 42 48 43 49 44 50 70 51 71 52 79 53 72 54 78 55
REMARK SMILES IDX 80 56 77 57 73 58 74 59 75 60 76 61 55 62 56 63 64 64 57 65
REMARK SMILES IDX 63 66 65 67 62 68 58 69 59 70 60 71 61 72 7 73 8 74 9 75
REMARK SMILES IDX 10 76 11 77 12 79 13 80 18 81 28 82 19 83 21 84 20 85 14 86
REMARK SMILES IDX 15 89 16 90 17 91 22 92 23 93 24 94 27 95 25 96 26 97
REMARK H PARENT 3 7 85 25 53 36 10 78 14 87 14 88 27 98
REMARK Flexibility Score: inf
ROOT
ATOM      1  C   UNL     1       3.966  -2.742  -2.582  1.00  0.00     0.002 C 
ENDROOT
BRANCH   1   2
ATOM      2  C   UNL     1       4.360  -2.353  -1.157  1.00  0.00     0.021 C 
BRANCH   2   3
ATOM      3  C   UNL     1       4.328  -0.853  -0.892  1.00  0.00     0.116 C 
BRANCH   3   4
ATOM      4  N   UNL     1       2.969  -0.334  -0.903  1.00  0.00    -0.352 N 
ATOM      5  O   UNL     1       1.089   0.513   0.014  1.00  0.00    -0.269 OA
ATOM      6  C   UNL     1       2.296   0.334   0.094  1.00  0.00     0.251 C 
ATOM      7  H   UNL     1       2.463  -0.479  -1.736  1.00  0.00     0.163 HD
BRANCH   6   8
ATOM      8  C   UNL     1       3.052   0.823   1.268  1.00  0.00     0.039 A 
ATOM      9  C   UNL     1       4.267   1.489   1.092  1.00  0.00     0.014 A 
ATOM     10  C   UNL     1       2.545   0.608   2.552  1.00  0.00     0.014 A 
ATOM     11  C   UNL     1       5.039   1.817   2.199  1.00  0.00     0.010 A 
ATOM     12  C   UNL     1       3.285   1.019   3.665  1.00  0.00     0.010 A 
ATOM     13  C   UNL     1       4.552   1.602   3.498  1.00  0.00    -0.014 A 
BRANCH  13  14
ATOM     14  C   UNL     1       5.370   2.046   4.657  1.00  0.00     0.031 A 
ATOM     15  C   UNL     1       5.928   1.056   5.641  1.00  0.00     0.074 A 
ATOM     16  C   UNL     1       5.640   3.360   4.786  1.00  0.00     0.049 A 
ATOM     17  N   UNL     1       6.695   1.270   6.681  1.00  0.00    -0.248 NA
ATOM     18  C   UNL     1       5.571  -0.355   5.441  1.00  0.00     0.031 C 
ATOM     19  C   UNL     1       5.143   4.410   3.892  1.00  0.00     0.029 A 
ATOM     20  N   UNL     1       6.413   4.037   5.692  1.00  0.00    -0.354 N 
ATOM     21  C   UNL     1       6.894   0.027   7.274  1.00  0.00     0.074 A 
ATOM     22  C   UNL     1       6.140  -0.930   6.491  1.00  0.00     0.031 C 
ATOM     23  C   UNL     1       5.675   5.585   4.255  1.00  0.00     0.029 A 
ATOM     24  C   UNL     1       6.490   5.388   5.447  1.00  0.00     0.049 A 
ATOM     25  H   UNL     1       6.871   3.598   6.445  1.00  0.00     0.167 HD
ATOM     26  C   UNL     1       7.641  -0.282   8.364  1.00  0.00     0.034 A 
ATOM     27  C   UNL     1       7.134   6.364   6.114  1.00  0.00     0.034 A 
ATOM     28  C   UNL     1       8.393   0.690   9.124  1.00  0.00     0.049 A 
ATOM     29  C   UNL     1       7.932   5.997   7.334  1.00  0.00     0.074 A 
ATOM     30  C   UNL     1       9.217   0.481  10.218  1.00  0.00     0.029 A 
ATOM     31  N   UNL     1       8.406   2.059   8.879  1.00  0.00    -0.354 N 
ATOM     32  N   UNL     1       8.130   4.813   7.867  1.00  0.00    -0.248 NA
ATOM     33  C   UNL     1       8.594   7.099   8.041  1.00  0.00     0.031 C 
ATOM     34  C   UNL     1       9.670   1.725  10.674  1.00  0.00     0.029 A 
ATOM     35  C   UNL     1       9.194   2.707   9.820  1.00  0.00     0.049 A 
ATOM     36  H   UNL     1       7.925   2.504   8.145  1.00  0.00     0.167 HD
ATOM     37  C   UNL     1       8.960   5.027   8.962  1.00  0.00     0.074 A 
ATOM     38  C   UNL     1       9.241   6.449   8.997  1.00  0.00     0.031 C 
ATOM     39  C   UNL     1       9.448   4.129   9.856  1.00  0.00     0.034 A 
BRANCH  26  40
ATOM     40  C   UNL     1       7.636  -1.721   8.827  1.00  0.00     0.023 A 
ATOM     41  C   UNL     1       8.146  -2.763   8.032  1.00  0.00     0.031 A 
ATOM     42  C   UNL     1       7.085  -2.061  10.076  1.00  0.00     0.131 A 
ATOM     43  C   UNL     1       8.026  -4.095   8.459  1.00  0.00     0.055 A 
ATOM     44  C   UNL     1       7.041  -3.381  10.530  1.00  0.00     0.041 A 
ATOM     45  F   UNL     1       6.565  -1.115  10.874  1.00  0.00    -0.206 F 
ATOM     46  C   UNL     1       7.499  -4.410   9.713  1.00  0.00     0.022 A 
BRANCH  43  47
ATOM     47  S   UNL     1       8.431  -5.420   7.287  1.00  0.00     0.124 S 
ATOM     48  O   UNL     1       7.549  -5.103   6.167  1.00  0.00    -0.237 OA
ATOM     49  O   UNL     1       9.856  -5.211   7.059  1.00  0.00    -0.237 OA
ATOM     50  O   UNL     1       8.087  -6.639   8.016  1.00  0.00    -0.744 OA
ENDBRANCH  43  47
ENDBRANCH  26  40
BRANCH  27  51
ATOM     51  C   UNL     1       7.036   7.778   5.654  1.00  0.00     0.023 A 
ATOM     52  C   UNL     1       8.170   8.470   5.202  1.00  0.00     0.031 A 
ATOM     53  C   UNL     1       5.809   8.464   5.680  1.00  0.00     0.131 A 
ATOM     54  C   UNL     1       8.061   9.818   4.827  1.00  0.00     0.055 A 
ATOM     55  C   UNL     1       5.696   9.789   5.256  1.00  0.00     0.041 A 
ATOM     56  F   UNL     1       4.693   7.846   6.099  1.00  0.00    -0.206 F 
ATOM     57  C   UNL     1       6.830  10.477   4.837  1.00  0.00     0.022 A 
BRANCH  54  58
ATOM     58  S   UNL     1       9.572  10.721   4.392  1.00  0.00     0.124 S 
ATOM     59  O   UNL     1      10.367  10.575   5.606  1.00  0.00    -0.237 OA
ATOM     60  O   UNL     1      10.041   9.982   3.224  1.00  0.00    -0.237 OA
ATOM     61  O   UNL     1       9.092  12.074   4.118  1.00  0.00    -0.744 OA
ENDBRANCH  54  58
ENDBRANCH  27  51
BRANCH  39  62
ATOM     62  C   UNL     1      10.368   4.672  10.922  1.00  0.00     0.023 A 
ATOM     63  C   UNL     1       9.908   5.556  11.915  1.00  0.00     0.031 A 
ATOM     64  C   UNL     1      11.732   4.333  10.918  1.00  0.00     0.131 A 
ATOM     65  C   UNL     1      10.818   6.125  12.819  1.00  0.00     0.055 A 
ATOM     66  C   UNL     1      12.621   4.852  11.861  1.00  0.00     0.041 A 
ATOM     67  F   UNL     1      12.226   3.497   9.991  1.00  0.00    -0.206 F 
ATOM     68  C   UNL     1      12.168   5.766  12.808  1.00  0.00     0.022 A 
BRANCH  65  69
ATOM     69  S   UNL     1      10.232   7.426  13.940  1.00  0.00     0.124 S 
ATOM     70  O   UNL     1       9.707   8.417  13.006  1.00  0.00    -0.237 OA
ATOM     71  O   UNL     1       9.241   6.720  14.746  1.00  0.00    -0.237 OA
ATOM     72  O   UNL     1      11.441   7.829  14.657  1.00  0.00    -0.744 OA
ENDBRANCH  65  69
ENDBRANCH  39  62
ENDBRANCH  13  14
ENDBRANCH   6   8
ENDBRANCH   3   4
ENDBRANCH   2   3
ENDBRANCH   1   2
BRANCH   1  73
ATOM     73  C   UNL     1       4.856  -2.150  -3.681  1.00  0.00     0.002 C 
BRANCH  73  74
ATOM     74  C   UNL     1       6.362  -2.374  -3.483  1.00  0.00     0.021 C 
BRANCH  74  75
ATOM     75  C   UNL     1       6.754  -3.852  -3.460  1.00  0.00     0.116 C 
BRANCH  75  76
ATOM     76  N   UNL     1       6.692  -4.402  -4.796  1.00  0.00    -0.351 N 
ATOM     77  C   UNL     1       7.621  -4.534  -5.781  1.00  0.00     0.281 C 
ATOM     78  H   UNL     1       5.803  -4.749  -5.040  1.00  0.00     0.163 HD
ATOM     79  O   UNL     1       7.180  -5.035  -6.825  1.00  0.00    -0.268 OA
BRANCH  77  80
ATOM     80  C   UNL     1       9.160  -4.219  -5.576  1.00  0.00     0.176 C 
ATOM     81  C   UNL     1       9.552  -2.930  -4.810  1.00  0.00     0.079 C 
ATOM     82  C   UNL     1       9.680  -5.465  -4.802  1.00  0.00     0.094 C 
ATOM     83  C   UNL     1      11.037  -2.858  -4.444  1.00  0.00     0.008 C 
ATOM     84  C   UNL     1      11.119  -5.373  -4.284  1.00  0.00     0.061 C 
ATOM     85  C   UNL     1      11.434  -4.050  -3.582  1.00  0.00     0.015 C 
BRANCH  80  86
ATOM     86  N   UNL     1       9.837  -4.186  -6.903  1.00  0.00    -0.331 N 
ATOM     87  H   UNL     1       9.890  -5.151  -7.229  1.00  0.00     0.347 HD
ATOM     88  H   UNL     1      10.713  -3.704  -6.703  1.00  0.00     0.347 HD
BRANCH  86  89
ATOM     89  C   UNL     1       9.270  -3.400  -8.007  1.00  0.00     0.183 C 
ATOM     90  C   UNL     1       8.247  -2.303  -7.888  1.00  0.00     0.071 C 
ATOM     91  C   UNL     1       9.676  -1.957  -8.173  1.00  0.00     0.071 C 
ENDBRANCH  86  89
ENDBRANCH  80  86
BRANCH  84  92
ATOM     92  S   UNL     1      11.578  -6.796  -3.213  1.00  0.00    -0.083 SA
BRANCH  92  93
ATOM     93  C   UNL     1      10.543  -6.617  -1.846  1.00  0.00     0.183 A 
ATOM     94  N   UNL     1       9.233  -6.568  -1.813  1.00  0.00    -0.210 NA
ATOM     95  N   UNL     1      11.040  -6.542  -0.583  1.00  0.00    -0.254 N 
ATOM     96  C   UNL     1       8.972  -6.462  -0.474  1.00  0.00     0.247 A 
ATOM     97  N   UNL     1      10.048  -6.428   0.314  1.00  0.00    -0.162 NA
ATOM     98  H   UNL     1      11.998  -6.568  -0.356  1.00  0.00     0.192 HD
ENDBRANCH  92  93
ENDBRANCH  84  92
ENDBRANCH  77  80
ENDBRANCH  75  76
ENDBRANCH  74  75
ENDBRANCH  73  74
ENDBRANCH   1  73
TORSDOF 20
