REMARK SMILES O=C(NCCCCCCNC(=O)[C@H]1CCCCN1S(=O)(=O)c1cc[nH]c1)c1ccc(-c2c3nc(c(-c4cc(S(=O)(=O)[O-])ccc4F)c4ccc([nH]4)c(-c4cc(S(=O)(=O)[O-])ccc4F)c4nc(c(-c5cc(S(=O)(=O)[O-])ccc5F)c5ccc2[nH]5)C=C4)C=C3)cc1
REMARK SMILES IDX 6 1 5 2 4 3 3 4 1 5 2 6 27 8 28 9 89 10 29 11 88 12 30 13
REMARK SMILES IDX 31 14 32 15 82 16 33 17 87 18 81 19 83 20 34 21 86 22 80 23
REMARK SMILES IDX 79 24 35 26 67 27 47 28 66 29 48 30 51 31 65 32 84 33 49 34
REMARK SMILES IDX 50 35 64 37 85 38 52 39 36 40 37 41 45 42 38 43 44 44 46 45
REMARK SMILES IDX 43 46 39 47 40 48 41 49 42 50 68 51 69 52 77 53 70 54 76 55
REMARK SMILES IDX 78 56 75 57 71 58 72 59 73 60 74 61 53 62 54 63 62 64 55 65
REMARK SMILES IDX 61 66 63 67 60 68 56 69 57 70 58 71 59 72 7 73 8 74 9 75
REMARK SMILES IDX 10 76 11 77 12 79 13 80 14 81 18 82 15 83 17 84 16 85 19 86
REMARK SMILES IDX 20 87 21 88 22 89 23 90 26 91 24 92 25 93
REMARK H PARENT 3 7 83 25 51 36 10 78 25 94
REMARK Flexibility Score: inf
ROOT
ATOM      1  C   UNL     1      10.088  11.945  -5.720  1.00  0.00     0.002 C 
ENDROOT
BRANCH   1   2
ATOM      2  C   UNL     1       9.924  13.095  -4.720  1.00  0.00     0.021 C 
BRANCH   2   3
ATOM      3  C   UNL     1      11.217  13.663  -4.126  1.00  0.00     0.116 C 
BRANCH   3   4
ATOM      4  N   UNL     1      12.117  14.323  -5.059  1.00  0.00    -0.352 N 
ATOM      5  O   UNL     1      12.963  15.807  -6.503  1.00  0.00    -0.269 OA
ATOM      6  C   UNL     1      11.986  15.434  -5.854  1.00  0.00     0.251 C 
ATOM      7  H   UNL     1      12.995  13.885  -5.135  1.00  0.00     0.163 HD
BRANCH   6   8
ATOM      8  C   UNL     1      10.697  16.149  -6.011  1.00  0.00     0.039 A 
ATOM      9  C   UNL     1       9.812  16.356  -4.954  1.00  0.00     0.014 A 
ATOM     10  C   UNL     1      10.374  16.644  -7.287  1.00  0.00     0.014 A 
ATOM     11  C   UNL     1       8.569  16.932  -5.190  1.00  0.00     0.010 A 
ATOM     12  C   UNL     1       9.144  17.267  -7.519  1.00  0.00     0.010 A 
ATOM     13  C   UNL     1       8.230  17.394  -6.470  1.00  0.00    -0.014 A 
BRANCH  13  14
ATOM     14  C   UNL     1       6.992  18.212  -6.564  1.00  0.00     0.031 A 
ATOM     15  C   UNL     1       7.216  19.597  -5.917  1.00  0.00     0.074 A 
ATOM     16  C   UNL     1       5.853  17.618  -7.042  1.00  0.00     0.049 A 
ATOM     17  N   UNL     1       6.456  20.280  -5.116  1.00  0.00    -0.248 NA
ATOM     18  C   UNL     1       8.552  20.242  -6.060  1.00  0.00     0.031 C 
ATOM     19  C   UNL     1       5.785  16.280  -7.678  1.00  0.00     0.029 A 
ATOM     20  N   UNL     1       4.525  17.999  -7.089  1.00  0.00    -0.354 N 
ATOM     21  C   UNL     1       7.107  21.515  -4.857  1.00  0.00     0.074 A 
ATOM     22  C   UNL     1       8.449  21.354  -5.328  1.00  0.00     0.031 C 
ATOM     23  C   UNL     1       4.506  15.945  -7.980  1.00  0.00     0.029 A 
ATOM     24  C   UNL     1       3.611  17.013  -7.572  1.00  0.00     0.049 A 
ATOM     25  H   UNL     1       4.228  18.894  -6.807  1.00  0.00     0.167 HD
ATOM     26  C   UNL     1       6.452  22.637  -4.423  1.00  0.00     0.034 A 
ATOM     27  C   UNL     1       2.237  17.044  -7.609  1.00  0.00     0.034 A 
ATOM     28  C   UNL     1       5.063  22.349  -4.289  1.00  0.00     0.049 A 
ATOM     29  C   UNL     1       1.892  18.381  -7.113  1.00  0.00     0.074 A 
ATOM     30  C   UNL     1       4.332  21.588  -3.419  1.00  0.00     0.029 A 
ATOM     31  N   UNL     1       4.269  22.693  -5.359  1.00  0.00    -0.354 N 
ATOM     32  N   UNL     1       2.006  19.470  -7.803  1.00  0.00    -0.248 NA
ATOM     33  C   UNL     1       1.372  18.518  -5.746  1.00  0.00     0.031 C 
ATOM     34  C   UNL     1       3.284  21.096  -4.222  1.00  0.00     0.029 A 
ATOM     35  C   UNL     1       3.329  21.708  -5.484  1.00  0.00     0.049 A 
ATOM     36  H   UNL     1       4.360  23.494  -5.925  1.00  0.00     0.167 HD
ATOM     37  C   UNL     1       1.874  20.443  -6.850  1.00  0.00     0.074 A 
ATOM     38  C   UNL     1       1.187  19.837  -5.729  1.00  0.00     0.031 C 
ATOM     39  C   UNL     1       2.802  21.430  -6.803  1.00  0.00     0.034 A 
BRANCH  26  40
ATOM     40  C   UNL     1       6.821  24.105  -4.332  1.00  0.00     0.023 A 
ATOM     41  C   UNL     1       5.869  24.954  -3.698  1.00  0.00     0.031 A 
ATOM     42  C   UNL     1       7.831  24.753  -5.049  1.00  0.00     0.131 A 
ATOM     43  C   UNL     1       5.851  26.339  -3.908  1.00  0.00     0.055 A 
ATOM     44  C   UNL     1       7.855  26.151  -5.199  1.00  0.00     0.041 A 
ATOM     45  F   UNL     1       8.784  24.073  -5.698  1.00  0.00    -0.206 F 
ATOM     46  C   UNL     1       6.843  26.947  -4.664  1.00  0.00     0.022 A 
BRANCH  43  47
ATOM     47  S   UNL     1       4.407  27.282  -3.332  1.00  0.00     0.124 S 
ATOM     48  O   UNL     1       3.297  26.537  -3.914  1.00  0.00    -0.237 OA
ATOM     49  O   UNL     1       4.545  27.193  -1.881  1.00  0.00    -0.237 OA
ATOM     50  O   UNL     1       4.626  28.613  -3.894  1.00  0.00    -0.744 OA
ENDBRANCH  43  47
ENDBRANCH  26  40
BRANCH  27  51
ATOM     51  C   UNL     1       1.012  16.188  -7.933  1.00  0.00     0.023 A 
ATOM     52  C   UNL     1       0.997  14.848  -8.351  1.00  0.00     0.031 A 
ATOM     53  C   UNL     1      -0.296  16.755  -7.729  1.00  0.00     0.131 A 
ATOM     54  C   UNL     1      -0.245  14.149  -8.469  1.00  0.00     0.055 A 
ATOM     55  C   UNL     1      -1.493  16.044  -7.757  1.00  0.00     0.041 A 
ATOM     56  F   UNL     1      -0.484  18.058  -7.476  1.00  0.00    -0.206 F 
ATOM     57  C   UNL     1      -1.472  14.722  -8.118  1.00  0.00     0.022 A 
BRANCH  54  58
ATOM     58  S   UNL     1      -0.332  12.437  -9.075  1.00  0.00     0.124 S 
ATOM     59  O   UNL     1      -0.596  12.634 -10.497  1.00  0.00    -0.237 OA
ATOM     60  O   UNL     1       0.980  11.897  -8.735  1.00  0.00    -0.237 OA
ATOM     61  O   UNL     1      -1.445  11.872  -8.311  1.00  0.00    -0.744 OA
ENDBRANCH  54  58
ENDBRANCH  27  51
BRANCH  39  62
ATOM     62  C   UNL     1       3.476  21.708  -8.150  1.00  0.00     0.023 A 
ATOM     63  C   UNL     1       2.697  22.001  -9.290  1.00  0.00     0.031 A 
ATOM     64  C   UNL     1       4.852  21.538  -8.382  1.00  0.00     0.131 A 
ATOM     65  C   UNL     1       3.280  22.071 -10.573  1.00  0.00     0.055 A 
ATOM     66  C   UNL     1       5.439  21.621  -9.651  1.00  0.00     0.041 A 
ATOM     67  F   UNL     1       5.684  21.261  -7.381  1.00  0.00    -0.206 F 
ATOM     68  C   UNL     1       4.650  21.882 -10.759  1.00  0.00     0.022 A 
BRANCH  65  69
ATOM     69  S   UNL     1       2.235  22.427 -12.013  1.00  0.00     0.124 S 
ATOM     70  O   UNL     1       1.505  21.178 -12.197  1.00  0.00    -0.237 OA
ATOM     71  O   UNL     1       1.446  23.568 -11.560  1.00  0.00    -0.237 OA
ATOM     72  O   UNL     1       3.202  22.736 -13.067  1.00  0.00    -0.744 OA
ENDBRANCH  65  69
ENDBRANCH  39  62
ENDBRANCH  13  14
ENDBRANCH   6   8
ENDBRANCH   3   4
ENDBRANCH   2   3
ENDBRANCH   1   2
BRANCH   1  73
ATOM     73  C   UNL     1      10.865  10.728  -5.225  1.00  0.00     0.002 C 
BRANCH  73  74
ATOM     74  C   UNL     1      10.405  10.187  -3.877  1.00  0.00     0.021 C 
BRANCH  74  75
ATOM     75  C   UNL     1       9.146   9.321  -3.848  1.00  0.00     0.116 C 
BRANCH  75  76
ATOM     76  N   UNL     1       9.532   7.928  -3.725  1.00  0.00    -0.355 N 
ATOM     77  C   UNL     1       9.840   7.148  -2.654  1.00  0.00     0.238 C 
ATOM     78  H   UNL     1       9.580   7.453  -4.586  1.00  0.00     0.163 HD
ATOM     79  O   UNL     1      10.456   6.116  -2.956  1.00  0.00    -0.273 OA
BRANCH  77  80
ATOM     80  C   UNL     1       9.404   7.428  -1.191  1.00  0.00     0.162 C 
ATOM     81  C   UNL     1       9.265   6.052  -0.465  1.00  0.00     0.030 C 
ATOM     82  N   UNL     1      10.255   8.269  -0.262  1.00  0.00    -0.185 NA
ATOM     83  C   UNL     1      10.615   5.396  -0.129  1.00  0.00     0.004 C 
ATOM     84  C   UNL     1      11.624   7.717  -0.122  1.00  0.00     0.103 C 
ATOM     85  C   UNL     1      11.559   6.364   0.574  1.00  0.00     0.017 C 
BRANCH  82  86
ATOM     86  S   UNL     1      10.173   9.940  -0.486  1.00  0.00     0.245 S 
ATOM     87  O   UNL     1      11.314  10.313  -1.290  1.00  0.00    -0.207 OA
ATOM     88  O   UNL     1       8.812  10.286  -0.839  1.00  0.00    -0.207 OA
BRANCH  86  89
ATOM     89  C   UNL     1      10.457  10.916   0.919  1.00  0.00     0.100 A 
ATOM     90  C   UNL     1      11.740  11.218   1.449  1.00  0.00     0.041 A 
ATOM     91  C   UNL     1       9.564  11.815   1.477  1.00  0.00     0.104 A 
ATOM     92  C   UNL     1      11.604  12.345   2.231  1.00  0.00     0.083 A 
ATOM     93  N   UNL     1      10.279  12.699   2.245  1.00  0.00    -0.366 N 
ATOM     94  H   UNL     1       9.900  13.467   2.731  1.00  0.00     0.165 HD
ENDBRANCH  86  89
ENDBRANCH  82  86
ENDBRANCH  77  80
ENDBRANCH  75  76
ENDBRANCH  74  75
ENDBRANCH  73  74
ENDBRANCH   1  73
TORSDOF 18
