REMARK SMILES Cc1ccc(S(=O)(=O)Nc2ccc(C(=O)CCC(=O)NCCCCCCNC(=O)c3ccc(-c4c5nc(c(-c6cc(S(=O)(=O)[O-])ccc6F)c6ccc([nH]6)c(-c6cc(S(=O)(=O)[O-])ccc6F)c6nc(c(-c7cc(S(=O)(=O)[O-])ccc7F)c7ccc4[nH]7)C=C6)C=C5)cc3)cc2)c(C)c1
REMARK SMILES IDX 22 1 21 2 20 3 18 4 19 5 17 7 16 8 14 9 15 10 13 11 10 12
REMARK SMILES IDX 11 13 94 14 12 15 93 16 9 17 6 19 7 20 8 21 5 22 1 23 2 24
REMARK SMILES IDX 3 25 97 26 4 27 95 28 96 29 23 30 24 31 25 32 26 33 27 34
REMARK SMILES IDX 28 35 29 37 30 38 31 39 92 40 32 41 91 42 33 43 34 44 35 45
REMARK SMILES IDX 85 46 36 47 90 48 84 49 86 50 37 51 89 52 83 53 82 54 38 56
REMARK SMILES IDX 70 57 50 58 69 59 51 60 54 61 68 62 87 63 52 64 53 65 67 67
REMARK SMILES IDX 88 68 55 69 39 70 40 71 48 72 41 73 47 74 49 75 46 76 42 77
REMARK SMILES IDX 43 78 44 79 45 80 71 81 72 82 80 83 73 84 79 85 81 86 78 87
REMARK SMILES IDX 74 88 75 89 76 90 77 91 56 92 57 93 65 94 58 95 64 96 66 97
REMARK SMILES IDX 63 98 59 99 60 100 61 101 62 102
REMARK H PARENT 20 6 9 18 27 36 86 55 54 66
REMARK Flexibility Score: inf
ROOT
ATOM      1  C   UNL     1       1.228  -4.229   0.076  1.00  0.00     0.021 C 
ENDROOT
BRANCH   1   2
ATOM      2  C   UNL     1       2.060  -3.074  -0.742  1.00  0.00     0.116 C 
BRANCH   2   3
ATOM      3  N   UNL     1       2.929  -2.406   0.257  1.00  0.00    -0.356 N 
ATOM      4  C   UNL     1       3.780  -3.008   1.160  1.00  0.00     0.220 C 
ATOM      5  O   UNL     1       4.076  -2.387   2.183  1.00  0.00    -0.275 OA
ATOM      6  H   UNL     1       2.894  -1.422   0.278  1.00  0.00     0.163 HD
BRANCH   4   7
ATOM      7  C   UNL     1       4.333  -4.422   0.902  1.00  0.00     0.108 C 
BRANCH   7   8
ATOM      8  C   UNL     1       3.709  -5.560   1.758  1.00  0.00     0.091 C 
BRANCH   8   9
ATOM      9  C   UNL     1       2.876  -6.631   0.997  1.00  0.00     0.163 C 
ATOM     10  O   UNL     1       3.361  -7.675   0.578  1.00  0.00    -0.294 OA
BRANCH   9  11
ATOM     11  C   UNL     1       1.464  -6.278   0.600  1.00  0.00     0.018 A 
ATOM     12  C   UNL     1      -0.625  -3.502  -0.517  1.00  0.00     0.049 A 
ATOM     13  C   UNL     1       0.287  -4.515  -1.732  1.00  0.00     0.027 A 
ATOM     14  C   UNL     1      -0.523  -3.911   1.221  1.00  0.00     0.027 A 
ATOM     15  C   UNL     1       1.312  -5.910  -1.181  1.00  0.00     0.014 A 
ATOM     16  C   UNL     1       0.520  -5.300   1.774  1.00  0.00     0.014 A 
BRANCH  12  17
ATOM     17  N   UNL     1      -1.664  -2.660  -1.052  1.00  0.00    -0.280 N 
ATOM     18  H   UNL     1      -2.049  -2.931  -1.917  1.00  0.00     0.180 HD
BRANCH  17  19
ATOM     19  S   UNL     1      -2.282  -1.273  -0.360  1.00  0.00     0.262 S 
ATOM     20  O   UNL     1      -2.386  -1.477   1.068  1.00  0.00    -0.201 OA
ATOM     21  O   UNL     1      -3.444  -0.945  -1.158  1.00  0.00    -0.201 OA
BRANCH  19  22
ATOM     22  C   UNL     1      -1.081  -0.016  -0.668  1.00  0.00     0.090 A 
ATOM     23  C   UNL     1       2.562   2.051   0.055  1.00  0.00     0.044 C 
ATOM     24  C   UNL     1       1.251   1.426  -0.307  1.00  0.00    -0.051 A 
ATOM     25  C   UNL     1       1.217   0.388  -1.237  1.00  0.00     0.005 A 
ATOM     26  C   UNL     1       0.050   1.879   0.257  1.00  0.00     0.008 A 
ATOM     27  C   UNL     1       0.038  -0.318  -1.439  1.00  0.00     0.023 A 
ATOM     28  C   UNL     1      -1.141   1.168   0.071  1.00  0.00    -0.030 A 
ATOM     29  C   UNL     1      -2.450   1.747   0.530  1.00  0.00     0.046 C 
ENDBRANCH  19  22
ENDBRANCH  17  19
ENDBRANCH  12  17
ENDBRANCH   9  11
ENDBRANCH   8   9
ENDBRANCH   7   8
ENDBRANCH   4   7
ENDBRANCH   2   3
ENDBRANCH   1   2
BRANCH   1  30
ATOM     30  C   UNL     1      -0.461  -5.575  -0.125  1.00  0.00     0.002 C 
BRANCH  30  31
ATOM     31  C   UNL     1      -1.790  -5.723  -1.197  1.00  0.00     0.002 C 
BRANCH  31  32
ATOM     32  C   UNL     1      -1.654  -6.533  -2.481  1.00  0.00     0.021 C 
BRANCH  32  33
ATOM     33  C   UNL     1      -2.434  -7.820  -2.378  1.00  0.00     0.116 C 
BRANCH  33  34
ATOM     34  N   UNL     1      -3.875  -7.567  -2.265  1.00  0.00    -0.352 N 
ATOM     35  C   UNL     1      -4.875  -7.956  -3.124  1.00  0.00     0.251 C 
ATOM     36  H   UNL     1      -4.161  -7.055  -1.474  1.00  0.00     0.163 HD
ATOM     37  O   UNL     1      -5.998  -7.473  -3.053  1.00  0.00    -0.269 OA
BRANCH  35  38
ATOM     38  C   UNL     1      -4.526  -8.954  -4.146  1.00  0.00     0.039 A 
ATOM     39  C   UNL     1      -4.823  -8.718  -5.487  1.00  0.00     0.014 A 
ATOM     40  C   UNL     1      -3.747 -10.046  -3.755  1.00  0.00     0.014 A 
ATOM     41  C   UNL     1      -4.262  -9.550  -6.453  1.00  0.00     0.010 A 
ATOM     42  C   UNL     1      -3.070 -10.763  -4.718  1.00  0.00     0.010 A 
ATOM     43  C   UNL     1      -3.347 -10.546  -6.075  1.00  0.00    -0.014 A 
BRANCH  43  44
ATOM     44  C   UNL     1      -2.701 -11.440  -7.060  1.00  0.00     0.031 A 
ATOM     45  C   UNL     1      -2.930 -12.921  -6.937  1.00  0.00     0.074 A 
ATOM     46  C   UNL     1      -1.847 -10.934  -7.969  1.00  0.00     0.049 A 
ATOM     47  N   UNL     1      -2.366 -13.903  -7.585  1.00  0.00    -0.248 NA
ATOM     48  C   UNL     1      -3.882 -13.356  -5.899  1.00  0.00     0.031 C 
ATOM     49  C   UNL     1      -1.509  -9.517  -8.120  1.00  0.00     0.029 A 
ATOM     50  N   UNL     1      -1.090 -11.558  -8.926  1.00  0.00    -0.354 N 
ATOM     51  C   UNL     1      -2.869 -15.065  -7.010  1.00  0.00     0.074 A 
ATOM     52  C   UNL     1      -3.710 -14.666  -5.906  1.00  0.00     0.031 C 
ATOM     53  C   UNL     1      -0.630  -9.379  -9.126  1.00  0.00     0.029 A 
ATOM     54  C   UNL     1      -0.301 -10.698  -9.654  1.00  0.00     0.049 A 
ATOM     55  H   UNL     1      -1.109 -12.531  -9.079  1.00  0.00     0.167 HD
ATOM     56  C   UNL     1      -2.670 -16.348  -7.393  1.00  0.00     0.034 A 
ATOM     57  C   UNL     1       0.602 -10.955 -10.620  1.00  0.00     0.034 A 
ATOM     58  C   UNL     1      -1.847 -16.704  -8.519  1.00  0.00     0.049 A 
ATOM     59  C   UNL     1       0.816 -12.389 -11.031  1.00  0.00     0.074 A 
ATOM     60  C   UNL     1      -1.643 -17.952  -9.076  1.00  0.00     0.029 A 
ATOM     61  N   UNL     1      -1.076 -15.806  -9.249  1.00  0.00    -0.354 N 
ATOM     62  N   UNL     1       0.259 -13.477 -10.547  1.00  0.00    -0.248 NA
ATOM     63  C   UNL     1       1.772 -12.632 -12.117  1.00  0.00     0.031 C 
ATOM     64  C   UNL     1      -0.683 -17.821 -10.085  1.00  0.00     0.029 A 
ATOM     65  C   UNL     1      -0.350 -16.481 -10.216  1.00  0.00     0.049 A 
ATOM     66  H   UNL     1      -1.050 -14.834  -9.100  1.00  0.00     0.167 HD
ATOM     67  C   UNL     1       0.792 -14.535 -11.275  1.00  0.00     0.074 A 
ATOM     68  C   UNL     1       1.694 -13.949 -12.249  1.00  0.00     0.031 C 
ATOM     69  C   UNL     1       0.563 -15.868 -11.154  1.00  0.00     0.034 A 
BRANCH  56  70
ATOM     70  C   UNL     1      -3.327 -17.431  -6.570  1.00  0.00     0.023 A 
ATOM     71  C   UNL     1      -4.722 -17.495  -6.400  1.00  0.00     0.031 A 
ATOM     72  C   UNL     1      -2.541 -18.379  -5.891  1.00  0.00     0.131 A 
ATOM     73  C   UNL     1      -5.279 -18.417  -5.500  1.00  0.00     0.055 A 
ATOM     74  C   UNL     1      -3.110 -19.356  -5.072  1.00  0.00     0.041 A 
ATOM     75  F   UNL     1      -1.203 -18.355  -5.990  1.00  0.00    -0.206 F 
ATOM     76  C   UNL     1      -4.485 -19.366  -4.856  1.00  0.00     0.022 A 
BRANCH  73  77
ATOM     77  S   UNL     1      -7.027 -18.236  -5.049  1.00  0.00     0.124 S 
ATOM     78  O   UNL     1      -7.061 -16.867  -4.540  1.00  0.00    -0.237 OA
ATOM     79  O   UNL     1      -7.705 -18.462  -6.320  1.00  0.00    -0.237 OA
ATOM     80  O   UNL     1      -7.230 -19.273  -4.040  1.00  0.00    -0.744 OA
ENDBRANCH  73  77
ENDBRANCH  56  70
BRANCH  57  81
ATOM     81  C   UNL     1       1.381  -9.841 -11.234  1.00  0.00     0.023 A 
ATOM     82  C   UNL     1       1.225  -9.497 -12.586  1.00  0.00     0.031 A 
ATOM     83  C   UNL     1       2.297  -9.096 -10.467  1.00  0.00     0.131 A 
ATOM     84  C   UNL     1       1.993  -8.458 -13.137  1.00  0.00     0.055 A 
ATOM     85  C   UNL     1       3.022  -8.032 -11.007  1.00  0.00     0.041 A 
ATOM     86  F   UNL     1       2.481  -9.377  -9.167  1.00  0.00    -0.206 F 
ATOM     87  C   UNL     1       2.878  -7.713 -12.353  1.00  0.00     0.022 A 
BRANCH  84  88
ATOM     88  S   UNL     1       1.865  -8.128 -14.916  1.00  0.00     0.124 S 
ATOM     89  O   UNL     1       2.257  -9.412 -15.486  1.00  0.00    -0.237 OA
ATOM     90  O   UNL     1       0.458  -7.766 -15.056  1.00  0.00    -0.237 OA
ATOM     91  O   UNL     1       2.811  -7.035 -15.128  1.00  0.00    -0.744 OA
ENDBRANCH  84  88
ENDBRANCH  57  81
BRANCH  69  92
ATOM     92  C   UNL     1       1.301 -16.777 -12.104  1.00  0.00     0.023 A 
ATOM     93  C   UNL     1       2.695 -16.935 -12.030  1.00  0.00     0.031 A 
ATOM     94  C   UNL     1       0.599 -17.509 -13.078  1.00  0.00     0.131 A 
ATOM     95  C   UNL     1       3.350 -17.772 -12.944  1.00  0.00     0.055 A 
ATOM     96  C   UNL     1       1.249 -18.390 -13.941  1.00  0.00     0.041 A 
ATOM     97  F   UNL     1      -0.734 -17.391 -13.193  1.00  0.00    -0.206 F 
ATOM     98  C   UNL     1       2.634 -18.518 -13.884  1.00  0.00     0.022 A 
BRANCH  95  99
ATOM     99  S   UNL     1       5.162 -17.811 -12.940  1.00  0.00     0.124 S 
ATOM    100  O   UNL     1       5.494 -16.420 -13.233  1.00  0.00    -0.237 OA
ATOM    101  O   UNL     1       5.464 -18.268 -11.588  1.00  0.00    -0.237 OA
ATOM    102  O   UNL     1       5.486 -18.762 -14.002  1.00  0.00    -0.744 OA
ENDBRANCH  95  99
ENDBRANCH  69  92
ENDBRANCH  43  44
ENDBRANCH  35  38
ENDBRANCH  33  34
ENDBRANCH  32  33
ENDBRANCH  31  32
ENDBRANCH  30  31
ENDBRANCH   1  30
TORSDOF 22
