REMARK SMILES Cc1ccc(-c2nc(C)c(C(=O)N3CCC(C(=O)NCCCCCCNC(=O)c4ccc(-c5c6nc(c(-c7cc(S(=O)(=O)[O-])ccc7F)c7ccc([nH]7)c(-c7cc(S(=O)(=O)[O-])ccc7F)c7nc(c(-c8cc(S(=O)(=O)[O-])ccc8F)c8ccc5[nH]8)C=C7)C=C6)cc4)CC3)s2)o1
REMARK SMILES IDX 23 1 22 2 21 3 20 4 19 5 17 6 18 7 16 9 11 10 12 11 13 12
REMARK SMILES IDX 14 13 93 14 15 15 92 16 10 17 6 18 7 19 94 20 8 21 9 22 5 23
REMARK SMILES IDX 1 24 2 25 3 26 95 27 4 28 24 29 25 30 26 31 27 32 28 34
REMARK SMILES IDX 29 35 30 36 91 37 31 38 90 39 32 40 33 41 34 42 84 43 35 44
REMARK SMILES IDX 89 45 83 46 85 47 36 48 88 49 82 50 81 51 37 53 69 54 49 55
REMARK SMILES IDX 68 56 50 57 53 58 67 59 86 60 51 61 52 62 66 64 87 65 54 66
REMARK SMILES IDX 38 67 39 68 47 69 40 70 46 71 48 72 45 73 41 74 42 75 43 76
REMARK SMILES IDX 44 77 70 78 71 79 79 80 72 81 78 82 80 83 77 84 73 85 74 86
REMARK SMILES IDX 75 87 76 88 55 89 56 90 64 91 57 92 63 93 65 94 62 95 58 96
REMARK SMILES IDX 59 97 60 98 61 99
REMARK H PARENT 19 8 26 33 85 52 53 63
REMARK Flexibility Score: inf
ROOT
ATOM      1  C   UNL     1     -12.732   3.741   2.503  1.00  0.00     0.002 C 
ENDROOT
BRANCH   1   2
ATOM      2  C   UNL     1     -12.072   5.077   2.860  1.00  0.00     0.002 C 
BRANCH   2   3
ATOM      3  C   UNL     1     -10.564   5.136   2.602  1.00  0.00     0.021 C 
BRANCH   3   4
ATOM      4  C   UNL     1     -10.172   4.805   1.165  1.00  0.00     0.116 C 
BRANCH   4   5
ATOM      5  N   UNL     1     -10.580   5.860   0.252  1.00  0.00    -0.356 N 
ATOM      6  C   UNL     1      -9.845   6.658  -0.568  1.00  0.00     0.223 C 
ATOM      7  O   UNL     1     -10.433   7.520  -1.225  1.00  0.00    -0.275 OA
ATOM      8  H   UNL     1     -11.550   6.025   0.223  1.00  0.00     0.163 HD
BRANCH   6   9
ATOM      9  C   UNL     1      -8.340   6.486  -0.697  1.00  0.00     0.082 C 
ATOM     10  C   UNL     1      -5.353   4.088   0.811  1.00  0.00     0.265 C 
ATOM     11  O   UNL     1      -5.642   4.012   2.007  1.00  0.00    -0.268 OA
ATOM     12  N   UNL     1      -5.956   5.072   0.030  1.00  0.00    -0.338 N 
ATOM     13  C   UNL     1      -6.157   6.395   0.596  1.00  0.00     0.120 C 
ATOM     14  C   UNL     1      -6.504   4.836  -1.296  1.00  0.00     0.120 C 
ATOM     15  C   UNL     1      -7.615   6.811   0.616  1.00  0.00     0.035 C 
ATOM     16  C   UNL     1      -7.998   5.123  -1.322  1.00  0.00     0.035 C 
BRANCH  10  17
ATOM     17  C   UNL     1      -4.305   3.280   0.197  1.00  0.00     0.115 A 
ATOM     18  C   UNL     1      -2.515   1.660  -0.123  1.00  0.00     0.159 A 
ATOM     19  N   UNL     1      -2.436   2.601  -1.036  1.00  0.00    -0.237 NA
ATOM     20  S   UNL     1      -3.858   1.779   0.930  1.00  0.00    -0.105 S 
ATOM     21  C   UNL     1      -3.435   3.542  -0.856  1.00  0.00     0.062 A 
ATOM     22  C   UNL     1      -3.372   4.717  -1.761  1.00  0.00     0.068 C 
BRANCH  18  23
ATOM     23  C   UNL     1      -1.500   0.653  -0.005  1.00  0.00     0.162 A 
ATOM     24  C   UNL     1       2.019  -0.044  -0.010  1.00  0.00     0.087 C 
ATOM     25  C   UNL     1       0.551  -0.185   0.037  1.00  0.00     0.101 A 
ATOM     26  C   UNL     1      -0.302  -1.251   0.205  1.00  0.00     0.046 A 
ATOM     27  O   UNL     1      -0.163   0.962  -0.110  1.00  0.00    -0.459 OA
ATOM     28  C   UNL     1      -1.615  -0.713   0.195  1.00  0.00     0.054 A 
ENDBRANCH  18  23
ENDBRANCH  10  17
ENDBRANCH   6   9
ENDBRANCH   4   5
ENDBRANCH   3   4
ENDBRANCH   2   3
ENDBRANCH   1   2
BRANCH   1  29
ATOM     29  C   UNL     1     -12.088   2.507   3.143  1.00  0.00     0.021 C 
BRANCH  29  30
ATOM     30  C   UNL     1     -12.011   2.546   4.666  1.00  0.00     0.116 C 
BRANCH  30  31
ATOM     31  N   UNL     1     -13.325   2.674   5.271  1.00  0.00    -0.352 N 
ATOM     32  C   UNL     1     -13.926   1.900   6.230  1.00  0.00     0.251 C 
ATOM     33  H   UNL     1     -13.864   3.430   4.944  1.00  0.00     0.163 HD
ATOM     34  O   UNL     1     -15.126   2.041   6.452  1.00  0.00    -0.269 OA
BRANCH  32  35
ATOM     35  C   UNL     1     -13.142   0.890   6.973  1.00  0.00     0.039 A 
ATOM     36  C   UNL     1     -13.721  -0.358   7.217  1.00  0.00     0.014 A 
ATOM     37  C   UNL     1     -11.856   1.169   7.446  1.00  0.00     0.014 A 
ATOM     38  C   UNL     1     -12.989  -1.341   7.885  1.00  0.00     0.010 A 
ATOM     39  C   UNL     1     -11.100   0.163   8.047  1.00  0.00     0.010 A 
ATOM     40  C   UNL     1     -11.660  -1.102   8.274  1.00  0.00    -0.014 A 
BRANCH  40  41
ATOM     41  C   UNL     1     -10.854  -2.183   8.898  1.00  0.00     0.031 A 
ATOM     42  C   UNL     1     -10.364  -2.059  10.314  1.00  0.00     0.074 A 
ATOM     43  C   UNL     1     -10.542  -3.272   8.167  1.00  0.00     0.049 A 
ATOM     44  N   UNL     1      -9.664  -2.907  11.024  1.00  0.00    -0.248 NA
ATOM     45  C   UNL     1     -10.678  -0.805  11.014  1.00  0.00     0.031 C 
ATOM     46  C   UNL     1     -10.910  -3.477   6.764  1.00  0.00     0.029 A 
ATOM     47  N   UNL     1      -9.852  -4.410   8.498  1.00  0.00    -0.354 N 
ATOM     48  C   UNL     1      -9.459  -2.294  12.256  1.00  0.00     0.074 A 
ATOM     49  C   UNL     1     -10.043  -0.973  12.165  1.00  0.00     0.031 C 
ATOM     50  C   UNL     1     -10.472  -4.681   6.366  1.00  0.00     0.029 A 
ATOM     51  C   UNL     1      -9.758  -5.317   7.468  1.00  0.00     0.049 A 
ATOM     52  H   UNL     1      -9.460  -4.563   9.388  1.00  0.00     0.167 HD
ATOM     53  C   UNL     1      -8.864  -2.797  13.367  1.00  0.00     0.034 A 
ATOM     54  C   UNL     1      -9.162  -6.524   7.414  1.00  0.00     0.034 A 
ATOM     55  C   UNL     1      -8.275  -4.115  13.435  1.00  0.00     0.049 A 
ATOM     56  C   UNL     1      -8.493  -7.057   8.653  1.00  0.00     0.074 A 
ATOM     57  C   UNL     1      -7.682  -4.743  14.517  1.00  0.00     0.029 A 
ATOM     58  N   UNL     1      -8.191  -5.006  12.370  1.00  0.00    -0.354 N 
ATOM     59  N   UNL     1      -8.363  -6.491   9.832  1.00  0.00    -0.248 NA
ATOM     60  C   UNL     1      -7.907  -8.398   8.559  1.00  0.00     0.031 C 
ATOM     61  C   UNL     1      -7.178  -5.977  14.090  1.00  0.00     0.029 A 
ATOM     62  C   UNL     1      -7.527  -6.161  12.762  1.00  0.00     0.049 A 
ATOM     63  H   UNL     1      -8.550  -4.841  11.468  1.00  0.00     0.167 HD
ATOM     64  C   UNL     1      -7.693  -7.417  10.625  1.00  0.00     0.074 A 
ATOM     65  C   UNL     1      -7.480  -8.589   9.798  1.00  0.00     0.031 C 
ATOM     66  C   UNL     1      -7.288  -7.310  11.918  1.00  0.00     0.034 A 
BRANCH  53  67
ATOM     67  C   UNL     1      -8.805  -1.902  14.586  1.00  0.00     0.023 A 
ATOM     68  C   UNL     1      -9.974  -1.430  15.210  1.00  0.00     0.031 A 
ATOM     69  C   UNL     1      -7.569  -1.484  15.111  1.00  0.00     0.131 A 
ATOM     70  C   UNL     1      -9.886  -0.506  16.262  1.00  0.00     0.055 A 
ATOM     71  C   UNL     1      -7.488  -0.632  16.215  1.00  0.00     0.041 A 
ATOM     72  F   UNL     1      -6.417  -1.882  14.549  1.00  0.00    -0.206 F 
ATOM     73  C   UNL     1      -8.650  -0.123  16.787  1.00  0.00     0.022 A 
BRANCH  70  74
ATOM     74  S   UNL     1     -11.405   0.311  16.826  1.00  0.00     0.124 S 
ATOM     75  O   UNL     1     -11.882   0.932  15.592  1.00  0.00    -0.237 OA
ATOM     76  O   UNL     1     -12.196  -0.806  17.328  1.00  0.00    -0.237 OA
ATOM     77  O   UNL     1     -10.932   1.249  17.843  1.00  0.00    -0.744 OA
ENDBRANCH  70  74
ENDBRANCH  53  67
BRANCH  54  78
ATOM     78  C   UNL     1      -9.163  -7.305   6.144  1.00  0.00     0.023 A 
ATOM     79  C   UNL     1      -9.832  -8.535   6.044  1.00  0.00     0.031 A 
ATOM     80  C   UNL     1      -8.471  -6.837   5.012  1.00  0.00     0.131 A 
ATOM     81  C   UNL     1      -9.760  -9.275   4.853  1.00  0.00     0.055 A 
ATOM     82  C   UNL     1      -8.447  -7.550   3.813  1.00  0.00     0.041 A 
ATOM     83  F   UNL     1      -7.821  -5.662   5.051  1.00  0.00    -0.206 F 
ATOM     84  C   UNL     1      -9.085  -8.784   3.733  1.00  0.00     0.022 A 
BRANCH  81  85
ATOM     85  S   UNL     1     -10.502 -10.930   4.810  1.00  0.00     0.124 S 
ATOM     86  O   UNL     1      -9.783 -11.607   5.883  1.00  0.00    -0.237 OA
ATOM     87  O   UNL     1     -11.909 -10.637   5.064  1.00  0.00    -0.237 OA
ATOM     88  O   UNL     1     -10.200 -11.402   3.460  1.00  0.00    -0.744 OA
ENDBRANCH  81  85
ENDBRANCH  54  78
BRANCH  66  89
ATOM     89  C   UNL     1      -6.585  -8.511  12.508  1.00  0.00     0.023 A 
ATOM     90  C   UNL     1      -5.350  -8.962  12.006  1.00  0.00     0.031 A 
ATOM     91  C   UNL     1      -7.178  -9.244  13.551  1.00  0.00     0.131 A 
ATOM     92  C   UNL     1      -4.791 -10.155  12.489  1.00  0.00     0.055 A 
ATOM     93  C   UNL     1      -6.579 -10.389  14.079  1.00  0.00     0.041 A 
ATOM     94  F   UNL     1      -8.358  -8.865  14.069  1.00  0.00    -0.206 F 
ATOM     95  C   UNL     1      -5.389 -10.861  13.535  1.00  0.00     0.022 A 
BRANCH  92  96
ATOM     96  S   UNL     1      -3.344 -10.842  11.637  1.00  0.00     0.124 S 
ATOM     97  O   UNL     1      -3.828 -10.957  10.264  1.00  0.00    -0.237 OA
ATOM     98  O   UNL     1      -2.329  -9.820  11.872  1.00  0.00    -0.237 OA
ATOM     99  O   UNL     1      -3.115 -12.113  12.322  1.00  0.00    -0.744 OA
ENDBRANCH  92  96
ENDBRANCH  66  89
ENDBRANCH  40  41
ENDBRANCH  32  35
ENDBRANCH  30  31
ENDBRANCH  29  30
ENDBRANCH   1  29
TORSDOF 18
