REMARK SMILES CC1=C(CC(=O)NCCCCCCNC(=O)c2ccc(-c3c4nc(c(-c5cc(S(=O)(=O)[O-])ccc5F)c5ccc([nH]5)c(-c5cc(S(=O)(=O)[O-])ccc5F)c5nc(c(-c6cc(S(=O)(=O)[O-])ccc6F)c6ccc3[nH]6)C=C5)C=C4)cc2)c2cc(F)ccc2/C1=C\c1ccc([S@@+](C)[O-])cc1
REMARK SMILES IDX 10 1 9 2 8 3 7 4 5 5 6 6 4 8 3 9 1 10 2 11 87 12 80 13 86 14
REMARK SMILES IDX 88 15 81 16 85 17 82 18 84 19 83 20 89 21 90 22 97 23 91 24
REMARK SMILES IDX 96 25 92 26 93 27 94 28 95 29 11 30 12 31 13 32 14 33 15 34
REMARK SMILES IDX 16 36 17 37 18 38 79 39 19 40 78 41 20 42 21 43 22 44 72 45
REMARK SMILES IDX 23 46 77 47 71 48 73 49 24 50 76 51 70 52 69 53 25 55 57 56
REMARK SMILES IDX 37 57 56 58 38 59 41 60 55 61 74 62 39 63 40 64 54 66 75 67
REMARK SMILES IDX 42 68 26 69 27 70 35 71 28 72 34 73 36 74 33 75 29 76 30 77
REMARK SMILES IDX 31 78 32 79 58 80 59 81 67 82 60 83 66 84 68 85 65 86 61 87
REMARK SMILES IDX 62 88 63 89 64 90 43 91 44 92 52 93 45 94 51 95 53 96 50 97
REMARK SMILES IDX 46 98 47 99 48 100 49 101
REMARK H PARENT 7 7 14 35 73 54 41 65
REMARK Flexibility Score: inf
ROOT
ATOM      1  C   UNL     1      -0.825   1.832   5.077  1.00  0.00     0.002 C 
ENDROOT
BRANCH   1   2
ATOM      2  C   UNL     1      -0.325   1.528   3.659  1.00  0.00     0.021 C 
BRANCH   2   3
ATOM      3  C   UNL     1      -1.070   0.388   2.966  1.00  0.00     0.116 C 
BRANCH   3   4
ATOM      4  N   UNL     1      -2.408   0.783   2.581  1.00  0.00    -0.356 N 
ATOM      5  C   UNL     1      -2.888   1.088   1.342  1.00  0.00     0.224 C 
ATOM      6  O   UNL     1      -4.059   1.464   1.246  1.00  0.00    -0.275 OA
ATOM      7  H   UNL     1      -3.062   0.840   3.315  1.00  0.00     0.163 HD
BRANCH   5   8
ATOM      8  C   UNL     1      -2.009   0.919   0.103  1.00  0.00     0.136 C 
BRANCH   8   9
ATOM      9  C   UNL     1      -0.859   1.872   0.020  1.00  0.00    -0.027 C 
ATOM     10  C   UNL     1       1.051   0.240  -0.371  1.00  0.00     0.045 C 
ATOM     11  C   UNL     1       0.456   1.596  -0.161  1.00  0.00    -0.039 C 
ATOM     12  C   UNL     1       1.226   2.852  -0.172  1.00  0.00    -0.014 C 
ATOM     13  C   UNL     1      -1.017   3.336   0.028  1.00  0.00    -0.011 A 
ATOM     14  C   UNL     1       0.238   3.950  -0.141  1.00  0.00    -0.010 A 
ATOM     15  C   UNL     1       2.572   2.936  -0.143  1.00  0.00     0.017 C 
ATOM     16  C   UNL     1      -2.173   4.101   0.124  1.00  0.00     0.048 A 
ATOM     17  C   UNL     1       0.333   5.330  -0.275  1.00  0.00     0.012 A 
ATOM     18  C   UNL     1      -2.057   5.486   0.043  1.00  0.00     0.123 A 
ATOM     19  C   UNL     1      -0.824   6.103  -0.164  1.00  0.00     0.040 A 
ATOM     20  F   UNL     1      -3.156   6.246   0.144  1.00  0.00    -0.207 F 
BRANCH  15  21
ATOM     21  C   UNL     1       3.352   4.176  -0.103  1.00  0.00    -0.025 A 
ATOM     22  C   UNL     1       3.340   5.005   1.024  1.00  0.00     0.013 A 
ATOM     23  C   UNL     1       4.042   4.582  -1.248  1.00  0.00     0.013 A 
ATOM     24  C   UNL     1       3.900   6.285   0.960  1.00  0.00     0.061 A 
ATOM     25  C   UNL     1       4.620   5.852  -1.303  1.00  0.00     0.061 A 
ATOM     26  C   UNL     1       4.517   6.728  -0.216  1.00  0.00     0.152 A 
BRANCH  26  27
ATOM     27  S   UNL     1       5.014   8.458  -0.404  1.00  0.00    -0.018 S 
ATOM     28  C   UNL     1       6.113   8.611   1.017  1.00  0.00     0.346 C 
ATOM     29  O   UNL     1       5.881   8.557  -1.710  1.00  0.00    -0.612 OA
ENDBRANCH  26  27
ENDBRANCH  15  21
ENDBRANCH   8   9
ENDBRANCH   5   8
ENDBRANCH   3   4
ENDBRANCH   2   3
ENDBRANCH   1   2
BRANCH   1  30
ATOM     30  C   UNL     1      -0.772   0.657   6.061  1.00  0.00     0.002 C 
BRANCH  30  31
ATOM     31  C   UNL     1       0.581  -0.048   6.170  1.00  0.00     0.021 C 
BRANCH  31  32
ATOM     32  C   UNL     1       1.734   0.846   6.613  1.00  0.00     0.116 C 
BRANCH  32  33
ATOM     33  N   UNL     1       1.581   1.315   7.982  1.00  0.00    -0.352 N 
ATOM     34  C   UNL     1       2.474   1.247   9.026  1.00  0.00     0.251 C 
ATOM     35  H   UNL     1       0.718   1.741   8.189  1.00  0.00     0.163 HD
ATOM     36  O   UNL     1       2.115   1.547  10.161  1.00  0.00    -0.269 OA
BRANCH  34  37
ATOM     37  C   UNL     1       3.854   0.777   8.776  1.00  0.00     0.039 A 
ATOM     38  C   UNL     1       4.582   1.262   7.687  1.00  0.00     0.014 A 
ATOM     39  C   UNL     1       4.414  -0.184   9.623  1.00  0.00     0.014 A 
ATOM     40  C   UNL     1       5.795   0.670   7.352  1.00  0.00     0.010 A 
ATOM     41  C   UNL     1       5.671  -0.720   9.329  1.00  0.00     0.010 A 
ATOM     42  C   UNL     1       6.351  -0.333   8.163  1.00  0.00    -0.014 A 
BRANCH  42  43
ATOM     43  C   UNL     1       7.645  -0.953   7.775  1.00  0.00     0.031 A 
ATOM     44  C   UNL     1       7.721  -2.405   7.386  1.00  0.00     0.074 A 
ATOM     45  C   UNL     1       8.749  -0.183   7.721  1.00  0.00     0.049 A 
ATOM     46  N   UNL     1       8.755  -3.093   6.976  1.00  0.00    -0.248 NA
ATOM     47  C   UNL     1       6.478  -3.189   7.469  1.00  0.00     0.031 C 
ATOM     48  C   UNL     1       8.790   1.237   8.072  1.00  0.00     0.029 A 
ATOM     49  N   UNL     1      10.035  -0.468   7.333  1.00  0.00    -0.354 N 
ATOM     50  C   UNL     1       8.296  -4.388   6.764  1.00  0.00     0.074 A 
ATOM     51  C   UNL     1       6.896  -4.400   7.124  1.00  0.00     0.031 C 
ATOM     52  C   UNL     1      10.020   1.712   7.831  1.00  0.00     0.029 A 
ATOM     53  C   UNL     1      10.876   0.620   7.375  1.00  0.00     0.049 A 
ATOM     54  H   UNL     1      10.326  -1.365   7.051  1.00  0.00     0.167 HD
ATOM     55  C   UNL     1       8.978  -5.461   6.297  1.00  0.00     0.034 A 
ATOM     56  C   UNL     1      12.190   0.730   7.091  1.00  0.00     0.034 A 
ATOM     57  C   UNL     1      10.370  -5.429   5.926  1.00  0.00     0.049 A 
ATOM     58  C   UNL     1      12.933  -0.486   6.604  1.00  0.00     0.074 A 
ATOM     59  C   UNL     1      11.140  -6.458   5.413  1.00  0.00     0.029 A 
ATOM     60  N   UNL     1      11.200  -4.321   6.023  1.00  0.00    -0.354 N 
ATOM     61  N   UNL     1      12.470  -1.691   6.364  1.00  0.00    -0.248 NA
ATOM     62  C   UNL     1      14.372  -0.337   6.352  1.00  0.00     0.031 C 
ATOM     63  C   UNL     1      12.445  -5.991   5.254  1.00  0.00     0.029 A 
ATOM     64  C   UNL     1      12.479  -4.650   5.605  1.00  0.00     0.049 A 
ATOM     65  H   UNL     1      10.921  -3.433   6.342  1.00  0.00     0.167 HD
ATOM     66  C   UNL     1      13.557  -2.438   5.921  1.00  0.00     0.074 A 
ATOM     67  C   UNL     1      14.694  -1.541   5.896  1.00  0.00     0.031 C 
ATOM     68  C   UNL     1      13.607  -3.749   5.575  1.00  0.00     0.034 A 
BRANCH  55  69
ATOM     69  C   UNL     1       8.245  -6.770   6.136  1.00  0.00     0.023 A 
ATOM     70  C   UNL     1       8.628  -7.891   6.898  1.00  0.00     0.031 A 
ATOM     71  C   UNL     1       7.266  -6.944   5.142  1.00  0.00     0.131 A 
ATOM     72  C   UNL     1       8.056  -9.142   6.631  1.00  0.00     0.055 A 
ATOM     73  C   UNL     1       6.674  -8.186   4.905  1.00  0.00     0.041 A 
ATOM     74  F   UNL     1       6.867  -5.906   4.389  1.00  0.00    -0.206 F 
ATOM     75  C   UNL     1       7.078  -9.294   5.643  1.00  0.00     0.022 A 
BRANCH  72  76
ATOM     76  S   UNL     1       8.601 -10.631   7.512  1.00  0.00     0.124 S 
ATOM     77  O   UNL     1       7.358 -11.081   8.134  1.00  0.00    -0.237 OA
ATOM     78  O   UNL     1       9.091 -11.468   6.420  1.00  0.00    -0.237 OA
ATOM     79  O   UNL     1       9.616 -10.140   8.437  1.00  0.00    -0.744 OA
ENDBRANCH  72  76
ENDBRANCH  55  69
BRANCH  56  80
ATOM     80  C   UNL     1      12.850   2.062   7.223  1.00  0.00     0.023 A 
ATOM     81  C   UNL     1      12.891   2.728   8.462  1.00  0.00     0.031 A 
ATOM     82  C   UNL     1      13.334   2.740   6.092  1.00  0.00     0.131 A 
ATOM     83  C   UNL     1      13.325   4.058   8.525  1.00  0.00     0.055 A 
ATOM     84  C   UNL     1      13.839   4.040   6.173  1.00  0.00     0.041 A 
ATOM     85  F   UNL     1      13.304   2.152   4.886  1.00  0.00    -0.206 F 
ATOM     86  C   UNL     1      13.816   4.713   7.391  1.00  0.00     0.022 A 
BRANCH  83  87
ATOM     87  S   UNL     1      13.118   5.030  10.044  1.00  0.00     0.124 S 
ATOM     88  O   UNL     1      14.497   5.370  10.377  1.00  0.00    -0.237 OA
ATOM     89  O   UNL     1      12.289   6.139   9.577  1.00  0.00    -0.237 OA
ATOM     90  O   UNL     1      12.455   4.104  10.956  1.00  0.00    -0.744 OA
ENDBRANCH  83  87
ENDBRANCH  56  80
BRANCH  68  91
ATOM     91  C   UNL     1      14.931  -4.330   5.141  1.00  0.00     0.023 A 
ATOM     92  C   UNL     1      15.087  -4.831   3.835  1.00  0.00     0.031 A 
ATOM     93  C   UNL     1      15.976  -4.527   6.060  1.00  0.00     0.131 A 
ATOM     94  C   UNL     1      16.244  -5.545   3.497  1.00  0.00     0.055 A 
ATOM     95  C   UNL     1      17.147  -5.198   5.705  1.00  0.00     0.041 A 
ATOM     96  F   UNL     1      15.870  -4.074   7.320  1.00  0.00    -0.206 F 
ATOM     97  C   UNL     1      17.278  -5.724   4.422  1.00  0.00     0.022 A 
BRANCH  94  98
ATOM     98  S   UNL     1      16.413  -6.342   1.876  1.00  0.00     0.124 S 
ATOM     99  O   UNL     1      17.596  -5.677   1.335  1.00  0.00    -0.237 OA
ATOM    100  O   UNL     1      16.596  -7.744   2.240  1.00  0.00    -0.237 OA
ATOM    101  O   UNL     1      15.159  -6.029   1.198  1.00  0.00    -0.744 OA
ENDBRANCH  94  98
ENDBRANCH  68  91
ENDBRANCH  42  43
ENDBRANCH  34  37
ENDBRANCH  32  33
ENDBRANCH  31  32
ENDBRANCH  30  31
ENDBRANCH   1  30
TORSDOF 19
