REMARK SMILES CCn1c(N2CCC(C(=O)NCCCCCCNC(=O)c3ccc(-c4c5nc(c(-c6cc(S(=O)(=O)[O-])ccc6F)c6ccc([nH]6)c(-c6cc(S(=O)(=O)[O-])ccc6F)c6nc(c(-c7cc(S(=O)(=O)[O-])ccc7F)c7ccc4[nH]7)C=C6)C=C5)cc3)CC2)nc2cc(C)ccc21
REMARK SMILES IDX 15 1 14 2 13 3 12 4 11 5 9 6 10 7 8 9 5 10 6 11 85 12 7 13
REMARK SMILES IDX 84 14 4 15 3 16 93 17 86 18 87 19 92 20 88 21 91 22 89 23
REMARK SMILES IDX 90 24 2 25 1 26 16 27 17 28 18 29 19 30 20 32 21 33 22 34
REMARK SMILES IDX 83 35 23 36 82 37 24 38 25 39 26 40 76 41 27 42 81 43 75 44
REMARK SMILES IDX 77 45 28 46 80 47 74 48 73 49 29 51 61 52 41 53 60 54 42 55
REMARK SMILES IDX 45 56 59 57 78 58 43 59 44 60 58 62 79 63 46 64 30 65 31 66
REMARK SMILES IDX 39 67 32 68 38 69 40 70 37 71 33 72 34 73 35 74 36 75 62 76
REMARK SMILES IDX 63 77 71 78 64 79 70 80 72 81 69 82 65 83 66 84 67 85 68 86
REMARK SMILES IDX 47 87 48 88 56 89 49 90 55 91 57 92 54 93 50 94 51 95 52 96
REMARK SMILES IDX 53 97
REMARK H PARENT 11 8 18 31 77 50 45 61
REMARK Flexibility Score: inf
ROOT
ATOM      1  C   UNL     1       2.397   1.350   9.365  1.00  0.00     0.002 C 
ENDROOT
BRANCH   1   2
ATOM      2  C   UNL     1       3.569   1.676   8.432  1.00  0.00     0.002 C 
BRANCH   2   3
ATOM      3  C   UNL     1       3.484   1.020   7.053  1.00  0.00     0.021 C 
BRANCH   3   4
ATOM      4  C   UNL     1       2.240   1.423   6.274  1.00  0.00     0.116 C 
BRANCH   4   5
ATOM      5  N   UNL     1       2.356   2.791   5.795  1.00  0.00    -0.356 N 
ATOM      6  C   UNL     1       2.395   3.277   4.527  1.00  0.00     0.223 C 
ATOM      7  O   UNL     1       2.588   4.484   4.364  1.00  0.00    -0.275 OA
ATOM      8  H   UNL     1       2.415   3.474   6.503  1.00  0.00     0.163 HD
BRANCH   6   9
ATOM      9  C   UNL     1       2.183   2.364   3.333  1.00  0.00     0.082 C 
ATOM     10  N   UNL     1       1.663  -0.200   2.182  1.00  0.00    -0.342 N 
ATOM     11  C   UNL     1       3.037   0.277   2.128  1.00  0.00     0.120 C 
ATOM     12  C   UNL     1       0.576   0.761   2.243  1.00  0.00     0.120 C 
ATOM     13  C   UNL     1       3.325   1.357   3.162  1.00  0.00     0.035 C 
ATOM     14  C   UNL     1       0.779   1.752   3.370  1.00  0.00     0.035 C 
BRANCH  10  15
ATOM     15  C   UNL     1       1.422  -1.532   2.099  1.00  0.00     0.206 A 
ATOM     16  N   UNL     1       0.857  -2.143   0.998  1.00  0.00    -0.310 N 
ATOM     17  C   UNL     1       0.744  -3.497   1.282  1.00  0.00     0.070 A 
ATOM     18  N   UNL     1       1.739  -2.425   3.015  1.00  0.00    -0.213 NA
ATOM     19  C   UNL     1       1.285  -3.637   2.551  1.00  0.00     0.091 A 
ATOM     20  C   UNL     1       0.228  -4.576   0.552  1.00  0.00     0.029 A 
ATOM     21  C   UNL     1       1.296  -4.913   3.148  1.00  0.00     0.034 A 
ATOM     22  C   UNL     1       0.252  -5.835   1.155  1.00  0.00     0.006 A 
ATOM     23  C   UNL     1       0.770  -6.016   2.442  1.00  0.00    -0.049 A 
ATOM     24  C   UNL     1       0.739  -7.378   3.076  1.00  0.00     0.044 C 
BRANCH  16  25
ATOM     25  C   UNL     1       0.430  -1.631  -0.289  1.00  0.00     0.122 C 
ATOM     26  C   UNL     1       0.898  -0.286  -0.808  1.00  0.00     0.028 C 
ENDBRANCH  16  25
ENDBRANCH  10  15
ENDBRANCH   6   9
ENDBRANCH   4   5
ENDBRANCH   3   4
ENDBRANCH   2   3
ENDBRANCH   1   2
BRANCH   1  27
ATOM     27  C   UNL     1       2.113  -0.147   9.553  1.00  0.00     0.021 C 
BRANCH  27  28
ATOM     28  C   UNL     1       3.339  -0.967   9.956  1.00  0.00     0.116 C 
BRANCH  28  29
ATOM     29  N   UNL     1       3.997  -0.461  11.141  1.00  0.00    -0.352 N 
ATOM     30  C   UNL     1       3.815  -0.616  12.484  1.00  0.00     0.251 C 
ATOM     31  H   UNL     1       4.751   0.135  10.928  1.00  0.00     0.163 HD
ATOM     32  O   UNL     1       4.635  -0.038  13.203  1.00  0.00    -0.269 OA
BRANCH  30  33
ATOM     33  C   UNL     1       2.692  -1.358  13.115  1.00  0.00     0.039 A 
ATOM     34  C   UNL     1       1.726  -2.107  12.442  1.00  0.00     0.014 A 
ATOM     35  C   UNL     1       2.590  -1.231  14.514  1.00  0.00     0.014 A 
ATOM     36  C   UNL     1       0.629  -2.615  13.126  1.00  0.00     0.010 A 
ATOM     37  C   UNL     1       1.511  -1.761  15.206  1.00  0.00     0.010 A 
ATOM     38  C   UNL     1       0.501  -2.401  14.499  1.00  0.00    -0.014 A 
BRANCH  38  39
ATOM     39  C   UNL     1      -0.668  -2.961  15.168  1.00  0.00     0.031 A 
ATOM     40  C   UNL     1      -0.762  -4.443  15.080  1.00  0.00     0.074 A 
ATOM     41  C   UNL     1      -1.529  -2.218  15.893  1.00  0.00     0.049 A 
ATOM     42  N   UNL     1      -1.642  -5.156  14.455  1.00  0.00    -0.248 NA
ATOM     43  C   UNL     1       0.364  -5.223  15.618  1.00  0.00     0.031 C 
ATOM     44  C   UNL     1      -1.364  -0.818  16.300  1.00  0.00     0.029 A 
ATOM     45  N   UNL     1      -2.686  -2.583  16.516  1.00  0.00    -0.354 N 
ATOM     46  C   UNL     1      -1.307  -6.485  14.721  1.00  0.00     0.074 A 
ATOM     47  C   UNL     1       0.027  -6.462  15.259  1.00  0.00     0.031 C 
ATOM     48  C   UNL     1      -2.237  -0.535  17.292  1.00  0.00     0.029 A 
ATOM     49  C   UNL     1      -3.128  -1.670  17.463  1.00  0.00     0.049 A 
ATOM     50  H   UNL     1      -3.164  -3.419  16.312  1.00  0.00     0.167 HD
ATOM     51  C   UNL     1      -2.257  -7.464  14.743  1.00  0.00     0.034 A 
ATOM     52  C   UNL     1      -4.121  -1.849  18.366  1.00  0.00     0.034 A 
ATOM     53  C   UNL     1      -3.476  -7.009  14.136  1.00  0.00     0.049 A 
ATOM     54  C   UNL     1      -4.993  -2.942  17.890  1.00  0.00     0.074 A 
ATOM     55  C   UNL     1      -3.950  -6.817  12.859  1.00  0.00     0.029 A 
ATOM     56  N   UNL     1      -4.299  -6.328  14.993  1.00  0.00    -0.354 N 
ATOM     57  N   UNL     1      -5.747  -2.857  16.831  1.00  0.00    -0.248 NA
ATOM     58  C   UNL     1      -4.789  -4.291  18.408  1.00  0.00     0.031 C 
ATOM     59  C   UNL     1      -4.977  -5.835  12.967  1.00  0.00     0.029 A 
ATOM     60  C   UNL     1      -5.126  -5.481  14.308  1.00  0.00     0.049 A 
ATOM     61  H   UNL     1      -4.296  -6.434  15.972  1.00  0.00     0.167 HD
ATOM     62  C   UNL     1      -5.729  -4.133  16.305  1.00  0.00     0.074 A 
ATOM     63  C   UNL     1      -5.305  -4.997  17.399  1.00  0.00     0.031 C 
ATOM     64  C   UNL     1      -5.739  -4.337  14.957  1.00  0.00     0.034 A 
BRANCH  51  65
ATOM     65  C   UNL     1      -2.261  -8.621  15.728  1.00  0.00     0.023 A 
ATOM     66  C   UNL     1      -1.361  -8.715  16.805  1.00  0.00     0.031 A 
ATOM     67  C   UNL     1      -3.349  -9.521  15.767  1.00  0.00     0.131 A 
ATOM     68  C   UNL     1      -1.543  -9.634  17.847  1.00  0.00     0.055 A 
ATOM     69  C   UNL     1      -3.567 -10.398  16.840  1.00  0.00     0.041 A 
ATOM     70  F   UNL     1      -4.274  -9.532  14.794  1.00  0.00    -0.206 F 
ATOM     71  C   UNL     1      -2.663 -10.454  17.892  1.00  0.00     0.022 A 
BRANCH  68  72
ATOM     72  S   UNL     1      -0.316  -9.744  19.180  1.00  0.00     0.124 S 
ATOM     73  O   UNL     1      -1.126  -9.429  20.357  1.00  0.00    -0.237 OA
ATOM     74  O   UNL     1       0.114 -11.138  19.067  1.00  0.00    -0.237 OA
ATOM     75  O   UNL     1       0.683  -8.757  18.809  1.00  0.00    -0.744 OA
ENDBRANCH  68  72
ENDBRANCH  51  65
BRANCH  52  76
ATOM     76  C   UNL     1      -4.114  -1.429  19.786  1.00  0.00     0.023 A 
ATOM     77  C   UNL     1      -2.895  -1.406  20.488  1.00  0.00     0.031 A 
ATOM     78  C   UNL     1      -5.300  -1.384  20.538  1.00  0.00     0.131 A 
ATOM     79  C   UNL     1      -2.885  -1.412  21.889  1.00  0.00     0.055 A 
ATOM     80  C   UNL     1      -5.287  -1.367  21.938  1.00  0.00     0.041 A 
ATOM     81  F   UNL     1      -6.495  -1.433  19.929  1.00  0.00    -0.206 F 
ATOM     82  C   UNL     1      -4.074  -1.401  22.620  1.00  0.00     0.022 A 
BRANCH  79  83
ATOM     83  S   UNL     1      -1.319  -1.543  22.794  1.00  0.00     0.124 S 
ATOM     84  O   UNL     1      -1.442  -0.469  23.777  1.00  0.00    -0.237 OA
ATOM     85  O   UNL     1      -1.402  -2.897  23.331  1.00  0.00    -0.237 OA
ATOM     86  O   UNL     1      -0.309  -1.325  21.764  1.00  0.00    -0.744 OA
ENDBRANCH  79  83
ENDBRANCH  52  76
BRANCH  64  87
ATOM     87  C   UNL     1      -6.239  -3.235  14.065  1.00  0.00     0.023 A 
ATOM     88  C   UNL     1      -7.291  -3.562  13.195  1.00  0.00     0.031 A 
ATOM     89  C   UNL     1      -5.622  -1.982  13.908  1.00  0.00     0.131 A 
ATOM     90  C   UNL     1      -7.655  -2.688  12.169  1.00  0.00     0.055 A 
ATOM     91  C   UNL     1      -6.042  -1.076  12.929  1.00  0.00     0.041 A 
ATOM     92  F   UNL     1      -4.557  -1.629  14.639  1.00  0.00    -0.206 F 
ATOM     93  C   UNL     1      -7.050  -1.435  12.039  1.00  0.00     0.022 A 
BRANCH  90  94
ATOM     94  S   UNL     1      -8.809  -3.230  10.884  1.00  0.00     0.124 S 
ATOM     95  O   UNL     1      -9.910  -2.283  11.036  1.00  0.00    -0.237 OA
ATOM     96  O   UNL     1      -8.012  -3.076   9.669  1.00  0.00    -0.237 OA
ATOM     97  O   UNL     1      -9.119  -4.610  11.246  1.00  0.00    -0.744 OA
ENDBRANCH  90  94
ENDBRANCH  64  87
ENDBRANCH  38  39
ENDBRANCH  30  33
ENDBRANCH  28  29
ENDBRANCH  27  28
ENDBRANCH   1  27
TORSDOF 18
