REMARK SMILES COc1ccc(C(=O)C2=C(NCCCCCCNC(=O)c3ccc(-c4c5nc(c(-c6cc(S(=O)(=O)[O-])ccc6F)c6ccc([nH]6)c(-c6cc(S(=O)(=O)[O-])ccc6F)c6nc(c(-c7cc(S(=O)(=O)[O-])ccc7F)c7ccc4[nH]7)C=C6)C=C5)cc3)C(=O)N(CCC(=O)[O-])[C@H]2c2ccccc2F)cc1
REMARK SMILES IDX 14 1 13 2 12 3 11 4 10 6 9 7 92 8 84 9 86 10 85 11 7 12 8 13
REMARK SMILES IDX 6 14 3 15 4 16 101 17 5 18 100 19 2 20 1 21 93 22 94 23
REMARK SMILES IDX 98 24 95 25 97 26 99 27 96 28 87 29 88 30 89 31 90 32 91 33
REMARK SMILES IDX 15 34 16 35 17 36 18 37 19 38 20 40 21 41 22 42 83 43 23 44
REMARK SMILES IDX 82 45 24 46 25 47 26 48 76 49 27 50 81 51 75 52 77 53 28 54
REMARK SMILES IDX 80 55 74 56 73 57 29 59 61 60 41 61 60 62 42 63 45 64 59 65
REMARK SMILES IDX 78 66 43 67 44 68 58 70 79 71 46 72 30 73 31 74 39 75 32 76
REMARK SMILES IDX 38 77 40 78 37 79 33 80 34 81 35 82 36 83 62 84 63 85 71 86
REMARK SMILES IDX 64 87 70 88 72 89 69 90 65 91 66 92 67 93 68 94 47 95 48 96
REMARK SMILES IDX 56 97 49 98 55 99 57 100 54 101 50 102 51 103 52 104 53 105
REMARK H PARENT 11 5 18 39 77 58 45 69
REMARK Flexibility Score: inf
ROOT
ATOM      1  C   UNL     1       1.330   6.454  -6.147  1.00  0.00     0.002 C 
ENDROOT
BRANCH   1   2
ATOM      2  C   UNL     1       0.997   5.034  -5.670  1.00  0.00     0.021 C 
BRANCH   2   3
ATOM      3  C   UNL     1       1.405   3.928  -6.641  1.00  0.00     0.113 C 
BRANCH   3   4
ATOM      4  N   UNL     1       2.844   3.869  -6.717  1.00  0.00    -0.380 N 
ATOM      5  H   UNL     1       3.286   4.732  -6.888  1.00  0.00     0.160 HD
BRANCH   4   6
ATOM      6  C   UNL     1       3.691   2.805  -6.589  1.00  0.00     0.110 C 
ATOM      7  C   UNL     1       3.582   1.496  -6.339  1.00  0.00     0.056 C 
ATOM      8  C   UNL     1       4.878   0.742  -6.384  1.00  0.00     0.155 C 
ATOM      9  C   UNL     1       5.159   3.027  -6.802  1.00  0.00     0.271 C 
ATOM     10  N   UNL     1       5.785   1.799  -6.787  1.00  0.00    -0.326 N 
ATOM     11  O   UNL     1       5.663   4.124  -6.970  1.00  0.00    -0.267 OA
BRANCH   7  12
ATOM     12  C   UNL     1       2.295   0.797  -6.207  1.00  0.00     0.193 C 
ATOM     13  O   UNL     1       1.747   0.347  -7.209  1.00  0.00    -0.289 OA
BRANCH  12  14
ATOM     14  C   UNL     1       1.689   0.617  -4.853  1.00  0.00     0.023 A 
ATOM     15  C   UNL     1       0.605   0.008  -2.322  1.00  0.00     0.118 A 
ATOM     16  C   UNL     1      -0.091  -0.314  -3.489  1.00  0.00     0.047 A 
ATOM     17  C   UNL     1       1.814   0.689  -2.425  1.00  0.00     0.047 A 
ATOM     18  C   UNL     1       0.448  -0.021  -4.748  1.00  0.00     0.016 A 
ATOM     19  C   UNL     1       2.329   1.025  -3.681  1.00  0.00     0.016 A 
BRANCH  15  20
ATOM     20  O   UNL     1       0.014  -0.395  -1.158  1.00  0.00    -0.497 OA
ATOM     21  C   UNL     1       0.646   0.006   0.052  1.00  0.00     0.278 C 
ENDBRANCH  15  20
ENDBRANCH  12  14
ENDBRANCH   7  12
BRANCH   8  22
ATOM     22  C   UNL     1       5.282   0.150  -5.045  1.00  0.00     0.015 A 
ATOM     23  C   UNL     1       5.747   0.949  -3.980  1.00  0.00     0.009 A 
ATOM     24  C   UNL     1       5.139  -1.220  -4.821  1.00  0.00     0.128 A 
ATOM     25  C   UNL     1       6.013   0.390  -2.728  1.00  0.00     0.001 A 
ATOM     26  C   UNL     1       5.418  -1.786  -3.579  1.00  0.00     0.039 A 
ATOM     27  F   UNL     1       4.720  -2.017  -5.813  1.00  0.00    -0.207 F 
ATOM     28  C   UNL     1       5.844  -0.977  -2.527  1.00  0.00     0.003 A 
ENDBRANCH   8  22
BRANCH  10  29
ATOM     29  C   UNL     1       7.202   1.585  -7.054  1.00  0.00     0.127 C 
BRANCH  29  30
ATOM     30  C   UNL     1       7.575   1.751  -8.521  1.00  0.00     0.074 C 
BRANCH  30  31
ATOM     31  C   UNL     1       7.707   3.205  -8.864  1.00  0.00     0.043 C 
ATOM     32  O   UNL     1       8.614   3.940  -8.507  1.00  0.00    -0.550 OA
ATOM     33  O   UNL     1       6.659   3.666  -9.569  1.00  0.00    -0.550 OA
ENDBRANCH  30  31
ENDBRANCH  29  30
ENDBRANCH  10  29
ENDBRANCH   4   6
ENDBRANCH   3   4
ENDBRANCH   2   3
ENDBRANCH   1   2
BRANCH   1  34
ATOM     34  C   UNL     1       0.700   6.855  -7.484  1.00  0.00     0.002 C 
BRANCH  34  35
ATOM     35  C   UNL     1      -0.817   6.669  -7.568  1.00  0.00     0.021 C 
BRANCH  35  36
ATOM     36  C   UNL     1      -1.608   7.375  -6.472  1.00  0.00     0.116 C 
BRANCH  36  37
ATOM     37  N   UNL     1      -1.451   8.818  -6.524  1.00  0.00    -0.352 N 
ATOM     38  C   UNL     1      -2.417   9.793  -6.548  1.00  0.00     0.251 C 
ATOM     39  H   UNL     1      -0.521   9.143  -6.545  1.00  0.00     0.163 HD
ATOM     40  O   UNL     1      -2.107  10.956  -6.788  1.00  0.00    -0.269 OA
BRANCH  38  41
ATOM     41  C   UNL     1      -3.832   9.429  -6.310  1.00  0.00     0.039 A 
ATOM     42  C   UNL     1      -4.816   9.956  -7.149  1.00  0.00     0.014 A 
ATOM     43  C   UNL     1      -4.185   8.567  -5.268  1.00  0.00     0.014 A 
ATOM     44  C   UNL     1      -6.148   9.571  -6.980  1.00  0.00     0.010 A 
ATOM     45  C   UNL     1      -5.501   8.125  -5.150  1.00  0.00     0.010 A 
ATOM     46  C   UNL     1      -6.497   8.625  -6.002  1.00  0.00    -0.014 A 
BRANCH  46  47
ATOM     47  C   UNL     1      -7.900   8.152  -5.854  1.00  0.00     0.031 A 
ATOM     48  C   UNL     1      -8.657   8.421  -4.582  1.00  0.00     0.074 A 
ATOM     49  C   UNL     1      -8.470   7.435  -6.843  1.00  0.00     0.049 A 
ATOM     50  N   UNL     1      -9.861   8.039  -4.238  1.00  0.00    -0.248 NA
ATOM     51  C   UNL     1      -7.956   9.197  -3.548  1.00  0.00     0.031 C 
ATOM     52  C   UNL     1      -7.824   7.082  -8.110  1.00  0.00     0.029 A 
ATOM     53  N   UNL     1      -9.717   6.870  -6.940  1.00  0.00    -0.354 N 
ATOM     54  C   UNL     1     -10.056   8.514  -2.945  1.00  0.00     0.074 A 
ATOM     55  C   UNL     1      -8.821   9.158  -2.547  1.00  0.00     0.031 C 
ATOM     56  C   UNL     1      -8.690   6.390  -8.867  1.00  0.00     0.029 A 
ATOM     57  C   UNL     1      -9.933   6.203  -8.124  1.00  0.00     0.049 A 
ATOM     58  H   UNL     1     -10.394   6.935  -6.228  1.00  0.00     0.167 HD
ATOM     59  C   UNL     1     -11.167   8.439  -2.171  1.00  0.00     0.034 A 
ATOM     60  C   UNL     1     -11.004   5.509  -8.558  1.00  0.00     0.034 A 
ATOM     61  C   UNL     1     -12.393   7.802  -2.591  1.00  0.00     0.049 A 
ATOM     62  C   UNL     1     -12.215   5.407  -7.664  1.00  0.00     0.074 A 
ATOM     63  C   UNL     1     -13.597   7.723  -1.914  1.00  0.00     0.029 A 
ATOM     64  N   UNL     1     -12.569   7.122  -3.790  1.00  0.00    -0.354 N 
ATOM     65  N   UNL     1     -12.403   5.910  -6.465  1.00  0.00    -0.248 NA
ATOM     66  C   UNL     1     -13.360   4.650  -8.186  1.00  0.00     0.031 C 
ATOM     67  C   UNL     1     -14.471   6.929  -2.663  1.00  0.00     0.029 A 
ATOM     68  C   UNL     1     -13.847   6.587  -3.852  1.00  0.00     0.049 A 
ATOM     69  H   UNL     1     -11.885   7.034  -4.493  1.00  0.00     0.167 HD
ATOM     70  C   UNL     1     -13.703   5.560  -6.107  1.00  0.00     0.074 A 
ATOM     71  C   UNL     1     -14.253   4.816  -7.222  1.00  0.00     0.031 C 
ATOM     72  C   UNL     1     -14.382   5.835  -4.964  1.00  0.00     0.034 A 
BRANCH  59  73
ATOM     73  C   UNL     1     -11.092   9.031  -0.782  1.00  0.00     0.023 A 
ATOM     74  C   UNL     1     -10.848  10.400  -0.570  1.00  0.00     0.031 A 
ATOM     75  C   UNL     1     -11.242   8.210   0.349  1.00  0.00     0.131 A 
ATOM     76  C   UNL     1     -10.681  10.889   0.734  1.00  0.00     0.055 A 
ATOM     77  C   UNL     1     -11.163   8.720   1.647  1.00  0.00     0.041 A 
ATOM     78  F   UNL     1     -11.454   6.891   0.214  1.00  0.00    -0.206 F 
ATOM     79  C   UNL     1     -10.864  10.064   1.845  1.00  0.00     0.022 A 
BRANCH  76  80
ATOM     80  S   UNL     1     -10.066  12.582   0.952  1.00  0.00     0.124 S 
ATOM     81  O   UNL     1      -8.803  12.533   0.219  1.00  0.00    -0.237 OA
ATOM     82  O   UNL     1     -11.124  13.383   0.348  1.00  0.00    -0.237 OA
ATOM     83  O   UNL     1      -9.931  12.714   2.401  1.00  0.00    -0.744 OA
ENDBRANCH  76  80
ENDBRANCH  59  73
BRANCH  60  84
ATOM     84  C   UNL     1     -10.989   4.848  -9.896  1.00  0.00     0.023 A 
ATOM     85  C   UNL     1     -11.884   5.240 -10.904  1.00  0.00     0.031 A 
ATOM     86  C   UNL     1     -10.110   3.785 -10.171  1.00  0.00     0.131 A 
ATOM     87  C   UNL     1     -11.916   4.542 -12.121  1.00  0.00     0.055 A 
ATOM     88  C   UNL     1     -10.106   3.133 -11.406  1.00  0.00     0.041 A 
ATOM     89  F   UNL     1      -9.232   3.371  -9.244  1.00  0.00    -0.206 F 
ATOM     90  C   UNL     1     -11.023   3.501 -12.385  1.00  0.00     0.022 A 
BRANCH  87  91
ATOM     91  S   UNL     1     -13.210   4.955 -13.324  1.00  0.00     0.124 S 
ATOM     92  O   UNL     1     -14.422   4.720 -12.548  1.00  0.00    -0.237 OA
ATOM     93  O   UNL     1     -12.904   6.348 -13.632  1.00  0.00    -0.237 OA
ATOM     94  O   UNL     1     -12.973   4.012 -14.415  1.00  0.00    -0.744 OA
ENDBRANCH  87  91
ENDBRANCH  60  84
BRANCH  72  95
ATOM     95  C   UNL     1     -15.817   5.368  -4.886  1.00  0.00     0.023 A 
ATOM     96  C   UNL     1     -16.155   4.004  -4.870  1.00  0.00     0.031 A 
ATOM     97  C   UNL     1     -16.862   6.308  -4.838  1.00  0.00     0.131 A 
ATOM     98  C   UNL     1     -17.505   3.618  -4.867  1.00  0.00     0.055 A 
ATOM     99  C   UNL     1     -18.200   5.919  -4.766  1.00  0.00     0.041 A 
ATOM    100  F   UNL     1     -16.599   7.625  -4.855  1.00  0.00    -0.206 F 
ATOM    101  C   UNL     1     -18.528   4.567  -4.795  1.00  0.00     0.022 A 
BRANCH  98 102
ATOM    102  S   UNL     1     -17.910   1.861  -5.059  1.00  0.00     0.124 S 
ATOM    103  O   UNL     1     -17.275   1.541  -6.334  1.00  0.00    -0.237 OA
ATOM    104  O   UNL     1     -17.297   1.267  -3.875  1.00  0.00    -0.237 OA
ATOM    105  O   UNL     1     -19.372   1.845  -5.074  1.00  0.00    -0.744 OA
ENDBRANCH  98 102
ENDBRANCH  72  95
ENDBRANCH  46  47
ENDBRANCH  38  41
ENDBRANCH  36  37
ENDBRANCH  35  36
ENDBRANCH  34  35
ENDBRANCH   1  34
TORSDOF 23
