REMARK SMILES Nc1c(CC(=O)NCCCCCCNC(=O)c2ccc(-c3c4nc(c(-c5cc(S(=O)(=O)[O-])ccc5F)c5ccc([nH]5)c(-c5cc(S(=O)(=O)[O-])ccc5F)c5nc(c(-c6cc(S(=O)(=O)[O-])ccc6F)c6ccc3[nH]6)C=C5)C=C4)cc2)cccc1C(=O)c1ccc(Br)cc1
REMARK SMILES IDX 10 1 9 2 8 3 7 4 5 5 6 6 4 8 3 9 2 10 83 11 80 12 82 13
REMARK SMILES IDX 81 14 1 15 84 18 85 19 86 20 87 21 92 22 88 23 91 24 89 25
REMARK SMILES IDX 90 26 11 27 12 28 13 29 14 30 15 31 16 33 17 34 18 35 79 36
REMARK SMILES IDX 19 37 78 38 20 39 21 40 22 41 72 42 23 43 77 44 71 45 73 46
REMARK SMILES IDX 24 47 76 48 70 49 69 50 25 52 57 53 37 54 56 55 38 56 41 57
REMARK SMILES IDX 55 58 74 59 39 60 40 61 54 63 75 64 42 65 26 66 27 67 35 68
REMARK SMILES IDX 28 69 34 70 36 71 33 72 29 73 30 74 31 75 32 76 58 77 59 78
REMARK SMILES IDX 67 79 60 80 66 81 68 82 65 83 61 84 62 85 63 86 64 87 43 88
REMARK SMILES IDX 44 89 52 90 45 91 51 92 53 93 50 94 46 95 47 96 48 97 49 98
REMARK H PARENT 7 7 1 16 1 17 14 32 73 51 41 62
REMARK Flexibility Score: inf
ROOT
ATOM      1  C   UNL     1       0.251  -1.337   4.931  1.00  0.00     0.002 C 
ENDROOT
BRANCH   1   2
ATOM      2  C   UNL     1       0.588  -0.886   3.505  1.00  0.00     0.021 C 
BRANCH   2   3
ATOM      3  C   UNL     1       1.564  -1.825   2.797  1.00  0.00     0.116 C 
BRANCH   3   4
ATOM      4  N   UNL     1       0.909  -3.054   2.397  1.00  0.00    -0.356 N 
ATOM      5  C   UNL     1       0.470  -3.431   1.163  1.00  0.00     0.224 C 
ATOM      6  O   UNL     1      -0.173  -4.480   1.067  1.00  0.00    -0.275 OA
ATOM      7  H   UNL     1       0.761  -3.708   3.118  1.00  0.00     0.163 HD
BRANCH   5   8
ATOM      8  C   UNL     1       0.842  -2.627  -0.073  1.00  0.00     0.137 C 
BRANCH   8   9
ATOM      9  C   UNL     1       0.231  -1.238  -0.153  1.00  0.00    -0.015 A 
ATOM     10  C   UNL     1       1.016  -0.051  -0.180  1.00  0.00     0.046 A 
ATOM     11  C   UNL     1       0.356   1.207  -0.175  1.00  0.00     0.046 A 
ATOM     12  C   UNL     1      -1.174  -1.154  -0.155  1.00  0.00     0.006 A 
ATOM     13  C   UNL     1      -1.053   1.244  -0.160  1.00  0.00     0.014 A 
ATOM     14  C   UNL     1      -1.811   0.078  -0.155  1.00  0.00     0.001 A 
BRANCH  10  15
ATOM     15  N   UNL     1       2.401  -0.171  -0.159  1.00  0.00    -0.398 N 
ATOM     16  H   UNL     1       2.817  -1.063  -0.164  1.00  0.00     0.156 HD
ATOM     17  H   UNL     1       2.965   0.636  -0.140  1.00  0.00     0.156 HD
ENDBRANCH  10  15
BRANCH  11  18
ATOM     18  C   UNL     1       1.016   2.560  -0.142  1.00  0.00     0.195 C 
ATOM     19  O   UNL     1       0.346   3.568   0.076  1.00  0.00    -0.289 OA
BRANCH  18  20
ATOM     20  C   UNL     1       2.469   2.762  -0.294  1.00  0.00     0.023 A 
ATOM     21  C   UNL     1       3.168   3.346   0.769  1.00  0.00     0.013 A 
ATOM     22  C   UNL     1       3.147   2.343  -1.444  1.00  0.00     0.013 A 
ATOM     23  C   UNL     1       4.561   3.436   0.718  1.00  0.00     0.016 A 
ATOM     24  C   UNL     1       4.541   2.420  -1.485  1.00  0.00     0.016 A 
ATOM     25  C   UNL     1       5.241   2.952  -0.400  1.00  0.00     0.018 A 
ATOM     26  Br  UNL     1       7.130   2.989  -0.435  1.00  0.00    -0.051 Br
ENDBRANCH  18  20
ENDBRANCH  11  18
ENDBRANCH   8   9
ENDBRANCH   5   8
ENDBRANCH   3   4
ENDBRANCH   2   3
ENDBRANCH   1   2
BRANCH   1  27
ATOM     27  C   UNL     1       1.459  -1.446   5.868  1.00  0.00     0.002 C 
BRANCH  27  28
ATOM     28  C   UNL     1       2.275  -0.159   6.014  1.00  0.00     0.021 C 
BRANCH  28  29
ATOM     29  C   UNL     1       1.491   1.013   6.596  1.00  0.00     0.116 C 
BRANCH  29  30
ATOM     30  N   UNL     1       1.025   0.728   7.945  1.00  0.00    -0.352 N 
ATOM     31  C   UNL     1       1.258   1.415   9.108  1.00  0.00     0.251 C 
ATOM     32  H   UNL     1       0.461  -0.075   8.035  1.00  0.00     0.163 HD
ATOM     33  O   UNL     1       0.994   0.889  10.189  1.00  0.00    -0.269 OA
BRANCH  31  34
ATOM     34  C   UNL     1       1.840   2.771   9.057  1.00  0.00     0.039 A 
ATOM     35  C   UNL     1       2.842   3.115   9.967  1.00  0.00     0.014 A 
ATOM     36  C   UNL     1       1.393   3.705   8.118  1.00  0.00     0.014 A 
ATOM     37  C   UNL     1       3.436   4.377   9.896  1.00  0.00     0.010 A 
ATOM     38  C   UNL     1       2.039   4.932   7.998  1.00  0.00     0.010 A 
ATOM     39  C   UNL     1       3.063   5.284   8.890  1.00  0.00    -0.014 A 
BRANCH  39  40
ATOM     40  C   UNL     1       3.728   6.607   8.761  1.00  0.00     0.031 A 
ATOM     41  C   UNL     1       2.932   7.871   8.942  1.00  0.00     0.074 A 
ATOM     42  C   UNL     1       5.033   6.669   8.428  1.00  0.00     0.049 A 
ATOM     43  N   UNL     1       3.311   9.116   8.801  1.00  0.00    -0.248 NA
ATOM     44  C   UNL     1       1.515   7.712   9.301  1.00  0.00     0.031 C 
ATOM     45  C   UNL     1       5.901   5.512   8.197  1.00  0.00     0.029 A 
ATOM     46  N   UNL     1       5.857   7.746   8.221  1.00  0.00    -0.354 N 
ATOM     47  C   UNL     1       2.179   9.887   9.045  1.00  0.00     0.074 A 
ATOM     48  C   UNL     1       1.087   8.965   9.275  1.00  0.00     0.031 C 
ATOM     49  C   UNL     1       7.139   5.942   7.910  1.00  0.00     0.029 A 
ATOM     50  C   UNL     1       7.146   7.401   7.882  1.00  0.00     0.049 A 
ATOM     51  H   UNL     1       5.556   8.679   8.308  1.00  0.00     0.167 HD
ATOM     52  C   UNL     1       2.067  11.237   9.097  1.00  0.00     0.034 A 
ATOM     53  C   UNL     1       8.207   8.171   7.569  1.00  0.00     0.034 A 
ATOM     54  C   UNL     1       3.169  12.141   8.868  1.00  0.00     0.049 A 
ATOM     55  C   UNL     1       8.046   9.671   7.587  1.00  0.00     0.074 A 
ATOM     56  C   UNL     1       3.179  13.523   8.940  1.00  0.00     0.029 A 
ATOM     57  N   UNL     1       4.455  11.755   8.510  1.00  0.00    -0.354 N 
ATOM     58  N   UNL     1       6.980  10.385   7.867  1.00  0.00    -0.248 NA
ATOM     59  C   UNL     1       9.234  10.467   7.256  1.00  0.00     0.031 C 
ATOM     60  C   UNL     1       4.444  13.974   8.550  1.00  0.00     0.029 A 
ATOM     61  C   UNL     1       5.254  12.873   8.322  1.00  0.00     0.049 A 
ATOM     62  H   UNL     1       4.756  10.823   8.405  1.00  0.00     0.167 HD
ATOM     63  C   UNL     1       7.382  11.716   7.779  1.00  0.00     0.074 A 
ATOM     64  C   UNL     1       8.789  11.702   7.437  1.00  0.00     0.031 C 
ATOM     65  C   UNL     1       6.655  12.847   7.969  1.00  0.00     0.034 A 
BRANCH  52  66
ATOM     66  C   UNL     1       0.699  11.812   9.385  1.00  0.00     0.023 A 
ATOM     67  C   UNL     1       0.026  11.549  10.592  1.00  0.00     0.031 A 
ATOM     68  C   UNL     1       0.046  12.612   8.432  1.00  0.00     0.131 A 
ATOM     69  C   UNL     1      -1.285  12.012  10.780  1.00  0.00     0.055 A 
ATOM     70  C   UNL     1      -1.225  13.145   8.662  1.00  0.00     0.041 A 
ATOM     71  F   UNL     1       0.625  12.881   7.251  1.00  0.00    -0.206 F 
ATOM     72  C   UNL     1      -1.905  12.832   9.835  1.00  0.00     0.022 A 
BRANCH  69  73
ATOM     73  S   UNL     1      -2.223  11.398  12.206  1.00  0.00     0.124 S 
ATOM     74  O   UNL     1      -2.186   9.955  11.983  1.00  0.00    -0.237 OA
ATOM     75  O   UNL     1      -1.441  11.891  13.334  1.00  0.00    -0.237 OA
ATOM     76  O   UNL     1      -3.538  12.013  12.041  1.00  0.00    -0.744 OA
ENDBRANCH  69  73
ENDBRANCH  52  66
BRANCH  53  77
ATOM     77  C   UNL     1       9.511   7.549   7.199  1.00  0.00     0.023 A 
ATOM     78  C   UNL     1      10.661   7.760   7.977  1.00  0.00     0.031 A 
ATOM     79  C   UNL     1       9.640   6.772   6.033  1.00  0.00     0.131 A 
ATOM     80  C   UNL     1      11.897   7.248   7.553  1.00  0.00     0.055 A 
ATOM     81  C   UNL     1      10.860   6.213   5.648  1.00  0.00     0.041 A 
ATOM     82  F   UNL     1       8.573   6.535   5.252  1.00  0.00    -0.206 F 
ATOM     83  C   UNL     1      12.002   6.463   6.403  1.00  0.00     0.022 A 
BRANCH  80  84
ATOM     84  S   UNL     1      13.389   7.705   8.478  1.00  0.00     0.124 S 
ATOM     85  O   UNL     1      13.354   9.161   8.393  1.00  0.00    -0.237 OA
ATOM     86  O   UNL     1      13.118   7.132   9.792  1.00  0.00    -0.237 OA
ATOM     87  O   UNL     1      14.464   7.061   7.728  1.00  0.00    -0.744 OA
ENDBRANCH  80  84
ENDBRANCH  53  77
BRANCH  65  88
ATOM     88  C   UNL     1       7.388  14.164   7.859  1.00  0.00     0.023 A 
ATOM     89  C   UNL     1       7.942  14.606   6.645  1.00  0.00     0.031 A 
ATOM     90  C   UNL     1       7.541  14.983   8.992  1.00  0.00     0.131 A 
ATOM     91  C   UNL     1       8.674  15.803   6.606  1.00  0.00     0.055 A 
ATOM     92  C   UNL     1       8.210  16.206   8.931  1.00  0.00     0.041 A 
ATOM     93  F   UNL     1       7.037  14.610  10.179  1.00  0.00    -0.206 F 
ATOM     94  C   UNL     1       8.794  16.616   7.736  1.00  0.00     0.022 A 
BRANCH  91  95
ATOM     95  S   UNL     1       9.556  16.235   5.081  1.00  0.00     0.124 S 
ATOM     96  O   UNL     1      10.425  15.077   4.896  1.00  0.00    -0.237 OA
ATOM     97  O   UNL     1       8.468  16.375   4.119  1.00  0.00    -0.237 OA
ATOM     98  O   UNL     1      10.245  17.478   5.423  1.00  0.00    -0.744 OA
ENDBRANCH  91  95
ENDBRANCH  65  88
ENDBRANCH  39  40
ENDBRANCH  31  34
ENDBRANCH  29  30
ENDBRANCH  28  29
ENDBRANCH  27  28
ENDBRANCH   1  27
TORSDOF 20
