REMARK SMILES O=C(NCCCCCCNC(=O)[C@@H](Cc1ccccc1)N1C(=O)/C(=C/c2ccncc2)SC1=S)c1ccc(-c2c3nc(c(-c4cc(S(=O)(=O)[O-])ccc4F)c4ccc([nH]4)c(-c4cc(S(=O)(=O)[O-])ccc4F)c4nc(c(-c5cc(S(=O)(=O)[O-])ccc5F)c5ccc2[nH]5)C=C4)C=C3)cc1
REMARK SMILES IDX 6 1 5 2 4 3 3 4 1 5 2 6 35 8 36 9 97 10 37 11 96 12 38 13
REMARK SMILES IDX 39 14 40 15 90 16 41 17 95 18 89 19 91 20 42 21 94 22 88 23
REMARK SMILES IDX 87 24 43 26 75 27 55 28 74 29 56 30 59 31 73 32 92 33 57 34
REMARK SMILES IDX 58 35 72 37 93 38 60 39 44 40 45 41 53 42 46 43 52 44 54 45
REMARK SMILES IDX 51 46 47 47 48 48 49 49 50 50 76 51 77 52 85 53 78 54 84 55
REMARK SMILES IDX 86 56 83 57 79 58 80 59 81 60 82 61 61 62 62 63 70 64 63 65
REMARK SMILES IDX 69 66 71 67 68 68 64 69 65 70 66 71 67 72 7 73 8 74 9 75
REMARK SMILES IDX 10 76 11 77 12 79 13 80 14 81 15 82 16 83 20 84 17 85 19 86
REMARK SMILES IDX 18 87 21 88 22 89 33 90 23 91 24 92 32 93 34 94 25 95 26 96
REMARK SMILES IDX 27 97 31 98 28 99 30 100 29 101
REMARK H PARENT 3 7 91 25 59 36 10 78
REMARK Flexibility Score: inf
ROOT
ATOM      1  C   UNL     1       3.488   2.485  -3.154  1.00  0.00     0.002 C 
ENDROOT
BRANCH   1   2
ATOM      2  C   UNL     1       4.289   1.362  -2.494  1.00  0.00     0.021 C 
BRANCH   2   3
ATOM      3  C   UNL     1       4.166   1.245  -0.983  1.00  0.00     0.116 C 
BRANCH   3   4
ATOM      4  N   UNL     1       2.797   1.042  -0.545  1.00  0.00    -0.352 N 
ATOM      5  O   UNL     1       1.021  -0.041   0.305  1.00  0.00    -0.269 OA
ATOM      6  C   UNL     1       2.241   0.011   0.172  1.00  0.00     0.251 C 
ATOM      7  H   UNL     1       2.168   1.754  -0.802  1.00  0.00     0.163 HD
BRANCH   6   8
ATOM      8  C   UNL     1       3.096  -1.040   0.773  1.00  0.00     0.039 A 
ATOM      9  C   UNL     1       4.295  -0.718   1.411  1.00  0.00     0.014 A 
ATOM     10  C   UNL     1       2.662  -2.370   0.740  1.00  0.00     0.014 A 
ATOM     11  C   UNL     1       5.115  -1.729   1.900  1.00  0.00     0.010 A 
ATOM     12  C   UNL     1       3.447  -3.378   1.312  1.00  0.00     0.010 A 
ATOM     13  C   UNL     1       4.690  -3.068   1.881  1.00  0.00    -0.014 A 
BRANCH  13  14
ATOM     14  C   UNL     1       5.531  -4.096   2.549  1.00  0.00     0.031 A 
ATOM     15  C   UNL     1       6.190  -5.199   1.768  1.00  0.00     0.074 A 
ATOM     16  C   UNL     1       5.732  -3.989   3.878  1.00  0.00     0.049 A 
ATOM     17  N   UNL     1       6.997  -6.138   2.193  1.00  0.00    -0.248 NA
ATOM     18  C   UNL     1       5.901  -5.263   0.328  1.00  0.00     0.031 C 
ATOM     19  C   UNL     1       5.121  -2.970   4.738  1.00  0.00     0.029 A 
ATOM     20  N   UNL     1       6.519  -4.713   4.735  1.00  0.00    -0.354 N 
ATOM     21  C   UNL     1       7.311  -6.908   1.079  1.00  0.00     0.074 A 
ATOM     22  C   UNL     1       6.576  -6.345  -0.036  1.00  0.00     0.031 C 
ATOM     23  C   UNL     1       5.599  -3.100   5.983  1.00  0.00     0.029 A 
ATOM     24  C   UNL     1       6.497  -4.247   6.029  1.00  0.00     0.049 A 
ATOM     25  H   UNL     1       7.050  -5.492   4.451  1.00  0.00     0.167 HD
ATOM     26  C   UNL     1       8.142  -7.978   0.995  1.00  0.00     0.034 A 
ATOM     27  C   UNL     1       7.119  -4.698   7.135  1.00  0.00     0.034 A 
ATOM     28  C   UNL     1       8.863  -8.528   2.120  1.00  0.00     0.049 A 
ATOM     29  C   UNL     1       8.026  -5.891   7.012  1.00  0.00     0.074 A 
ATOM     30  C   UNL     1       9.735  -9.604   2.144  1.00  0.00     0.029 A 
ATOM     31  N   UNL     1       8.795  -8.049   3.422  1.00  0.00    -0.354 N 
ATOM     32  N   UNL     1       8.320  -6.597   5.944  1.00  0.00    -0.248 NA
ATOM     33  C   UNL     1       8.691  -6.343   8.239  1.00  0.00     0.031 C 
ATOM     34  C   UNL     1      10.150  -9.808   3.466  1.00  0.00     0.029 A 
ATOM     35  C   UNL     1       9.591  -8.819   4.258  1.00  0.00     0.049 A 
ATOM     36  H   UNL     1       8.260  -7.274   3.710  1.00  0.00     0.167 HD
ATOM     37  C   UNL     1       9.209  -7.576   6.374  1.00  0.00     0.074 A 
ATOM     38  C   UNL     1       9.435  -7.340   7.786  1.00  0.00     0.031 C 
ATOM     39  C   UNL     1       9.781  -8.586   5.670  1.00  0.00     0.034 A 
BRANCH  26  40
ATOM     40  C   UNL     1       8.290  -8.644  -0.351  1.00  0.00     0.023 A 
ATOM     41  C   UNL     1       8.901  -7.989  -1.435  1.00  0.00     0.031 A 
ATOM     42  C   UNL     1       7.818  -9.953  -0.554  1.00  0.00     0.131 A 
ATOM     43  C   UNL     1       8.979  -8.626  -2.684  1.00  0.00     0.055 A 
ATOM     44  C   UNL     1       7.958 -10.606  -1.781  1.00  0.00     0.041 A 
ATOM     45  F   UNL     1       7.210 -10.621   0.439  1.00  0.00    -0.206 F 
ATOM     46  C   UNL     1       8.533  -9.938  -2.858  1.00  0.00     0.022 A 
BRANCH  43  47
ATOM     47  S   UNL     1       9.580  -7.676  -4.107  1.00  0.00     0.124 S 
ATOM     48  O   UNL     1       8.593  -6.601  -4.181  1.00  0.00    -0.237 OA
ATOM     49  O   UNL     1      10.920  -7.285  -3.682  1.00  0.00    -0.237 OA
ATOM     50  O   UNL     1       9.530  -8.637  -5.207  1.00  0.00    -0.744 OA
ENDBRANCH  43  47
ENDBRANCH  26  40
BRANCH  27  51
ATOM     51  C   UNL     1       6.880  -4.045   8.454  1.00  0.00     0.023 A 
ATOM     52  C   UNL     1       7.921  -3.422   9.159  1.00  0.00     0.031 A 
ATOM     53  C   UNL     1       5.605  -4.071   9.048  1.00  0.00     0.131 A 
ATOM     54  C   UNL     1       7.681  -2.892  10.436  1.00  0.00     0.055 A 
ATOM     55  C   UNL     1       5.357  -3.492  10.292  1.00  0.00     0.041 A 
ATOM     56  F   UNL     1       4.572  -4.651   8.415  1.00  0.00    -0.206 F 
ATOM     57  C   UNL     1       6.403  -2.910  11.001  1.00  0.00     0.022 A 
BRANCH  54  58
ATOM     58  S   UNL     1       9.086  -2.262  11.393  1.00  0.00     0.124 S 
ATOM     59  O   UNL     1       9.993  -3.405  11.382  1.00  0.00    -0.237 OA
ATOM     60  O   UNL     1       9.498  -1.109  10.600  1.00  0.00    -0.237 OA
ATOM     61  O   UNL     1       8.498  -1.945  12.693  1.00  0.00    -0.744 OA
ENDBRANCH  54  58
ENDBRANCH  27  51
BRANCH  39  62
ATOM     62  C   UNL     1      10.713  -9.491   6.437  1.00  0.00     0.023 A 
ATOM     63  C   UNL     1      10.238 -10.329   7.461  1.00  0.00     0.031 A 
ATOM     64  C   UNL     1      12.094  -9.475   6.179  1.00  0.00     0.131 A 
ATOM     65  C   UNL     1      11.145 -11.060   8.242  1.00  0.00     0.055 A 
ATOM     66  C   UNL     1      12.986 -10.253   6.918  1.00  0.00     0.041 A 
ATOM     67  F   UNL     1      12.600  -8.691   5.214  1.00  0.00    -0.206 F 
ATOM     68  C   UNL     1      12.515 -11.038   7.968  1.00  0.00     0.022 A 
BRANCH  65  69
ATOM     69  S   UNL     1      10.521 -11.949   9.694  1.00  0.00     0.124 S 
ATOM     70  O   UNL     1       9.884 -10.879  10.455  1.00  0.00    -0.237 OA
ATOM     71  O   UNL     1       9.621 -12.929   9.097  1.00  0.00    -0.237 OA
ATOM     72  O   UNL     1      11.729 -12.506  10.301  1.00  0.00    -0.744 OA
ENDBRANCH  65  69
ENDBRANCH  39  62
ENDBRANCH  13  14
ENDBRANCH   6   8
ENDBRANCH   3   4
ENDBRANCH   2   3
ENDBRANCH   1   2
BRANCH   1  73
ATOM     73  C   UNL     1       3.714   3.911  -2.628  1.00  0.00     0.002 C 
BRANCH  73  74
ATOM     74  C   UNL     1       5.164   4.362  -2.420  1.00  0.00     0.021 C 
BRANCH  74  75
ATOM     75  C   UNL     1       6.088   4.113  -3.601  1.00  0.00     0.116 C 
BRANCH  75  76
ATOM     76  N   UNL     1       6.451   5.280  -4.362  1.00  0.00    -0.354 N 
ATOM     77  C   UNL     1       7.558   5.425  -5.144  1.00  0.00     0.243 C 
ATOM     78  H   UNL     1       5.839   6.049  -4.313  1.00  0.00     0.163 HD
ATOM     79  O   UNL     1       7.408   6.124  -6.155  1.00  0.00    -0.273 OA
BRANCH  77  80
ATOM     80  C   UNL     1       8.941   4.773  -4.845  1.00  0.00     0.185 C 
BRANCH  80  81
ATOM     81  C   UNL     1       9.584   5.007  -3.446  1.00  0.00     0.071 C 
BRANCH  81  82
ATOM     82  C   UNL     1       9.306   4.089  -2.286  1.00  0.00    -0.045 A 
ATOM     83  C   UNL     1       8.490   4.513  -1.225  1.00  0.00     0.004 A 
ATOM     84  C   UNL     1       9.879   2.814  -2.216  1.00  0.00     0.004 A 
ATOM     85  C   UNL     1       8.175   3.646  -0.177  1.00  0.00     0.000 A 
ATOM     86  C   UNL     1       9.544   1.939  -1.181  1.00  0.00     0.000 A 
ATOM     87  C   UNL     1       8.681   2.350  -0.169  1.00  0.00     0.000 A 
ENDBRANCH  81  82
ENDBRANCH  80  81
BRANCH  80  88
ATOM     88  N   UNL     1       9.369   3.564  -5.606  1.00  0.00    -0.280 N 
ATOM     89  C   UNL     1      10.197   3.738  -6.723  1.00  0.00     0.266 C 
ATOM     90  C   UNL     1       9.057   2.242  -5.366  1.00  0.00     0.149 C 
ATOM     91  O   UNL     1      10.577   4.786  -7.214  1.00  0.00    -0.268 OA
ATOM     92  C   UNL     1      10.541   2.407  -7.298  1.00  0.00     0.081 C 
ATOM     93  S   UNL     1      10.277   1.219  -6.095  1.00  0.00    -0.054 SA
ATOM     94  S   UNL     1       7.744   1.508  -4.678  1.00  0.00    -0.052 S 
ATOM     95  C   UNL     1      10.814   2.169  -8.588  1.00  0.00     0.029 C 
BRANCH  95  96
ATOM     96  C   UNL     1      10.864   0.793  -9.105  1.00  0.00    -0.021 A 
ATOM     97  C   UNL     1       9.674   0.078  -9.287  1.00  0.00     0.028 A 
ATOM     98  C   UNL     1      12.080   0.134  -9.260  1.00  0.00     0.028 A 
ATOM     99  C   UNL     1       9.754  -1.266  -9.604  1.00  0.00     0.111 A 
ATOM    100  C   UNL     1      12.053  -1.211  -9.591  1.00  0.00     0.111 A 
ATOM    101  N   UNL     1      10.919  -1.919  -9.784  1.00  0.00    -0.265 NA
ENDBRANCH  95  96
ENDBRANCH  80  88
ENDBRANCH  77  80
ENDBRANCH  75  76
ENDBRANCH  74  75
ENDBRANCH  73  74
ENDBRANCH   1  73
TORSDOF 20
