REMARK SMILES CC[C@]1(C(=O)NCCCCCCNC(=O)c2ccc(-c3c4nc(c(-c5cc(S(=O)(=O)[O-])ccc5F)c5ccc([nH]5)c(-c5cc(S(=O)(=O)[O-])ccc5F)c5nc(c(-c6cc(S(=O)(=O)[O-])ccc6F)c6ccc3[nH]6)C=C5)C=C4)cc2)CCN(C(=O)[C@]2(C)CCCO2)C1
REMARK SMILES IDX 10 1 9 2 8 3 7 4 6 5 4 6 5 7 3 9 79 10 90 11 80 12 81 13
REMARK SMILES IDX 2 14 1 15 82 16 83 17 84 18 86 19 89 20 85 21 87 22 88 23
REMARK SMILES IDX 11 24 12 25 13 26 14 27 15 29 16 30 17 31 78 32 18 33 77 34
REMARK SMILES IDX 19 35 20 36 21 37 71 38 22 39 76 40 70 41 72 42 23 43 75 44
REMARK SMILES IDX 69 45 68 46 24 48 56 49 36 50 55 51 37 52 40 53 54 54 73 55
REMARK SMILES IDX 38 56 39 57 53 59 74 60 41 61 25 62 26 63 34 64 27 65 33 66
REMARK SMILES IDX 35 67 32 68 28 69 29 70 30 71 31 72 57 73 58 74 66 75 59 76
REMARK SMILES IDX 65 77 67 78 64 79 60 80 61 81 62 82 63 83 42 84 43 85 51 86
REMARK SMILES IDX 44 87 50 88 52 89 49 90 45 91 46 92 47 93 48 94
REMARK H PARENT 6 8 13 28 72 47 40 58
REMARK Flexibility Score: inf
ROOT
ATOM      1  C   UNL     1      -5.109  -9.763   3.474  1.00  0.00     0.002 C 
ENDROOT
BRANCH   1   2
ATOM      2  C   UNL     1      -4.775 -10.640   2.265  1.00  0.00     0.002 C 
BRANCH   2   3
ATOM      3  C   UNL     1      -3.634 -10.123   1.382  1.00  0.00     0.021 C 
BRANCH   3   4
ATOM      4  C   UNL     1      -2.319  -9.886   2.124  1.00  0.00     0.116 C 
BRANCH   4   5
ATOM      5  N   UNL     1      -1.781 -11.124   2.659  1.00  0.00    -0.356 N 
ATOM      6  C   UNL     1      -0.677 -11.858   2.358  1.00  0.00     0.228 C 
ATOM      7  O   UNL     1      -0.564 -12.924   2.974  1.00  0.00    -0.274 OA
ATOM      8  H   UNL     1      -2.324 -11.509   3.384  1.00  0.00     0.163 HD
BRANCH   6   9
ATOM      9  C   UNL     1       0.383 -11.411   1.330  1.00  0.00     0.068 C 
ATOM     10  C   UNL     1      -0.222 -11.230  -0.082  1.00  0.00     0.040 C 
ATOM     11  C   UNL     1       0.939 -10.022   1.695  1.00  0.00     0.136 C 
ATOM     12  C   UNL     1       0.465  -9.989  -0.633  1.00  0.00     0.121 C 
ATOM     13  N   UNL     1       0.699  -9.172   0.537  1.00  0.00    -0.339 N 
BRANCH   9  14
ATOM     14  C   UNL     1       1.502 -12.487   1.222  1.00  0.00     0.015 C 
ATOM     15  C   UNL     1       2.473 -12.554   2.396  1.00  0.00     0.005 C 
ENDBRANCH   9  14
BRANCH  13  16
ATOM     16  C   UNL     1       0.815  -7.800   0.663  1.00  0.00     0.254 C 
ATOM     17  O   UNL     1       1.106  -7.327   1.770  1.00  0.00    -0.272 OA
BRANCH  16  18
ATOM     18  C   UNL     1       0.438  -6.848  -0.523  1.00  0.00     0.144 C 
ATOM     19  C   UNL     1      -1.083  -6.589  -0.490  1.00  0.00     0.048 C 
ATOM     20  O   UNL     1       0.736  -7.369  -1.829  1.00  0.00    -0.365 OA
ATOM     21  C   UNL     1       1.224  -5.523  -0.384  1.00  0.00     0.053 C 
ATOM     22  C   UNL     1      -1.610  -7.268  -1.730  1.00  0.00     0.032 C 
ATOM     23  C   UNL     1      -0.422  -7.219  -2.660  1.00  0.00     0.162 C 
ENDBRANCH  16  18
ENDBRANCH  13  16
ENDBRANCH   6   9
ENDBRANCH   4   5
ENDBRANCH   3   4
ENDBRANCH   2   3
ENDBRANCH   1   2
BRANCH   1  24
ATOM     24  C   UNL     1      -5.396  -8.296   3.150  1.00  0.00     0.021 C 
BRANCH  24  25
ATOM     25  C   UNL     1      -6.532  -8.076   2.157  1.00  0.00     0.116 C 
BRANCH  25  26
ATOM     26  N   UNL     1      -7.804  -8.548   2.676  1.00  0.00    -0.352 N 
ATOM     27  C   UNL     1      -8.984  -7.862   2.834  1.00  0.00     0.251 C 
ATOM     28  H   UNL     1      -7.824  -9.492   2.953  1.00  0.00     0.163 HD
ATOM     29  O   UNL     1      -9.889  -8.353   3.499  1.00  0.00    -0.269 OA
BRANCH  27  30
ATOM     30  C   UNL     1      -9.145  -6.526   2.218  1.00  0.00     0.039 A 
ATOM     31  C   UNL     1      -9.745  -5.506   2.959  1.00  0.00     0.014 A 
ATOM     32  C   UNL     1      -8.717  -6.284   0.909  1.00  0.00     0.014 A 
ATOM     33  C   UNL     1      -9.871  -4.231   2.404  1.00  0.00     0.010 A 
ATOM     34  C   UNL     1      -8.771  -4.994   0.388  1.00  0.00     0.010 A 
ATOM     35  C   UNL     1      -9.361  -3.955   1.125  1.00  0.00    -0.014 A 
BRANCH  35  36
ATOM     36  C   UNL     1      -9.462  -2.594   0.534  1.00  0.00     0.031 A 
ATOM     37  C   UNL     1     -10.274  -2.375  -0.715  1.00  0.00     0.074 A 
ATOM     38  C   UNL     1      -8.793  -1.568   1.097  1.00  0.00     0.049 A 
ATOM     39  N   UNL     1     -10.444  -1.280  -1.411  1.00  0.00    -0.248 NA
ATOM     40  C   UNL     1     -10.960  -3.551  -1.272  1.00  0.00     0.031 C 
ATOM     41  C   UNL     1      -7.946  -1.664   2.288  1.00  0.00     0.029 A 
ATOM     42  N   UNL     1      -8.716  -0.244   0.743  1.00  0.00    -0.354 N 
ATOM     43  C   UNL     1     -11.247  -1.637  -2.490  1.00  0.00     0.074 A 
ATOM     44  C   UNL     1     -11.469  -3.063  -2.392  1.00  0.00     0.031 C 
ATOM     45  C   UNL     1      -7.463  -0.447   2.583  1.00  0.00     0.029 A 
ATOM     46  C   UNL     1      -7.921   0.507   1.579  1.00  0.00     0.049 A 
ATOM     47  H   UNL     1      -9.186   0.133  -0.035  1.00  0.00     0.167 HD
ATOM     48  C   UNL     1     -11.773  -0.843  -3.455  1.00  0.00     0.034 A 
ATOM     49  C   UNL     1      -7.591   1.814   1.534  1.00  0.00     0.034 A 
ATOM     50  C   UNL     1     -11.551   0.580  -3.530  1.00  0.00     0.049 A 
ATOM     51  C   UNL     1      -8.159   2.670   0.429  1.00  0.00     0.074 A 
ATOM     52  C   UNL     1     -12.075   1.488  -4.434  1.00  0.00     0.029 A 
ATOM     53  N   UNL     1     -10.731   1.304  -2.673  1.00  0.00    -0.354 N 
ATOM     54  N   UNL     1      -8.959   2.326  -0.555  1.00  0.00    -0.248 NA
ATOM     55  C   UNL     1      -7.790   4.091   0.435  1.00  0.00     0.031 C 
ATOM     56  C   UNL     1     -11.512   2.741  -4.174  1.00  0.00     0.029 A 
ATOM     57  C   UNL     1     -10.707   2.639  -3.051  1.00  0.00     0.049 A 
ATOM     58  H   UNL     1     -10.239   0.926  -1.909  1.00  0.00     0.167 HD
ATOM     59  C   UNL     1      -9.215   3.498  -1.262  1.00  0.00     0.074 A 
ATOM     60  C   UNL     1      -8.498   4.557  -0.583  1.00  0.00     0.031 C 
ATOM     61  C   UNL     1      -9.979   3.684  -2.370  1.00  0.00     0.034 A 
BRANCH  48  62
ATOM     62  C   UNL     1     -12.617  -1.507  -4.520  1.00  0.00     0.023 A 
ATOM     63  C   UNL     1     -13.810  -2.182  -4.204  1.00  0.00     0.031 A 
ATOM     64  C   UNL     1     -12.213  -1.486  -5.866  1.00  0.00     0.131 A 
ATOM     65  C   UNL     1     -14.510  -2.874  -5.204  1.00  0.00     0.055 A 
ATOM     66  C   UNL     1     -12.962  -2.101  -6.871  1.00  0.00     0.041 A 
ATOM     67  F   UNL     1     -11.072  -0.878  -6.229  1.00  0.00    -0.206 F 
ATOM     68  C   UNL     1     -14.110  -2.814  -6.540  1.00  0.00     0.022 A 
BRANCH  65  69
ATOM     69  S   UNL     1     -15.859  -3.979  -4.707  1.00  0.00     0.124 S 
ATOM     70  O   UNL     1     -15.170  -4.897  -3.803  1.00  0.00    -0.237 OA
ATOM     71  O   UNL     1     -16.807  -3.062  -4.087  1.00  0.00    -0.237 OA
ATOM     72  O   UNL     1     -16.298  -4.573  -5.969  1.00  0.00    -0.744 OA
ENDBRANCH  65  69
ENDBRANCH  48  62
BRANCH  49  73
ATOM     73  C   UNL     1      -6.670   2.398   2.553  1.00  0.00     0.023 A 
ATOM     74  C   UNL     1      -7.103   3.409   3.425  1.00  0.00     0.031 A 
ATOM     75  C   UNL     1      -5.327   1.988   2.636  1.00  0.00     0.131 A 
ATOM     76  C   UNL     1      -6.190   4.013   4.304  1.00  0.00     0.055 A 
ATOM     77  C   UNL     1      -4.439   2.550   3.554  1.00  0.00     0.041 A 
ATOM     78  F   UNL     1      -4.860   1.024   1.827  1.00  0.00    -0.206 F 
ATOM     79  C   UNL     1      -4.865   3.580   4.386  1.00  0.00     0.022 A 
BRANCH  76  80
ATOM     80  S   UNL     1      -6.737   5.447   5.272  1.00  0.00     0.124 S 
ATOM     81  O   UNL     1      -7.168   6.365   4.224  1.00  0.00    -0.237 OA
ATOM     82  O   UNL     1      -7.795   4.870   6.096  1.00  0.00    -0.237 OA
ATOM     83  O   UNL     1      -5.533   5.847   5.997  1.00  0.00    -0.744 OA
ENDBRANCH  76  80
ENDBRANCH  49  73
BRANCH  61  84
ATOM     84  C   UNL     1     -10.114   5.097  -2.885  1.00  0.00     0.023 A 
ATOM     85  C   UNL     1      -9.018   5.805  -3.409  1.00  0.00     0.031 A 
ATOM     86  C   UNL     1     -11.361   5.747  -2.844  1.00  0.00     0.131 A 
ATOM     87  C   UNL     1      -9.178   7.138  -3.818  1.00  0.00     0.055 A 
ATOM     88  C   UNL     1     -11.529   7.049  -3.316  1.00  0.00     0.041 A 
ATOM     89  F   UNL     1     -12.442   5.121  -2.351  1.00  0.00    -0.206 F 
ATOM     90  C   UNL     1     -10.431   7.757  -3.793  1.00  0.00     0.022 A 
BRANCH  87  91
ATOM     91  S   UNL     1      -7.707   8.085  -4.294  1.00  0.00     0.124 S 
ATOM     92  O   UNL     1      -6.890   8.001  -3.088  1.00  0.00    -0.237 OA
ATOM     93  O   UNL     1      -7.216   7.341  -5.449  1.00  0.00    -0.237 OA
ATOM     94  O   UNL     1      -8.236   9.415  -4.593  1.00  0.00    -0.744 OA
ENDBRANCH  87  91
ENDBRANCH  61  84
ENDBRANCH  35  36
ENDBRANCH  27  30
ENDBRANCH  25  26
ENDBRANCH  24  25
ENDBRANCH   1  24
TORSDOF 19
