REMARK SMILES CC[C@@H]1SC[C@@H](C(=O)NCCCCCCNC(=O)c2ccc(-c3c4nc(c(-c5cc(S(=O)(=O)[O-])ccc5F)c5ccc([nH]5)c(-c5cc(S(=O)(=O)[O-])ccc5F)c5nc(c(-c6cc(S(=O)(=O)[O-])ccc6F)c6ccc3[nH]6)C=C5)C=C4)cc2)N1C(=O)NC1C(C)(C)C1(C)C
REMARK SMILES IDX 13 1 12 2 11 3 10 4 9 5 7 6 8 7 6 9 3 10 4 11 82 12 5 13
REMARK SMILES IDX 2 14 1 15 83 16 84 17 85 18 86 20 87 21 90 22 88 23 89 24
REMARK SMILES IDX 91 25 92 26 14 27 15 28 16 29 17 30 18 32 19 33 20 34 81 35
REMARK SMILES IDX 21 36 80 37 22 38 23 39 24 40 74 41 25 42 79 43 73 44 75 45
REMARK SMILES IDX 26 46 78 47 72 48 71 49 27 51 59 52 39 53 58 54 40 55 43 56
REMARK SMILES IDX 57 57 76 58 41 59 42 60 56 62 77 63 44 64 28 65 29 66 37 67
REMARK SMILES IDX 30 68 36 69 38 70 35 71 31 72 32 73 33 74 34 75 60 76 61 77
REMARK SMILES IDX 69 78 62 79 68 80 70 81 67 82 63 83 64 84 65 85 66 86 45 87
REMARK SMILES IDX 46 88 54 89 47 90 53 91 55 92 52 93 48 94 49 95 50 96 51 97
REMARK H PARENT 9 8 85 19 16 31 75 50 43 61
REMARK Flexibility Score: inf
ROOT
ATOM      1  C   UNL     1      -2.829   2.873   0.311  1.00  0.00     0.002 C 
ENDROOT
BRANCH   1   2
ATOM      2  C   UNL     1      -2.068   3.041  -1.012  1.00  0.00     0.002 C 
BRANCH   2   3
ATOM      3  C   UNL     1      -1.208   1.835  -1.402  1.00  0.00     0.021 C 
BRANCH   3   4
ATOM      4  C   UNL     1      -2.043   0.594  -1.710  1.00  0.00     0.116 C 
BRANCH   4   5
ATOM      5  N   UNL     1      -2.398   0.529  -3.109  1.00  0.00    -0.354 N 
ATOM      6  C   UNL     1      -1.908  -0.220  -4.136  1.00  0.00     0.243 C 
ATOM      7  O   UNL     1      -2.595  -0.217  -5.167  1.00  0.00    -0.273 OA
ATOM      8  H   UNL     1      -3.128   1.137  -3.367  1.00  0.00     0.163 HD
BRANCH   6   9
ATOM      9  C   UNL     1      -0.706  -1.200  -4.003  1.00  0.00     0.187 C 
ATOM     10  C   UNL     1       0.914  -1.059  -2.152  1.00  0.00     0.145 C 
ATOM     11  S   UNL     1       0.011  -2.637  -1.872  1.00  0.00    -0.134 SA
ATOM     12  N   UNL     1       0.608  -0.660  -3.538  1.00  0.00    -0.300 N 
ATOM     13  C   UNL     1      -1.171  -2.399  -3.189  1.00  0.00     0.107 C 
BRANCH  10  14
ATOM     14  C   UNL     1       2.320  -1.300  -1.617  1.00  0.00     0.033 C 
ATOM     15  C   UNL     1       2.410  -1.724  -0.146  1.00  0.00     0.007 C 
ENDBRANCH  10  14
BRANCH  12  16
ATOM     16  C   UNL     1       1.200   0.150  -4.475  1.00  0.00     0.319 C 
ATOM     17  O   UNL     1       0.654   0.337  -5.574  1.00  0.00    -0.249 OA
ATOM     18  N   UNL     1       2.368   0.812  -4.363  1.00  0.00    -0.334 N 
ATOM     19  H   UNL     1       2.580   1.333  -5.170  1.00  0.00     0.165 HD
BRANCH  18  20
ATOM     20  C   UNL     1       3.361   0.939  -3.367  1.00  0.00     0.096 C 
ATOM     21  C   UNL     1       4.701   0.195  -3.534  1.00  0.00    -0.007 C 
ATOM     22  C   UNL     1       4.665   1.721  -3.462  1.00  0.00    -0.007 C 
ATOM     23  C   UNL     1       5.353  -0.555  -2.393  1.00  0.00     0.014 C 
ATOM     24  C   UNL     1       4.982  -0.493  -4.861  1.00  0.00     0.014 C 
ATOM     25  C   UNL     1       5.063   2.527  -4.671  1.00  0.00     0.014 C 
ATOM     26  C   UNL     1       5.104   2.396  -2.167  1.00  0.00     0.014 C 
ENDBRANCH  18  20
ENDBRANCH  12  16
ENDBRANCH   6   9
ENDBRANCH   4   5
ENDBRANCH   3   4
ENDBRANCH   2   3
ENDBRANCH   1   2
BRANCH   1  27
ATOM     27  C   UNL     1      -1.950   2.612   1.539  1.00  0.00     0.021 C 
BRANCH  27  28
ATOM     28  C   UNL     1      -0.961   3.731   1.851  1.00  0.00     0.116 C 
BRANCH  28  29
ATOM     29  N   UNL     1      -1.649   4.980   2.140  1.00  0.00    -0.352 N 
ATOM     30  C   UNL     1      -1.624   5.738   3.280  1.00  0.00     0.251 C 
ATOM     31  H   UNL     1      -2.212   5.330   1.413  1.00  0.00     0.163 HD
ATOM     32  O   UNL     1      -2.487   6.604   3.454  1.00  0.00    -0.269 OA
BRANCH  30  33
ATOM     33  C   UNL     1      -0.577   5.516   4.296  1.00  0.00     0.039 A 
ATOM     34  C   UNL     1      -0.922   5.540   5.649  1.00  0.00     0.014 A 
ATOM     35  C   UNL     1       0.752   5.307   3.913  1.00  0.00     0.014 A 
ATOM     36  C   UNL     1       0.058   5.307   6.616  1.00  0.00     0.010 A 
ATOM     37  C   UNL     1       1.711   5.001   4.873  1.00  0.00     0.010 A 
ATOM     38  C   UNL     1       1.377   5.006   6.236  1.00  0.00    -0.014 A 
BRANCH  38  39
ATOM     39  C   UNL     1       2.418   4.705   7.251  1.00  0.00     0.031 A 
ATOM     40  C   UNL     1       3.614   5.608   7.397  1.00  0.00     0.074 A 
ATOM     41  C   UNL     1       2.314   3.587   7.997  1.00  0.00     0.049 A 
ATOM     42  N   UNL     1       4.656   5.481   8.177  1.00  0.00    -0.248 NA
ATOM     43  C   UNL     1       3.656   6.795   6.529  1.00  0.00     0.031 C 
ATOM     44  C   UNL     1       1.222   2.614   7.910  1.00  0.00     0.029 A 
ATOM     45  N   UNL     1       3.136   3.074   8.968  1.00  0.00    -0.354 N 
ATOM     46  C   UNL     1       5.484   6.559   7.884  1.00  0.00     0.074 A 
ATOM     47  C   UNL     1       4.848   7.296   6.813  1.00  0.00     0.031 C 
ATOM     48  C   UNL     1       1.432   1.636   8.805  1.00  0.00     0.029 A 
ATOM     49  C   UNL     1       2.693   1.882   9.496  1.00  0.00     0.049 A 
ATOM     50  H   UNL     1       3.966   3.516   9.260  1.00  0.00     0.167 HD
ATOM     51  C   UNL     1       6.656   6.911   8.469  1.00  0.00     0.034 A 
ATOM     52  C   UNL     1       3.248   1.072  10.419  1.00  0.00     0.034 A 
ATOM     53  C   UNL     1       7.264   6.170   9.548  1.00  0.00     0.049 A 
ATOM     54  C   UNL     1       4.558   1.480  11.047  1.00  0.00     0.074 A 
ATOM     55  C   UNL     1       8.411   6.474  10.261  1.00  0.00     0.029 A 
ATOM     56  N   UNL     1       6.784   4.973  10.063  1.00  0.00    -0.354 N 
ATOM     57  N   UNL     1       5.296   2.540  10.805  1.00  0.00    -0.248 NA
ATOM     58  C   UNL     1       5.102   0.592  12.082  1.00  0.00     0.031 C 
ATOM     59  C   UNL     1       8.666   5.425  11.150  1.00  0.00     0.029 A 
ATOM     60  C   UNL     1       7.632   4.507  11.057  1.00  0.00     0.049 A 
ATOM     61  H   UNL     1       5.961   4.521   9.766  1.00  0.00     0.167 HD
ATOM     62  C   UNL     1       6.375   2.459  11.681  1.00  0.00     0.074 A 
ATOM     63  C   UNL     1       6.179   1.259  12.468  1.00  0.00     0.031 C 
ATOM     64  C   UNL     1       7.430   3.301  11.826  1.00  0.00     0.034 A 
BRANCH  51  65
ATOM     65  C   UNL     1       7.369   8.131   7.934  1.00  0.00     0.023 A 
ATOM     66  C   UNL     1       6.796   9.414   7.994  1.00  0.00     0.031 A 
ATOM     67  C   UNL     1       8.640   8.008   7.343  1.00  0.00     0.131 A 
ATOM     68  C   UNL     1       7.458  10.506   7.413  1.00  0.00     0.055 A 
ATOM     69  C   UNL     1       9.330   9.113   6.841  1.00  0.00     0.041 A 
ATOM     70  F   UNL     1       9.229   6.807   7.234  1.00  0.00    -0.206 F 
ATOM     71  C   UNL     1       8.734  10.369   6.861  1.00  0.00     0.022 A 
BRANCH  68  72
ATOM     72  S   UNL     1       6.569  12.079   7.263  1.00  0.00     0.124 S 
ATOM     73  O   UNL     1       5.405  11.685   6.471  1.00  0.00    -0.237 OA
ATOM     74  O   UNL     1       6.307  12.428   8.654  1.00  0.00    -0.237 OA
ATOM     75  O   UNL     1       7.519  12.946   6.569  1.00  0.00    -0.744 OA
ENDBRANCH  68  72
ENDBRANCH  51  65
BRANCH  52  76
ATOM     76  C   UNL     1       2.587  -0.211  10.797  1.00  0.00     0.023 A 
ATOM     77  C   UNL     1       2.132  -0.436  12.106  1.00  0.00     0.031 A 
ATOM     78  C   UNL     1       2.445  -1.253   9.863  1.00  0.00     0.131 A 
ATOM     79  C   UNL     1       1.608  -1.690  12.459  1.00  0.00     0.055 A 
ATOM     80  C   UNL     1       1.867  -2.477  10.204  1.00  0.00     0.041 A 
ATOM     81  F   UNL     1       2.858  -1.091   8.596  1.00  0.00    -0.206 F 
ATOM     82  C   UNL     1       1.459  -2.707  11.514  1.00  0.00     0.022 A 
BRANCH  79  83
ATOM     83  S   UNL     1       1.218  -2.008  14.202  1.00  0.00     0.124 S 
ATOM     84  O   UNL     1       2.499  -1.739  14.846  1.00  0.00    -0.237 OA
ATOM     85  O   UNL     1       0.156  -1.040  14.455  1.00  0.00    -0.237 OA
ATOM     86  O   UNL     1       0.798  -3.408  14.206  1.00  0.00    -0.744 OA
ENDBRANCH  79  83
ENDBRANCH  52  76
BRANCH  64  87
ATOM     87  C   UNL     1       8.428   2.970  12.910  1.00  0.00     0.023 A 
ATOM     88  C   UNL     1       9.229   1.816  12.853  1.00  0.00     0.031 A 
ATOM     89  C   UNL     1       8.568   3.818  14.023  1.00  0.00     0.131 A 
ATOM     90  C   UNL     1      10.088   1.509  13.919  1.00  0.00     0.055 A 
ATOM     91  C   UNL     1       9.474   3.542  15.048  1.00  0.00     0.041 A 
ATOM     92  F   UNL     1       7.827   4.932  14.133  1.00  0.00    -0.206 F 
ATOM     93  C   UNL     1      10.230   2.374  15.007  1.00  0.00     0.022 A 
BRANCH  90  94
ATOM     94  S   UNL     1      10.942  -0.091  13.915  1.00  0.00     0.124 S 
ATOM     95  O   UNL     1       9.827  -1.029  13.842  1.00  0.00    -0.237 OA
ATOM     96  O   UNL     1      11.775   0.003  12.721  1.00  0.00    -0.237 OA
ATOM     97  O   UNL     1      11.673  -0.093  15.181  1.00  0.00    -0.744 OA
ENDBRANCH  90  94
ENDBRANCH  64  87
ENDBRANCH  38  39
ENDBRANCH  30  33
ENDBRANCH  28  29
ENDBRANCH  27  28
ENDBRANCH   1  27
TORSDOF 19
