REMARK SMILES C=CCN(CC(=O)NCCCCCCNC(=O)c1ccc(-c2c3nc(c(-c4cc(S(=O)(=O)[O-])ccc4F)c4ccc([nH]4)c(-c4cc(S(=O)(=O)[O-])ccc4F)c4nc(c(-c5cc(S(=O)(=O)[O-])ccc5F)c5ccc2[nH]5)C=C4)C=C3)cc1)c1ccc([N+](=O)[O-])cc1Br
REMARK SMILES IDX 11 1 10 2 9 3 8 4 6 5 7 6 5 8 4 9 3 10 2 11 1 12 81 13 82 14
REMARK SMILES IDX 89 15 83 16 88 17 90 18 84 19 85 20 86 21 87 22 12 23 13 24
REMARK SMILES IDX 14 25 15 26 16 27 17 29 18 30 19 31 80 32 20 33 79 34 21 35
REMARK SMILES IDX 22 36 23 37 73 38 24 39 78 40 72 41 74 42 25 43 77 44 71 45
REMARK SMILES IDX 70 46 26 48 58 49 38 50 57 51 39 52 42 53 56 54 75 55 40 56
REMARK SMILES IDX 41 57 55 59 76 60 43 61 27 62 28 63 36 64 29 65 35 66 37 67
REMARK SMILES IDX 34 68 30 69 31 70 32 71 33 72 59 73 60 74 68 75 61 76 67 77
REMARK SMILES IDX 69 78 66 79 62 80 63 81 64 82 65 83 44 84 45 85 53 86 46 87
REMARK SMILES IDX 52 88 54 89 51 90 47 91 48 92 49 93 50 94
REMARK H PARENT 8 7 15 28 74 47 42 58
REMARK Flexibility Score: inf
ROOT
ATOM      1  C   UNL     1      -5.777   0.112  -1.306  1.00  0.00     0.002 C 
ENDROOT
BRANCH   1   2
ATOM      2  C   UNL     1      -4.462  -0.055  -0.535  1.00  0.00     0.021 C 
BRANCH   2   3
ATOM      3  C   UNL     1      -4.542  -1.030   0.644  1.00  0.00     0.116 C 
BRANCH   3   4
ATOM      4  N   UNL     1      -4.634  -2.407   0.208  1.00  0.00    -0.355 N 
ATOM      5  C   UNL     1      -3.688  -3.393   0.166  1.00  0.00     0.239 C 
ATOM      6  O   UNL     1      -4.051  -4.492  -0.268  1.00  0.00    -0.273 OA
ATOM      7  H   UNL     1      -5.525  -2.679  -0.111  1.00  0.00     0.163 HD
BRANCH   5   8
ATOM      8  C   UNL     1      -2.250  -3.178   0.670  1.00  0.00     0.216 C 
BRANCH   8   9
ATOM      9  N   UNL     1      -1.389  -2.284  -0.133  1.00  0.00    -0.358 N 
BRANCH   9  10
ATOM     10  C   UNL     1      -1.154  -0.919   0.345  1.00  0.00     0.144 C 
BRANCH  10  11
ATOM     11  C   UNL     1       0.270  -0.680   0.726  1.00  0.00    -0.014 C 
ATOM     12  C   UNL     1       1.011   0.340   0.273  1.00  0.00     0.006 C 
ENDBRANCH  10  11
ENDBRANCH   9  10
BRANCH   9  13
ATOM     13  C   UNL     1      -1.109  -2.589  -1.464  1.00  0.00     0.052 A 
ATOM     14  C   UNL     1      -2.141  -2.553  -2.422  1.00  0.00     0.034 A 
ATOM     15  C   UNL     1       0.182  -2.908  -1.944  1.00  0.00     0.048 A 
ATOM     16  C   UNL     1      -1.913  -2.767  -3.785  1.00  0.00     0.088 A 
ATOM     17  C   UNL     1       0.438  -3.074  -3.314  1.00  0.00     0.103 A 
ATOM     18  Br  UNL     1       1.649  -3.287  -0.790  1.00  0.00    -0.048 Br
ATOM     19  C   UNL     1      -0.614  -2.999  -4.227  1.00  0.00     0.270 A 
BRANCH  19  20
ATOM     20  N   UNL     1      -0.357  -3.193  -5.656  1.00  0.00     0.062 N 
ATOM     21  O   UNL     1      -1.327  -3.442  -6.386  1.00  0.00    -0.258 OA
ATOM     22  O   UNL     1       0.815  -3.101  -6.047  1.00  0.00    -0.258 OA
ENDBRANCH  19  20
ENDBRANCH   9  13
ENDBRANCH   8   9
ENDBRANCH   5   8
ENDBRANCH   3   4
ENDBRANCH   2   3
ENDBRANCH   1   2
BRANCH   1  23
ATOM     23  C   UNL     1      -6.946   0.665  -0.484  1.00  0.00     0.002 C 
BRANCH  23  24
ATOM     24  C   UNL     1      -6.666   1.985   0.243  1.00  0.00     0.021 C 
BRANCH  24  25
ATOM     25  C   UNL     1      -6.326   3.160  -0.669  1.00  0.00     0.116 C 
BRANCH  25  26
ATOM     26  N   UNL     1      -7.452   3.539  -1.505  1.00  0.00    -0.352 N 
ATOM     27  C   UNL     1      -8.030   4.771  -1.687  1.00  0.00     0.251 C 
ATOM     28  H   UNL     1      -7.860   2.804  -2.018  1.00  0.00     0.163 HD
ATOM     29  O   UNL     1      -9.111   4.848  -2.263  1.00  0.00    -0.269 OA
BRANCH  27  30
ATOM     30  C   UNL     1      -7.367   5.996  -1.180  1.00  0.00     0.039 A 
ATOM     31  C   UNL     1      -8.153   6.995  -0.595  1.00  0.00     0.014 A 
ATOM     32  C   UNL     1      -5.990   6.189  -1.321  1.00  0.00     0.014 A 
ATOM     33  C   UNL     1      -7.554   8.166  -0.122  1.00  0.00     0.010 A 
ATOM     34  C   UNL     1      -5.386   7.328  -0.791  1.00  0.00     0.010 A 
ATOM     35  C   UNL     1      -6.163   8.337  -0.200  1.00  0.00    -0.014 A 
BRANCH  35  36
ATOM     36  C   UNL     1      -5.510   9.583   0.283  1.00  0.00     0.031 A 
ATOM     37  C   UNL     1      -4.821  10.494  -0.700  1.00  0.00     0.074 A 
ATOM     38  C   UNL     1      -5.492   9.869   1.599  1.00  0.00     0.049 A 
ATOM     39  N   UNL     1      -4.117  11.575  -0.477  1.00  0.00    -0.248 NA
ATOM     40  C   UNL     1      -4.910  10.118  -2.119  1.00  0.00     0.031 C 
ATOM     41  C   UNL     1      -6.098   9.051   2.651  1.00  0.00     0.029 A 
ATOM     42  N   UNL     1      -4.934  10.922   2.281  1.00  0.00    -0.354 N 
ATOM     43  C   UNL     1      -3.664  11.996  -1.723  1.00  0.00     0.074 A 
ATOM     44  C   UNL     1      -4.127  11.022  -2.688  1.00  0.00     0.031 C 
ATOM     45  C   UNL     1      -5.893   9.640   3.841  1.00  0.00     0.029 A 
ATOM     46  C   UNL     1      -5.107  10.855   3.644  1.00  0.00     0.049 A 
ATOM     47  H   UNL     1      -4.454  11.658   1.835  1.00  0.00     0.167 HD
ATOM     48  C   UNL     1      -2.945  13.104  -2.036  1.00  0.00     0.034 A 
ATOM     49  C   UNL     1      -4.672  11.672   4.625  1.00  0.00     0.034 A 
ATOM     50  C   UNL     1      -2.515  14.081  -1.066  1.00  0.00     0.049 A 
ATOM     51  C   UNL     1      -3.878  12.900   4.251  1.00  0.00     0.074 A 
ATOM     52  C   UNL     1      -1.824  15.262  -1.279  1.00  0.00     0.029 A 
ATOM     53  N   UNL     1      -2.735  13.992   0.302  1.00  0.00    -0.354 N 
ATOM     54  N   UNL     1      -3.490  13.304   3.063  1.00  0.00    -0.248 NA
ATOM     55  C   UNL     1      -3.479  13.791   5.348  1.00  0.00     0.031 C 
ATOM     56  C   UNL     1      -1.578  15.857  -0.037  1.00  0.00     0.029 A 
ATOM     57  C   UNL     1      -2.178  15.087   0.946  1.00  0.00     0.049 A 
ATOM     58  H   UNL     1      -3.216  13.260   0.750  1.00  0.00     0.167 HD
ATOM     59  C   UNL     1      -2.837  14.516   3.269  1.00  0.00     0.074 A 
ATOM     60  C   UNL     1      -2.894  14.782   4.691  1.00  0.00     0.031 C 
ATOM     61  C   UNL     1      -2.248  15.340   2.365  1.00  0.00     0.034 A 
BRANCH  48  62
ATOM     62  C   UNL     1      -2.563  13.300  -3.484  1.00  0.00     0.023 A 
ATOM     63  C   UNL     1      -3.531  13.492  -4.485  1.00  0.00     0.031 A 
ATOM     64  C   UNL     1      -1.211  13.277  -3.872  1.00  0.00     0.131 A 
ATOM     65  C   UNL     1      -3.140  13.579  -5.830  1.00  0.00     0.055 A 
ATOM     66  C   UNL     1      -0.824  13.446  -5.203  1.00  0.00     0.041 A 
ATOM     67  F   UNL     1      -0.243  13.077  -2.964  1.00  0.00    -0.206 F 
ATOM     68  C   UNL     1      -1.792  13.583  -6.194  1.00  0.00     0.022 A 
BRANCH  65  69
ATOM     69  S   UNL     1      -4.426  13.551  -7.109  1.00  0.00     0.124 S 
ATOM     70  O   UNL     1      -5.054  12.254  -6.865  1.00  0.00    -0.237 OA
ATOM     71  O   UNL     1      -5.228  14.722  -6.776  1.00  0.00    -0.237 OA
ATOM     72  O   UNL     1      -3.671  13.645  -8.357  1.00  0.00    -0.744 OA
ENDBRANCH  65  69
ENDBRANCH  48  62
BRANCH  49  73
ATOM     73  C   UNL     1      -4.965  11.367   6.055  1.00  0.00     0.023 A 
ATOM     74  C   UNL     1      -5.763  12.225   6.829  1.00  0.00     0.031 A 
ATOM     75  C   UNL     1      -4.403  10.243   6.686  1.00  0.00     0.131 A 
ATOM     76  C   UNL     1      -5.929  11.980   8.201  1.00  0.00     0.055 A 
ATOM     77  C   UNL     1      -4.617   9.973   8.039  1.00  0.00     0.041 A 
ATOM     78  F   UNL     1      -3.638   9.386   5.991  1.00  0.00    -0.206 F 
ATOM     79  C   UNL     1      -5.371  10.853   8.808  1.00  0.00     0.022 A 
BRANCH  76  80
ATOM     80  S   UNL     1      -6.803  13.214   9.203  1.00  0.00     0.124 S 
ATOM     81  O   UNL     1      -6.025  14.418   8.936  1.00  0.00    -0.237 OA
ATOM     82  O   UNL     1      -8.143  13.174   8.627  1.00  0.00    -0.237 OA
ATOM     83  O   UNL     1      -6.693  12.687  10.561  1.00  0.00    -0.744 OA
ENDBRANCH  76  80
ENDBRANCH  49  73
BRANCH  61  84
ATOM     84  C   UNL     1      -1.678  16.636   2.886  1.00  0.00     0.023 A 
ATOM     85  C   UNL     1      -0.563  16.668   3.741  1.00  0.00     0.031 A 
ATOM     86  C   UNL     1      -2.273  17.859   2.528  1.00  0.00     0.131 A 
ATOM     87  C   UNL     1      -0.113  17.893   4.256  1.00  0.00     0.055 A 
ATOM     88  C   UNL     1      -1.784  19.079   2.996  1.00  0.00     0.041 A 
ATOM     89  F   UNL     1      -3.341  17.887   1.715  1.00  0.00    -0.206 F 
ATOM     90  C   UNL     1      -0.707  19.099   3.877  1.00  0.00     0.022 A 
BRANCH  87  91
ATOM     91  S   UNL     1       1.204  17.882   5.504  1.00  0.00     0.124 S 
ATOM     92  O   UNL     1       0.626  17.043   6.548  1.00  0.00    -0.237 OA
ATOM     93  O   UNL     1       2.324  17.304   4.769  1.00  0.00    -0.237 OA
ATOM     94  O   UNL     1       1.356  19.293   5.855  1.00  0.00    -0.744 OA
ENDBRANCH  87  91
ENDBRANCH  61  84
ENDBRANCH  35  36
ENDBRANCH  27  30
ENDBRANCH  25  26
ENDBRANCH  24  25
ENDBRANCH  23  24
ENDBRANCH   1  23
TORSDOF 21
