REMARK SMILES O=C(Cc1ccc(S(=O)(=O)C[C@H]2CCCO2)cc1)NCCCCCCNC(=O)c1ccc(-c2c3nc(c(-c4cc(S(=O)(=O)[O-])ccc4F)c4ccc([nH]4)c(-c4cc(S(=O)(=O)[O-])ccc4F)c4nc(c(-c5cc(S(=O)(=O)[O-])ccc5F)c5ccc2[nH]5)C=C4)C=C3)cc1
REMARK SMILES IDX 22 1 21 2 20 3 19 4 1 5 2 6 3 8 4 9 5 10 18 11 6 12 17 13
REMARK SMILES IDX 7 14 8 15 9 16 10 17 11 18 12 19 13 20 16 21 14 22 15 23
REMARK SMILES IDX 23 24 24 25 25 26 26 27 27 28 28 30 29 31 30 32 91 33 31 34
REMARK SMILES IDX 90 35 32 36 33 37 34 38 84 39 35 40 89 41 83 42 85 43 36 44
REMARK SMILES IDX 88 45 82 46 81 47 37 49 69 50 49 51 68 52 50 53 53 54 67 55
REMARK SMILES IDX 86 56 51 57 52 58 66 60 87 61 54 62 38 63 39 64 47 65 40 66
REMARK SMILES IDX 46 67 48 68 45 69 41 70 42 71 43 72 44 73 70 74 71 75 79 76
REMARK SMILES IDX 72 77 78 78 80 79 77 80 73 81 74 82 75 83 76 84 55 85 56 86
REMARK SMILES IDX 64 87 57 88 63 89 65 90 62 91 58 92 59 93 60 94 61 95
REMARK H PARENT 19 7 26 29 85 48 53 59
REMARK Flexibility Score: inf
ROOT
ATOM      1  C   UNL     1       9.396   7.986   1.303  1.00  0.00     0.002 C 
ENDROOT
BRANCH   1   2
ATOM      2  C   UNL     1      10.390   8.340   0.189  1.00  0.00     0.021 C 
BRANCH   2   3
ATOM      3  C   UNL     1       9.894   8.051  -1.224  1.00  0.00     0.116 C 
BRANCH   3   4
ATOM      4  N   UNL     1       8.682   8.784  -1.526  1.00  0.00    -0.356 N 
ATOM      5  O   UNL     1       9.410   9.742  -3.486  1.00  0.00    -0.275 OA
ATOM      6  C   UNL     1       8.513   9.524  -2.677  1.00  0.00     0.224 C 
ATOM      7  H   UNL     1       7.942   8.751  -0.877  1.00  0.00     0.163 HD
BRANCH   6   8
ATOM      8  C   UNL     1       7.104  10.068  -2.861  1.00  0.00     0.135 C 
BRANCH   8   9
ATOM      9  C   UNL     1       6.001   9.025  -2.904  1.00  0.00    -0.039 A 
ATOM     10  C   UNL     1       4.665   9.444  -2.809  1.00  0.00     0.005 A 
ATOM     11  C   UNL     1       6.264   7.655  -3.052  1.00  0.00     0.005 A 
ATOM     12  C   UNL     1       3.624   8.513  -2.860  1.00  0.00     0.020 A 
ATOM     13  C   UNL     1       5.232   6.718  -3.033  1.00  0.00     0.020 A 
ATOM     14  C   UNL     1       3.912   7.149  -2.973  1.00  0.00     0.067 A 
BRANCH  14  15
ATOM     15  S   UNL     1       2.555   6.011  -3.039  1.00  0.00     0.180 S 
ATOM     16  O   UNL     1       2.199   5.765  -1.651  1.00  0.00    -0.224 OA
ATOM     17  O   UNL     1       1.562   6.573  -3.938  1.00  0.00    -0.224 OA
BRANCH  15  18
ATOM     18  C   UNL     1       3.078   4.459  -3.706  1.00  0.00     0.174 C 
BRANCH  18  19
ATOM     19  C   UNL     1       3.916   4.474  -4.980  1.00  0.00     0.133 C 
ATOM     20  C   UNL     1       3.647   3.260  -5.863  1.00  0.00     0.035 C 
ATOM     21  O   UNL     1       3.649   5.616  -5.795  1.00  0.00    -0.377 OA
ATOM     22  C   UNL     1       2.554   3.762  -6.774  1.00  0.00     0.031 C 
ATOM     23  C   UNL     1       2.949   5.208  -6.977  1.00  0.00     0.160 C 
ENDBRANCH  18  19
ENDBRANCH  15  18
ENDBRANCH  14  15
ENDBRANCH   8   9
ENDBRANCH   6   8
ENDBRANCH   3   4
ENDBRANCH   2   3
ENDBRANCH   1   2
BRANCH   1  24
ATOM     24  C   UNL     1       8.988   6.511   1.381  1.00  0.00     0.002 C 
BRANCH  24  25
ATOM     25  C   UNL     1      10.139   5.521   1.579  1.00  0.00     0.021 C 
BRANCH  25  26
ATOM     26  C   UNL     1      11.030   5.788   2.790  1.00  0.00     0.116 C 
BRANCH  26  27
ATOM     27  N   UNL     1      10.299   5.725   4.045  1.00  0.00    -0.352 N 
ATOM     28  C   UNL     1      10.607   5.062   5.208  1.00  0.00     0.251 C 
ATOM     29  H   UNL     1       9.457   6.235   4.064  1.00  0.00     0.163 HD
ATOM     30  O   UNL     1       9.769   5.004   6.105  1.00  0.00    -0.269 OA
BRANCH  28  31
ATOM     31  C   UNL     1      11.919   4.394   5.372  1.00  0.00     0.039 A 
ATOM     32  C   UNL     1      11.958   3.134   5.974  1.00  0.00     0.014 A 
ATOM     33  C   UNL     1      13.108   5.001   4.954  1.00  0.00     0.014 A 
ATOM     34  C   UNL     1      13.175   2.459   6.098  1.00  0.00     0.010 A 
ATOM     35  C   UNL     1      14.310   4.296   5.011  1.00  0.00     0.010 A 
ATOM     36  C   UNL     1      14.357   3.016   5.583  1.00  0.00    -0.014 A 
BRANCH  36  37
ATOM     37  C   UNL     1      15.634   2.253   5.622  1.00  0.00     0.031 A 
ATOM     38  C   UNL     1      16.805   2.748   6.427  1.00  0.00     0.074 A 
ATOM     39  C   UNL     1      15.748   1.123   4.895  1.00  0.00     0.049 A 
ATOM     40  N   UNL     1      17.986   2.207   6.590  1.00  0.00    -0.248 NA
ATOM     41  C   UNL     1      16.635   4.035   7.116  1.00  0.00     0.031 C 
ATOM     42  C   UNL     1      14.702   0.567   4.033  1.00  0.00     0.029 A 
ATOM     43  N   UNL     1      16.786   0.235   4.768  1.00  0.00    -0.354 N 
ATOM     44  C   UNL     1      18.704   3.091   7.391  1.00  0.00     0.074 A 
ATOM     45  C   UNL     1      17.842   4.231   7.624  1.00  0.00     0.031 C 
ATOM     46  C   UNL     1      15.134  -0.590   3.507  1.00  0.00     0.029 A 
ATOM     47  C   UNL     1      16.500  -0.838   3.956  1.00  0.00     0.049 A 
ATOM     48  H   UNL     1      17.655   0.354   5.216  1.00  0.00     0.167 HD
ATOM     49  C   UNL     1      19.955   2.953   7.901  1.00  0.00     0.034 A 
ATOM     50  C   UNL     1      17.249  -1.904   3.614  1.00  0.00     0.034 A 
ATOM     51  C   UNL     1      20.798   1.805   7.660  1.00  0.00     0.049 A 
ATOM     52  C   UNL     1      18.641  -2.026   4.178  1.00  0.00     0.074 A 
ATOM     53  C   UNL     1      22.049   1.527   8.186  1.00  0.00     0.029 A 
ATOM     54  N   UNL     1      20.487   0.749   6.811  1.00  0.00    -0.354 N 
ATOM     55  N   UNL     1      19.277  -1.220   4.997  1.00  0.00    -0.248 NA
ATOM     56  C   UNL     1      19.409  -3.211   3.778  1.00  0.00     0.031 C 
ATOM     57  C   UNL     1      22.526   0.352   7.593  1.00  0.00     0.029 A 
ATOM     58  C   UNL     1      21.539  -0.155   6.763  1.00  0.00     0.049 A 
ATOM     59  H   UNL     1      19.642   0.656   6.314  1.00  0.00     0.167 HD
ATOM     60  C   UNL     1      20.512  -1.817   5.231  1.00  0.00     0.074 A 
ATOM     61  C   UNL     1      20.516  -3.062   4.488  1.00  0.00     0.031 C 
ATOM     62  C   UNL     1      21.549  -1.379   5.993  1.00  0.00     0.034 A 
BRANCH  49  63
ATOM     63  C   UNL     1      20.494   4.093   8.737  1.00  0.00     0.023 A 
ATOM     64  C   UNL     1      19.869   4.501   9.930  1.00  0.00     0.031 A 
ATOM     65  C   UNL     1      21.630   4.809   8.318  1.00  0.00     0.131 A 
ATOM     66  C   UNL     1      20.326   5.641  10.609  1.00  0.00     0.055 A 
ATOM     67  C   UNL     1      22.134   5.888   9.048  1.00  0.00     0.041 A 
ATOM     68  F   UNL     1      22.261   4.484   7.178  1.00  0.00    -0.206 F 
ATOM     69  C   UNL     1      21.471   6.322  10.191  1.00  0.00     0.022 A 
BRANCH  66  70
ATOM     70  S   UNL     1      19.305   6.319  11.948  1.00  0.00     0.124 S 
ATOM     71  O   UNL     1      18.031   6.534  11.266  1.00  0.00    -0.237 OA
ATOM     72  O   UNL     1      19.329   5.247  12.936  1.00  0.00    -0.237 OA
ATOM     73  O   UNL     1      20.011   7.540  12.332  1.00  0.00    -0.744 OA
ENDBRANCH  66  70
ENDBRANCH  49  63
BRANCH  50  74
ATOM     74  C   UNL     1      16.704  -2.951   2.703  1.00  0.00     0.023 A 
ATOM     75  C   UNL     1      16.498  -4.263   3.156  1.00  0.00     0.031 A 
ATOM     76  C   UNL     1      16.414  -2.665   1.357  1.00  0.00     0.131 A 
ATOM     77  C   UNL     1      16.059  -5.252   2.262  1.00  0.00     0.055 A 
ATOM     78  C   UNL     1      15.928  -3.639   0.484  1.00  0.00     0.041 A 
ATOM     79  F   UNL     1      16.588  -1.424   0.873  1.00  0.00    -0.206 F 
ATOM     80  C   UNL     1      15.759  -4.946   0.933  1.00  0.00     0.022 A 
BRANCH  77  81
ATOM     81  S   UNL     1      15.956  -6.967   2.845  1.00  0.00     0.124 S 
ATOM     82  O   UNL     1      17.333  -7.227   3.248  1.00  0.00    -0.237 OA
ATOM     83  O   UNL     1      14.980  -6.861   3.925  1.00  0.00    -0.237 OA
ATOM     84  O   UNL     1      15.499  -7.699   1.666  1.00  0.00    -0.744 OA
ENDBRANCH  77  81
ENDBRANCH  50  74
BRANCH  62  85
ATOM     85  C   UNL     1      22.762  -2.279   6.069  1.00  0.00     0.023 A 
ATOM     86  C   UNL     1      23.533  -2.577   4.931  1.00  0.00     0.031 A 
ATOM     87  C   UNL     1      23.120  -2.890   7.284  1.00  0.00     0.131 A 
ATOM     88  C   UNL     1      24.565  -3.523   5.011  1.00  0.00     0.055 A 
ATOM     89  C   UNL     1      24.198  -3.772   7.374  1.00  0.00     0.041 A 
ATOM     90  F   UNL     1      22.421  -2.648   8.404  1.00  0.00    -0.206 F 
ATOM     91  C   UNL     1      24.915  -4.110   6.230  1.00  0.00     0.022 A 
BRANCH  88  92
ATOM     92  S   UNL     1      25.353  -4.082   3.475  1.00  0.00     0.124 S 
ATOM     93  O   UNL     1      24.208  -4.551   2.701  1.00  0.00    -0.237 OA
ATOM     94  O   UNL     1      25.993  -2.863   2.992  1.00  0.00    -0.237 OA
ATOM     95  O   UNL     1      26.270  -5.129   3.921  1.00  0.00    -0.744 OA
ENDBRANCH  88  92
ENDBRANCH  62  85
ENDBRANCH  36  37
ENDBRANCH  28  31
ENDBRANCH  26  27
ENDBRANCH  25  26
ENDBRANCH  24  25
ENDBRANCH   1  24
TORSDOF 20
