REMARK SMILES CC[C@]1(C(=O)NCCCCCCNC(=O)c2ccc(-c3c4nc(c(-c5cc(S(=O)(=O)[O-])ccc5F)c5ccc([nH]5)c(-c5cc(S(=O)(=O)[O-])ccc5F)c5nc(c(-c6cc(S(=O)(=O)[O-])ccc6F)c6ccc3[nH]6)C=C5)C=C4)cc2)CCC[N@@H+](Cc2cc(OC)ccc2F)C1
REMARK SMILES IDX 9 1 8 2 7 3 6 4 4 5 5 6 3 8 79 9 93 10 80 11 82 12 81 13
REMARK SMILES IDX 2 15 1 16 83 17 84 18 85 19 91 20 86 21 90 22 92 23 89 24
REMARK SMILES IDX 87 25 88 26 10 27 11 28 12 29 13 30 14 31 15 33 16 34 17 35
REMARK SMILES IDX 78 36 18 37 77 38 19 39 20 40 21 41 71 42 22 43 76 44 70 45
REMARK SMILES IDX 72 46 23 47 75 48 69 49 68 50 24 52 56 53 36 54 55 55 37 56
REMARK SMILES IDX 40 57 54 58 73 59 38 60 39 61 53 63 74 64 41 65 25 66 26 67
REMARK SMILES IDX 34 68 27 69 33 70 35 71 32 72 28 73 29 74 30 75 31 76 57 77
REMARK SMILES IDX 58 78 66 79 59 80 65 81 67 82 64 83 60 84 61 85 62 86 63 87
REMARK SMILES IDX 42 88 43 89 51 90 44 91 50 92 52 93 49 94 45 95 46 96 47 97
REMARK SMILES IDX 48 98
REMARK H PARENT 6 7 82 14 13 32 72 51 40 62
REMARK Flexibility Score: inf
ROOT
ATOM      1  C   UNL     1       0.949  -1.012  -6.963  1.00  0.00     0.002 C 
ENDROOT
BRANCH   1   2
ATOM      2  C   UNL     1       1.870  -0.611  -5.808  1.00  0.00     0.021 C 
BRANCH   2   3
ATOM      3  C   UNL     1       1.389   0.616  -5.043  1.00  0.00     0.116 C 
BRANCH   3   4
ATOM      4  N   UNL     1       0.250   0.289  -4.195  1.00  0.00    -0.355 N 
ATOM      5  C   UNL     1       0.044   0.370  -2.848  1.00  0.00     0.231 C 
ATOM      6  O   UNL     1      -1.051  -0.036  -2.447  1.00  0.00    -0.274 OA
ATOM      7  H   UNL     1      -0.525  -0.060  -4.692  1.00  0.00     0.163 HD
BRANCH   5   8
ATOM      8  C   UNL     1       1.100   0.963  -1.880  1.00  0.00     0.098 C 
ATOM      9  C   UNL     1       2.405   0.138  -1.921  1.00  0.00     0.028 C 
ATOM     10  C   UNL     1       1.331   2.434  -2.326  1.00  0.00     0.279 C 
ATOM     11  C   UNL     1       3.579   0.901  -1.318  1.00  0.00     0.063 C 
ATOM     12  N   UNL     1       2.533   3.090  -1.794  1.00  0.00    -0.330 N 
ATOM     13  C   UNL     1       3.741   2.279  -1.964  1.00  0.00     0.262 C 
ATOM     14  H   UNL     1       2.400   3.173  -0.786  1.00  0.00     0.348 HD
BRANCH   8  15
ATOM     15  C   UNL     1       0.515   1.020  -0.427  1.00  0.00     0.019 C 
ATOM     16  C   UNL     1       0.514  -0.291   0.351  1.00  0.00     0.005 C 
ENDBRANCH   8  15
BRANCH  12  17
ATOM     17  C   UNL     1       2.685   4.472  -2.310  1.00  0.00     0.302 C 
BRANCH  17  18
ATOM     18  C   UNL     1       3.035   4.641  -3.776  1.00  0.00     0.046 A 
ATOM     19  C   UNL     1       4.346   4.962  -4.169  1.00  0.00     0.059 A 
ATOM     20  C   UNL     1       2.075   4.506  -4.784  1.00  0.00     0.132 A 
ATOM     21  C   UNL     1       4.682   5.106  -5.522  1.00  0.00     0.119 A 
ATOM     22  C   UNL     1       2.417   4.556  -6.133  1.00  0.00     0.043 A 
ATOM     23  F   UNL     1       0.785   4.313  -4.472  1.00  0.00    -0.206 F 
ATOM     24  C   UNL     1       3.727   4.844  -6.505  1.00  0.00     0.049 A 
BRANCH  21  25
ATOM     25  O   UNL     1       5.968   5.502  -5.768  1.00  0.00    -0.497 OA
ATOM     26  C   UNL     1       6.200   6.097  -7.045  1.00  0.00     0.278 C 
ENDBRANCH  21  25
ENDBRANCH  17  18
ENDBRANCH  12  17
ENDBRANCH   5   8
ENDBRANCH   3   4
ENDBRANCH   2   3
ENDBRANCH   1   2
BRANCH   1  27
ATOM     27  C   UNL     1       0.755   0.065  -8.037  1.00  0.00     0.002 C 
BRANCH  27  28
ATOM     28  C   UNL     1       2.049   0.629  -8.632  1.00  0.00     0.021 C 
BRANCH  28  29
ATOM     29  C   UNL     1       2.972  -0.419  -9.245  1.00  0.00     0.116 C 
BRANCH  29  30
ATOM     30  N   UNL     1       2.339  -1.120 -10.350  1.00  0.00    -0.352 N 
ATOM     31  C   UNL     1       2.779  -1.283 -11.639  1.00  0.00     0.251 C 
ATOM     32  H   UNL     1       1.471  -1.536 -10.144  1.00  0.00     0.163 HD
ATOM     33  O   UNL     1       2.009  -1.715 -12.495  1.00  0.00    -0.269 OA
BRANCH  31  34
ATOM     34  C   UNL     1       4.165  -0.915 -11.996  1.00  0.00     0.039 A 
ATOM     35  C   UNL     1       4.395  -0.205 -13.175  1.00  0.00     0.014 A 
ATOM     36  C   UNL     1       5.235  -1.270 -11.168  1.00  0.00     0.014 A 
ATOM     37  C   UNL     1       5.692   0.202 -13.495  1.00  0.00     0.010 A 
ATOM     38  C   UNL     1       6.514  -0.797 -11.449  1.00  0.00     0.010 A 
ATOM     39  C   UNL     1       6.758  -0.059 -12.617  1.00  0.00    -0.014 A 
BRANCH  39  40
ATOM     40  C   UNL     1       8.132   0.429 -12.908  1.00  0.00     0.031 A 
ATOM     41  C   UNL     1       9.252  -0.553 -13.119  1.00  0.00     0.074 A 
ATOM     42  C   UNL     1       8.378   1.754 -12.927  1.00  0.00     0.049 A 
ATOM     43  N   UNL     1      10.526  -0.325 -13.314  1.00  0.00    -0.248 NA
ATOM     44  C   UNL     1       8.897  -1.979 -13.077  1.00  0.00     0.031 C 
ATOM     45  C   UNL     1       7.379   2.802 -12.703  1.00  0.00     0.029 A 
ATOM     46  N   UNL     1       9.543   2.450 -13.137  1.00  0.00    -0.354 N 
ATOM     47  C   UNL     1      11.126  -1.577 -13.408  1.00  0.00     0.074 A 
ATOM     48  C   UNL     1      10.084  -2.556 -13.182  1.00  0.00     0.031 C 
ATOM     49  C   UNL     1       7.967   4.003 -12.817  1.00  0.00     0.029 A 
ATOM     50  C   UNL     1       9.393   3.816 -13.065  1.00  0.00     0.049 A 
ATOM     51  H   UNL     1      10.405   2.012 -13.323  1.00  0.00     0.167 HD
ATOM     52  C   UNL     1      12.420  -1.879 -13.679  1.00  0.00     0.034 A 
ATOM     53  C   UNL     1      10.303   4.806 -13.171  1.00  0.00     0.034 A 
ATOM     54  C   UNL     1      13.443  -0.888 -13.908  1.00  0.00     0.049 A 
ATOM     55  C   UNL     1      11.743   4.443 -13.434  1.00  0.00     0.074 A 
ATOM     56  C   UNL     1      14.772  -1.083 -14.241  1.00  0.00     0.029 A 
ATOM     57  N   UNL     1      13.257   0.486 -13.816  1.00  0.00    -0.354 N 
ATOM     58  N   UNL     1      12.285   3.254 -13.569  1.00  0.00    -0.248 NA
ATOM     59  C   UNL     1      12.692   5.555 -13.570  1.00  0.00     0.031 C 
ATOM     60  C   UNL     1      15.405   0.163 -14.269  1.00  0.00     0.029 A 
ATOM     61  C   UNL     1      14.454   1.146 -14.047  1.00  0.00     0.049 A 
ATOM     62  H   UNL     1      12.399   0.927 -13.615  1.00  0.00     0.167 HD
ATOM     63  C   UNL     1      13.632   3.480 -13.841  1.00  0.00     0.074 A 
ATOM     64  C   UNL     1      13.815   4.916 -13.864  1.00  0.00     0.031 C 
ATOM     65  C   UNL     1      14.627   2.581 -14.057  1.00  0.00     0.034 A 
BRANCH  52  66
ATOM     66  C   UNL     1      12.802  -3.341 -13.712  1.00  0.00     0.023 A 
ATOM     67  C   UNL     1      12.238  -4.235 -14.639  1.00  0.00     0.031 A 
ATOM     68  C   UNL     1      13.731  -3.855 -12.789  1.00  0.00     0.131 A 
ATOM     69  C   UNL     1      12.547  -5.602 -14.575  1.00  0.00     0.055 A 
ATOM     70  C   UNL     1      14.102  -5.201 -12.787  1.00  0.00     0.041 A 
ATOM     71  F   UNL     1      14.287  -3.058 -11.863  1.00  0.00    -0.206 F 
ATOM     72  C   UNL     1      13.497  -6.087 -13.673  1.00  0.00     0.022 A 
BRANCH  69  73
ATOM     73  S   UNL     1      11.577  -6.757 -15.582  1.00  0.00     0.124 S 
ATOM     74  O   UNL     1      10.219  -6.486 -15.114  1.00  0.00    -0.237 OA
ATOM     75  O   UNL     1      11.883  -6.325 -16.940  1.00  0.00    -0.237 OA
ATOM     76  O   UNL     1      12.106  -8.066 -15.207  1.00  0.00    -0.744 OA
ENDBRANCH  69  73
ENDBRANCH  52  66
BRANCH  53  77
ATOM     77  C   UNL     1       9.890   6.231 -13.014  1.00  0.00     0.023 A 
ATOM     78  C   UNL     1      10.023   7.144 -14.072  1.00  0.00     0.031 A 
ATOM     79  C   UNL     1       9.397   6.713 -11.788  1.00  0.00     0.131 A 
ATOM     80  C   UNL     1       9.718   8.500 -13.870  1.00  0.00     0.055 A 
ATOM     81  C   UNL     1       9.039   8.050 -11.609  1.00  0.00     0.041 A 
ATOM     82  F   UNL     1       9.243   5.883 -10.743  1.00  0.00    -0.206 F 
ATOM     83  C   UNL     1       9.212   8.956 -12.651  1.00  0.00     0.022 A 
BRANCH  80  84
ATOM     84  S   UNL     1      10.084   9.680 -15.198  1.00  0.00     0.124 S 
ATOM     85  O   UNL     1      11.515   9.476 -15.389  1.00  0.00    -0.237 OA
ATOM     86  O   UNL     1       9.217   9.205 -16.271  1.00  0.00    -0.237 OA
ATOM     87  O   UNL     1       9.707  10.968 -14.619  1.00  0.00    -0.744 OA
ENDBRANCH  80  84
ENDBRANCH  53  77
BRANCH  65  88
ATOM     88  C   UNL     1      15.995   3.131 -14.387  1.00  0.00     0.023 A 
ATOM     89  C   UNL     1      16.740   3.879 -13.459  1.00  0.00     0.031 A 
ATOM     90  C   UNL     1      16.557   2.907 -15.657  1.00  0.00     0.131 A 
ATOM     91  C   UNL     1      17.977   4.425 -13.833  1.00  0.00     0.055 A 
ATOM     92  C   UNL     1      17.819   3.393 -16.000  1.00  0.00     0.041 A 
ATOM     93  F   UNL     1      15.889   2.205 -16.586  1.00  0.00    -0.206 F 
ATOM     94  C   UNL     1      18.531   4.169 -15.090  1.00  0.00     0.022 A 
BRANCH  91  95
ATOM     95  S   UNL     1      18.809   5.561 -12.690  1.00  0.00     0.124 S 
ATOM     96  O   UNL     1      17.802   6.601 -12.511  1.00  0.00    -0.237 OA
ATOM     97  O   UNL     1      19.059   4.710 -11.531  1.00  0.00    -0.237 OA
ATOM     98  O   UNL     1      20.004   5.973 -13.424  1.00  0.00    -0.744 OA
ENDBRANCH  91  95
ENDBRANCH  65  88
ENDBRANCH  39  40
ENDBRANCH  31  34
ENDBRANCH  29  30
ENDBRANCH  28  29
ENDBRANCH  27  28
ENDBRANCH   1  27
TORSDOF 20
