REMARK SMILES O=C(CCCNC(=O)N1CC[C@@H](C(=O)NCCCCCCNC(=O)c2ccc(-c3c4nc(c(-c5cc(S(=O)(=O)[O-])ccc5F)c5ccc([nH]5)c(-c5cc(S(=O)(=O)[O-])ccc5F)c5nc(c(-c6cc(S(=O)(=O)[O-])ccc6F)c6ccc3[nH]6)C=C5)C=C4)cc2)C1)NC1CC1
REMARK SMILES IDX 17 1 16 2 15 3 13 4 14 5 12 7 9 8 10 9 88 10 11 11 7 12 6 13
REMARK SMILES IDX 8 15 5 16 4 17 3 18 2 19 1 20 89 21 90 23 91 24 92 25 18 26
REMARK SMILES IDX 19 27 20 28 21 29 22 30 23 31 24 33 25 34 26 35 87 36 27 37
REMARK SMILES IDX 86 38 28 39 29 40 30 41 80 42 31 43 85 44 79 45 81 46 32 47
REMARK SMILES IDX 84 48 78 49 77 50 33 52 65 53 45 54 64 55 46 56 49 57 63 58
REMARK SMILES IDX 82 59 47 60 48 61 62 63 83 64 50 65 34 66 35 67 43 68 36 69
REMARK SMILES IDX 42 70 44 71 41 72 37 73 38 74 39 75 40 76 66 77 67 78 75 79
REMARK SMILES IDX 68 80 74 81 76 82 73 83 69 84 70 85 71 86 72 87 51 88 52 89
REMARK SMILES IDX 60 90 53 91 59 92 61 93 58 94 54 95 55 96 56 97 57 98
REMARK H PARENT 15 6 6 14 89 22 22 32 81 51 49 62
REMARK Flexibility Score: inf
ROOT
ATOM      1  C   UNL     1      12.508  -3.184  -3.638  1.00  0.00     0.021 C 
ENDROOT
BRANCH   1   2
ATOM      2  C   UNL     1      11.485  -2.299  -2.938  1.00  0.00     0.116 C 
BRANCH   2   3
ATOM      3  N   UNL     1      11.292  -1.043  -3.639  1.00  0.00    -0.356 N 
ATOM      4  C   UNL     1      10.130  -0.409  -3.954  1.00  0.00     0.224 C 
ATOM      5  O   UNL     1      10.186   0.664  -4.554  1.00  0.00    -0.275 OA
ATOM      6  H   UNL     1      12.116  -0.587  -3.926  1.00  0.00     0.163 HD
BRANCH   4   7
ATOM      7  C   UNL     1       8.821  -1.072  -3.576  1.00  0.00     0.100 C 
ATOM      8  N   UNL     1       7.555  -0.290  -1.741  1.00  0.00    -0.324 N 
ATOM      9  C   UNL     1       7.317   0.627  -2.838  1.00  0.00     0.122 C 
ATOM     10  C   UNL     1       8.674  -1.148  -2.051  1.00  0.00     0.134 C 
ATOM     11  C   UNL     1       7.603  -0.253  -4.039  1.00  0.00     0.037 C 
BRANCH   8  12
ATOM     12  C   UNL     1       6.958  -0.349  -0.526  1.00  0.00     0.317 C 
ATOM     13  N   UNL     1       5.633  -0.086  -0.437  1.00  0.00    -0.338 N 
ATOM     14  H   UNL     1       5.311   0.264   0.426  1.00  0.00     0.165 HD
ATOM     15  O   UNL     1       7.547  -0.711   0.491  1.00  0.00    -0.249 OA
BRANCH  13  16
ATOM     16  C   UNL     1       4.634  -0.263  -1.477  1.00  0.00     0.118 C 
BRANCH  16  17
ATOM     17  C   UNL     1       3.610  -1.343  -1.133  1.00  0.00     0.031 C 
BRANCH  17  18
ATOM     18  C   UNL     1       2.807  -1.094   0.139  1.00  0.00     0.102 C 
BRANCH  18  19
ATOM     19  C   UNL     1       1.884   0.096   0.007  1.00  0.00     0.220 C 
ATOM     20  O   UNL     1       0.712  -0.028  -0.334  1.00  0.00    -0.275 OA
ATOM     21  N   UNL     1       2.484   1.310   0.277  1.00  0.00    -0.353 N 
ATOM     22  H   UNL     1       3.436   1.329   0.524  1.00  0.00     0.163 HD
BRANCH  21  23
ATOM     23  C   UNL     1       1.762   2.538   0.207  1.00  0.00     0.082 C 
ATOM     24  C   UNL     1       2.462   3.837  -0.080  1.00  0.00     0.027 C 
ATOM     25  C   UNL     1       1.555   3.232  -1.110  1.00  0.00     0.027 C 
ENDBRANCH  21  23
ENDBRANCH  18  19
ENDBRANCH  17  18
ENDBRANCH  16  17
ENDBRANCH  13  16
ENDBRANCH   8  12
ENDBRANCH   4   7
ENDBRANCH   2   3
ENDBRANCH   1   2
BRANCH   1  26
ATOM     26  C   UNL     1      13.899  -2.559  -3.773  1.00  0.00     0.002 C 
BRANCH  26  27
ATOM     27  C   UNL     1      14.524  -2.075  -2.461  1.00  0.00     0.002 C 
BRANCH  27  28
ATOM     28  C   UNL     1      14.630  -3.136  -1.363  1.00  0.00     0.021 C 
BRANCH  28  29
ATOM     29  C   UNL     1      15.352  -4.414  -1.775  1.00  0.00     0.116 C 
BRANCH  29  30
ATOM     30  N   UNL     1      16.717  -4.159  -2.202  1.00  0.00    -0.352 N 
ATOM     31  C   UNL     1      17.880  -4.766  -1.803  1.00  0.00     0.251 C 
ATOM     32  H   UNL     1      16.822  -3.449  -2.876  1.00  0.00     0.163 HD
ATOM     33  O   UNL     1      18.961  -4.280  -2.134  1.00  0.00    -0.269 OA
BRANCH  31  34
ATOM     34  C   UNL     1      17.833  -5.978  -0.958  1.00  0.00     0.039 A 
ATOM     35  C   UNL     1      18.721  -6.084   0.115  1.00  0.00     0.014 A 
ATOM     36  C   UNL     1      16.926  -7.011  -1.220  1.00  0.00     0.014 A 
ATOM     37  C   UNL     1      18.663  -7.198   0.955  1.00  0.00     0.010 A 
ATOM     38  C   UNL     1      16.817  -8.082  -0.336  1.00  0.00     0.010 A 
ATOM     39  C   UNL     1      17.687  -8.190   0.758  1.00  0.00    -0.014 A 
BRANCH  39  40
ATOM     40  C   UNL     1      17.573  -9.341   1.694  1.00  0.00     0.031 A 
ATOM     41  C   UNL     1      17.817 -10.744   1.208  1.00  0.00     0.074 A 
ATOM     42  C   UNL     1      17.218  -9.121   2.976  1.00  0.00     0.049 A 
ATOM     43  N   UNL     1      17.741 -11.873   1.866  1.00  0.00    -0.248 NA
ATOM     44  C   UNL     1      18.169 -10.902  -0.212  1.00  0.00     0.031 C 
ATOM     45  C   UNL     1      16.918  -7.808   3.554  1.00  0.00     0.029 A 
ATOM     46  N   UNL     1      17.049  -9.989   4.026  1.00  0.00    -0.354 N 
ATOM     47  C   UNL     1      18.032 -12.873   0.944  1.00  0.00     0.074 A 
ATOM     48  C   UNL     1      18.218 -12.220  -0.334  1.00  0.00     0.031 C 
ATOM     49  C   UNL     1      16.639  -7.955   4.859  1.00  0.00     0.029 A 
ATOM     50  C   UNL     1      16.689  -9.373   5.202  1.00  0.00     0.049 A 
ATOM     51  H   UNL     1      17.175 -10.962   3.944  1.00  0.00     0.167 HD
ATOM     52  C   UNL     1      18.157 -14.208   1.150  1.00  0.00     0.034 A 
ATOM     53  C   UNL     1      16.419  -9.890   6.418  1.00  0.00     0.034 A 
ATOM     54  C   UNL     1      17.972 -14.842   2.434  1.00  0.00     0.049 A 
ATOM     55  C   UNL     1      16.529 -11.383   6.611  1.00  0.00     0.074 A 
ATOM     56  C   UNL     1      18.118 -16.179   2.763  1.00  0.00     0.029 A 
ATOM     57  N   UNL     1      17.591 -14.189   3.599  1.00  0.00    -0.354 N 
ATOM     58  N   UNL     1      16.858 -12.308   5.738  1.00  0.00    -0.248 NA
ATOM     59  C   UNL     1      16.244 -11.898   7.956  1.00  0.00     0.031 C 
ATOM     60  C   UNL     1      17.751 -16.345   4.102  1.00  0.00     0.029 A 
ATOM     61  C   UNL     1      17.463 -15.100   4.637  1.00  0.00     0.049 A 
ATOM     62  H   UNL     1      17.434 -13.220   3.677  1.00  0.00     0.167 HD
ATOM     63  C   UNL     1      16.852 -13.510   6.442  1.00  0.00     0.074 A 
ATOM     64  C   UNL     1      16.509 -13.187   7.811  1.00  0.00     0.031 C 
ATOM     65  C   UNL     1      17.109 -14.767   5.998  1.00  0.00     0.034 A 
BRANCH  52  66
ATOM     66  C   UNL     1      18.489 -15.071  -0.045  1.00  0.00     0.023 A 
ATOM     67  C   UNL     1      19.694 -14.921  -0.754  1.00  0.00     0.031 A 
ATOM     68  C   UNL     1      17.584 -16.052  -0.490  1.00  0.00     0.131 A 
ATOM     69  C   UNL     1      19.930 -15.686  -1.906  1.00  0.00     0.055 A 
ATOM     70  C   UNL     1      17.863 -16.869  -1.587  1.00  0.00     0.041 A 
ATOM     71  F   UNL     1      16.407 -16.228   0.131  1.00  0.00    -0.206 F 
ATOM     72  C   UNL     1      19.036 -16.679  -2.312  1.00  0.00     0.022 A 
BRANCH  69  73
ATOM     73  S   UNL     1      21.356 -15.267  -2.947  1.00  0.00     0.124 S 
ATOM     74  O   UNL     1      21.072 -13.875  -3.289  1.00  0.00    -0.237 OA
ATOM     75  O   UNL     1      22.480 -15.487  -2.046  1.00  0.00    -0.237 OA
ATOM     76  O   UNL     1      21.254 -16.207  -4.061  1.00  0.00    -0.744 OA
ENDBRANCH  69  73
ENDBRANCH  52  66
BRANCH  53  77
ATOM     77  C   UNL     1      16.010  -9.006   7.548  1.00  0.00     0.023 A 
ATOM     78  C   UNL     1      16.785  -8.915   8.715  1.00  0.00     0.031 A 
ATOM     79  C   UNL     1      14.803  -8.285   7.504  1.00  0.00     0.131 A 
ATOM     80  C   UNL     1      16.319  -8.172   9.810  1.00  0.00     0.055 A 
ATOM     81  C   UNL     1      14.374  -7.494   8.572  1.00  0.00     0.041 A 
ATOM     82  F   UNL     1      14.021  -8.334   6.413  1.00  0.00    -0.206 F 
ATOM     83  C   UNL     1      15.126  -7.449   9.741  1.00  0.00     0.022 A 
BRANCH  80  84
ATOM     84  S   UNL     1      17.240  -8.256  11.371  1.00  0.00     0.124 S 
ATOM     85  O   UNL     1      17.246  -9.690  11.634  1.00  0.00    -0.237 OA
ATOM     86  O   UNL     1      18.521  -7.665  10.998  1.00  0.00    -0.237 OA
ATOM     87  O   UNL     1      16.430  -7.456  12.287  1.00  0.00    -0.744 OA
ENDBRANCH  80  84
ENDBRANCH  53  77
BRANCH  65  88
ATOM     88  C   UNL     1      17.073 -15.877   7.022  1.00  0.00     0.023 A 
ATOM     89  C   UNL     1      15.888 -16.231   7.692  1.00  0.00     0.031 A 
ATOM     90  C   UNL     1      18.249 -16.576   7.351  1.00  0.00     0.131 A 
ATOM     91  C   UNL     1      15.919 -17.202   8.704  1.00  0.00     0.055 A 
ATOM     92  C   UNL     1      18.259 -17.592   8.307  1.00  0.00     0.041 A 
ATOM     93  F   UNL     1      19.411 -16.280   6.747  1.00  0.00    -0.206 F 
ATOM     94  C   UNL     1      17.093 -17.899   9.002  1.00  0.00     0.022 A 
BRANCH  91  95
ATOM     95  S   UNL     1      14.430 -17.463   9.706  1.00  0.00     0.124 S 
ATOM     96  O   UNL     1      14.188 -16.127  10.242  1.00  0.00    -0.237 OA
ATOM     97  O   UNL     1      13.467 -17.936   8.717  1.00  0.00    -0.237 OA
ATOM     98  O   UNL     1      14.848 -18.460  10.690  1.00  0.00    -0.744 OA
ENDBRANCH  91  95
ENDBRANCH  65  88
ENDBRANCH  39  40
ENDBRANCH  31  34
ENDBRANCH  29  30
ENDBRANCH  28  29
ENDBRANCH  27  28
ENDBRANCH  26  27
ENDBRANCH   1  26
TORSDOF 22
