REMARK SMILES CC(=O)Nc1ccc(/C=N/c2ccccc2C(=O)NCCCCCCNC(=O)c2ccc(-c3c4nc(c(-c5cc(S(=O)(=O)[O-])ccc5F)c5ccc([nH]5)c(-c5cc(S(=O)(=O)[O-])ccc5F)c5nc(c(-c6cc(S(=O)(=O)[O-])ccc6F)c6ccc3[nH]6)C=C5)C=C4)cc2)cc1
REMARK SMILES IDX 22 1 21 2 20 3 19 4 17 5 18 6 16 8 11 9 12 10 13 11 15 12
REMARK SMILES IDX 14 13 10 14 9 15 8 16 5 17 6 18 93 19 7 20 92 21 4 22 1 23
REMARK SMILES IDX 2 24 3 25 23 27 24 28 25 29 26 30 27 31 28 33 29 34 30 35
REMARK SMILES IDX 91 36 31 37 90 38 32 39 33 40 34 41 84 42 35 43 89 44 83 45
REMARK SMILES IDX 85 46 36 47 88 48 82 49 81 50 37 52 69 53 49 54 68 55 50 56
REMARK SMILES IDX 53 57 67 58 86 59 51 60 52 61 66 63 87 64 54 65 38 66 39 67
REMARK SMILES IDX 47 68 40 69 46 70 48 71 45 72 41 73 42 74 43 75 44 76 70 77
REMARK SMILES IDX 71 78 79 79 72 80 78 81 80 82 77 83 73 84 74 85 75 86 76 87
REMARK SMILES IDX 55 88 56 89 64 90 57 91 63 92 65 93 62 94 58 95 59 96 60 97
REMARK SMILES IDX 61 98
REMARK H PARENT 19 7 4 26 26 32 85 51 53 62
REMARK Flexibility Score: inf
ROOT
ATOM      1  C   UNL     1       5.288   4.483   2.882  1.00  0.00     0.002 C 
ENDROOT
BRANCH   1   2
ATOM      2  C   UNL     1       4.953   4.500   4.379  1.00  0.00     0.021 C 
BRANCH   2   3
ATOM      3  C   UNL     1       4.963   3.180   5.146  1.00  0.00     0.116 C 
BRANCH   3   4
ATOM      4  N   UNL     1       6.213   2.453   5.111  1.00  0.00    -0.352 N 
ATOM      5  C   UNL     1       6.715   1.547   6.015  1.00  0.00     0.253 C 
ATOM      6  O   UNL     1       7.760   0.958   5.725  1.00  0.00    -0.269 OA
ATOM      7  H   UNL     1       6.784   2.632   4.329  1.00  0.00     0.163 HD
BRANCH   5   8
ATOM      8  C   UNL     1       6.120   1.297   7.358  1.00  0.00     0.065 A 
ATOM      9  C   UNL     1       4.772   0.987   7.625  1.00  0.00     0.076 A 
ATOM     10  C   UNL     1       4.382   0.758   8.955  1.00  0.00     0.029 A 
ATOM     11  C   UNL     1       5.303   0.783  10.002  1.00  0.00     0.002 A 
ATOM     12  C   UNL     1       7.046   1.296   8.422  1.00  0.00     0.016 A 
ATOM     13  C   UNL     1       6.641   1.044   9.735  1.00  0.00     0.001 A 
BRANCH   9  14
ATOM     14  N   UNL     1       3.743   0.957   6.673  1.00  0.00    -0.255 NA
ATOM     15  C   UNL     1       3.750   0.013   5.788  1.00  0.00     0.119 C 
BRANCH  15  16
ATOM     16  C   UNL     1       2.758   0.022   4.695  1.00  0.00    -0.007 A 
ATOM     17  C   UNL     1       1.097   0.327   2.447  1.00  0.00     0.041 A 
ATOM     18  C   UNL     1       0.768   0.934   3.668  1.00  0.00     0.027 A 
ATOM     19  C   UNL     1       2.248  -0.465   2.384  1.00  0.00     0.027 A 
ATOM     20  C   UNL     1       1.594   0.787   4.788  1.00  0.00     0.012 A 
ATOM     21  C   UNL     1       3.074  -0.626   3.505  1.00  0.00     0.012 A 
BRANCH  17  22
ATOM     22  N   UNL     1       0.293   0.662   1.344  1.00  0.00    -0.326 N 
ATOM     23  C   UNL     1       0.891  -1.077  -0.347  1.00  0.00     0.114 C 
ATOM     24  C   UNL     1       0.221   0.199   0.064  1.00  0.00     0.221 C 
ATOM     25  O   UNL     1      -0.438   0.836  -0.760  1.00  0.00    -0.275 OA
ATOM     26  H   UNL     1      -0.352   1.381   1.535  1.00  0.00     0.169 HD
ENDBRANCH  17  22
ENDBRANCH  15  16
ENDBRANCH   9  14
ENDBRANCH   5   8
ENDBRANCH   3   4
ENDBRANCH   2   3
ENDBRANCH   1   2
BRANCH   1  27
ATOM     27  C   UNL     1       4.621   3.439   1.980  1.00  0.00     0.002 C 
BRANCH  27  28
ATOM     28  C   UNL     1       3.117   3.218   2.125  1.00  0.00     0.021 C 
BRANCH  28  29
ATOM     29  C   UNL     1       2.191   4.402   1.875  1.00  0.00     0.116 C 
BRANCH  29  30
ATOM     30  N   UNL     1       2.007   4.682   0.465  1.00  0.00    -0.352 N 
ATOM     31  C   UNL     1       0.903   4.646  -0.355  1.00  0.00     0.251 C 
ATOM     32  H   UNL     1       2.834   4.952   0.003  1.00  0.00     0.163 HD
ATOM     33  O   UNL     1       1.095   4.819  -1.560  1.00  0.00    -0.269 OA
BRANCH  31  34
ATOM     34  C   UNL     1      -0.488   4.404   0.134  1.00  0.00     0.039 A 
ATOM     35  C   UNL     1      -1.395   3.798  -0.749  1.00  0.00     0.014 A 
ATOM     36  C   UNL     1      -0.964   4.837   1.373  1.00  0.00     0.014 A 
ATOM     37  C   UNL     1      -2.737   3.600  -0.392  1.00  0.00     0.010 A 
ATOM     38  C   UNL     1      -2.290   4.584   1.759  1.00  0.00     0.010 A 
ATOM     39  C   UNL     1      -3.200   3.986   0.871  1.00  0.00    -0.014 A 
BRANCH  39  40
ATOM     40  C   UNL     1      -4.642   3.870   1.236  1.00  0.00     0.031 A 
ATOM     41  C   UNL     1      -5.466   5.120   1.426  1.00  0.00     0.074 A 
ATOM     42  C   UNL     1      -5.218   2.667   1.425  1.00  0.00     0.049 A 
ATOM     43  N   UNL     1      -6.706   5.251   1.827  1.00  0.00    -0.248 NA
ATOM     44  C   UNL     1      -4.787   6.393   1.149  1.00  0.00     0.031 C 
ATOM     45  C   UNL     1      -4.548   1.375   1.277  1.00  0.00     0.029 A 
ATOM     46  N   UNL     1      -6.500   2.336   1.797  1.00  0.00    -0.354 N 
ATOM     47  C   UNL     1      -6.954   6.620   1.857  1.00  0.00     0.074 A 
ATOM     48  C   UNL     1      -5.711   7.273   1.500  1.00  0.00     0.031 C 
ATOM     49  C   UNL     1      -5.420   0.394   1.566  1.00  0.00     0.029 A 
ATOM     50  C   UNL     1      -6.703   0.983   1.944  1.00  0.00     0.049 A 
ATOM     51  H   UNL     1      -7.206   3.005   1.946  1.00  0.00     0.167 HD
ATOM     52  C   UNL     1      -8.111   7.277   2.129  1.00  0.00     0.034 A 
ATOM     53  C   UNL     1      -7.790   0.295   2.350  1.00  0.00     0.034 A 
ATOM     54  C   UNL     1      -9.349   6.624   2.482  1.00  0.00     0.049 A 
ATOM     55  C   UNL     1      -9.059   1.040   2.687  1.00  0.00     0.074 A 
ATOM     56  C   UNL     1     -10.581   7.194   2.759  1.00  0.00     0.029 A 
ATOM     57  N   UNL     1      -9.514   5.250   2.612  1.00  0.00    -0.354 N 
ATOM     58  N   UNL     1      -9.281   2.334   2.693  1.00  0.00    -0.248 NA
ATOM     59  C   UNL     1     -10.227   0.228   3.057  1.00  0.00     0.031 C 
ATOM     60  C   UNL     1     -11.472   6.173   3.112  1.00  0.00     0.029 A 
ATOM     61  C   UNL     1     -10.818   4.958   2.988  1.00  0.00     0.049 A 
ATOM     62  H   UNL     1      -8.809   4.581   2.459  1.00  0.00     0.167 HD
ATOM     63  C   UNL     1     -10.622   2.487   3.041  1.00  0.00     0.074 A 
ATOM     64  C   UNL     1     -11.159   1.155   3.226  1.00  0.00     0.031 C 
ATOM     65  C   UNL     1     -11.344   3.628   3.185  1.00  0.00     0.034 A 
BRANCH  52  66
ATOM     66  C   UNL     1      -8.066   8.787   2.084  1.00  0.00     0.023 A 
ATOM     67  C   UNL     1      -7.761   9.478   0.897  1.00  0.00     0.031 A 
ATOM     68  C   UNL     1      -8.266   9.546   3.251  1.00  0.00     0.131 A 
ATOM     69  C   UNL     1      -7.564  10.866   0.924  1.00  0.00     0.055 A 
ATOM     70  C   UNL     1      -8.159  10.938   3.251  1.00  0.00     0.041 A 
ATOM     71  F   UNL     1      -8.544   8.945   4.418  1.00  0.00    -0.206 F 
ATOM     72  C   UNL     1      -7.785  11.605   2.088  1.00  0.00     0.022 A 
BRANCH  69  73
ATOM     73  S   UNL     1      -6.841  11.664  -0.536  1.00  0.00     0.124 S 
ATOM     74  O   UNL     1      -5.584  10.932  -0.678  1.00  0.00    -0.237 OA
ATOM     75  O   UNL     1      -7.846  11.417  -1.561  1.00  0.00    -0.237 OA
ATOM     76  O   UNL     1      -6.694  13.060  -0.126  1.00  0.00    -0.744 OA
ENDBRANCH  69  73
ENDBRANCH  52  66
BRANCH  53  77
ATOM     77  C   UNL     1      -7.727  -1.187   2.492  1.00  0.00     0.023 A 
ATOM     78  C   UNL     1      -8.466  -2.035   1.652  1.00  0.00     0.031 A 
ATOM     79  C   UNL     1      -6.949  -1.774   3.507  1.00  0.00     0.131 A 
ATOM     80  C   UNL     1      -8.443  -3.423   1.866  1.00  0.00     0.055 A 
ATOM     81  C   UNL     1      -6.895  -3.157   3.688  1.00  0.00     0.041 A 
ATOM     82  F   UNL     1      -6.221  -1.006   4.334  1.00  0.00    -0.206 F 
ATOM     83  C   UNL     1      -7.654  -3.990   2.871  1.00  0.00     0.022 A 
BRANCH  80  84
ATOM     84  S   UNL     1      -9.511  -4.480   0.849  1.00  0.00     0.124 S 
ATOM     85  O   UNL     1     -10.836  -3.969   1.180  1.00  0.00    -0.237 OA
ATOM     86  O   UNL     1      -9.028  -4.192  -0.497  1.00  0.00    -0.237 OA
ATOM     87  O   UNL     1      -9.220  -5.827   1.337  1.00  0.00    -0.744 OA
ENDBRANCH  80  84
ENDBRANCH  53  77
BRANCH  65  88
ATOM     88  C   UNL     1     -12.809   3.479   3.520  1.00  0.00     0.023 A 
ATOM     89  C   UNL     1     -13.241   2.991   4.766  1.00  0.00     0.031 A 
ATOM     90  C   UNL     1     -13.787   3.825   2.570  1.00  0.00     0.131 A 
ATOM     91  C   UNL     1     -14.613   2.817   5.012  1.00  0.00     0.055 A 
ATOM     92  C   UNL     1     -15.151   3.699   2.839  1.00  0.00     0.041 A 
ATOM     93  F   UNL     1     -13.432   4.295   1.364  1.00  0.00    -0.206 F 
ATOM     94  C   UNL     1     -15.570   3.182   4.061  1.00  0.00     0.022 A 
BRANCH  91  95
ATOM     95  S   UNL     1     -15.131   2.034   6.564  1.00  0.00     0.124 S 
ATOM     96  O   UNL     1     -14.446   0.747   6.499  1.00  0.00    -0.237 OA
ATOM     97  O   UNL     1     -14.634   2.970   7.567  1.00  0.00    -0.237 OA
ATOM     98  O   UNL     1     -16.587   1.968   6.447  1.00  0.00    -0.744 OA
ENDBRANCH  91  95
ENDBRANCH  65  88
ENDBRANCH  39  40
ENDBRANCH  31  34
ENDBRANCH  29  30
ENDBRANCH  28  29
ENDBRANCH  27  28
ENDBRANCH   1  27
TORSDOF 19
