REMARK SMILES O=C(NCCCCCCNC(=O)[C@H]1[C@H]2C[C@@H]3[C@@H](OC(=O)[C@@H]31)[C@@H]2Sc1ccccc1)c1ccc(-c2c3nc(c(-c4cc(S(=O)(=O)[O-])ccc4F)c4ccc([nH]4)c(-c4cc(S(=O)(=O)[O-])ccc4F)c4nc(c(-c5cc(S(=O)(=O)[O-])ccc5F)c5ccc2[nH]5)C=C4)C=C3)cc1
REMARK SMILES IDX 6 1 5 2 4 3 3 4 1 5 2 6 30 8 31 9 92 10 32 11 91 12 33 13
REMARK SMILES IDX 34 14 35 15 85 16 36 17 90 18 84 19 86 20 37 21 89 22 83 23
REMARK SMILES IDX 82 24 38 26 70 27 50 28 69 29 51 30 54 31 68 32 87 33 52 34
REMARK SMILES IDX 53 35 67 37 88 38 55 39 39 40 40 41 48 42 41 43 47 44 49 45
REMARK SMILES IDX 46 46 42 47 43 48 44 49 45 50 71 51 72 52 80 53 73 54 79 55
REMARK SMILES IDX 81 56 78 57 74 58 75 59 76 60 77 61 56 62 57 63 65 64 58 65
REMARK SMILES IDX 64 66 66 67 63 68 59 69 60 70 61 71 62 72 7 73 8 74 9 75
REMARK SMILES IDX 10 76 11 77 12 79 13 80 14 81 21 82 15 83 22 84 16 85 19 86
REMARK SMILES IDX 17 87 18 88 20 89 23 90 24 91 25 92 29 93 26 94 28 95 27 96
REMARK H PARENT 3 7 86 25 54 36 10 78
REMARK Flexibility Score: inf
ROOT
ATOM      1  C   UNL     1       4.310  -3.739  -0.802  1.00  0.00     0.002 C 
ENDROOT
BRANCH   1   2
ATOM      2  C   UNL     1       4.751  -2.627   0.147  1.00  0.00     0.021 C 
BRANCH   2   3
ATOM      3  C   UNL     1       4.508  -1.217  -0.373  1.00  0.00     0.116 C 
BRANCH   3   4
ATOM      4  N   UNL     1       3.093  -0.919  -0.546  1.00  0.00    -0.352 N 
ATOM      5  O   UNL     1       1.132   0.125  -0.140  1.00  0.00    -0.269 OA
ATOM      6  C   UNL     1       2.352   0.111  -0.014  1.00  0.00     0.251 C 
ATOM      7  H   UNL     1       2.597  -1.542  -1.126  1.00  0.00     0.163 HD
BRANCH   6   8
ATOM      8  C   UNL     1       3.040   1.185   0.735  1.00  0.00     0.039 A 
ATOM      9  C   UNL     1       4.216   1.748   0.236  1.00  0.00     0.014 A 
ATOM     10  C   UNL     1       2.530   1.601   1.967  1.00  0.00     0.014 A 
ATOM     11  C   UNL     1       4.974   2.583   1.046  1.00  0.00     0.010 A 
ATOM     12  C   UNL     1       3.243   2.528   2.733  1.00  0.00     0.010 A 
ATOM     13  C   UNL     1       4.496   2.992   2.301  1.00  0.00    -0.014 A 
BRANCH  13  14
ATOM     14  C   UNL     1       5.322   3.917   3.125  1.00  0.00     0.031 A 
ATOM     15  C   UNL     1       5.846   3.500   4.474  1.00  0.00     0.074 A 
ATOM     16  C   UNL     1       5.636   5.128   2.623  1.00  0.00     0.049 A 
ATOM     17  N   UNL     1       6.603   4.169   5.309  1.00  0.00    -0.248 NA
ATOM     18  C   UNL     1       5.463   2.165   4.955  1.00  0.00     0.031 C 
ATOM     19  C   UNL     1       5.190   5.640   1.325  1.00  0.00     0.029 A 
ATOM     20  N   UNL     1       6.420   6.135   3.123  1.00  0.00    -0.354 N 
ATOM     21  C   UNL     1       6.767   3.349   6.421  1.00  0.00     0.074 A 
ATOM     22  C   UNL     1       5.997   2.149   6.168  1.00  0.00     0.031 C 
ATOM     23  C   UNL     1       5.757   6.834   1.104  1.00  0.00     0.029 A 
ATOM     24  C   UNL     1       6.538   7.213   2.275  1.00  0.00     0.049 A 
ATOM     25  H   UNL     1       6.857   6.092   4.004  1.00  0.00     0.167 HD
ATOM     26  C   UNL     1       7.497   3.576   7.543  1.00  0.00     0.034 A 
ATOM     27  C   UNL     1       7.184   8.384   2.426  1.00  0.00     0.034 A 
ATOM     28  C   UNL     1       8.262   4.781   7.774  1.00  0.00     0.049 A 
ATOM     29  C   UNL     1       7.945   8.629   3.702  1.00  0.00     0.074 A 
ATOM     30  C   UNL     1       9.064   5.098   8.858  1.00  0.00     0.029 A 
ATOM     31  N   UNL     1       8.312   5.874   6.917  1.00  0.00    -0.354 N 
ATOM     32  N   UNL     1       8.106   7.836   4.736  1.00  0.00    -0.248 NA
ATOM     33  C   UNL     1       8.618   9.927   3.826  1.00  0.00     0.031 C 
ATOM     34  C   UNL     1       9.525   6.409   8.697  1.00  0.00     0.029 A 
ATOM     35  C   UNL     1       9.098   6.878   7.466  1.00  0.00     0.049 A 
ATOM     36  H   UNL     1       7.856   5.928   6.046  1.00  0.00     0.167 HD
ATOM     37  C   UNL     1       8.934   8.526   5.616  1.00  0.00     0.074 A 
ATOM     38  C   UNL     1       9.247   9.791   4.983  1.00  0.00     0.031 C 
ATOM     39  C   UNL     1       9.400   8.143   6.833  1.00  0.00     0.034 A 
BRANCH  26  40
ATOM     40  C   UNL     1       7.456   2.524   8.631  1.00  0.00     0.023 A 
ATOM     41  C   UNL     1       7.920   1.213   8.422  1.00  0.00     0.031 A 
ATOM     42  C   UNL     1       6.919   2.833   9.894  1.00  0.00     0.131 A 
ATOM     43  C   UNL     1       7.766   0.245   9.428  1.00  0.00     0.055 A 
ATOM     44  C   UNL     1       6.851   1.889  10.921  1.00  0.00     0.041 A 
ATOM     45  F   UNL     1       6.438   4.060  10.152  1.00  0.00    -0.206 F 
ATOM     46  C   UNL     1       7.259   0.580  10.685  1.00  0.00     0.022 A 
BRANCH  43  47
ATOM     47  S   UNL     1       8.083  -1.493   9.014  1.00  0.00     0.124 S 
ATOM     48  O   UNL     1       7.183  -1.698   7.881  1.00  0.00    -0.237 OA
ATOM     49  O   UNL     1       9.508  -1.489   8.704  1.00  0.00    -0.237 OA
ATOM     50  O   UNL     1       7.711  -2.210  10.232  1.00  0.00    -0.744 OA
ENDBRANCH  43  47
ENDBRANCH  26  40
BRANCH  27  51
ATOM     51  C   UNL     1       7.127   9.420   1.356  1.00  0.00     0.023 A 
ATOM     52  C   UNL     1       8.292   9.847   0.700  1.00  0.00     0.031 A 
ATOM     53  C   UNL     1       5.909  10.029   1.001  1.00  0.00     0.131 A 
ATOM     54  C   UNL     1       8.223  10.887  -0.239  1.00  0.00     0.055 A 
ATOM     55  C   UNL     1       5.837  11.017   0.019  1.00  0.00     0.041 A 
ATOM     56  F   UNL     1       4.764   9.657   1.595  1.00  0.00    -0.206 F 
ATOM     57  C   UNL     1       7.002  11.463  -0.597  1.00  0.00     0.022 A 
BRANCH  54  58
ATOM     58  S   UNL     1       9.770  11.546  -0.917  1.00  0.00     0.124 S 
ATOM     59  O   UNL     1      10.470  11.962   0.293  1.00  0.00    -0.237 OA
ATOM     60  O   UNL     1      10.318  10.383  -1.608  1.00  0.00    -0.237 OA
ATOM     61  O   UNL     1       9.324  12.632  -1.787  1.00  0.00    -0.744 OA
ENDBRANCH  54  58
ENDBRANCH  27  51
BRANCH  39  62
ATOM     62  C   UNL     1      10.358   9.085   7.526  1.00  0.00     0.023 A 
ATOM     63  C   UNL     1       9.975  10.373   7.939  1.00  0.00     0.031 A 
ATOM     64  C   UNL     1      11.692   8.694   7.744  1.00  0.00     0.131 A 
ATOM     65  C   UNL     1      10.931  11.249   8.477  1.00  0.00     0.055 A 
ATOM     66  C   UNL     1      12.619   9.542   8.350  1.00  0.00     0.041 A 
ATOM     67  F   UNL     1      12.120   7.479   7.365  1.00  0.00    -0.206 F 
ATOM     68  C   UNL     1      12.245  10.835   8.704  1.00  0.00     0.022 A 
BRANCH  65  69
ATOM     69  S   UNL     1      10.466  12.981   8.756  1.00  0.00     0.124 S 
ATOM     70  O   UNL     1      10.005  13.388   7.433  1.00  0.00    -0.237 OA
ATOM     71  O   UNL     1       9.435  12.865   9.783  1.00  0.00    -0.237 OA
ATOM     72  O   UNL     1      11.713  13.603   9.197  1.00  0.00    -0.744 OA
ENDBRANCH  65  69
ENDBRANCH  39  62
ENDBRANCH  13  14
ENDBRANCH   6   8
ENDBRANCH   3   4
ENDBRANCH   2   3
ENDBRANCH   1   2
BRANCH   1  73
ATOM     73  C   UNL     1       4.925  -3.678  -2.204  1.00  0.00     0.002 C 
BRANCH  73  74
ATOM     74  C   UNL     1       6.459  -3.640  -2.245  1.00  0.00     0.021 C 
BRANCH  74  75
ATOM     75  C   UNL     1       7.137  -4.791  -1.508  1.00  0.00     0.116 C 
BRANCH  75  76
ATOM     76  N   UNL     1       6.769  -6.077  -2.079  1.00  0.00    -0.356 N 
ATOM     77  C   UNL     1       7.562  -7.081  -2.542  1.00  0.00     0.224 C 
ATOM     78  H   UNL     1       5.801  -6.246  -2.140  1.00  0.00     0.163 HD
ATOM     79  O   UNL     1       7.034  -8.113  -2.950  1.00  0.00    -0.275 OA
BRANCH  77  80
ATOM     80  C   UNL     1       9.065  -6.875  -2.542  1.00  0.00     0.097 C 
ATOM     81  C   UNL     1       9.882  -8.184  -2.773  1.00  0.00     0.020 C 
ATOM     82  C   UNL     1       9.520  -5.998  -3.731  1.00  0.00     0.119 C 
ATOM     83  C   UNL     1       9.839  -8.301  -4.300  1.00  0.00     0.014 C 
ATOM     84  C   UNL     1      11.360  -7.804  -2.479  1.00  0.00     0.097 C 
ATOM     85  C   UNL     1      10.428  -6.929  -4.532  1.00  0.00     0.047 C 
ATOM     86  C   UNL     1      10.501  -4.956  -3.284  1.00  0.00     0.310 C 
ATOM     87  C   UNL     1      11.690  -6.869  -3.671  1.00  0.00     0.194 C 
ATOM     88  O   UNL     1      11.758  -5.497  -3.258  1.00  0.00    -0.461 OA
ATOM     89  O   UNL     1      10.224  -3.821  -2.945  1.00  0.00    -0.252 OA
BRANCH  84  90
ATOM     90  S   UNL     1      12.547  -9.168  -2.132  1.00  0.00    -0.119 SA
BRANCH  90  91
ATOM     91  C   UNL     1      12.463 -10.226  -3.554  1.00  0.00     0.008 A 
ATOM     92  C   UNL     1      11.845 -11.477  -3.445  1.00  0.00     0.015 A 
ATOM     93  C   UNL     1      13.062  -9.869  -4.766  1.00  0.00     0.015 A 
ATOM     94  C   UNL     1      11.779 -12.331  -4.548  1.00  0.00     0.001 A 
ATOM     95  C   UNL     1      12.974 -10.711  -5.876  1.00  0.00     0.001 A 
ATOM     96  C   UNL     1      12.329 -11.941  -5.767  1.00  0.00     0.000 A 
ENDBRANCH  90  91
ENDBRANCH  84  90
ENDBRANCH  77  80
ENDBRANCH  75  76
ENDBRANCH  74  75
ENDBRANCH  73  74
ENDBRANCH   1  73
TORSDOF 18
