REMARK SMILES COc1cc(Cl)c(C)cc1N1C(=O)C[C@H](Nc2cc(C(=O)NCCCCCCNC(=O)c3ccc(-c4c5nc(c(-c6cc(S(=O)(=O)[O-])ccc6F)c6ccc([nH]6)c(-c6cc(S(=O)(=O)[O-])ccc6F)c6nc(c(-c7cc(S(=O)(=O)[O-])ccc7F)c7ccc4[nH]7)C=C6)C=C5)cc3)ccc2C)C1=O
REMARK SMILES IDX 25 1 24 2 23 3 22 4 20 5 21 6 19 8 17 9 18 10 97 11 96 12
REMARK SMILES IDX 98 13 95 14 16 15 15 17 11 18 12 19 99 20 13 21 14 22 100 23
REMARK SMILES IDX 10 24 3 25 4 26 5 27 9 28 6 29 7 30 8 31 2 32 1 33 26 34
REMARK SMILES IDX 27 35 28 36 29 37 30 38 31 40 32 41 33 42 94 43 34 44 93 45
REMARK SMILES IDX 35 46 36 47 37 48 87 49 38 50 92 51 86 52 88 53 39 54 91 55
REMARK SMILES IDX 85 56 84 57 40 59 72 60 52 61 71 62 53 63 56 64 70 65 89 66
REMARK SMILES IDX 54 67 55 68 69 70 90 71 57 72 41 73 42 74 50 75 43 76 49 77
REMARK SMILES IDX 51 78 48 79 44 80 45 81 46 82 47 83 73 84 74 85 82 86 75 87
REMARK SMILES IDX 81 88 83 89 80 90 76 91 77 92 78 93 79 94 58 95 59 96 67 97
REMARK SMILES IDX 60 98 66 99 68 100 65 101 61 102 62 103 63 104 64 105
REMARK H PARENT 22 7 16 16 29 39 88 58 56 69
REMARK Flexibility Score: inf
ROOT
ATOM      1  C   UNL     1       1.104  -2.228   6.456  1.00  0.00     0.002 C 
ENDROOT
BRANCH   1   2
ATOM      2  C   UNL     1       2.293  -2.632   5.580  1.00  0.00     0.021 C 
BRANCH   2   3
ATOM      3  C   UNL     1       3.221  -1.537   5.066  1.00  0.00     0.116 C 
BRANCH   3   4
ATOM      4  N   UNL     1       3.837  -0.706   6.085  1.00  0.00    -0.352 N 
ATOM      5  C   UNL     1       5.029  -0.018   6.074  1.00  0.00     0.251 C 
ATOM      6  O   UNL     1       5.329   0.667   7.054  1.00  0.00    -0.269 OA
ATOM      7  H   UNL     1       3.318  -0.622   6.918  1.00  0.00     0.163 HD
BRANCH   5   8
ATOM      8  C   UNL     1       6.003  -0.103   4.946  1.00  0.00     0.041 A 
ATOM      9  C   UNL     1       6.595  -0.475   2.601  1.00  0.00     0.038 A 
ATOM     10  C   UNL     1       5.637  -0.263   3.604  1.00  0.00     0.039 A 
ATOM     11  C   UNL     1       7.961  -0.400   2.943  1.00  0.00    -0.028 A 
ATOM     12  C   UNL     1       8.331  -0.133   4.270  1.00  0.00     0.006 A 
ATOM     13  C   UNL     1       9.058  -0.515   1.917  1.00  0.00     0.046 C 
ATOM     14  C   UNL     1       7.362  -0.007   5.264  1.00  0.00     0.014 A 
BRANCH   9  15
ATOM     15  N   UNL     1       6.236  -0.852   1.313  1.00  0.00    -0.373 N 
ATOM     16  H   UNL     1       6.852  -1.439   0.817  1.00  0.00     0.161 HD
BRANCH  15  17
ATOM     17  C   UNL     1       5.005  -0.436   0.645  1.00  0.00     0.179 C 
ATOM     18  N   UNL     1       3.514  -1.744  -0.615  1.00  0.00    -0.245 N 
ATOM     19  C   UNL     1       4.305  -1.114  -1.538  1.00  0.00     0.236 C 
ATOM     20  C   UNL     1       3.899  -1.483   0.681  1.00  0.00     0.256 C 
ATOM     21  O   UNL     1       4.223  -1.159  -2.760  1.00  0.00    -0.274 OA
ATOM     22  C   UNL     1       5.302  -0.252  -0.835  1.00  0.00     0.136 C 
ATOM     23  O   UNL     1       3.490  -2.015   1.705  1.00  0.00    -0.272 OA
BRANCH  18  24
ATOM     24  C   UNL     1       2.415  -2.562  -0.970  1.00  0.00     0.094 A 
ATOM     25  C   UNL     1       1.155  -2.395  -0.377  1.00  0.00     0.144 A 
ATOM     26  C   UNL     1       0.079  -3.205  -0.747  1.00  0.00     0.069 A 
ATOM     27  C   UNL     1       0.244  -4.187  -1.724  1.00  0.00     0.047 A 
ATOM     28  C   UNL     1       2.559  -3.535  -1.973  1.00  0.00     0.035 A 
ATOM     29  Cl  UNL     1      -1.132  -5.138  -2.155  1.00  0.00    -0.084 Cl
ATOM     30  C   UNL     1       1.488  -4.371  -2.344  1.00  0.00    -0.030 A 
ATOM     31  C   UNL     1       1.705  -5.433  -3.386  1.00  0.00     0.046 C 
BRANCH  25  32
ATOM     32  O   UNL     1       0.897  -1.417   0.549  1.00  0.00    -0.495 OA
ATOM     33  C   UNL     1       0.715  -0.146  -0.075  1.00  0.00     0.278 C 
ENDBRANCH  25  32
ENDBRANCH  18  24
ENDBRANCH  15  17
ENDBRANCH   9  15
ENDBRANCH   5   8
ENDBRANCH   3   4
ENDBRANCH   2   3
ENDBRANCH   1   2
BRANCH   1  34
ATOM     34  C   UNL     1       0.196  -1.087   5.982  1.00  0.00     0.002 C 
BRANCH  34  35
ATOM     35  C   UNL     1      -0.293  -1.129   4.536  1.00  0.00     0.021 C 
BRANCH  35  36
ATOM     36  C   UNL     1      -1.106  -2.362   4.157  1.00  0.00     0.116 C 
BRANCH  36  37
ATOM     37  N   UNL     1      -2.536  -2.104   3.993  1.00  0.00    -0.352 N 
ATOM     38  C   UNL     1      -3.510  -2.952   3.491  1.00  0.00     0.251 C 
ATOM     39  H   UNL     1      -2.846  -1.214   4.276  1.00  0.00     0.163 HD
ATOM     40  O   UNL     1      -4.676  -2.605   3.374  1.00  0.00    -0.269 OA
BRANCH  38  41
ATOM     41  C   UNL     1      -3.128  -4.354   3.203  1.00  0.00     0.039 A 
ATOM     42  C   UNL     1      -3.765  -5.358   3.938  1.00  0.00     0.014 A 
ATOM     43  C   UNL     1      -2.001  -4.638   2.437  1.00  0.00     0.014 A 
ATOM     44  C   UNL     1      -3.134  -6.588   4.094  1.00  0.00     0.010 A 
ATOM     45  C   UNL     1      -1.330  -5.825   2.660  1.00  0.00     0.010 A 
ATOM     46  C   UNL     1      -1.863  -6.769   3.545  1.00  0.00    -0.014 A 
BRANCH  46  47
ATOM     47  C   UNL     1      -0.969  -7.841   3.973  1.00  0.00     0.031 A 
ATOM     48  C   UNL     1      -0.710  -9.004   3.104  1.00  0.00     0.074 A 
ATOM     49  C   UNL     1      -0.360  -7.763   5.176  1.00  0.00     0.049 A 
ATOM     50  N   UNL     1      -0.318 -10.159   3.526  1.00  0.00    -0.248 NA
ATOM     51  C   UNL     1      -0.940  -8.964   1.667  1.00  0.00     0.031 C 
ATOM     52  C   UNL     1       0.724  -8.599   5.682  1.00  0.00     0.029 A 
ATOM     53  N   UNL     1      -0.816  -7.068   6.295  1.00  0.00    -0.354 N 
ATOM     54  C   UNL     1       0.022 -10.916   2.429  1.00  0.00     0.074 A 
ATOM     55  C   UNL     1      -0.455 -10.153   1.298  1.00  0.00     0.031 C 
ATOM     56  C   UNL     1       0.688  -8.586   7.024  1.00  0.00     0.029 A 
ATOM     57  C   UNL     1      -0.500  -7.851   7.418  1.00  0.00     0.049 A 
ATOM     58  H   UNL     1      -1.273  -6.196   6.297  1.00  0.00     0.167 HD
ATOM     59  C   UNL     1       0.788 -12.034   2.599  1.00  0.00     0.034 A 
ATOM     60  C   UNL     1      -1.475  -8.316   8.250  1.00  0.00     0.034 A 
ATOM     61  C   UNL     1       1.008 -12.329   4.017  1.00  0.00     0.049 A 
ATOM     62  C   UNL     1      -1.509  -9.824   8.365  1.00  0.00     0.074 A 
ATOM     63  C   UNL     1       2.079 -12.131   4.874  1.00  0.00     0.029 A 
ATOM     64  N   UNL     1      -0.074 -12.677   4.822  1.00  0.00    -0.354 N 
ATOM     65  N   UNL     1      -0.927 -10.643   7.533  1.00  0.00    -0.248 NA
ATOM     66  C   UNL     1      -2.219 -10.523   9.429  1.00  0.00     0.031 C 
ATOM     67  C   UNL     1       1.619 -12.314   6.206  1.00  0.00     0.029 A 
ATOM     68  C   UNL     1       0.278 -12.654   6.159  1.00  0.00     0.049 A 
ATOM     69  H   UNL     1      -0.970 -12.908   4.484  1.00  0.00     0.167 HD
ATOM     70  C   UNL     1      -1.169 -11.942   7.914  1.00  0.00     0.074 A 
ATOM     71  C   UNL     1      -1.964 -11.807   9.123  1.00  0.00     0.031 C 
ATOM     72  C   UNL     1      -0.694 -13.006   7.191  1.00  0.00     0.034 A 
BRANCH  59  73
ATOM     73  C   UNL     1       1.593 -12.676   1.482  1.00  0.00     0.023 A 
ATOM     74  C   UNL     1       2.807 -13.331   1.787  1.00  0.00     0.031 A 
ATOM     75  C   UNL     1       1.271 -12.630   0.112  1.00  0.00     0.131 A 
ATOM     76  C   UNL     1       3.678 -13.781   0.775  1.00  0.00     0.055 A 
ATOM     77  C   UNL     1       2.164 -13.015  -0.898  1.00  0.00     0.041 A 
ATOM     78  F   UNL     1       0.053 -12.272  -0.314  1.00  0.00    -0.206 F 
ATOM     79  C   UNL     1       3.384 -13.579  -0.570  1.00  0.00     0.022 A 
BRANCH  76  80
ATOM     80  S   UNL     1       5.208 -14.643   1.234  1.00  0.00     0.124 S 
ATOM     81  O   UNL     1       5.891 -13.650   2.055  1.00  0.00    -0.237 OA
ATOM     82  O   UNL     1       4.701 -15.821   1.929  1.00  0.00    -0.237 OA
ATOM     83  O   UNL     1       5.843 -14.917  -0.055  1.00  0.00    -0.744 OA
ENDBRANCH  76  80
ENDBRANCH  59  73
BRANCH  60  84
ATOM     84  C   UNL     1      -2.650  -7.403   8.354  1.00  0.00     0.023 A 
ATOM     85  C   UNL     1      -2.401  -6.077   8.775  1.00  0.00     0.031 A 
ATOM     86  C   UNL     1      -3.863  -7.668   7.707  1.00  0.00     0.131 A 
ATOM     87  C   UNL     1      -3.264  -5.040   8.397  1.00  0.00     0.055 A 
ATOM     88  C   UNL     1      -4.759  -6.637   7.393  1.00  0.00     0.041 A 
ATOM     89  F   UNL     1      -4.145  -8.900   7.258  1.00  0.00    -0.206 F 
ATOM     90  C   UNL     1      -4.440  -5.312   7.696  1.00  0.00     0.022 A 
BRANCH  87  91
ATOM     91  S   UNL     1      -2.716  -3.315   8.584  1.00  0.00     0.124 S 
ATOM     92  O   UNL     1      -3.427  -2.898   9.787  1.00  0.00    -0.237 OA
ATOM     93  O   UNL     1      -1.266  -3.436   8.716  1.00  0.00    -0.237 OA
ATOM     94  O   UNL     1      -3.155  -2.689   7.338  1.00  0.00    -0.744 OA
ENDBRANCH  87  91
ENDBRANCH  60  84
BRANCH  72  95
ATOM     95  C   UNL     1      -1.011 -14.479   7.417  1.00  0.00     0.023 A 
ATOM     96  C   UNL     1      -2.011 -14.949   8.281  1.00  0.00     0.031 A 
ATOM     97  C   UNL     1      -0.323 -15.490   6.694  1.00  0.00     0.131 A 
ATOM     98  C   UNL     1      -2.243 -16.328   8.464  1.00  0.00     0.055 A 
ATOM     99  C   UNL     1      -0.599 -16.857   6.825  1.00  0.00     0.041 A 
ATOM    100  F   UNL     1       0.647 -15.200   5.815  1.00  0.00    -0.206 F 
ATOM    101  C   UNL     1      -1.556 -17.287   7.726  1.00  0.00     0.022 A 
BRANCH  98 102
ATOM    102  S   UNL     1      -3.441 -16.842   9.725  1.00  0.00     0.124 S 
ATOM    103  O   UNL     1      -2.802 -16.376  10.953  1.00  0.00    -0.237 OA
ATOM    104  O   UNL     1      -4.645 -16.121   9.325  1.00  0.00    -0.237 OA
ATOM    105  O   UNL     1      -3.506 -18.294   9.571  1.00  0.00    -0.744 OA
ENDBRANCH  98 102
ENDBRANCH  72  95
ENDBRANCH  46  47
ENDBRANCH  38  41
ENDBRANCH  36  37
ENDBRANCH  35  36
ENDBRANCH  34  35
ENDBRANCH   1  34
TORSDOF 20
