REMARK SMILES C[C@@H]1Cc2ccccc2N1S(=O)(=O)c1c[nH]c(C(=O)NCCCCCCNC(=O)c2ccc(-c3c4nc(c(-c5cc(S(=O)(=O)[O-])ccc5F)c5ccc([nH]5)c(-c5cc(S(=O)(=O)[O-])ccc5F)c5nc(c(-c6cc(S(=O)(=O)[O-])ccc6F)c6ccc3[nH]6)C=C5)C=C4)cc2)c1
REMARK SMILES IDX 24 1 23 2 22 3 21 4 20 5 18 6 19 7 17 9 14 10 15 11 93 12
REMARK SMILES IDX 16 13 11 15 12 16 13 17 10 18 1 19 2 20 3 21 4 22 9 23 5 24
REMARK SMILES IDX 8 25 6 26 7 27 25 28 26 29 27 30 28 31 29 33 30 34 31 35
REMARK SMILES IDX 92 36 32 37 91 38 33 39 34 40 35 41 85 42 36 43 90 44 84 45
REMARK SMILES IDX 86 46 37 47 89 48 83 49 82 50 38 52 70 53 50 54 69 55 51 56
REMARK SMILES IDX 54 57 68 58 87 59 52 60 53 61 67 63 88 64 55 65 39 66 40 67
REMARK SMILES IDX 48 68 41 69 47 70 49 71 46 72 42 73 43 74 44 75 45 76 71 77
REMARK SMILES IDX 72 78 80 79 73 80 79 81 81 82 78 83 74 84 75 85 76 86 77 87
REMARK SMILES IDX 56 88 57 89 65 90 58 91 64 92 66 93 63 94 59 95 60 96 61 97
REMARK SMILES IDX 62 98
REMARK H PARENT 20 8 16 14 27 32 86 51 54 62
REMARK Flexibility Score: inf
ROOT
ATOM      1  C   UNL     1      -3.229   7.196  -7.858  1.00  0.00     0.002 C 
ENDROOT
BRANCH   1   2
ATOM      2  C   UNL     1      -3.847   5.812  -7.622  1.00  0.00     0.002 C 
BRANCH   2   3
ATOM      3  C   UNL     1      -3.212   5.003  -6.481  1.00  0.00     0.021 C 
BRANCH   3   4
ATOM      4  C   UNL     1      -3.394   5.648  -5.107  1.00  0.00     0.116 C 
BRANCH   4   5
ATOM      5  N   UNL     1      -4.707   5.343  -4.578  1.00  0.00    -0.351 N 
ATOM      6  C   UNL     1      -5.118   4.619  -3.498  1.00  0.00     0.267 C 
ATOM      7  O   UNL     1      -6.331   4.604  -3.274  1.00  0.00    -0.268 OA
ATOM      8  H   UNL     1      -5.446   5.733  -5.099  1.00  0.00     0.163 HD
BRANCH   6   9
ATOM      9  C   UNL     1      -4.207   3.908  -2.624  1.00  0.00     0.105 A 
ATOM     10  C   UNL     1      -2.598   2.750  -1.502  1.00  0.00     0.106 A 
ATOM     11  C   UNL     1      -3.728   2.786  -0.714  1.00  0.00     0.105 A 
ATOM     12  C   UNL     1      -2.892   3.466  -2.698  1.00  0.00     0.055 A 
ATOM     13  N   UNL     1      -4.685   3.473  -1.398  1.00  0.00    -0.356 N 
ATOM     14  H   UNL     1      -5.596   3.638  -1.065  1.00  0.00     0.166 HD
BRANCH  10  15
ATOM     15  S   UNL     1      -1.126   1.919  -1.132  1.00  0.00     0.266 S 
ATOM     16  O   UNL     1      -1.312   1.480   0.243  1.00  0.00    -0.201 OA
ATOM     17  O   UNL     1      -0.094   2.851  -1.481  1.00  0.00    -0.201 OA
BRANCH  15  18
ATOM     18  N   UNL     1      -0.925   0.520  -2.107  1.00  0.00    -0.263 N 
ATOM     19  C   UNL     1       1.493   0.000  -2.447  1.00  0.00     0.032 C 
ATOM     20  C   UNL     1       0.249  -0.325  -1.635  1.00  0.00     0.101 C 
ATOM     21  C   UNL     1      -0.181  -1.801  -1.780  1.00  0.00     0.063 C 
ATOM     22  C   UNL     1      -1.641  -1.700  -2.071  1.00  0.00    -0.021 A 
ATOM     23  C   UNL     1      -2.032  -0.380  -2.264  1.00  0.00     0.055 A 
ATOM     24  C   UNL     1      -2.536  -2.750  -2.228  1.00  0.00     0.006 A 
ATOM     25  C   UNL     1      -3.306  -0.099  -2.730  1.00  0.00     0.027 A 
ATOM     26  C   UNL     1      -3.843  -2.461  -2.622  1.00  0.00     0.000 A 
ATOM     27  C   UNL     1      -4.222  -1.141  -2.886  1.00  0.00     0.002 A 
ENDBRANCH  15  18
ENDBRANCH  10  15
ENDBRANCH   6   9
ENDBRANCH   4   5
ENDBRANCH   3   4
ENDBRANCH   2   3
ENDBRANCH   1   2
BRANCH   1  28
ATOM     28  C   UNL     1      -1.705   7.212  -8.001  1.00  0.00     0.021 C 
BRANCH  28  29
ATOM     29  C   UNL     1      -1.177   6.358  -9.154  1.00  0.00     0.116 C 
BRANCH  29  30
ATOM     30  N   UNL     1      -1.514   6.853 -10.475  1.00  0.00    -0.352 N 
ATOM     31  C   UNL     1      -1.144   7.967 -11.189  1.00  0.00     0.251 C 
ATOM     32  H   UNL     1      -2.139   6.268 -10.963  1.00  0.00     0.163 HD
ATOM     33  O   UNL     1      -1.612   8.080 -12.324  1.00  0.00    -0.269 OA
BRANCH  31  34
ATOM     34  C   UNL     1      -0.281   9.048 -10.638  1.00  0.00     0.039 A 
ATOM     35  C   UNL     1       0.667   8.842  -9.635  1.00  0.00     0.014 A 
ATOM     36  C   UNL     1      -0.427  10.339 -11.177  1.00  0.00     0.014 A 
ATOM     37  C   UNL     1       1.365   9.912  -9.094  1.00  0.00     0.010 A 
ATOM     38  C   UNL     1       0.313  11.413 -10.674  1.00  0.00     0.010 A 
ATOM     39  C   UNL     1       1.193  11.199  -9.612  1.00  0.00    -0.014 A 
BRANCH  39  40
ATOM     40  C   UNL     1       2.094  12.245  -9.079  1.00  0.00     0.031 A 
ATOM     41  C   UNL     1       3.518  12.093  -9.620  1.00  0.00     0.074 A 
ATOM     42  C   UNL     1       1.601  13.053  -8.096  1.00  0.00     0.049 A 
ATOM     43  N   UNL     1       4.651  12.199  -8.991  1.00  0.00    -0.248 NA
ATOM     44  C   UNL     1       3.713  11.603 -11.007  1.00  0.00     0.031 C 
ATOM     45  C   UNL     1       0.188  13.080  -7.663  1.00  0.00     0.029 A 
ATOM     46  N   UNL     1       2.169  13.980  -7.244  1.00  0.00    -0.354 N 
ATOM     47  C   UNL     1       5.682  11.943  -9.927  1.00  0.00     0.074 A 
ATOM     48  C   UNL     1       5.037  11.475 -11.118  1.00  0.00     0.031 C 
ATOM     49  C   UNL     1       0.029  13.892  -6.597  1.00  0.00     0.029 A 
ATOM     50  C   UNL     1       1.305  14.490  -6.250  1.00  0.00     0.049 A 
ATOM     51  H   UNL     1       3.108  14.265  -7.324  1.00  0.00     0.167 HD
ATOM     52  C   UNL     1       6.994  12.254  -9.694  1.00  0.00     0.034 A 
ATOM     53  C   UNL     1       1.593  15.290  -5.179  1.00  0.00     0.034 A 
ATOM     54  C   UNL     1       7.110  12.879  -8.419  1.00  0.00     0.049 A 
ATOM     55  C   UNL     1       3.022  15.653  -5.277  1.00  0.00     0.074 A 
ATOM     56  C   UNL     1       7.088  12.428  -7.125  1.00  0.00     0.029 A 
ATOM     57  N   UNL     1       6.972  14.244  -8.419  1.00  0.00    -0.354 N 
ATOM     58  N   UNL     1       3.537  16.458  -6.162  1.00  0.00    -0.248 NA
ATOM     59  C   UNL     1       3.986  14.986  -4.389  1.00  0.00     0.031 C 
ATOM     60  C   UNL     1       6.527  13.500  -6.396  1.00  0.00     0.029 A 
ATOM     61  C   UNL     1       6.328  14.584  -7.258  1.00  0.00     0.049 A 
ATOM     62  H   UNL     1       7.278  14.863  -9.121  1.00  0.00     0.167 HD
ATOM     63  C   UNL     1       4.869  16.111  -6.133  1.00  0.00     0.074 A 
ATOM     64  C   UNL     1       5.116  15.518  -4.841  1.00  0.00     0.031 C 
ATOM     65  C   UNL     1       5.502  15.769  -7.285  1.00  0.00     0.034 A 
BRANCH  52  66
ATOM     66  C   UNL     1       8.215  12.295 -10.589  1.00  0.00     0.023 A 
ATOM     67  C   UNL     1       8.186  12.352 -11.990  1.00  0.00     0.031 A 
ATOM     68  C   UNL     1       9.485  12.511  -9.980  1.00  0.00     0.131 A 
ATOM     69  C   UNL     1       9.360  12.667 -12.708  1.00  0.00     0.055 A 
ATOM     70  C   UNL     1      10.623  12.892 -10.690  1.00  0.00     0.041 A 
ATOM     71  F   UNL     1       9.656  12.394  -8.651  1.00  0.00    -0.206 F 
ATOM     72  C   UNL     1      10.560  12.982 -12.066  1.00  0.00     0.022 A 
BRANCH  69  73
ATOM     73  S   UNL     1       9.403  12.644 -14.522  1.00  0.00     0.124 S 
ATOM     74  O   UNL     1       9.578  14.056 -14.843  1.00  0.00    -0.237 OA
ATOM     75  O   UNL     1      10.571  11.801 -14.783  1.00  0.00    -0.237 OA
ATOM     76  O   UNL     1       8.126  12.046 -14.891  1.00  0.00    -0.744 OA
ENDBRANCH  69  73
ENDBRANCH  52  66
BRANCH  53  77
ATOM     77  C   UNL     1       0.842  15.717  -3.941  1.00  0.00     0.023 A 
ATOM     78  C   UNL     1       1.567  15.914  -2.739  1.00  0.00     0.031 A 
ATOM     79  C   UNL     1      -0.533  15.954  -3.835  1.00  0.00     0.131 A 
ATOM     80  C   UNL     1       0.962  16.173  -1.503  1.00  0.00     0.055 A 
ATOM     81  C   UNL     1      -1.147  16.282  -2.605  1.00  0.00     0.041 A 
ATOM     82  F   UNL     1      -1.330  15.911  -4.911  1.00  0.00    -0.206 F 
ATOM     83  C   UNL     1      -0.405  16.370  -1.426  1.00  0.00     0.022 A 
BRANCH  80  84
ATOM     84  S   UNL     1       1.983  16.201   0.003  1.00  0.00     0.124 S 
ATOM     85  O   UNL     1       1.396  17.294   0.773  1.00  0.00    -0.237 OA
ATOM     86  O   UNL     1       1.754  14.860   0.534  1.00  0.00    -0.237 OA
ATOM     87  O   UNL     1       3.331  16.449  -0.499  1.00  0.00    -0.744 OA
ENDBRANCH  80  84
ENDBRANCH  53  77
BRANCH  65  88
ATOM     88  C   UNL     1       4.969  16.424  -8.543  1.00  0.00     0.023 A 
ATOM     89  C   UNL     1       4.300  15.728  -9.576  1.00  0.00     0.031 A 
ATOM     90  C   UNL     1       5.108  17.814  -8.688  1.00  0.00     0.131 A 
ATOM     91  C   UNL     1       3.801  16.418 -10.698  1.00  0.00     0.055 A 
ATOM     92  C   UNL     1       4.610  18.498  -9.800  1.00  0.00     0.041 A 
ATOM     93  F   UNL     1       5.748  18.532  -7.750  1.00  0.00    -0.206 F 
ATOM     94  C   UNL     1       3.955  17.802 -10.809  1.00  0.00     0.022 A 
BRANCH  91  95
ATOM     95  S   UNL     1       2.888  15.579 -12.034  1.00  0.00     0.124 S 
ATOM     96  O   UNL     1       1.819  16.528 -12.346  1.00  0.00    -0.237 OA
ATOM     97  O   UNL     1       3.914  15.445 -13.060  1.00  0.00    -0.237 OA
ATOM     98  O   UNL     1       2.426  14.332 -11.435  1.00  0.00    -0.744 OA
ENDBRANCH  91  95
ENDBRANCH  65  88
ENDBRANCH  39  40
ENDBRANCH  31  34
ENDBRANCH  29  30
ENDBRANCH  28  29
ENDBRANCH   1  28
TORSDOF 18
