REMARK SMILES Cc1cc(N2CCCC2)nc2sc3c(=O)n(CC(=O)NCCCCCCNC(=O)c4ccc(-c5c6nc(c(-c7cc(S(=O)(=O)[O-])ccc7F)c7ccc([nH]7)c(-c7cc(S(=O)(=O)[O-])ccc7F)c7nc(c(-c8cc(S(=O)(=O)[O-])ccc8F)c8ccc5[nH]8)C=C7)C=C6)cc4)cnc3c12
REMARK SMILES IDX 24 1 23 2 22 3 21 4 20 5 18 6 19 7 17 9 16 10 1 11 2 12 3 13
REMARK SMILES IDX 96 14 4 15 11 16 95 17 10 18 12 19 13 20 94 21 14 22 93 23
REMARK SMILES IDX 15 24 5 25 6 26 9 27 7 28 8 29 25 30 26 31 27 32 28 33 29 35
REMARK SMILES IDX 30 36 31 37 92 38 32 39 91 40 33 41 34 42 35 43 85 44 36 45
REMARK SMILES IDX 90 46 84 47 86 48 37 49 89 50 83 51 82 52 38 54 70 55 50 56
REMARK SMILES IDX 69 57 51 58 54 59 68 60 87 61 52 62 53 63 67 65 88 66 55 67
REMARK SMILES IDX 39 68 40 69 48 70 41 71 47 72 49 73 46 74 42 75 43 76 44 77
REMARK SMILES IDX 45 78 71 79 72 80 80 81 73 82 79 83 81 84 78 85 74 86 75 87
REMARK SMILES IDX 76 88 77 89 56 90 57 91 65 92 58 93 64 94 66 95 63 96 59 97
REMARK SMILES IDX 60 98 61 99 62 100
REMARK H PARENT 20 8 27 34 86 53 54 64
REMARK Flexibility Score: inf
ROOT
ATOM      1  C   UNL     1      -7.181  -2.473   2.770  1.00  0.00     0.002 C 
ENDROOT
BRANCH   1   2
ATOM      2  C   UNL     1      -5.858  -2.518   1.996  1.00  0.00     0.002 C 
BRANCH   2   3
ATOM      3  C   UNL     1      -4.590  -2.433   2.858  1.00  0.00     0.021 C 
BRANCH   3   4
ATOM      4  C   UNL     1      -4.430  -3.583   3.855  1.00  0.00     0.116 C 
BRANCH   4   5
ATOM      5  N   UNL     1      -4.008  -4.808   3.201  1.00  0.00    -0.355 N 
ATOM      6  C   UNL     1      -2.811  -5.454   3.252  1.00  0.00     0.240 C 
ATOM      7  O   UNL     1      -2.706  -6.532   2.660  1.00  0.00    -0.273 OA
ATOM      8  H   UNL     1      -4.691  -5.237   2.636  1.00  0.00     0.163 HD
BRANCH   6   9
ATOM      9  C   UNL     1      -1.639  -4.914   4.076  1.00  0.00     0.226 C 
BRANCH   9  10
ATOM     10  N   UNL     1      -1.203  -3.593   3.653  1.00  0.00    -0.288 N 
ATOM     11  C   UNL     1       0.841  -0.086  -0.169  1.00  0.00     0.045 C 
ATOM     12  C   UNL     1       0.509   0.671   1.084  1.00  0.00    -0.035 A 
ATOM     13  C   UNL     1       0.721   2.059   1.092  1.00  0.00     0.051 A 
ATOM     14  C   UNL     1       0.047   0.101   2.291  1.00  0.00     0.041 A 
ATOM     15  C   UNL     1       0.534   2.830   2.239  1.00  0.00     0.130 A 
ATOM     16  C   UNL     1      -0.112   0.966   3.375  1.00  0.00     0.128 A 
ATOM     17  C   UNL     1      -0.301  -1.225   2.690  1.00  0.00     0.098 A 
ATOM     18  N   UNL     1       0.155   2.285   3.404  1.00  0.00    -0.220 NA
ATOM     19  S   UNL     1      -0.706   0.178   4.777  1.00  0.00    -0.108 S 
ATOM     20  C   UNL     1      -0.749  -1.312   3.979  1.00  0.00     0.121 A 
ATOM     21  N   UNL     1      -0.215  -2.352   1.857  1.00  0.00    -0.236 NA
ATOM     22  C   UNL     1      -1.200  -2.539   4.561  1.00  0.00     0.271 A 
ATOM     23  C   UNL     1      -0.665  -3.443   2.386  1.00  0.00     0.203 A 
ATOM     24  O   UNL     1      -1.544  -2.680   5.740  1.00  0.00    -0.268 OA
BRANCH  15  25
ATOM     25  N   UNL     1       0.823   4.174   2.164  1.00  0.00    -0.357 N 
ATOM     26  C   UNL     1       0.111   5.032   1.229  1.00  0.00     0.118 C 
ATOM     27  C   UNL     1       1.168   4.950   3.349  1.00  0.00     0.118 C 
ATOM     28  C   UNL     1       0.907   6.322   1.343  1.00  0.00     0.023 C 
ATOM     29  C   UNL     1       1.276   6.389   2.823  1.00  0.00     0.023 C 
ENDBRANCH  15  25
ENDBRANCH   9  10
ENDBRANCH   6   9
ENDBRANCH   4   5
ENDBRANCH   3   4
ENDBRANCH   2   3
ENDBRANCH   1   2
BRANCH   1  30
ATOM     30  C   UNL     1      -7.445  -1.182   3.568  1.00  0.00     0.021 C 
BRANCH  30  31
ATOM     31  C   UNL     1      -7.748   0.065   2.720  1.00  0.00     0.116 C 
BRANCH  31  32
ATOM     32  N   UNL     1      -8.962  -0.140   1.947  1.00  0.00    -0.352 N 
ATOM     33  C   UNL     1     -10.154   0.531   1.968  1.00  0.00     0.251 C 
ATOM     34  H   UNL     1      -8.918  -0.883   1.302  1.00  0.00     0.163 HD
ATOM     35  O   UNL     1     -11.169  -0.085   1.641  1.00  0.00    -0.269 OA
BRANCH  33  36
ATOM     36  C   UNL     1     -10.255   1.964   2.326  1.00  0.00     0.039 A 
ATOM     37  C   UNL     1     -11.443   2.404   2.924  1.00  0.00     0.014 A 
ATOM     38  C   UNL     1      -9.299   2.900   1.924  1.00  0.00     0.014 A 
ATOM     39  C   UNL     1     -11.667   3.766   3.133  1.00  0.00     0.010 A 
ATOM     40  C   UNL     1      -9.528   4.266   2.131  1.00  0.00     0.010 A 
ATOM     41  C   UNL     1     -10.710   4.713   2.739  1.00  0.00    -0.014 A 
BRANCH  41  42
ATOM     42  C   UNL     1     -10.952   6.134   3.079  1.00  0.00     0.031 A 
ATOM     43  C   UNL     1      -9.763   6.915   3.540  1.00  0.00     0.074 A 
ATOM     44  C   UNL     1     -11.992   6.830   2.572  1.00  0.00     0.049 A 
ATOM     45  N   UNL     1      -8.887   7.413   2.716  1.00  0.00    -0.248 NA
ATOM     46  C   UNL     1      -9.357   6.978   4.942  1.00  0.00     0.031 C 
ATOM     47  C   UNL     1     -12.530   6.610   1.222  1.00  0.00     0.029 A 
ATOM     48  N   UNL     1     -12.600   7.992   2.994  1.00  0.00    -0.354 N 
ATOM     49  C   UNL     1      -7.798   7.818   3.467  1.00  0.00     0.074 A 
ATOM     50  C   UNL     1      -8.138   7.532   4.844  1.00  0.00     0.031 C 
ATOM     51  C   UNL     1     -13.247   7.695   0.862  1.00  0.00     0.029 A 
ATOM     52  C   UNL     1     -13.357   8.607   1.998  1.00  0.00     0.049 A 
ATOM     53  H   UNL     1     -12.508   8.351   3.906  1.00  0.00     0.167 HD
ATOM     54  C   UNL     1      -6.682   8.367   2.917  1.00  0.00     0.034 A 
ATOM     55  C   UNL     1     -13.569   9.950   1.901  1.00  0.00     0.034 A 
ATOM     56  C   UNL     1      -6.732   8.570   1.498  1.00  0.00     0.049 A 
ATOM     57  C   UNL     1     -12.193  10.421   1.486  1.00  0.00     0.074 A 
ATOM     58  C   UNL     1      -6.329   7.912   0.358  1.00  0.00     0.029 A 
ATOM     59  N   UNL     1      -7.409   9.676   1.037  1.00  0.00    -0.354 N 
ATOM     60  N   UNL     1     -11.671  10.331   0.289  1.00  0.00    -0.248 NA
ATOM     61  C   UNL     1     -11.226  10.681   2.553  1.00  0.00     0.031 C 
ATOM     62  C   UNL     1      -7.172   8.408  -0.689  1.00  0.00     0.029 A 
ATOM     63  C   UNL     1      -8.072   9.301  -0.105  1.00  0.00     0.049 A 
ATOM     64  H   UNL     1      -7.417  10.570   1.449  1.00  0.00     0.167 HD
ATOM     65  C   UNL     1     -10.290  10.229   0.493  1.00  0.00     0.074 A 
ATOM     66  C   UNL     1     -10.088  10.471   1.907  1.00  0.00     0.031 C 
ATOM     67  C   UNL     1      -9.403   9.773  -0.441  1.00  0.00     0.034 A 
BRANCH  54  68
ATOM     68  C   UNL     1      -5.567   8.943   3.701  1.00  0.00     0.023 A 
ATOM     69  C   UNL     1      -4.461   8.193   4.126  1.00  0.00     0.031 A 
ATOM     70  C   UNL     1      -5.543  10.340   3.868  1.00  0.00     0.131 A 
ATOM     71  C   UNL     1      -3.360   8.864   4.685  1.00  0.00     0.055 A 
ATOM     72  C   UNL     1      -4.444  10.999   4.408  1.00  0.00     0.041 A 
ATOM     73  F   UNL     1      -6.583  11.085   3.454  1.00  0.00    -0.206 F 
ATOM     74  C   UNL     1      -3.341  10.259   4.811  1.00  0.00     0.022 A 
BRANCH  71  75
ATOM     75  S   UNL     1      -1.865   7.971   5.192  1.00  0.00     0.124 S 
ATOM     76  O   UNL     1      -0.803   8.775   4.591  1.00  0.00    -0.237 OA
ATOM     77  O   UNL     1      -1.951   8.042   6.648  1.00  0.00    -0.237 OA
ATOM     78  O   UNL     1      -2.040   6.645   4.612  1.00  0.00    -0.744 OA
ENDBRANCH  71  75
ENDBRANCH  54  68
BRANCH  55  79
ATOM     79  C   UNL     1     -14.346  10.544   3.043  1.00  0.00     0.023 A 
ATOM     80  C   UNL     1     -13.916  11.604   3.854  1.00  0.00     0.031 A 
ATOM     81  C   UNL     1     -15.599   9.972   3.366  1.00  0.00     0.131 A 
ATOM     82  C   UNL     1     -14.614  11.925   5.033  1.00  0.00     0.055 A 
ATOM     83  C   UNL     1     -16.325  10.336   4.505  1.00  0.00     0.041 A 
ATOM     84  F   UNL     1     -16.140   9.029   2.577  1.00  0.00    -0.206 F 
ATOM     85  C   UNL     1     -15.813  11.295   5.366  1.00  0.00     0.022 A 
BRANCH  82  86
ATOM     86  S   UNL     1     -13.929  13.131   6.205  1.00  0.00     0.124 S 
ATOM     87  O   UNL     1     -15.114  13.877   6.622  1.00  0.00    -0.237 OA
ATOM     88  O   UNL     1     -13.350  12.251   7.214  1.00  0.00    -0.237 OA
ATOM     89  O   UNL     1     -12.974  13.880   5.395  1.00  0.00    -0.744 OA
ENDBRANCH  82  86
ENDBRANCH  55  79
BRANCH  67  90
ATOM     90  C   UNL     1      -9.924   9.557  -1.829  1.00  0.00     0.023 A 
ATOM     91  C   UNL     1      -9.920   8.277  -2.416  1.00  0.00     0.031 A 
ATOM     92  C   UNL     1     -10.305  10.650  -2.622  1.00  0.00     0.131 A 
ATOM     93  C   UNL     1     -10.211   8.131  -3.779  1.00  0.00     0.055 A 
ATOM     94  C   UNL     1     -10.653  10.492  -3.965  1.00  0.00     0.041 A 
ATOM     95  F   UNL     1     -10.289  11.897  -2.122  1.00  0.00    -0.206 F 
ATOM     96  C   UNL     1     -10.591   9.231  -4.553  1.00  0.00     0.022 A 
BRANCH  93  97
ATOM     97  S   UNL     1     -10.033   6.527  -4.606  1.00  0.00     0.124 S 
ATOM     98  O   UNL     1     -11.258   6.440  -5.400  1.00  0.00    -0.237 OA
ATOM     99  O   UNL     1      -8.807   6.721  -5.377  1.00  0.00    -0.237 OA
ATOM    100  O   UNL     1      -9.937   5.569  -3.509  1.00  0.00    -0.744 OA
ENDBRANCH  93  97
ENDBRANCH  67  90
ENDBRANCH  41  42
ENDBRANCH  33  36
ENDBRANCH  31  32
ENDBRANCH  30  31
ENDBRANCH   1  30
TORSDOF 18
