REMARK SMILES Cc1ccnc(N[C@@H]2CCCCC[C@H]2C(=O)NCCCCCCNC(=O)c2ccc(-c3c4nc(c(-c5cc(S(=O)(=O)[O-])ccc5F)c5ccc([nH]5)c(-c5cc(S(=O)(=O)[O-])ccc5F)c5nc(c(-c6cc(S(=O)(=O)[O-])ccc6F)c6ccc3[nH]6)C=C5)C=C4)cc2)n1
REMARK SMILES IDX 20 1 19 2 18 3 17 4 15 5 16 6 14 8 8 9 7 10 6 12 1 13 2 14
REMARK SMILES IDX 3 15 90 16 4 17 5 18 9 19 10 20 11 21 13 23 12 24 21 26
REMARK SMILES IDX 22 27 23 28 24 29 25 30 26 32 27 33 28 34 89 35 29 36 88 37
REMARK SMILES IDX 30 38 31 39 32 40 82 41 33 42 87 43 81 44 83 45 34 46 86 47
REMARK SMILES IDX 80 48 79 49 35 51 67 52 47 53 66 54 48 55 51 56 65 57 84 58
REMARK SMILES IDX 49 59 50 60 64 62 85 63 52 64 36 65 37 66 45 67 38 68 44 69
REMARK SMILES IDX 46 70 43 71 39 72 40 73 41 74 42 75 68 76 69 77 77 78 70 79
REMARK SMILES IDX 76 80 78 81 75 82 71 83 72 84 73 85 74 86 53 87 54 88 62 89
REMARK SMILES IDX 55 90 61 91 63 92 60 93 56 94 57 95 58 96 59 97
REMARK H PARENT 17 7 7 11 24 31 83 50 51 61
REMARK Flexibility Score: 90.00
ROOT
ATOM      1  C   UNL     1      -1.297   8.979  -0.696  1.00  0.00     0.002 C 
ENDROOT
BRANCH   1   2
ATOM      2  C   UNL     1      -0.520   7.688  -0.426  1.00  0.00     0.021 C 
BRANCH   2   3
ATOM      3  C   UNL     1      -0.971   6.517  -1.291  1.00  0.00     0.116 C 
BRANCH   3   4
ATOM      4  N   UNL     1       0.085   5.899  -2.043  1.00  0.00    -0.356 N 
ATOM      5  C   UNL     1       0.369   4.588  -2.239  1.00  0.00     0.225 C 
ATOM      6  O   UNL     1       1.179   4.350  -3.145  1.00  0.00    -0.275 OA
ATOM      7  H   UNL     1       0.700   6.527  -2.487  1.00  0.00     0.163 HD
BRANCH   5   8
ATOM      8  C   UNL     1      -0.198   3.431  -1.390  1.00  0.00     0.101 C 
BRANCH   8   9
ATOM      9  C   UNL     1       0.451   3.363   0.019  1.00  0.00     0.094 C 
BRANCH   9  10
ATOM     10  N   UNL     1       1.362   2.206   0.091  1.00  0.00    -0.351 N 
ATOM     11  H   UNL     1       2.329   2.375   0.164  1.00  0.00     0.164 HD
BRANCH  10  12
ATOM     12  C   UNL     1       0.927   0.905   0.061  1.00  0.00     0.223 A 
ATOM     13  C   UNL     1      -2.295  -0.815   0.148  1.00  0.00     0.067 C 
ATOM     14  C   UNL     1      -0.812  -0.621   0.094  1.00  0.00     0.043 A 
ATOM     15  C   UNL     1       0.067  -1.672   0.003  1.00  0.00     0.044 A 
ATOM     16  N   UNL     1      -0.387   0.653   0.106  1.00  0.00    -0.218 NA
ATOM     17  C   UNL     1       1.397  -1.325  -0.051  1.00  0.00     0.117 A 
ATOM     18  N   UNL     1       1.851  -0.056  -0.024  1.00  0.00    -0.222 NA
ENDBRANCH  10  12
ENDBRANCH   9  10
BRANCH   9  19
ATOM     19  C   UNL     1      -0.372   3.393   1.325  1.00  0.00     0.026 C 
BRANCH  19  20
ATOM     20  C   UNL     1      -1.646   4.209   1.413  1.00  0.00     0.002 C 
BRANCH  20  21
ATOM     21  C   UNL     1      -2.825   3.627   0.647  1.00  0.00     0.000 CG0
ATOM     22  G   UNL     1      -2.815   3.727  -0.871  1.00  0.00     0.000 G0
ENDBRANCH  20  21
ENDBRANCH  19  20
ENDBRANCH   9  19
ENDBRANCH   8   9
BRANCH   8  23
ATOM     23  C   UNL     1      -1.669   3.064  -1.618  1.00  0.00     0.015 C 
BRANCH  23  24
ATOM     24  C   UNL     1      -2.815   3.727  -0.871  1.00  0.00     0.001 CG0
ATOM     25  G   UNL     1      -2.825   3.627   0.647  1.00  0.00     0.000 G0
ENDBRANCH  23  24
ENDBRANCH   8  23
ENDBRANCH   5   8
ENDBRANCH   3   4
ENDBRANCH   2   3
ENDBRANCH   1   2
BRANCH   1  26
ATOM     26  C   UNL     1      -2.826   8.883  -0.614  1.00  0.00     0.002 C 
BRANCH  26  27
ATOM     27  C   UNL     1      -3.410   8.402   0.717  1.00  0.00     0.021 C 
BRANCH  27  28
ATOM     28  C   UNL     1      -2.989   9.197   1.952  1.00  0.00     0.116 C 
BRANCH  28  29
ATOM     29  N   UNL     1      -3.172  10.628   1.779  1.00  0.00    -0.352 N 
ATOM     30  C   UNL     1      -3.889  11.538   2.507  1.00  0.00     0.251 C 
ATOM     31  H   UNL     1      -2.698  11.009   1.005  1.00  0.00     0.163 HD
ATOM     32  O   UNL     1      -4.050  12.671   2.040  1.00  0.00    -0.269 OA
BRANCH  30  33
ATOM     33  C   UNL     1      -4.479  11.195   3.819  1.00  0.00     0.039 A 
ATOM     34  C   UNL     1      -5.723  11.741   4.154  1.00  0.00     0.014 A 
ATOM     35  C   UNL     1      -3.796  10.407   4.750  1.00  0.00     0.014 A 
ATOM     36  C   UNL     1      -6.295  11.469   5.399  1.00  0.00     0.010 A 
ATOM     37  C   UNL     1      -4.398  10.081   5.965  1.00  0.00     0.010 A 
ATOM     38  C   UNL     1      -5.647  10.619   6.308  1.00  0.00    -0.014 A 
BRANCH  38  39
ATOM     39  C   UNL     1      -6.255  10.310   7.629  1.00  0.00     0.031 A 
ATOM     40  C   UNL     1      -5.586  10.771   8.897  1.00  0.00     0.074 A 
ATOM     41  C   UNL     1      -7.383   9.576   7.688  1.00  0.00     0.049 A 
ATOM     42  N   UNL     1      -5.933  10.560  10.141  1.00  0.00    -0.248 NA
ATOM     43  C   UNL     1      -4.346  11.544   8.742  1.00  0.00     0.031 C 
ATOM     44  C   UNL     1      -8.098   9.036   6.529  1.00  0.00     0.029 A 
ATOM     45  N   UNL     1      -8.123   9.149   8.761  1.00  0.00    -0.354 N 
ATOM     46  C   UNL     1      -4.946  11.159  10.918  1.00  0.00     0.074 A 
ATOM     47  C   UNL     1      -3.959  11.688  10.000  1.00  0.00     0.031 C 
ATOM     48  C   UNL     1      -9.180   8.365   6.954  1.00  0.00     0.029 A 
ATOM     49  C   UNL     1      -9.218   8.394   8.413  1.00  0.00     0.049 A 
ATOM     50  H   UNL     1      -7.891   9.363   9.694  1.00  0.00     0.167 HD
ATOM     51  C   UNL     1      -4.880  11.273  12.269  1.00  0.00     0.034 A 
ATOM     52  C   UNL     1     -10.143   7.786   9.181  1.00  0.00     0.034 A 
ATOM     53  C   UNL     1      -5.883  10.752  13.166  1.00  0.00     0.049 A 
ATOM     54  C   UNL     1     -10.055   7.930  10.678  1.00  0.00     0.074 A 
ATOM     55  C   UNL     1      -5.953  10.868  14.544  1.00  0.00     0.029 A 
ATOM     56  N   UNL     1      -6.990  10.007  12.777  1.00  0.00    -0.354 N 
ATOM     57  N   UNL     1      -9.148   8.552  11.396  1.00  0.00    -0.248 NA
ATOM     58  C   UNL     1     -11.124   7.306  11.466  1.00  0.00     0.031 C 
ATOM     59  C   UNL     1      -7.061  10.138  14.991  1.00  0.00     0.029 A 
ATOM     60  C   UNL     1      -7.729   9.630  13.889  1.00  0.00     0.049 A 
ATOM     61  H   UNL     1      -7.216   9.779  11.846  1.00  0.00     0.167 HD
ATOM     62  C   UNL     1      -9.553   8.414  12.721  1.00  0.00     0.074 A 
ATOM     63  C   UNL     1     -10.794   7.667  12.698  1.00  0.00     0.031 C 
ATOM     64  C   UNL     1      -8.957   8.869  13.853  1.00  0.00     0.034 A 
BRANCH  51  65
ATOM     65  C   UNL     1      -3.665  11.963  12.849  1.00  0.00     0.023 A 
ATOM     66  C   UNL     1      -3.369  13.308  12.564  1.00  0.00     0.031 A 
ATOM     67  C   UNL     1      -2.769  11.255  13.670  1.00  0.00     0.131 A 
ATOM     68  C   UNL     1      -2.169  13.874  13.020  1.00  0.00     0.055 A 
ATOM     69  C   UNL     1      -1.619  11.851  14.193  1.00  0.00     0.041 A 
ATOM     70  F   UNL     1      -2.985   9.963  13.964  1.00  0.00    -0.206 F 
ATOM     71  C   UNL     1      -1.303  13.163  13.853  1.00  0.00     0.022 A 
BRANCH  68  72
ATOM     72  S   UNL     1      -1.679  15.499  12.377  1.00  0.00     0.124 S 
ATOM     73  O   UNL     1      -1.648  15.249  10.938  1.00  0.00    -0.237 OA
ATOM     74  O   UNL     1      -2.753  16.363  12.853  1.00  0.00    -0.237 OA
ATOM     75  O   UNL     1      -0.373  15.731  12.989  1.00  0.00    -0.744 OA
ENDBRANCH  68  72
ENDBRANCH  51  65
BRANCH  52  76
ATOM     76  C   UNL     1     -11.229   6.982   8.552  1.00  0.00     0.023 A 
ATOM     77  C   UNL     1     -12.571   7.386   8.630  1.00  0.00     0.031 A 
ATOM     78  C   UNL     1     -10.938   5.781   7.880  1.00  0.00     0.131 A 
ATOM     79  C   UNL     1     -13.577   6.576   8.080  1.00  0.00     0.055 A 
ATOM     80  C   UNL     1     -11.938   5.004   7.293  1.00  0.00     0.041 A 
ATOM     81  F   UNL     1      -9.670   5.355   7.769  1.00  0.00    -0.206 F 
ATOM     82  C   UNL     1     -13.269   5.395   7.402  1.00  0.00     0.022 A 
BRANCH  79  83
ATOM     83  S   UNL     1     -15.309   7.058   8.324  1.00  0.00     0.124 S 
ATOM     84  O   UNL     1     -15.409   7.084   9.778  1.00  0.00    -0.237 OA
ATOM     85  O   UNL     1     -15.361   8.352   7.652  1.00  0.00    -0.237 OA
ATOM     86  O   UNL     1     -16.055   5.987   7.665  1.00  0.00    -0.744 OA
ENDBRANCH  79  83
ENDBRANCH  52  76
BRANCH  64  87
ATOM     87  C   UNL     1      -9.669   8.597  15.156  1.00  0.00     0.023 A 
ATOM     88  C   UNL     1      -9.820   7.293  15.659  1.00  0.00     0.031 A 
ATOM     89  C   UNL     1     -10.222   9.659  15.893  1.00  0.00     0.131 A 
ATOM     90  C   UNL     1     -10.558   7.079  16.833  1.00  0.00     0.055 A 
ATOM     91  C   UNL     1     -10.902   9.445  17.092  1.00  0.00     0.041 A 
ATOM     92  F   UNL     1     -10.110  10.925  15.458  1.00  0.00    -0.206 F 
ATOM     93  C   UNL     1     -11.086   8.148  17.561  1.00  0.00     0.022 A 
BRANCH  90  94
ATOM     94  S   UNL     1     -10.905   5.373  17.344  1.00  0.00     0.124 S 
ATOM     95  O   UNL     1     -11.596   4.840  16.174  1.00  0.00    -0.237 OA
ATOM     96  O   UNL     1      -9.568   4.843  17.591  1.00  0.00    -0.237 OA
ATOM     97  O   UNL     1     -11.737   5.534  18.535  1.00  0.00    -0.744 OA
ENDBRANCH  90  94
ENDBRANCH  64  87
ENDBRANCH  38  39
ENDBRANCH  30  33
ENDBRANCH  28  29
ENDBRANCH  27  28
ENDBRANCH  26  27
ENDBRANCH   1  26
TORSDOF 18
