REMARK SMILES Cc1cc(OCC(C)(C)C(=O)NCCCCCCNC(=O)c2ccc(-c3c4nc(c(-c5cc(S(=O)(=O)[O-])ccc5F)c5ccc([nH]5)c(-c5cc(S(=O)(=O)[O-])ccc5F)c5nc(c(-c6cc(S(=O)(=O)[O-])ccc6F)c6ccc3[nH]6)C=C5)C=C4)cc2)cc(C(C)C)c1
REMARK SMILES IDX 15 1 14 2 13 3 12 4 10 5 11 6 7 8 8 9 9 10 6 11 5 12 4 13
REMARK SMILES IDX 1 14 2 15 3 16 90 17 86 18 85 19 87 20 88 21 89 22 16 23
REMARK SMILES IDX 17 24 18 25 19 26 20 27 21 29 22 30 23 31 84 32 24 33 83 34
REMARK SMILES IDX 25 35 26 36 27 37 77 38 28 39 82 40 76 41 78 42 29 43 81 44
REMARK SMILES IDX 75 45 74 46 30 48 62 49 42 50 61 51 43 52 46 53 60 54 79 55
REMARK SMILES IDX 44 56 45 57 59 59 80 60 47 61 31 62 32 63 40 64 33 65 39 66
REMARK SMILES IDX 41 67 38 68 34 69 35 70 36 71 37 72 63 73 64 74 72 75 65 76
REMARK SMILES IDX 71 77 73 78 70 79 66 80 67 81 68 82 69 83 48 84 49 85 57 86
REMARK SMILES IDX 50 87 56 88 58 89 55 90 51 91 52 92 53 93 54 94
REMARK H PARENT 12 7 19 28 78 47 46 58
REMARK Flexibility Score: inf
ROOT
ATOM      1  C   UNL     1      -4.962  -1.694   6.622  1.00  0.00     0.002 C 
ENDROOT
BRANCH   1   2
ATOM      2  C   UNL     1      -5.676  -1.466   5.291  1.00  0.00     0.021 C 
BRANCH   2   3
ATOM      3  C   UNL     1      -4.795  -1.174   4.084  1.00  0.00     0.116 C 
BRANCH   3   4
ATOM      4  N   UNL     1      -4.002  -2.295   3.612  1.00  0.00    -0.356 N 
ATOM      5  C   UNL     1      -3.505  -2.582   2.368  1.00  0.00     0.229 C 
ATOM      6  O   UNL     1      -2.767  -3.568   2.280  1.00  0.00    -0.274 OA
ATOM      7  H   UNL     1      -3.784  -2.962   4.303  1.00  0.00     0.163 HD
BRANCH   5   8
ATOM      8  C   UNL     1      -3.917  -1.775   1.115  1.00  0.00     0.077 C 
ATOM      9  C   UNL     1      -3.754  -0.267   1.318  1.00  0.00     0.025 C 
ATOM     10  C   UNL     1      -5.394  -2.094   0.793  1.00  0.00     0.025 C 
BRANCH   8  11
ATOM     11  C   UNL     1      -3.103  -2.253  -0.145  1.00  0.00     0.245 C 
BRANCH  11  12
ATOM     12  O   UNL     1      -1.674  -2.181  -0.096  1.00  0.00    -0.492 OA
BRANCH  12  13
ATOM     13  C   UNL     1      -1.001  -1.020  -0.334  1.00  0.00     0.119 A 
ATOM     14  C   UNL     1       2.609   0.007   0.249  1.00  0.00     0.044 C 
ATOM     15  C   UNL     1       1.143   0.090  -0.049  1.00  0.00    -0.047 A 
ATOM     16  C   UNL     1       0.363  -1.071  -0.046  1.00  0.00     0.049 A 
ATOM     17  C   UNL     1       0.521   1.320  -0.286  1.00  0.00     0.007 A 
ATOM     18  C   UNL     1      -0.844   1.387  -0.610  1.00  0.00    -0.042 A 
ATOM     19  C   UNL     1      -1.560   0.188  -0.740  1.00  0.00     0.050 A 
BRANCH  18  20
ATOM     20  C   UNL     1      -1.537   2.742  -0.627  1.00  0.00     0.013 C 
ATOM     21  C   UNL     1      -2.606   2.898  -1.710  1.00  0.00     0.012 C 
ATOM     22  C   UNL     1      -2.150   3.026   0.754  1.00  0.00     0.012 C 
ENDBRANCH  18  20
ENDBRANCH  12  13
ENDBRANCH  11  12
ENDBRANCH   8  11
ENDBRANCH   5   8
ENDBRANCH   3   4
ENDBRANCH   2   3
ENDBRANCH   1   2
BRANCH   1  23
ATOM     23  C   UNL     1      -3.947  -0.634   7.073  1.00  0.00     0.002 C 
BRANCH  23  24
ATOM     24  C   UNL     1      -4.385   0.830   7.009  1.00  0.00     0.021 C 
BRANCH  24  25
ATOM     25  C   UNL     1      -5.660   1.170   7.772  1.00  0.00     0.116 C 
BRANCH  25  26
ATOM     26  N   UNL     1      -5.457   1.838   9.050  1.00  0.00    -0.352 N 
ATOM     27  C   UNL     1      -6.410   2.341   9.924  1.00  0.00     0.251 C 
ATOM     28  H   UNL     1      -4.519   1.946   9.331  1.00  0.00     0.163 HD
ATOM     29  O   UNL     1      -6.096   2.953  10.931  1.00  0.00    -0.269 OA
BRANCH  27  30
ATOM     30  C   UNL     1      -7.837   1.997   9.690  1.00  0.00     0.039 A 
ATOM     31  C   UNL     1      -8.515   1.363  10.738  1.00  0.00     0.014 A 
ATOM     32  C   UNL     1      -8.406   2.060   8.421  1.00  0.00     0.014 A 
ATOM     33  C   UNL     1      -9.632   0.580  10.454  1.00  0.00     0.010 A 
ATOM     34  C   UNL     1      -9.459   1.214   8.120  1.00  0.00     0.010 A 
ATOM     35  C   UNL     1     -10.024   0.422   9.124  1.00  0.00    -0.014 A 
BRANCH  35  36
ATOM     36  C   UNL     1     -10.884  -0.673   8.687  1.00  0.00     0.031 A 
ATOM     37  C   UNL     1     -12.294  -0.444   8.322  1.00  0.00     0.074 A 
ATOM     38  C   UNL     1     -10.379  -1.925   8.613  1.00  0.00     0.049 A 
ATOM     39  N   UNL     1     -13.233  -1.314   8.494  1.00  0.00    -0.248 NA
ATOM     40  C   UNL     1     -12.764   0.813   7.753  1.00  0.00     0.031 C 
ATOM     41  C   UNL     1     -11.012  -3.107   8.035  1.00  0.00     0.029 A 
ATOM     42  N   UNL     1      -9.262  -2.420   9.277  1.00  0.00    -0.354 N 
ATOM     43  C   UNL     1     -14.341  -0.862   7.820  1.00  0.00     0.074 A 
ATOM     44  C   UNL     1     -14.023   0.495   7.432  1.00  0.00     0.031 C 
ATOM     45  C   UNL     1     -10.442  -4.202   8.561  1.00  0.00     0.029 A 
ATOM     46  C   UNL     1      -9.513  -3.765   9.589  1.00  0.00     0.049 A 
ATOM     47  H   UNL     1      -8.443  -1.918   9.490  1.00  0.00     0.167 HD
ATOM     48  C   UNL     1     -15.361  -1.716   7.525  1.00  0.00     0.034 A 
ATOM     49  C   UNL     1      -9.508  -4.191  10.885  1.00  0.00     0.034 A 
ATOM     50  C   UNL     1     -15.108  -3.066   8.016  1.00  0.00     0.049 A 
ATOM     51  C   UNL     1     -10.846  -4.724  11.350  1.00  0.00     0.074 A 
ATOM     52  C   UNL     1     -14.628  -4.212   7.402  1.00  0.00     0.029 A 
ATOM     53  N   UNL     1     -15.064  -3.307   9.385  1.00  0.00    -0.354 N 
ATOM     54  N   UNL     1     -11.966  -4.571  10.698  1.00  0.00    -0.248 NA
ATOM     55  C   UNL     1     -11.031  -5.449  12.605  1.00  0.00     0.031 C 
ATOM     56  C   UNL     1     -14.219  -5.115   8.417  1.00  0.00     0.029 A 
ATOM     57  C   UNL     1     -14.485  -4.535   9.645  1.00  0.00     0.049 A 
ATOM     58  H   UNL     1     -15.400  -2.688  10.073  1.00  0.00     0.167 HD
ATOM     59  C   UNL     1     -13.002  -5.099  11.426  1.00  0.00     0.074 A 
ATOM     60  C   UNL     1     -12.356  -5.675  12.593  1.00  0.00     0.031 C 
ATOM     61  C   UNL     1     -14.303  -4.996  11.015  1.00  0.00     0.034 A 
BRANCH  48  62
ATOM     62  C   UNL     1     -16.422  -1.374   6.512  1.00  0.00     0.023 A 
ATOM     63  C   UNL     1     -16.867  -2.354   5.602  1.00  0.00     0.031 A 
ATOM     64  C   UNL     1     -16.994  -0.097   6.369  1.00  0.00     0.131 A 
ATOM     65  C   UNL     1     -17.746  -2.031   4.554  1.00  0.00     0.055 A 
ATOM     66  C   UNL     1     -17.827   0.241   5.293  1.00  0.00     0.041 A 
ATOM     67  F   UNL     1     -16.778   0.867   7.278  1.00  0.00    -0.206 F 
ATOM     68  C   UNL     1     -18.196  -0.727   4.368  1.00  0.00     0.022 A 
BRANCH  65  69
ATOM     69  S   UNL     1     -18.297  -3.347   3.432  1.00  0.00     0.124 S 
ATOM     70  O   UNL     1     -17.036  -3.844   2.892  1.00  0.00    -0.237 OA
ATOM     71  O   UNL     1     -19.010  -4.244   4.335  1.00  0.00    -0.237 OA
ATOM     72  O   UNL     1     -19.143  -2.641   2.471  1.00  0.00    -0.744 OA
ENDBRANCH  65  69
ENDBRANCH  48  62
BRANCH  49  73
ATOM     73  C   UNL     1      -8.514  -3.470  11.734  1.00  0.00     0.023 A 
ATOM     74  C   UNL     1      -7.160  -3.535  11.338  1.00  0.00     0.031 A 
ATOM     75  C   UNL     1      -8.888  -2.457  12.626  1.00  0.00     0.131 A 
ATOM     76  C   UNL     1      -6.266  -2.517  11.697  1.00  0.00     0.055 A 
ATOM     77  C   UNL     1      -7.974  -1.477  13.034  1.00  0.00     0.041 A 
ATOM     78  F   UNL     1     -10.164  -2.324  13.014  1.00  0.00    -0.206 F 
ATOM     79  C   UNL     1      -6.671  -1.476  12.533  1.00  0.00     0.022 A 
BRANCH  76  80
ATOM     80  S   UNL     1      -4.659  -2.412  10.852  1.00  0.00     0.124 S 
ATOM     81  O   UNL     1      -3.773  -3.085  11.794  1.00  0.00    -0.237 OA
ATOM     82  O   UNL     1      -4.902  -3.119   9.596  1.00  0.00    -0.237 OA
ATOM     83  O   UNL     1      -4.452  -0.973  10.702  1.00  0.00    -0.744 OA
ENDBRANCH  76  80
ENDBRANCH  49  73
BRANCH  61  84
ATOM     84  C   UNL     1     -15.520  -5.388  11.828  1.00  0.00     0.023 A 
ATOM     85  C   UNL     1     -15.507  -5.525  13.223  1.00  0.00     0.031 A 
ATOM     86  C   UNL     1     -16.781  -5.570  11.207  1.00  0.00     0.131 A 
ATOM     87  C   UNL     1     -16.660  -5.917  13.928  1.00  0.00     0.055 A 
ATOM     88  C   UNL     1     -17.945  -5.874  11.919  1.00  0.00     0.041 A 
ATOM     89  F   UNL     1     -16.938  -5.457   9.879  1.00  0.00    -0.206 F 
ATOM     90  C   UNL     1     -17.887  -6.070  13.289  1.00  0.00     0.022 A 
BRANCH  87  91
ATOM     91  S   UNL     1     -16.498  -6.302  15.691  1.00  0.00     0.124 S 
ATOM     92  O   UNL     1     -15.552  -7.415  15.668  1.00  0.00    -0.237 OA
ATOM     93  O   UNL     1     -15.989  -5.050  16.240  1.00  0.00    -0.237 OA
ATOM     94  O   UNL     1     -17.858  -6.653  16.095  1.00  0.00    -0.744 OA
ENDBRANCH  87  91
ENDBRANCH  61  84
ENDBRANCH  35  36
ENDBRANCH  27  30
ENDBRANCH  25  26
ENDBRANCH  24  25
ENDBRANCH  23  24
ENDBRANCH   1  23
TORSDOF 20
