REMARK SMILES Cc1ccc(NC(=O)C[C@@H](C(=O)NCCCCCCNC(=O)c2ccc(-c3c4nc(c(-c5cc(S(=O)(=O)[O-])ccc5F)c5ccc([nH]5)c(-c5cc(S(=O)(=O)[O-])ccc5F)c5nc(c(-c6cc(S(=O)(=O)[O-])ccc6F)c6ccc3[nH]6)C=C5)C=C4)cc2)[NH+]2CCOCC2)cc1
REMARK SMILES IDX 16 1 15 2 14 3 13 4 11 5 12 6 10 8 9 9 7 10 6 11 8 13 5 14
REMARK SMILES IDX 1 15 2 16 3 17 93 18 4 19 92 20 86 21 87 22 91 23 88 25
REMARK SMILES IDX 90 26 89 27 17 28 18 29 19 30 20 31 21 32 22 34 23 35 24 36
REMARK SMILES IDX 85 37 25 38 84 39 26 40 27 41 28 42 78 43 29 44 83 45 77 46
REMARK SMILES IDX 79 47 30 48 82 49 76 50 75 51 31 53 63 54 43 55 62 56 44 57
REMARK SMILES IDX 47 58 61 59 80 60 45 61 46 62 60 64 81 65 48 66 32 67 33 68
REMARK SMILES IDX 41 69 34 70 40 71 42 72 39 73 35 74 36 75 37 76 38 77 64 78
REMARK SMILES IDX 65 79 73 80 66 81 72 82 74 83 71 84 67 85 68 86 69 87 70 88
REMARK SMILES IDX 49 89 50 90 58 91 51 92 57 93 59 94 56 95 52 96 53 97 54 98
REMARK SMILES IDX 55 99
REMARK H PARENT 13 7 6 12 86 24 20 33 79 52 47 63
REMARK Flexibility Score: inf
ROOT
ATOM      1  C   UNL     1      -2.952   2.613  -0.902  1.00  0.00     0.002 C 
ENDROOT
BRANCH   1   2
ATOM      2  C   UNL     1      -3.894   1.399  -0.806  1.00  0.00     0.021 C 
BRANCH   2   3
ATOM      3  C   UNL     1      -3.636   0.250  -1.792  1.00  0.00     0.116 C 
BRANCH   3   4
ATOM      4  N   UNL     1      -2.243  -0.142  -1.819  1.00  0.00    -0.351 N 
ATOM      5  C   UNL     1      -1.583  -1.318  -1.684  1.00  0.00     0.278 C 
ATOM      6  O   UNL     1      -0.362  -1.238  -1.879  1.00  0.00    -0.268 OA
ATOM      7  H   UNL     1      -1.637   0.619  -1.970  1.00  0.00     0.163 HD
BRANCH   5   8
ATOM      8  C   UNL     1      -2.294  -2.695  -1.435  1.00  0.00     0.283 C 
BRANCH   8   9
ATOM      9  C   UNL     1      -2.826  -2.926  -0.005  1.00  0.00     0.175 C 
BRANCH   9  10
ATOM     10  C   UNL     1      -3.342  -1.772   0.815  1.00  0.00     0.230 C 
ATOM     11  N   UNL     1      -2.525  -0.911   1.486  1.00  0.00    -0.326 N 
ATOM     12  H   UNL     1      -2.991  -0.312   2.114  1.00  0.00     0.169 HD
ATOM     13  O   UNL     1      -4.564  -1.587   0.876  1.00  0.00    -0.274 OA
BRANCH  11  14
ATOM     14  C   UNL     1      -1.133  -0.732   1.435  1.00  0.00     0.041 A 
ATOM     15  C   UNL     1       2.894   0.177   0.252  1.00  0.00     0.044 C 
ATOM     16  C   UNL     1       1.532  -0.126   0.797  1.00  0.00    -0.051 A 
ATOM     17  C   UNL     1       1.119  -1.453   0.932  1.00  0.00     0.005 A 
ATOM     18  C   UNL     1       0.635   0.896   1.114  1.00  0.00     0.005 A 
ATOM     19  C   UNL     1      -0.204  -1.753   1.261  1.00  0.00     0.026 A 
ATOM     20  C   UNL     1      -0.683   0.592   1.460  1.00  0.00     0.026 A 
ENDBRANCH  11  14
ENDBRANCH   9  10
ENDBRANCH   8   9
BRANCH   8  21
ATOM     21  N   UNL     1      -1.339  -3.779  -1.841  1.00  0.00    -0.320 N 
ATOM     22  C   UNL     1      -0.928  -3.768  -3.257  1.00  0.00     0.291 C 
ATOM     23  C   UNL     1      -1.469  -5.152  -1.347  1.00  0.00     0.291 C 
ATOM     24  H   UNL     1      -0.585  -3.430  -1.248  1.00  0.00     0.348 HD
ATOM     25  C   UNL     1      -1.698  -4.763  -4.136  1.00  0.00     0.221 C 
ATOM     26  C   UNL     1      -2.208  -6.110  -2.288  1.00  0.00     0.221 C 
ATOM     27  O   UNL     1      -1.647  -6.091  -3.605  1.00  0.00    -0.370 OA
ENDBRANCH   8  21
ENDBRANCH   5   8
ENDBRANCH   3   4
ENDBRANCH   2   3
ENDBRANCH   1   2
BRANCH   1  28
ATOM     28  C   UNL     1      -2.987   3.421  -2.205  1.00  0.00     0.002 C 
BRANCH  28  29
ATOM     29  C   UNL     1      -4.368   3.866  -2.685  1.00  0.00     0.021 C 
BRANCH  29  30
ATOM     30  C   UNL     1      -5.168   4.670  -1.667  1.00  0.00     0.116 C 
BRANCH  30  31
ATOM     31  N   UNL     1      -5.107   6.111  -1.819  1.00  0.00    -0.352 N 
ATOM     32  C   UNL     1      -5.757   7.091  -1.092  1.00  0.00     0.251 C 
ATOM     33  H   UNL     1      -4.520   6.437  -2.540  1.00  0.00     0.163 HD
ATOM     34  O   UNL     1      -5.776   8.250  -1.513  1.00  0.00    -0.269 OA
BRANCH  32  35
ATOM     35  C   UNL     1      -6.334   6.791   0.247  1.00  0.00     0.039 A 
ATOM     36  C   UNL     1      -6.176   7.756   1.255  1.00  0.00     0.014 A 
ATOM     37  C   UNL     1      -6.861   5.545   0.574  1.00  0.00     0.014 A 
ATOM     38  C   UNL     1      -6.335   7.400   2.594  1.00  0.00     0.010 A 
ATOM     39  C   UNL     1      -6.924   5.160   1.896  1.00  0.00     0.010 A 
ATOM     40  C   UNL     1      -6.607   6.072   2.903  1.00  0.00    -0.014 A 
BRANCH  40  41
ATOM     41  C   UNL     1      -6.532   5.502   4.237  1.00  0.00     0.031 A 
ATOM     42  C   UNL     1      -7.767   5.234   4.995  1.00  0.00     0.074 A 
ATOM     43  C   UNL     1      -5.333   5.085   4.697  1.00  0.00     0.049 A 
ATOM     44  N   UNL     1      -7.800   4.953   6.252  1.00  0.00    -0.248 NA
ATOM     45  C   UNL     1      -9.098   5.338   4.399  1.00  0.00     0.031 C 
ATOM     46  C   UNL     1      -5.062   4.189   5.816  1.00  0.00     0.029 A 
ATOM     47  N   UNL     1      -4.094   5.641   4.388  1.00  0.00    -0.354 N 
ATOM     48  C   UNL     1      -9.069   4.514   6.540  1.00  0.00     0.074 A 
ATOM     49  C   UNL     1      -9.864   4.930   5.415  1.00  0.00     0.031 C 
ATOM     50  C   UNL     1      -3.825   4.435   6.277  1.00  0.00     0.029 A 
ATOM     51  C   UNL     1      -3.335   5.607   5.573  1.00  0.00     0.049 A 
ATOM     52  H   UNL     1      -3.806   5.989   3.514  1.00  0.00     0.167 HD
ATOM     53  C   UNL     1      -9.243   3.699   7.617  1.00  0.00     0.034 A 
ATOM     54  C   UNL     1      -2.941   6.770   6.172  1.00  0.00     0.034 A 
ATOM     55  C   UNL     1      -8.076   3.758   8.505  1.00  0.00     0.049 A 
ATOM     56  C   UNL     1      -3.486   6.937   7.572  1.00  0.00     0.074 A 
ATOM     57  C   UNL     1      -7.057   2.872   8.805  1.00  0.00     0.029 A 
ATOM     58  N   UNL     1      -7.689   4.992   9.031  1.00  0.00    -0.354 N 
ATOM     59  N   UNL     1      -4.513   6.282   8.044  1.00  0.00    -0.248 NA
ATOM     60  C   UNL     1      -2.905   7.845   8.554  1.00  0.00     0.031 C 
ATOM     61  C   UNL     1      -5.999   3.616   9.404  1.00  0.00     0.029 A 
ATOM     62  C   UNL     1      -6.400   4.937   9.523  1.00  0.00     0.049 A 
ATOM     63  H   UNL     1      -8.260   5.794   9.050  1.00  0.00     0.167 HD
ATOM     64  C   UNL     1      -4.738   6.651   9.346  1.00  0.00     0.074 A 
ATOM     65  C   UNL     1      -3.689   7.619   9.622  1.00  0.00     0.031 C 
ATOM     66  C   UNL     1      -5.766   6.128  10.084  1.00  0.00     0.034 A 
BRANCH  53  67
ATOM     67  C   UNL     1     -10.354   2.668   7.759  1.00  0.00     0.023 A 
ATOM     68  C   UNL     1     -10.338   1.800   8.874  1.00  0.00     0.031 A 
ATOM     69  C   UNL     1     -11.351   2.376   6.798  1.00  0.00     0.131 A 
ATOM     70  C   UNL     1     -11.241   0.721   8.985  1.00  0.00     0.055 A 
ATOM     71  C   UNL     1     -12.283   1.339   6.937  1.00  0.00     0.041 A 
ATOM     72  F   UNL     1     -11.456   3.024   5.635  1.00  0.00    -0.206 F 
ATOM     73  C   UNL     1     -12.227   0.497   8.029  1.00  0.00     0.022 A 
BRANCH  70  74
ATOM     74  S   UNL     1     -11.070  -0.453  10.358  1.00  0.00     0.124 S 
ATOM     75  O   UNL     1      -9.752  -1.027  10.107  1.00  0.00    -0.237 OA
ATOM     76  O   UNL     1     -11.192   0.412  11.525  1.00  0.00    -0.237 OA
ATOM     77  O   UNL     1     -12.189  -1.375  10.157  1.00  0.00    -0.744 OA
ENDBRANCH  70  74
ENDBRANCH  53  67
BRANCH  54  78
ATOM     78  C   UNL     1      -2.681   7.864   5.187  1.00  0.00     0.023 A 
ATOM     79  C   UNL     1      -1.748   7.577   4.165  1.00  0.00     0.031 A 
ATOM     80  C   UNL     1      -3.595   8.902   4.965  1.00  0.00     0.131 A 
ATOM     81  C   UNL     1      -1.889   8.156   2.898  1.00  0.00     0.055 A 
ATOM     82  C   UNL     1      -3.664   9.553   3.725  1.00  0.00     0.041 A 
ATOM     83  F   UNL     1      -4.520   9.209   5.886  1.00  0.00    -0.206 F 
ATOM     84  C   UNL     1      -2.849   9.143   2.667  1.00  0.00     0.022 A 
BRANCH  81  85
ATOM     85  S   UNL     1      -1.032   7.364   1.500  1.00  0.00     0.124 S 
ATOM     86  O   UNL     1       0.288   7.981   1.564  1.00  0.00    -0.237 OA
ATOM     87  O   UNL     1      -1.089   5.946   1.851  1.00  0.00    -0.237 OA
ATOM     88  O   UNL     1      -1.844   7.731   0.343  1.00  0.00    -0.744 OA
ENDBRANCH  81  85
ENDBRANCH  54  78
BRANCH  66  89
ATOM     89  C   UNL     1      -6.218   6.634  11.442  1.00  0.00     0.023 A 
ATOM     90  C   UNL     1      -5.860   7.888  11.961  1.00  0.00     0.031 A 
ATOM     91  C   UNL     1      -7.110   5.879  12.243  1.00  0.00     0.131 A 
ATOM     92  C   UNL     1      -6.281   8.299  13.239  1.00  0.00     0.055 A 
ATOM     93  C   UNL     1      -7.598   6.326  13.475  1.00  0.00     0.041 A 
ATOM     94  F   UNL     1      -7.558   4.674  11.859  1.00  0.00    -0.206 F 
ATOM     95  C   UNL     1      -7.166   7.536  13.993  1.00  0.00     0.022 A 
BRANCH  92  96
ATOM     96  S   UNL     1      -5.580   9.825  13.922  1.00  0.00     0.124 S 
ATOM     97  O   UNL     1      -4.158   9.498  13.989  1.00  0.00    -0.237 OA
ATOM     98  O   UNL     1      -5.954  10.819  12.921  1.00  0.00    -0.237 OA
ATOM     99  O   UNL     1      -6.246   9.964  15.216  1.00  0.00    -0.744 OA
ENDBRANCH  92  96
ENDBRANCH  66  89
ENDBRANCH  40  41
ENDBRANCH  32  35
ENDBRANCH  30  31
ENDBRANCH  29  30
ENDBRANCH  28  29
ENDBRANCH   1  28
TORSDOF 20
