REMARK SMILES C[C@@H]1CCC[C@@]1(C(=O)NCCCCCCNC(=O)c1ccc(-c2c3nc(c(-c4cc(S(=O)(=O)[O-])ccc4F)c4ccc([nH]4)c(-c4cc(S(=O)(=O)[O-])ccc4F)c4nc(c(-c5cc(S(=O)(=O)[O-])ccc5F)c5ccc2[nH]5)C=C4)C=C3)cc1)c1ccc(Cl)cc1Cl
REMARK SMILES IDX 13 1 12 2 11 3 10 4 9 5 7 6 8 7 6 9 1 10 2 11 3 12 4 13 5 14
REMARK SMILES IDX 82 15 83 16 88 17 84 18 87 19 89 20 85 21 86 22 14 23 15 24
REMARK SMILES IDX 16 25 17 26 18 28 19 29 20 30 81 31 21 32 80 33 22 34 23 35
REMARK SMILES IDX 24 36 74 37 25 38 79 39 73 40 75 41 26 42 78 43 72 44 71 45
REMARK SMILES IDX 27 47 59 48 39 49 58 50 40 51 43 52 57 53 76 54 41 55 42 56
REMARK SMILES IDX 56 58 77 59 44 60 28 61 29 62 37 63 30 64 36 65 38 66 35 67
REMARK SMILES IDX 31 68 32 69 33 70 34 71 60 72 61 73 69 74 62 75 68 76 70 77
REMARK SMILES IDX 67 78 63 79 64 80 65 81 66 82 45 83 46 84 54 85 47 86 53 87
REMARK SMILES IDX 55 88 52 89 48 90 49 91 50 92 51 93
REMARK H PARENT 9 8 16 27 75 46 43 57
REMARK Flexibility Score: inf
ROOT
ATOM      1  C   UNL     1       4.472   3.239   3.558  1.00  0.00     0.002 C 
ENDROOT
BRANCH   1   2
ATOM      2  C   UNL     1       4.537   2.226   2.411  1.00  0.00     0.002 C 
BRANCH   2   3
ATOM      3  C   UNL     1       3.367   1.245   2.361  1.00  0.00     0.021 C 
BRANCH   3   4
ATOM      4  C   UNL     1       2.005   1.921   2.328  1.00  0.00     0.116 C 
BRANCH   4   5
ATOM      5  N   UNL     1       1.713   2.495   1.030  1.00  0.00    -0.355 N 
ATOM      6  C   UNL     1       0.686   2.209   0.166  1.00  0.00     0.230 C 
ATOM      7  O   UNL     1       0.639   2.834  -0.895  1.00  0.00    -0.274 OA
ATOM      8  H   UNL     1       2.341   3.189   0.724  1.00  0.00     0.163 HD
BRANCH   6   9
ATOM      9  C   UNL     1      -0.322   1.080   0.524  1.00  0.00     0.078 C 
ATOM     10  C   UNL     1       1.582  -0.285  -0.704  1.00  0.00     0.009 C 
ATOM     11  C   UNL     1       0.497  -0.277   0.402  1.00  0.00     0.006 C 
ATOM     12  C   UNL     1      -0.518  -1.359   0.023  1.00  0.00     0.005 C 
ATOM     13  C   UNL     1      -1.672  -0.635  -0.651  1.00  0.00     0.002 C 
ATOM     14  C   UNL     1      -1.386   0.869  -0.579  1.00  0.00     0.022 C 
BRANCH   9  15
ATOM     15  C   UNL     1      -1.060   1.378   1.875  1.00  0.00    -0.013 A 
ATOM     16  C   UNL     1      -1.476   0.321   2.710  1.00  0.00     0.008 A 
ATOM     17  C   UNL     1      -1.304   2.687   2.377  1.00  0.00     0.046 A 
ATOM     18  C   UNL     1      -1.984   0.536   3.998  1.00  0.00     0.021 A 
ATOM     19  C   UNL     1      -1.749   2.900   3.692  1.00  0.00     0.041 A 
ATOM     20  Cl  UNL     1      -1.132   4.139   1.449  1.00  0.00    -0.084 Cl
ATOM     21  C   UNL     1      -2.074   1.823   4.501  1.00  0.00     0.042 A 
ATOM     22  Cl  UNL     1      -2.610   2.087   6.112  1.00  0.00    -0.084 Cl
ENDBRANCH   9  15
ENDBRANCH   6   9
ENDBRANCH   4   5
ENDBRANCH   3   4
ENDBRANCH   2   3
ENDBRANCH   1   2
BRANCH   1  23
ATOM     23  C   UNL     1       4.225   2.636   4.944  1.00  0.00     0.021 C 
BRANCH  23  24
ATOM     24  C   UNL     1       5.210   1.545   5.344  1.00  0.00     0.116 C 
BRANCH  24  25
ATOM     25  N   UNL     1       6.582   2.020   5.321  1.00  0.00    -0.352 N 
ATOM     26  C   UNL     1       7.530   1.951   6.308  1.00  0.00     0.251 C 
ATOM     27  H   UNL     1       6.870   2.450   4.483  1.00  0.00     0.163 HD
ATOM     28  O   UNL     1       8.572   2.594   6.207  1.00  0.00    -0.269 OA
BRANCH  26  29
ATOM     29  C   UNL     1       7.270   1.116   7.497  1.00  0.00     0.039 A 
ATOM     30  C   UNL     1       7.515   1.645   8.764  1.00  0.00     0.014 A 
ATOM     31  C   UNL     1       6.762  -0.179   7.354  1.00  0.00     0.014 A 
ATOM     32  C   UNL     1       7.199   0.891   9.895  1.00  0.00     0.010 A 
ATOM     33  C   UNL     1       6.374  -0.895   8.481  1.00  0.00     0.010 A 
ATOM     34  C   UNL     1       6.595  -0.370   9.763  1.00  0.00    -0.014 A 
BRANCH  34  35
ATOM     35  C   UNL     1       6.202  -1.164  10.955  1.00  0.00     0.031 A 
ATOM     36  C   UNL     1       6.848  -2.497  11.215  1.00  0.00     0.074 A 
ATOM     37  C   UNL     1       5.226  -0.712  11.766  1.00  0.00     0.049 A 
ATOM     38  N   UNL     1       6.592  -3.374  12.150  1.00  0.00    -0.248 NA
ATOM     39  C   UNL     1       7.902  -2.909  10.276  1.00  0.00     0.031 C 
ATOM     40  C   UNL     1       4.505   0.552  11.598  1.00  0.00     0.029 A 
ATOM     41  N   UNL     1       4.668  -1.263  12.892  1.00  0.00    -0.354 N 
ATOM     42  C   UNL     1       7.447  -4.445  11.909  1.00  0.00     0.074 A 
ATOM     43  C   UNL     1       8.170  -4.136  10.694  1.00  0.00     0.031 C 
ATOM     44  C   UNL     1       3.627   0.694  12.603  1.00  0.00     0.029 A 
ATOM     45  C   UNL     1       3.680  -0.489  13.455  1.00  0.00     0.049 A 
ATOM     46  H   UNL     1       4.949  -2.131  13.262  1.00  0.00     0.167 HD
ATOM     47  C   UNL     1       7.630  -5.568  12.647  1.00  0.00     0.034 A 
ATOM     48  C   UNL     1       2.897  -0.715  14.529  1.00  0.00     0.034 A 
ATOM     49  C   UNL     1       6.896  -5.857  13.855  1.00  0.00     0.049 A 
ATOM     50  C   UNL     1       3.078  -1.996  15.303  1.00  0.00     0.074 A 
ATOM     51  C   UNL     1       7.025  -6.943  14.704  1.00  0.00     0.029 A 
ATOM     52  N   UNL     1       5.888  -5.060  14.384  1.00  0.00    -0.354 N 
ATOM     53  N   UNL     1       3.918  -2.982  15.086  1.00  0.00    -0.248 NA
ATOM     54  C   UNL     1       2.212  -2.189  16.472  1.00  0.00     0.031 C 
ATOM     55  C   UNL     1       6.043  -6.843  15.696  1.00  0.00     0.029 A 
ATOM     56  C   UNL     1       5.362  -5.649  15.525  1.00  0.00     0.049 A 
ATOM     57  H   UNL     1       5.590  -4.202  14.005  1.00  0.00     0.167 HD
ATOM     58  C   UNL     1       3.705  -3.896  16.116  1.00  0.00     0.074 A 
ATOM     59  C   UNL     1       2.666  -3.336  16.956  1.00  0.00     0.031 C 
ATOM     60  C   UNL     1       4.317  -5.085  16.349  1.00  0.00     0.034 A 
BRANCH  47  61
ATOM     61  C   UNL     1       8.643  -6.570  12.142  1.00  0.00     0.023 A 
ATOM     62  C   UNL     1       9.999  -6.232  11.980  1.00  0.00     0.031 A 
ATOM     63  C   UNL     1       8.245  -7.867  11.773  1.00  0.00     0.131 A 
ATOM     64  C   UNL     1      10.883  -7.139  11.379  1.00  0.00     0.055 A 
ATOM     65  C   UNL     1       9.151  -8.800  11.264  1.00  0.00     0.041 A 
ATOM     66  F   UNL     1       6.961  -8.246  11.880  1.00  0.00    -0.206 F 
ATOM     67  C   UNL     1      10.475  -8.432  11.046  1.00  0.00     0.022 A 
BRANCH  64  68
ATOM     68  S   UNL     1      12.521  -6.544  10.875  1.00  0.00     0.124 S 
ATOM     69  O   UNL     1      12.171  -5.437   9.988  1.00  0.00    -0.237 OA
ATOM     70  O   UNL     1      13.127  -6.176  12.149  1.00  0.00    -0.237 OA
ATOM     71  O   UNL     1      13.116  -7.701  10.210  1.00  0.00    -0.744 OA
ENDBRANCH  64  68
ENDBRANCH  47  61
BRANCH  48  72
ATOM     72  C   UNL     1       1.870   0.286  14.938  1.00  0.00     0.023 A 
ATOM     73  C   UNL     1       1.956   0.942  16.176  1.00  0.00     0.031 A 
ATOM     74  C   UNL     1       0.768   0.576  14.114  1.00  0.00     0.131 A 
ATOM     75  C   UNL     1       0.935   1.818  16.577  1.00  0.00     0.055 A 
ATOM     76  C   UNL     1      -0.215   1.493  14.492  1.00  0.00     0.041 A 
ATOM     77  F   UNL     1       0.637  -0.021  12.919  1.00  0.00    -0.206 F 
ATOM     78  C   UNL     1      -0.141   2.110  15.737  1.00  0.00     0.022 A 
BRANCH  75  79
ATOM     79  S   UNL     1       0.990   2.504  18.255  1.00  0.00     0.124 S 
ATOM     80  O   UNL     1       0.990   1.294  19.069  1.00  0.00    -0.237 OA
ATOM     81  O   UNL     1       2.237   3.262  18.232  1.00  0.00    -0.237 OA
ATOM     82  O   UNL     1      -0.226   3.310  18.332  1.00  0.00    -0.744 OA
ENDBRANCH  75  79
ENDBRANCH  48  72
BRANCH  60  83
ATOM     83  C   UNL     1       3.912  -5.835  17.597  1.00  0.00     0.023 A 
ATOM     84  C   UNL     1       2.619  -6.360  17.763  1.00  0.00     0.031 A 
ATOM     85  C   UNL     1       4.838  -6.018  18.640  1.00  0.00     0.131 A 
ATOM     86  C   UNL     1       2.271  -6.991  18.967  1.00  0.00     0.055 A 
ATOM     87  C   UNL     1       4.506  -6.707  19.807  1.00  0.00     0.041 A 
ATOM     88  F   UNL     1       6.087  -5.533  18.539  1.00  0.00    -0.206 F 
ATOM     89  C   UNL     1       3.212  -7.186  19.982  1.00  0.00     0.022 A 
BRANCH  86  90
ATOM     90  S   UNL     1       0.540  -7.466  19.233  1.00  0.00     0.124 S 
ATOM     91  O   UNL     1      -0.150  -6.189  19.087  1.00  0.00    -0.237 OA
ATOM     92  O   UNL     1       0.316  -8.437  18.167  1.00  0.00    -0.237 OA
ATOM     93  O   UNL     1       0.540  -8.020  20.586  1.00  0.00    -0.744 OA
ENDBRANCH  86  90
ENDBRANCH  60  83
ENDBRANCH  34  35
ENDBRANCH  26  29
ENDBRANCH  24  25
ENDBRANCH  23  24
ENDBRANCH   1  23
TORSDOF 17
