REMARK SMILES Cc1c(N[C@@H]2CC[C@@H]([NH3+])C2)cccc1C(=O)NCCCCCCNC(=O)c1ccc(-c2c3nc(c(-c4cc(S(=O)(=O)[O-])ccc4F)c4ccc([nH]4)c(-c4cc(S(=O)(=O)[O-])ccc4F)c4nc(c(-c5cc(S(=O)(=O)[O-])ccc5F)c5ccc2[nH]5)C=C4)C=C3)cc1
REMARK SMILES IDX 20 1 19 2 18 3 17 4 15 5 16 6 14 8 1 9 2 10 3 11 11 12 13 13
REMARK SMILES IDX 12 14 4 15 5 17 6 18 10 19 7 20 8 21 9 22 21 26 22 27 23 28
REMARK SMILES IDX 24 29 25 30 26 32 27 33 28 34 89 35 29 36 88 37 30 38 31 39
REMARK SMILES IDX 32 40 82 41 33 42 87 43 81 44 83 45 34 46 86 47 80 48 79 49
REMARK SMILES IDX 35 51 67 52 47 53 66 54 48 55 51 56 65 57 84 58 49 59 50 60
REMARK SMILES IDX 64 62 85 63 52 64 36 65 37 66 45 67 38 68 44 69 46 70 43 71
REMARK SMILES IDX 39 72 40 73 41 74 42 75 68 76 69 77 77 78 70 79 76 80 78 81
REMARK SMILES IDX 75 82 71 83 72 84 73 85 74 86 53 87 54 88 62 89 55 90 61 91
REMARK SMILES IDX 63 92 60 93 56 94 57 95 58 96 59 97
REMARK H PARENT 17 7 4 16 9 23 9 24 9 25 24 31 83 50 51 61
REMARK Flexibility Score: inf
ROOT
ATOM      1  C   UNL     1       5.350   2.850  -0.625  1.00  0.00     0.002 C 
ENDROOT
BRANCH   1   2
ATOM      2  C   UNL     1       4.282   1.750  -0.576  1.00  0.00     0.021 C 
BRANCH   2   3
ATOM      3  C   UNL     1       3.161   1.978   0.448  1.00  0.00     0.116 C 
BRANCH   3   4
ATOM      4  N   UNL     1       2.068   2.717  -0.160  1.00  0.00    -0.352 N 
ATOM      5  C   UNL     1       0.777   2.399  -0.491  1.00  0.00     0.251 C 
ATOM      6  O   UNL     1       0.088   3.292  -0.992  1.00  0.00    -0.269 OA
ATOM      7  H   UNL     1       2.307   3.646  -0.383  1.00  0.00     0.163 HD
BRANCH   5   8
ATOM      8  C   UNL     1       0.116   1.091  -0.189  1.00  0.00     0.044 A 
ATOM      9  C   UNL     1       1.901  -0.439  -1.178  1.00  0.00     0.047 C 
ATOM     10  C   UNL     1       0.641  -0.206  -0.384  1.00  0.00    -0.015 A 
ATOM     11  C   UNL     1      -0.094  -1.353   0.039  1.00  0.00     0.038 A 
ATOM     12  C   UNL     1      -1.441  -1.178   0.366  1.00  0.00     0.026 A 
ATOM     13  C   UNL     1      -1.224   1.213   0.219  1.00  0.00     0.014 A 
ATOM     14  C   UNL     1      -2.009   0.090   0.450  1.00  0.00     0.003 A 
BRANCH  11  15
ATOM     15  N   UNL     1       0.529  -2.587   0.048  1.00  0.00    -0.382 N 
ATOM     16  H   UNL     1       1.504  -2.550   0.183  1.00  0.00     0.160 HD
BRANCH  15  17
ATOM     17  C   UNL     1      -0.002  -3.929  -0.108  1.00  0.00     0.085 C 
ATOM     18  C   UNL     1      -0.832  -4.123  -1.378  1.00  0.00     0.031 C 
ATOM     19  C   UNL     1      -0.826  -4.461   1.062  1.00  0.00     0.089 C 
ATOM     20  C   UNL     1      -2.098  -4.851  -0.931  1.00  0.00     0.067 C 
ATOM     21  C   UNL     1      -1.759  -5.489   0.418  1.00  0.00     0.182 C 
BRANCH  21  22
ATOM     22  N   UNL     1      -1.111  -6.789   0.243  1.00  0.00    -0.355 N 
ATOM     23  H   UNL     1      -0.272  -6.677  -0.325  1.00  0.00     0.344 HD
ATOM     24  H   UNL     1      -1.754  -7.429  -0.222  1.00  0.00     0.344 HD
ATOM     25  H   UNL     1      -0.856  -7.167   1.156  1.00  0.00     0.344 HD
ENDBRANCH  21  22
ENDBRANCH  15  17
ENDBRANCH  11  15
ENDBRANCH   5   8
ENDBRANCH   3   4
ENDBRANCH   2   3
ENDBRANCH   1   2
BRANCH   1  26
ATOM     26  C   UNL     1       6.233   2.993   0.624  1.00  0.00     0.002 C 
BRANCH  26  27
ATOM     27  C   UNL     1       6.888   1.705   1.125  1.00  0.00     0.021 C 
BRANCH  27  28
ATOM     28  C   UNL     1       7.902   1.101   0.156  1.00  0.00     0.116 C 
BRANCH  28  29
ATOM     29  N   UNL     1       9.290   1.367   0.514  1.00  0.00    -0.352 N 
ATOM     30  C   UNL     1      10.443   0.967  -0.129  1.00  0.00     0.251 C 
ATOM     31  H   UNL     1       9.423   1.906   1.327  1.00  0.00     0.163 HD
ATOM     32  O   UNL     1      11.552   1.216   0.344  1.00  0.00    -0.269 OA
BRANCH  30  33
ATOM     33  C   UNL     1      10.345   0.332  -1.464  1.00  0.00     0.039 A 
ATOM     34  C   UNL     1      11.094   0.893  -2.506  1.00  0.00     0.014 A 
ATOM     35  C   UNL     1       9.401  -0.657  -1.733  1.00  0.00     0.014 A 
ATOM     36  C   UNL     1      10.745   0.622  -3.827  1.00  0.00     0.010 A 
ATOM     37  C   UNL     1       9.002  -0.867  -3.041  1.00  0.00     0.010 A 
ATOM     38  C   UNL     1       9.633  -0.181  -4.084  1.00  0.00    -0.014 A 
BRANCH  38  39
ATOM     39  C   UNL     1       8.987  -0.249  -5.392  1.00  0.00     0.031 A 
ATOM     40  C   UNL     1       9.153  -1.426  -6.268  1.00  0.00     0.074 A 
ATOM     41  C   UNL     1       8.211   0.776  -5.808  1.00  0.00     0.049 A 
ATOM     42  N   UNL     1       9.012  -1.402  -7.551  1.00  0.00    -0.248 NA
ATOM     43  C   UNL     1       9.538  -2.735  -5.756  1.00  0.00     0.031 C 
ATOM     44  C   UNL     1       7.326   0.811  -6.968  1.00  0.00     0.029 A 
ATOM     45  N   UNL     1       8.301   2.104  -5.398  1.00  0.00    -0.354 N 
ATOM     46  C   UNL     1       9.040  -2.698  -8.006  1.00  0.00     0.074 A 
ATOM     47  C   UNL     1       9.412  -3.489  -6.853  1.00  0.00     0.031 C 
ATOM     48  C   UNL     1       7.174   2.087  -7.353  1.00  0.00     0.029 A 
ATOM     49  C   UNL     1       8.057   2.898  -6.535  1.00  0.00     0.049 A 
ATOM     50  H   UNL     1       8.496   2.426  -4.488  1.00  0.00     0.167 HD
ATOM     51  C   UNL     1       8.644  -2.981  -9.279  1.00  0.00     0.034 A 
ATOM     52  C   UNL     1       9.012   3.759  -6.996  1.00  0.00     0.034 A 
ATOM     53  C   UNL     1       8.301  -1.778 -10.034  1.00  0.00     0.049 A 
ATOM     54  C   UNL     1       9.493   3.458  -8.402  1.00  0.00     0.074 A 
ATOM     55  C   UNL     1       7.114  -1.139 -10.353  1.00  0.00     0.029 A 
ATOM     56  N   UNL     1       9.312  -0.898 -10.371  1.00  0.00    -0.354 N 
ATOM     57  N   UNL     1       9.102   2.437  -9.116  1.00  0.00    -0.248 NA
ATOM     58  C   UNL     1      10.532   4.240  -9.074  1.00  0.00     0.031 C 
ATOM     59  C   UNL     1       7.433   0.159 -10.851  1.00  0.00     0.029 A 
ATOM     60  C   UNL     1       8.809   0.295 -10.853  1.00  0.00     0.049 A 
ATOM     61  H   UNL     1      10.272  -1.097 -10.280  1.00  0.00     0.167 HD
ATOM     62  C   UNL     1       9.848   2.377 -10.264  1.00  0.00     0.074 A 
ATOM     63  C   UNL     1      10.728   3.529 -10.196  1.00  0.00     0.031 C 
ATOM     64  C   UNL     1       9.737   1.365 -11.173  1.00  0.00     0.034 A 
BRANCH  51  65
ATOM     65  C   UNL     1       8.349  -4.375  -9.770  1.00  0.00     0.023 A 
ATOM     66  C   UNL     1       7.330  -4.567 -10.724  1.00  0.00     0.031 A 
ATOM     67  C   UNL     1       9.003  -5.542  -9.331  1.00  0.00     0.131 A 
ATOM     68  C   UNL     1       6.932  -5.857 -11.119  1.00  0.00     0.055 A 
ATOM     69  C   UNL     1       8.564  -6.828  -9.671  1.00  0.00     0.041 A 
ATOM     70  F   UNL     1      10.122  -5.483  -8.595  1.00  0.00    -0.206 F 
ATOM     71  C   UNL     1       7.512  -6.992 -10.560  1.00  0.00     0.022 A 
BRANCH  68  72
ATOM     72  S   UNL     1       5.651  -6.032 -12.390  1.00  0.00     0.124 S 
ATOM     73  O   UNL     1       4.533  -5.295 -11.809  1.00  0.00    -0.237 OA
ATOM     74  O   UNL     1       6.289  -5.426 -13.554  1.00  0.00    -0.237 OA
ATOM     75  O   UNL     1       5.456  -7.479 -12.477  1.00  0.00    -0.744 OA
ENDBRANCH  68  72
ENDBRANCH  51  65
BRANCH  52  76
ATOM     76  C   UNL     1       9.841   4.341  -5.897  1.00  0.00     0.023 A 
ATOM     77  C   UNL     1       9.150   4.980  -4.843  1.00  0.00     0.031 A 
ATOM     78  C   UNL     1      11.168   3.955  -5.669  1.00  0.00     0.131 A 
ATOM     79  C   UNL     1       9.714   5.037  -3.562  1.00  0.00     0.055 A 
ATOM     80  C   UNL     1      11.762   4.104  -4.410  1.00  0.00     0.041 A 
ATOM     81  F   UNL     1      11.870   3.312  -6.614  1.00  0.00    -0.206 F 
ATOM     82  C   UNL     1      11.019   4.600  -3.337  1.00  0.00     0.022 A 
BRANCH  79  83
ATOM     83  S   UNL     1       8.618   5.384  -2.152  1.00  0.00     0.124 S 
ATOM     84  O   UNL     1       8.669   6.839  -2.075  1.00  0.00    -0.237 OA
ATOM     85  O   UNL     1       7.345   4.812  -2.586  1.00  0.00    -0.237 OA
ATOM     86  O   UNL     1       9.249   4.670  -1.044  1.00  0.00    -0.744 OA
ENDBRANCH  79  83
ENDBRANCH  52  76
BRANCH  64  87
ATOM     87  C   UNL     1      10.549   1.323 -12.437  1.00  0.00     0.023 A 
ATOM     88  C   UNL     1      10.751   2.473 -13.217  1.00  0.00     0.031 A 
ATOM     89  C   UNL     1      11.093   0.119 -12.934  1.00  0.00     0.131 A 
ATOM     90  C   UNL     1      11.527   2.418 -14.386  1.00  0.00     0.055 A 
ATOM     91  C   UNL     1      11.789   0.052 -14.143  1.00  0.00     0.041 A 
ATOM     92  F   UNL     1      11.010  -1.027 -12.242  1.00  0.00    -0.206 F 
ATOM     93  C   UNL     1      12.023   1.209 -14.871  1.00  0.00     0.022 A 
BRANCH  90  94
ATOM     94  S   UNL     1      11.959   3.973 -15.207  1.00  0.00     0.124 S 
ATOM     95  O   UNL     1      10.654   4.577 -15.454  1.00  0.00    -0.237 OA
ATOM     96  O   UNL     1      12.778   4.626 -14.188  1.00  0.00    -0.237 OA
ATOM     97  O   UNL     1      12.683   3.544 -16.401  1.00  0.00    -0.744 OA
ENDBRANCH  90  94
ENDBRANCH  64  87
ENDBRANCH  38  39
ENDBRANCH  30  33
ENDBRANCH  28  29
ENDBRANCH  27  28
ENDBRANCH  26  27
ENDBRANCH   1  26
TORSDOF 19
