REMARK SMILES COc1ccc([C@H]2CC(c3ccc(S(C)(=O)=O)cc3)=NN2c2ccc(C(=O)NCCCCCCNC(=O)c3ccc(-c4c5nc(c(-c6cc(S(=O)(=O)[O-])ccc6F)c6ccc([nH]6)c(-c6cc(S(=O)(=O)[O-])ccc6F)c6nc(c(-c7cc(S(=O)(=O)[O-])ccc7F)c7ccc4[nH]7)C=C6)C=C5)cc3)cc2)cc1
REMARK SMILES IDX 31 1 30 2 29 3 28 4 26 5 27 6 25 8 22 9 23 10 102 11 24 12
REMARK SMILES IDX 101 13 21 14 7 15 8 16 9 17 20 18 6 19 3 20 4 21 104 22 5 23
REMARK SMILES IDX 103 24 2 25 1 26 10 27 11 28 19 29 12 30 18 31 13 32 14 33
REMARK SMILES IDX 15 34 16 35 17 36 32 37 33 38 34 39 35 40 36 41 37 43 38 44
REMARK SMILES IDX 39 45 100 46 40 47 99 48 41 49 42 50 43 51 93 52 44 53 98 54
REMARK SMILES IDX 92 55 94 56 45 57 97 58 91 59 90 60 46 62 78 63 58 64 77 65
REMARK SMILES IDX 59 66 62 67 76 68 95 69 60 70 61 71 75 73 96 74 63 75 47 76
REMARK SMILES IDX 48 77 56 78 49 79 55 80 57 81 54 82 50 83 51 84 52 85 53 86
REMARK SMILES IDX 79 87 80 88 88 89 81 90 87 91 89 92 86 93 82 94 83 95 84 96
REMARK SMILES IDX 85 97 64 98 65 99 73 100 66 101 72 102 74 103 71 104 67 105
REMARK SMILES IDX 68 106 69 107 70 108
REMARK H PARENT 28 7 35 42 94 61 62 72
REMARK Flexibility Score: inf
ROOT
ATOM      1  C   UNL     1       0.152 -11.953  -4.844  1.00  0.00     0.002 C 
ENDROOT
BRANCH   1   2
ATOM      2  C   UNL     1       0.335 -10.478  -5.233  1.00  0.00     0.021 C 
BRANCH   2   3
ATOM      3  C   UNL     1       0.498  -9.554  -4.024  1.00  0.00     0.116 C 
BRANCH   3   4
ATOM      4  N   UNL     1       1.846  -9.666  -3.500  1.00  0.00    -0.352 N 
ATOM      5  C   UNL     1       2.961  -8.880  -3.618  1.00  0.00     0.251 C 
ATOM      6  O   UNL     1       3.990  -9.277  -3.069  1.00  0.00    -0.269 OA
ATOM      7  H   UNL     1       1.988 -10.469  -2.948  1.00  0.00     0.163 HD
BRANCH   5   8
ATOM      8  C   UNL     1       2.973  -7.558  -4.308  1.00  0.00     0.039 A 
ATOM      9  C   UNL     1       3.086  -4.945  -5.398  1.00  0.00     0.060 A 
ATOM     10  C   UNL     1       3.999  -5.355  -4.423  1.00  0.00     0.029 A 
ATOM     11  C   UNL     1       2.161  -5.881  -5.868  1.00  0.00     0.029 A 
ATOM     12  C   UNL     1       3.931  -6.634  -3.867  1.00  0.00     0.016 A 
ATOM     13  C   UNL     1       2.134  -7.188  -5.361  1.00  0.00     0.016 A 
BRANCH   9  14
ATOM     14  N   UNL     1       3.130  -3.648  -5.878  1.00  0.00    -0.257 N 
ATOM     15  C   UNL     1       1.994  -2.727  -5.886  1.00  0.00     0.144 C 
ATOM     16  C   UNL     1       2.521  -1.550  -6.718  1.00  0.00     0.091 C 
ATOM     17  C   UNL     1       3.866  -2.090  -7.109  1.00  0.00     0.071 C 
ATOM     18  N   UNL     1       4.186  -3.249  -6.631  1.00  0.00    -0.176 NA
BRANCH  15  19
ATOM     19  C   UNL     1       1.602  -2.308  -4.477  1.00  0.00    -0.023 A 
ATOM     20  C   UNL     1       0.851  -1.516  -1.878  1.00  0.00     0.118 A 
ATOM     21  C   UNL     1      -0.092  -2.060  -2.750  1.00  0.00     0.047 A 
ATOM     22  C   UNL     1       2.178  -1.399  -2.285  1.00  0.00     0.047 A 
ATOM     23  C   UNL     1       0.275  -2.443  -4.043  1.00  0.00     0.010 A 
ATOM     24  C   UNL     1       2.549  -1.791  -3.575  1.00  0.00     0.010 A 
BRANCH  20  25
ATOM     25  O   UNL     1       0.394  -1.185  -0.632  1.00  0.00    -0.497 OA
ATOM     26  C   UNL     1       0.955   0.011  -0.099  1.00  0.00     0.278 C 
ENDBRANCH  20  25
ENDBRANCH  15  19
BRANCH  17  27
ATOM     27  C   UNL     1       4.741  -1.342  -8.012  1.00  0.00    -0.002 A 
ATOM     28  C   UNL     1       5.037  -1.885  -9.266  1.00  0.00     0.011 A 
ATOM     29  C   UNL     1       5.288  -0.124  -7.603  1.00  0.00     0.011 A 
ATOM     30  C   UNL     1       5.880  -1.192 -10.134  1.00  0.00     0.021 A 
ATOM     31  C   UNL     1       6.151   0.559  -8.461  1.00  0.00     0.021 A 
ATOM     32  C   UNL     1       6.444   0.020  -9.719  1.00  0.00     0.067 A 
BRANCH  32  33
ATOM     33  S   UNL     1       7.536   0.888 -10.822  1.00  0.00     0.175 S 
ATOM     34  C   UNL     1       8.892  -0.231 -11.063  1.00  0.00     0.163 C 
ATOM     35  O   UNL     1       6.834   1.038 -12.080  1.00  0.00    -0.224 OA
ATOM     36  O   UNL     1       8.051   2.044 -10.110  1.00  0.00    -0.224 OA
ENDBRANCH  32  33
ENDBRANCH  17  27
ENDBRANCH   9  14
ENDBRANCH   5   8
ENDBRANCH   3   4
ENDBRANCH   2   3
ENDBRANCH   1   2
BRANCH   1  37
ATOM     37  C   UNL     1      -1.136 -12.259  -4.070  1.00  0.00     0.002 C 
BRANCH  37  38
ATOM     38  C   UNL     1      -2.429 -11.828  -4.769  1.00  0.00     0.021 C 
BRANCH  38  39
ATOM     39  C   UNL     1      -2.668 -12.496  -6.120  1.00  0.00     0.116 C 
BRANCH  39  40
ATOM     40  N   UNL     1      -2.883 -13.928  -5.979  1.00  0.00    -0.352 N 
ATOM     41  C   UNL     1      -3.964 -14.683  -6.364  1.00  0.00     0.251 C 
ATOM     42  H   UNL     1      -2.151 -14.425  -5.548  1.00  0.00     0.163 HD
ATOM     43  O   UNL     1      -4.083 -15.834  -5.955  1.00  0.00    -0.269 OA
BRANCH  41  44
ATOM     44  C   UNL     1      -4.988 -14.096  -7.255  1.00  0.00     0.039 A 
ATOM     45  C   UNL     1      -6.339 -14.261  -6.941  1.00  0.00     0.014 A 
ATOM     46  C   UNL     1      -4.612 -13.385  -8.399  1.00  0.00     0.014 A 
ATOM     47  C   UNL     1      -7.313 -13.652  -7.736  1.00  0.00     0.010 A 
ATOM     48  C   UNL     1      -5.582 -12.731  -9.157  1.00  0.00     0.010 A 
ATOM     49  C   UNL     1      -6.941 -12.851  -8.828  1.00  0.00    -0.014 A 
BRANCH  49  50
ATOM     50  C   UNL     1      -7.954 -12.117  -9.630  1.00  0.00     0.031 A 
ATOM     51  C   UNL     1      -8.165 -12.464 -11.078  1.00  0.00     0.074 A 
ATOM     52  C   UNL     1      -8.632 -11.095  -9.070  1.00  0.00     0.049 A 
ATOM     53  N   UNL     1      -8.912 -11.867 -11.971  1.00  0.00    -0.248 NA
ATOM     54  C   UNL     1      -7.418 -13.621 -11.595  1.00  0.00     0.031 C 
ATOM     55  C   UNL     1      -8.494 -10.650  -7.681  1.00  0.00     0.029 A 
ATOM     56  N   UNL     1      -9.561 -10.234  -9.601  1.00  0.00    -0.354 N 
ATOM     57  C   UNL     1      -8.728 -12.574 -13.154  1.00  0.00     0.074 A 
ATOM     58  C   UNL     1      -7.752 -13.608 -12.877  1.00  0.00     0.031 C 
ATOM     59  C   UNL     1      -9.312  -9.606  -7.470  1.00  0.00     0.029 A 
ATOM     60  C   UNL     1      -9.996  -9.274  -8.715  1.00  0.00     0.049 A 
ATOM     61  H   UNL     1      -9.884 -10.297 -10.528  1.00  0.00     0.167 HD
ATOM     62  C   UNL     1      -9.333 -12.392 -14.354  1.00  0.00     0.034 A 
ATOM     63  C   UNL     1     -10.832  -8.232  -8.892  1.00  0.00     0.034 A 
ATOM     64  C   UNL     1     -10.308 -11.362 -14.615  1.00  0.00     0.049 A 
ATOM     65  C   UNL     1     -11.453  -8.021 -10.252  1.00  0.00     0.074 A 
ATOM     66  C   UNL     1     -11.004 -11.110 -15.785  1.00  0.00     0.029 A 
ATOM     67  N   UNL     1     -10.723 -10.409 -13.694  1.00  0.00    -0.354 N 
ATOM     68  N   UNL     1     -11.291  -8.722 -11.351  1.00  0.00    -0.248 NA
ATOM     69  C   UNL     1     -12.374  -6.885 -10.394  1.00  0.00     0.031 C 
ATOM     70  C   UNL     1     -11.795  -9.972 -15.590  1.00  0.00     0.029 A 
ATOM     71  C   UNL     1     -11.645  -9.553 -14.278  1.00  0.00     0.049 A 
ATOM     72  H   UNL     1     -10.409 -10.350 -12.763  1.00  0.00     0.167 HD
ATOM     73  C   UNL     1     -12.113  -8.126 -12.304  1.00  0.00     0.074 A 
ATOM     74  C   UNL     1     -12.783  -7.024 -11.646  1.00  0.00     0.031 C 
ATOM     75  C   UNL     1     -12.298  -8.456 -13.607  1.00  0.00     0.034 A 
BRANCH  62  76
ATOM     76  C   UNL     1      -8.948 -13.323 -15.477  1.00  0.00     0.023 A 
ATOM     77  C   UNL     1      -9.241 -14.697 -15.422  1.00  0.00     0.031 A 
ATOM     78  C   UNL     1      -8.286 -12.834 -16.616  1.00  0.00     0.131 A 
ATOM     79  C   UNL     1      -8.823 -15.543 -16.459  1.00  0.00     0.055 A 
ATOM     80  C   UNL     1      -7.937 -13.670 -17.679  1.00  0.00     0.041 A 
ATOM     81  F   UNL     1      -7.964 -11.535 -16.715  1.00  0.00    -0.206 F 
ATOM     82  C   UNL     1      -8.196 -15.036 -17.599  1.00  0.00     0.022 A 
BRANCH  79  83
ATOM     83  S   UNL     1      -9.017 -17.334 -16.248  1.00  0.00     0.124 S 
ATOM     84  O   UNL     1      -8.180 -17.583 -15.077  1.00  0.00    -0.237 OA
ATOM     85  O   UNL     1     -10.454 -17.475 -16.048  1.00  0.00    -0.237 OA
ATOM     86  O   UNL     1      -8.505 -17.884 -17.501  1.00  0.00    -0.744 OA
ENDBRANCH  79  83
ENDBRANCH  62  76
BRANCH  63  87
ATOM     87  C   UNL     1     -11.113  -7.279  -7.778  1.00  0.00     0.023 A 
ATOM     88  C   UNL     1     -12.414  -7.117  -7.277  1.00  0.00     0.031 A 
ATOM     89  C   UNL     1     -10.098  -6.461  -7.250  1.00  0.00     0.131 A 
ATOM     90  C   UNL     1     -12.680  -6.116  -6.330  1.00  0.00     0.055 A 
ATOM     91  C   UNL     1     -10.356  -5.510  -6.262  1.00  0.00     0.041 A 
ATOM     92  F   UNL     1      -8.835  -6.574  -7.691  1.00  0.00    -0.206 F 
ATOM     93  C   UNL     1     -11.658  -5.320  -5.809  1.00  0.00     0.022 A 
BRANCH  90  94
ATOM     94  S   UNL     1     -14.406  -5.785  -5.880  1.00  0.00     0.124 S 
ATOM     95  O   UNL     1     -15.014  -5.555  -7.186  1.00  0.00    -0.237 OA
ATOM     96  O   UNL     1     -14.783  -7.022  -5.206  1.00  0.00    -0.237 OA
ATOM     97  O   UNL     1     -14.313  -4.609  -5.019  1.00  0.00    -0.744 OA
ENDBRANCH  90  94
ENDBRANCH  63  87
BRANCH  75  98
ATOM     98  C   UNL     1     -13.294  -7.635 -14.385  1.00  0.00     0.023 A 
ATOM     99  C   UNL     1     -13.050  -6.288 -14.702  1.00  0.00     0.031 A 
ATOM    100  C   UNL     1     -14.508  -8.207 -14.806  1.00  0.00     0.131 A 
ATOM    101  C   UNL     1     -14.029  -5.541 -15.374  1.00  0.00     0.055 A 
ATOM    102  C   UNL     1     -15.454  -7.474 -15.524  1.00  0.00     0.041 A 
ATOM    103  F   UNL     1     -14.791  -9.490 -14.529  1.00  0.00    -0.206 F 
ATOM    104  C   UNL     1     -15.222  -6.130 -15.801  1.00  0.00     0.022 A 
BRANCH 101 105
ATOM    105  S   UNL     1     -13.753  -3.765 -15.619  1.00  0.00     0.124 S 
ATOM    106  O   UNL     1     -13.645  -3.283 -14.246  1.00  0.00    -0.237 OA
ATOM    107  O   UNL     1     -12.520  -3.745 -16.400  1.00  0.00    -0.237 OA
ATOM    108  O   UNL     1     -14.948  -3.328 -16.339  1.00  0.00    -0.744 OA
ENDBRANCH 101 105
ENDBRANCH  75  98
ENDBRANCH  49  50
ENDBRANCH  41  44
ENDBRANCH  39  40
ENDBRANCH  38  39
ENDBRANCH  37  38
ENDBRANCH   1  37
TORSDOF 21
