REMARK SMILES C[C@@H](NC(=O)[C@H]1CC=CC[C@@H]1C(=O)NCCCCCCNC(=O)c1ccc(-c2c3nc(c(-c4cc(S(=O)(=O)[O-])ccc4F)c4ccc([nH]4)c(-c4cc(S(=O)(=O)[O-])ccc4F)c4nc(c(-c5cc(S(=O)(=O)[O-])ccc5F)c5ccc2[nH]5)C=C4)C=C3)cc1)c1ccc(-n2ccnc2)cc1
REMARK SMILES IDX 17 1 16 2 15 3 14 4 12 5 13 6 11 8 6 9 7 10 8 11 10 12 9 13
REMARK SMILES IDX 4 14 3 15 5 17 2 18 1 19 87 20 88 21 97 22 89 23 96 24 90 25
REMARK SMILES IDX 91 26 92 27 95 28 93 29 94 30 18 31 19 32 20 33 21 34 22 35
REMARK SMILES IDX 23 37 24 38 25 39 86 40 26 41 85 42 27 43 28 44 29 45 79 46
REMARK SMILES IDX 30 47 84 48 78 49 80 50 31 51 83 52 77 53 76 54 32 56 64 57
REMARK SMILES IDX 44 58 63 59 45 60 48 61 62 62 81 63 46 64 47 65 61 67 82 68
REMARK SMILES IDX 49 69 33 70 34 71 42 72 35 73 41 74 43 75 40 76 36 77 37 78
REMARK SMILES IDX 38 79 39 80 65 81 66 82 74 83 67 84 73 85 75 86 72 87 68 88
REMARK SMILES IDX 69 89 70 90 71 91 50 92 51 93 59 94 52 95 58 96 60 97 57 98
REMARK SMILES IDX 53 99 54 100 55 101 56 102
REMARK H PARENT 14 7 3 16 21 36 80 55 48 66
REMARK Flexibility Score: inf
ROOT
ATOM      1  C   UNL     1      -4.996  -2.417   0.750  1.00  0.00     0.002 C 
ENDROOT
BRANCH   1   2
ATOM      2  C   UNL     1      -3.508  -2.239   0.418  1.00  0.00     0.021 C 
BRANCH   2   3
ATOM      3  C   UNL     1      -3.131  -1.082  -0.517  1.00  0.00     0.116 C 
BRANCH   3   4
ATOM      4  N   UNL     1      -3.792   0.179  -0.217  1.00  0.00    -0.356 N 
ATOM      5  C   UNL     1      -3.336   1.463  -0.167  1.00  0.00     0.224 C 
ATOM      6  O   UNL     1      -4.185   2.349  -0.049  1.00  0.00    -0.275 OA
ATOM      7  H   UNL     1      -4.750   0.087  -0.011  1.00  0.00     0.163 HD
BRANCH   5   8
ATOM      8  C   UNL     1      -1.843   1.778  -0.244  1.00  0.00     0.095 C 
ATOM      9  C   UNL     1      -1.474   2.966   0.661  1.00  0.00     0.095 C 
ATOM     10  C   UNL     1      -1.946   4.324   0.093  1.00  0.00     0.041 C 
ATOM     11  C   UNL     1      -1.802   4.449  -1.390  1.00  0.00    -0.030 C 
ATOM     12  C   UNL     1      -1.384   1.998  -1.691  1.00  0.00     0.041 C 
ATOM     13  C   UNL     1      -1.532   3.407  -2.188  1.00  0.00    -0.030 C 
BRANCH   9  14
ATOM     14  C   UNL     1       0.014   3.026   1.067  1.00  0.00     0.224 C 
ATOM     15  N   UNL     1       0.634   2.103   1.856  1.00  0.00    -0.349 N 
ATOM     16  H   UNL     1       1.508   2.421   2.180  1.00  0.00     0.164 HD
ATOM     17  O   UNL     1       0.720   3.997   0.765  1.00  0.00    -0.275 OA
BRANCH  15  18
ATOM     18  C   UNL     1       0.325   0.745   2.345  1.00  0.00     0.109 C 
ATOM     19  C   UNL     1       0.699  -0.257   1.232  1.00  0.00     0.036 C 
BRANCH  18  20
ATOM     20  C   UNL     1      -1.036   0.626   3.015  1.00  0.00    -0.026 A 
ATOM     21  C   UNL     1      -1.656   1.750   3.578  1.00  0.00     0.008 A 
ATOM     22  C   UNL     1      -1.731  -0.583   3.109  1.00  0.00     0.008 A 
ATOM     23  C   UNL     1      -3.040   1.773   3.765  1.00  0.00     0.027 A 
ATOM     24  C   UNL     1      -3.093  -0.604   3.443  1.00  0.00     0.027 A 
ATOM     25  C   UNL     1      -3.771   0.603   3.595  1.00  0.00     0.046 A 
BRANCH  25  26
ATOM     26  N   UNL     1      -5.169   0.651   3.385  1.00  0.00    -0.306 N 
ATOM     27  C   UNL     1      -6.093  -0.335   3.640  1.00  0.00     0.113 A 
ATOM     28  C   UNL     1      -5.847   1.630   2.689  1.00  0.00     0.204 A 
ATOM     29  C   UNL     1      -7.273   0.100   3.082  1.00  0.00     0.131 A 
ATOM     30  N   UNL     1      -7.111   1.321   2.492  1.00  0.00    -0.245 NA
ENDBRANCH  25  26
ENDBRANCH  18  20
ENDBRANCH  15  18
ENDBRANCH   9  14
ENDBRANCH   5   8
ENDBRANCH   3   4
ENDBRANCH   2   3
ENDBRANCH   1   2
BRANCH   1  31
ATOM     31  C   UNL     1      -5.780  -3.268  -0.250  1.00  0.00     0.002 C 
BRANCH  31  32
ATOM     32  C   UNL     1      -5.256  -4.695  -0.430  1.00  0.00     0.021 C 
BRANCH  32  33
ATOM     33  C   UNL     1      -5.180  -5.508   0.858  1.00  0.00     0.116 C 
BRANCH  33  34
ATOM     34  N   UNL     1      -6.494  -5.976   1.269  1.00  0.00    -0.352 N 
ATOM     35  C   UNL     1      -6.938  -7.280   1.320  1.00  0.00     0.251 C 
ATOM     36  H   UNL     1      -7.139  -5.284   1.541  1.00  0.00     0.163 HD
ATOM     37  O   UNL     1      -8.129  -7.536   1.399  1.00  0.00    -0.269 OA
BRANCH  35  38
ATOM     38  C   UNL     1      -5.927  -8.358   1.264  1.00  0.00     0.039 A 
ATOM     39  C   UNL     1      -6.039  -9.368   0.307  1.00  0.00     0.014 A 
ATOM     40  C   UNL     1      -4.832  -8.314   2.132  1.00  0.00     0.014 A 
ATOM     41  C   UNL     1      -5.019 -10.316   0.190  1.00  0.00     0.010 A 
ATOM     42  C   UNL     1      -3.786  -9.211   1.961  1.00  0.00     0.010 A 
ATOM     43  C   UNL     1      -3.873 -10.231   0.998  1.00  0.00    -0.014 A 
BRANCH  43  44
ATOM     44  C   UNL     1      -2.769 -11.223   0.908  1.00  0.00     0.031 A 
ATOM     45  C   UNL     1      -2.456 -12.077   2.107  1.00  0.00     0.074 A 
ATOM     46  C   UNL     1      -2.002 -11.296  -0.196  1.00  0.00     0.049 A 
ATOM     47  N   UNL     1      -1.449 -12.886   2.312  1.00  0.00    -0.248 NA
ATOM     48  C   UNL     1      -3.384 -11.968   3.242  1.00  0.00     0.031 C 
ATOM     49  C   UNL     1      -2.192 -10.506  -1.413  1.00  0.00     0.029 A 
ATOM     50  N   UNL     1      -0.893 -12.060  -0.466  1.00  0.00    -0.354 N 
ATOM     51  C   UNL     1      -1.609 -13.362   3.610  1.00  0.00     0.074 A 
ATOM     52  C   UNL     1      -2.767 -12.691   4.162  1.00  0.00     0.031 C 
ATOM     53  C   UNL     1      -1.241 -10.836  -2.302  1.00  0.00     0.029 A 
ATOM     54  C   UNL     1      -0.342 -11.818  -1.702  1.00  0.00     0.049 A 
ATOM     55  H   UNL     1      -0.527 -12.720   0.167  1.00  0.00     0.167 HD
ATOM     56  C   UNL     1      -0.873 -14.290   4.270  1.00  0.00     0.034 A 
ATOM     57  C   UNL     1       0.775 -12.310  -2.277  1.00  0.00     0.034 A 
ATOM     58  C   UNL     1       0.272 -14.952   3.695  1.00  0.00     0.049 A 
ATOM     59  C   UNL     1       1.607 -13.313  -1.515  1.00  0.00     0.074 A 
ATOM     60  C   UNL     1       1.066 -15.940   4.250  1.00  0.00     0.029 A 
ATOM     61  N   UNL     1       0.795 -14.685   2.435  1.00  0.00    -0.354 N 
ATOM     62  N   UNL     1       1.431 -13.778  -0.300  1.00  0.00    -0.248 NA
ATOM     63  C   UNL     1       2.782 -13.862  -2.204  1.00  0.00     0.031 C 
ATOM     64  C   UNL     1       2.113 -16.210   3.364  1.00  0.00     0.029 A 
ATOM     65  C   UNL     1       1.920 -15.465   2.211  1.00  0.00     0.049 A 
ATOM     66  H   UNL     1       0.422 -14.037   1.795  1.00  0.00     0.167 HD
ATOM     67  C   UNL     1       2.449 -14.707  -0.096  1.00  0.00     0.074 A 
ATOM     68  C   UNL     1       3.236 -14.731  -1.312  1.00  0.00     0.031 C 
ATOM     69  C   UNL     1       2.698 -15.479   0.993  1.00  0.00     0.034 A 
BRANCH  56  70
ATOM     70  C   UNL     1      -1.270 -14.601   5.696  1.00  0.00     0.023 A 
ATOM     71  C   UNL     1      -2.548 -15.092   6.018  1.00  0.00     0.031 A 
ATOM     72  C   UNL     1      -0.383 -14.344   6.757  1.00  0.00     0.131 A 
ATOM     73  C   UNL     1      -2.941 -15.201   7.360  1.00  0.00     0.055 A 
ATOM     74  C   UNL     1      -0.745 -14.557   8.089  1.00  0.00     0.041 A 
ATOM     75  F   UNL     1       0.844 -13.854   6.520  1.00  0.00    -0.206 F 
ATOM     76  C   UNL     1      -2.038 -14.966   8.399  1.00  0.00     0.022 A 
BRANCH  73  77
ATOM     77  S   UNL     1      -4.700 -15.457   7.724  1.00  0.00     0.124 S 
ATOM     78  O   UNL     1      -5.310 -14.320   7.039  1.00  0.00    -0.237 OA
ATOM     79  O   UNL     1      -4.955 -16.768   7.139  1.00  0.00    -0.237 OA
ATOM     80  O   UNL     1      -4.759 -15.400   9.183  1.00  0.00    -0.744 OA
ENDBRANCH  73  77
ENDBRANCH  56  70
BRANCH  57  81
ATOM     81  C   UNL     1       1.179 -11.853  -3.638  1.00  0.00     0.023 A 
ATOM     82  C   UNL     1       1.189 -12.736  -4.729  1.00  0.00     0.031 A 
ATOM     83  C   UNL     1       1.575 -10.522  -3.864  1.00  0.00     0.131 A 
ATOM     84  C   UNL     1       1.618 -12.287  -5.989  1.00  0.00     0.055 A 
ATOM     85  C   UNL     1       1.950 -10.067  -5.130  1.00  0.00     0.041 A 
ATOM     86  F   UNL     1       1.580  -9.634  -2.857  1.00  0.00    -0.206 F 
ATOM     87  C   UNL     1       1.982 -10.955  -6.200  1.00  0.00     0.022 A 
BRANCH  84  88
ATOM     88  S   UNL     1       1.758 -13.489  -7.340  1.00  0.00     0.124 S 
ATOM     89  O   UNL     1       2.725 -14.435  -6.795  1.00  0.00    -0.237 OA
ATOM     90  O   UNL     1       0.386 -13.971  -7.460  1.00  0.00    -0.237 OA
ATOM     91  O   UNL     1       2.234 -12.684  -8.462  1.00  0.00    -0.744 OA
ENDBRANCH  84  88
ENDBRANCH  57  81
BRANCH  69  92
ATOM     92  C   UNL     1       3.830 -16.475   0.897  1.00  0.00     0.023 A 
ATOM     93  C   UNL     1       5.175 -16.078   0.811  1.00  0.00     0.031 A 
ATOM     94  C   UNL     1       3.548 -17.854   0.923  1.00  0.00     0.131 A 
ATOM     95  C   UNL     1       6.184 -17.050   0.714  1.00  0.00     0.055 A 
ATOM     96  C   UNL     1       4.559 -18.814   0.890  1.00  0.00     0.041 A 
ATOM     97  F   UNL     1       2.280 -18.290   0.999  1.00  0.00    -0.206 F 
ATOM     98  C   UNL     1       5.886 -18.414   0.775  1.00  0.00     0.022 A 
BRANCH  95  99
ATOM     99  S   UNL     1       7.893 -16.511   0.429  1.00  0.00     0.124 S 
ATOM    100  O   UNL     1       7.772 -15.771  -0.824  1.00  0.00    -0.237 OA
ATOM    101  O   UNL     1       8.171 -15.711   1.617  1.00  0.00    -0.237 OA
ATOM    102  O   UNL     1       8.638 -17.765   0.339  1.00  0.00    -0.744 OA
ENDBRANCH  95  99
ENDBRANCH  69  92
ENDBRANCH  43  44
ENDBRANCH  35  38
ENDBRANCH  33  34
ENDBRANCH  32  33
ENDBRANCH  31  32
ENDBRANCH   1  31
TORSDOF 20
