REMARK SMILES COCC[C@]1(C(=O)NCCCCCCNC(=O)c2ccc(-c3c4nc(c(-c5cc(S(=O)(=O)[O-])ccc5F)c5ccc([nH]5)c(-c5cc(S(=O)(=O)[O-])ccc5F)c5nc(c(-c6cc(S(=O)(=O)[O-])ccc6F)c6ccc3[nH]6)C=C5)C=C4)cc2)CCCN(C(=O)Cc2c(C)nc(C)[nH]c2=O)C1
REMARK SMILES IDX 11 1 10 2 9 3 8 4 6 5 7 6 5 8 81 9 97 10 82 11 84 12 83 13
REMARK SMILES IDX 4 14 3 15 2 16 1 17 85 18 86 19 87 20 88 21 89 22 95 23
REMARK SMILES IDX 90 24 91 25 94 26 96 27 92 28 93 30 12 31 13 32 14 33 15 34
REMARK SMILES IDX 16 35 17 37 18 38 19 39 80 40 20 41 79 42 21 43 22 44 23 45
REMARK SMILES IDX 73 46 24 47 78 48 72 49 74 50 25 51 77 52 71 53 70 54 26 56
REMARK SMILES IDX 58 57 38 58 57 59 39 60 42 61 56 62 75 63 40 64 41 65 55 67
REMARK SMILES IDX 76 68 43 69 27 70 28 71 36 72 29 73 35 74 37 75 34 76 30 77
REMARK SMILES IDX 31 78 32 79 33 80 59 81 60 82 68 83 61 84 67 85 69 86 66 87
REMARK SMILES IDX 62 88 63 89 64 90 65 91 44 92 45 93 53 94 46 95 52 96 54 97
REMARK SMILES IDX 51 98 47 99 48 100 49 101 50 102
REMARK H PARENT 8 7 94 29 15 36 74 55 42 66
REMARK Flexibility Score: inf
ROOT
ATOM      1  C   UNL     1       4.471   0.573   3.961  1.00  0.00     0.002 C 
ENDROOT
BRANCH   1   2
ATOM      2  C   UNL     1       3.018   0.947   3.640  1.00  0.00     0.021 C 
BRANCH   2   3
ATOM      3  C   UNL     1       2.875   2.344   3.040  1.00  0.00     0.116 C 
BRANCH   3   4
ATOM      4  N   UNL     1       3.292   2.376   1.660  1.00  0.00    -0.356 N 
ATOM      5  C   UNL     1       2.595   2.509   0.504  1.00  0.00     0.228 C 
ATOM      6  O   UNL     1       3.298   2.599  -0.509  1.00  0.00    -0.274 OA
ATOM      7  H   UNL     1       4.264   2.284   1.534  1.00  0.00     0.163 HD
BRANCH   5   8
ATOM      8  C   UNL     1       1.054   2.644   0.437  1.00  0.00     0.069 C 
ATOM      9  C   UNL     1       0.251   1.615   1.296  1.00  0.00     0.021 C 
ATOM     10  C   UNL     1       0.729   4.096   0.856  1.00  0.00     0.136 C 
ATOM     11  C   UNL     1      -0.476   2.117   2.561  1.00  0.00     0.023 C 
ATOM     12  N   UNL     1      -0.667   4.220   1.268  1.00  0.00    -0.341 N 
ATOM     13  C   UNL     1      -0.930   3.582   2.547  1.00  0.00     0.119 C 
BRANCH   8  14
ATOM     14  C   UNL     1       0.622   2.491  -1.071  1.00  0.00     0.047 C 
BRANCH  14  15
ATOM     15  C   UNL     1       1.067   1.232  -1.827  1.00  0.00     0.161 C 
BRANCH  15  16
ATOM     16  O   UNL     1       0.648   0.041  -1.171  1.00  0.00    -0.385 OA
ATOM     17  C   UNL     1       1.739  -0.806  -0.835  1.00  0.00     0.194 C 
ENDBRANCH  15  16
ENDBRANCH  14  15
ENDBRANCH   8  14
BRANCH  12  18
ATOM     18  C   UNL     1      -1.580   4.806   0.397  1.00  0.00     0.227 C 
ATOM     19  O   UNL     1      -1.222   5.189  -0.723  1.00  0.00    -0.275 OA
BRANCH  18  20
ATOM     20  C   UNL     1      -3.045   4.979   0.810  1.00  0.00     0.143 C 
BRANCH  20  21
ATOM     21  C   UNL     1      -3.918   4.011   0.052  1.00  0.00     0.048 A 
ATOM     22  C   UNL     1      -4.309   2.785   0.453  1.00  0.00     0.049 A 
ATOM     23  C   UNL     1      -4.436   4.453  -1.272  1.00  0.00     0.254 A 
ATOM     24  C   UNL     1      -3.984   2.207   1.794  1.00  0.00     0.067 C 
ATOM     25  N   UNL     1      -4.996   1.892  -0.330  1.00  0.00    -0.240 NA
ATOM     26  N   UNL     1      -5.066   3.495  -2.014  1.00  0.00    -0.311 N 
ATOM     27  O   UNL     1      -4.360   5.611  -1.667  1.00  0.00    -0.269 OA
ATOM     28  C   UNL     1      -5.323   2.256  -1.521  1.00  0.00     0.105 A 
ATOM     29  H   UNL     1      -5.342   3.709  -2.934  1.00  0.00     0.171 HD
ATOM     30  C   UNL     1      -5.984   1.272  -2.438  1.00  0.00     0.087 C 
ENDBRANCH  20  21
ENDBRANCH  18  20
ENDBRANCH  12  18
ENDBRANCH   5   8
ENDBRANCH   3   4
ENDBRANCH   2   3
ENDBRANCH   1   2
BRANCH   1  31
ATOM     31  C   UNL     1       5.199   1.562   4.879  1.00  0.00     0.002 C 
BRANCH  31  32
ATOM     32  C   UNL     1       4.468   1.886   6.185  1.00  0.00     0.021 C 
BRANCH  32  33
ATOM     33  C   UNL     1       4.201   0.674   7.071  1.00  0.00     0.116 C 
BRANCH  33  34
ATOM     34  N   UNL     1       5.438   0.034   7.485  1.00  0.00    -0.352 N 
ATOM     35  C   UNL     1       5.901  -0.217   8.752  1.00  0.00     0.251 C 
ATOM     36  H   UNL     1       6.026  -0.261   6.754  1.00  0.00     0.163 HD
ATOM     37  O   UNL     1       7.074  -0.536   8.919  1.00  0.00    -0.269 OA
BRANCH  35  38
ATOM     38  C   UNL     1       4.986  -0.085   9.905  1.00  0.00     0.039 A 
ATOM     39  C   UNL     1       5.439   0.558  11.059  1.00  0.00     0.014 A 
ATOM     40  C   UNL     1       3.690  -0.607   9.851  1.00  0.00     0.014 A 
ATOM     41  C   UNL     1       4.574   0.722  12.143  1.00  0.00     0.010 A 
ATOM     42  C   UNL     1       2.808  -0.381  10.904  1.00  0.00     0.010 A 
ATOM     43  C   UNL     1       3.243   0.279  12.064  1.00  0.00    -0.014 A 
BRANCH  43  44
ATOM     44  C   UNL     1       2.298   0.482  13.191  1.00  0.00     0.031 A 
ATOM     45  C   UNL     1       1.732  -0.705  13.922  1.00  0.00     0.074 A 
ATOM     46  C   UNL     1       1.910   1.731  13.518  1.00  0.00     0.049 A 
ATOM     47  N   UNL     1       0.843  -0.740  14.881  1.00  0.00    -0.248 NA
ATOM     48  C   UNL     1       2.206  -2.029  13.492  1.00  0.00     0.031 C 
ATOM     49  C   UNL     1       2.363   2.956  12.856  1.00  0.00     0.029 A 
ATOM     50  N   UNL     1       1.042   2.177  14.482  1.00  0.00    -0.354 N 
ATOM     51  C   UNL     1       0.644  -2.088  15.164  1.00  0.00     0.074 A 
ATOM     52  C   UNL     1       1.456  -2.835  14.227  1.00  0.00     0.031 C 
ATOM     53  C   UNL     1       1.787   4.014  13.448  1.00  0.00     0.029 A 
ATOM     54  C   UNL     1       0.891   3.545  14.500  1.00  0.00     0.049 A 
ATOM     55  H   UNL     1       0.572   1.576  15.103  1.00  0.00     0.167 HD
ATOM     56  C   UNL     1      -0.125  -2.647  16.131  1.00  0.00     0.034 A 
ATOM     57  C   UNL     1       0.110   4.329  15.268  1.00  0.00     0.034 A 
ATOM     58  C   UNL     1      -0.920  -1.884  17.063  1.00  0.00     0.049 A 
ATOM     59  C   UNL     1      -0.755   3.684  16.322  1.00  0.00     0.074 A 
ATOM     60  C   UNL     1      -1.696  -2.342  18.113  1.00  0.00     0.029 A 
ATOM     61  N   UNL     1      -1.047  -0.500  17.053  1.00  0.00    -0.354 N 
ATOM     62  N   UNL     1      -0.895   2.410  16.609  1.00  0.00    -0.248 NA
ATOM     63  C   UNL     1      -1.555   4.583  17.162  1.00  0.00     0.031 C 
ATOM     64  C   UNL     1      -2.344  -1.245  18.692  1.00  0.00     0.029 A 
ATOM     65  C   UNL     1      -1.912  -0.092  18.057  1.00  0.00     0.049 A 
ATOM     66  H   UNL     1      -0.589   0.104  16.424  1.00  0.00     0.167 HD
ATOM     67  C   UNL     1      -1.777   2.360  17.685  1.00  0.00     0.074 A 
ATOM     68  C   UNL     1      -2.121   3.731  18.003  1.00  0.00     0.031 C 
ATOM     69  C   UNL     1      -2.256   1.279  18.354  1.00  0.00     0.034 A 
BRANCH  56  70
ATOM     70  C   UNL     1      -0.158  -4.156  16.206  1.00  0.00     0.023 A 
ATOM     71  C   UNL     1       1.000  -4.908  16.475  1.00  0.00     0.031 A 
ATOM     72  C   UNL     1      -1.355  -4.857  15.975  1.00  0.00     0.131 A 
ATOM     73  C   UNL     1       0.955  -6.309  16.425  1.00  0.00     0.055 A 
ATOM     74  C   UNL     1      -1.412  -6.252  16.013  1.00  0.00     0.041 A 
ATOM     75  F   UNL     1      -2.490  -4.197  15.692  1.00  0.00    -0.206 F 
ATOM     76  C   UNL     1      -0.249  -6.987  16.222  1.00  0.00     0.022 A 
BRANCH  73  77
ATOM     77  S   UNL     1       2.518  -7.228  16.477  1.00  0.00     0.124 S 
ATOM     78  O   UNL     1       3.219  -6.678  15.318  1.00  0.00    -0.237 OA
ATOM     79  O   UNL     1       3.055  -6.862  17.782  1.00  0.00    -0.237 OA
ATOM     80  O   UNL     1       2.101  -8.622  16.340  1.00  0.00    -0.744 OA
ENDBRANCH  73  77
ENDBRANCH  56  70
BRANCH  57  81
ATOM     81  C   UNL     1       0.098   5.807  15.070  1.00  0.00     0.023 A 
ATOM     82  C   UNL     1       0.550   6.676  16.076  1.00  0.00     0.031 A 
ATOM     83  C   UNL     1      -0.405   6.375  13.886  1.00  0.00     0.131 A 
ATOM     84  C   UNL     1       0.448   8.064  15.899  1.00  0.00     0.055 A 
ATOM     85  C   UNL     1      -0.455   7.756  13.693  1.00  0.00     0.041 A 
ATOM     86  F   UNL     1      -0.845   5.590  12.889  1.00  0.00    -0.206 F 
ATOM     87  C   UNL     1      -0.040   8.611  14.710  1.00  0.00     0.022 A 
BRANCH  84  88
ATOM     88  S   UNL     1       0.882   9.150  17.286  1.00  0.00     0.124 S 
ATOM     89  O   UNL     1      -0.021   8.675  18.328  1.00  0.00    -0.237 OA
ATOM     90  O   UNL     1       2.297   8.847  17.474  1.00  0.00    -0.237 OA
ATOM     91  O   UNL     1       0.595  10.488  16.772  1.00  0.00    -0.744 OA
ENDBRANCH  84  88
ENDBRANCH  57  81
BRANCH  69  92
ATOM     92  C   UNL     1      -3.170   1.549  19.524  1.00  0.00     0.023 A 
ATOM     93  C   UNL     1      -4.447   2.111  19.353  1.00  0.00     0.031 A 
ATOM     94  C   UNL     1      -2.749   1.249  20.832  1.00  0.00     0.131 A 
ATOM     95  C   UNL     1      -5.234   2.411  20.474  1.00  0.00     0.055 A 
ATOM     96  C   UNL     1      -3.562   1.492  21.940  1.00  0.00     0.041 A 
ATOM     97  F   UNL     1      -1.538   0.713  21.055  1.00  0.00    -0.206 F 
ATOM     98  C   UNL     1      -4.808   2.089  21.765  1.00  0.00     0.022 A 
BRANCH  95  99
ATOM     99  S   UNL     1      -6.787   3.317  20.231  1.00  0.00     0.124 S 
ATOM    100  O   UNL     1      -6.327   4.536  19.575  1.00  0.00    -0.237 OA
ATOM    101  O   UNL     1      -7.557   2.398  19.400  1.00  0.00    -0.237 OA
ATOM    102  O   UNL     1      -7.295   3.498  21.590  1.00  0.00    -0.744 OA
ENDBRANCH  95  99
ENDBRANCH  69  92
ENDBRANCH  43  44
ENDBRANCH  35  38
ENDBRANCH  33  34
ENDBRANCH  32  33
ENDBRANCH  31  32
ENDBRANCH   1  31
TORSDOF 22
