REMARK SMILES Cn1ccnc1[C@@H]1[C@@H](C(=O)NCCCCCCNC(=O)c2ccc(-c3c4nc(c(-c5cc(S(=O)(=O)[O-])ccc5F)c5ccc([nH]5)c(-c5cc(S(=O)(=O)[O-])ccc5F)c5nc(c(-c6cc(S(=O)(=O)[O-])ccc6F)c6ccc3[nH]6)C=C5)C=C4)cc2)CC(=O)N1CCCOC1CCCCC1
REMARK SMILES IDX 13 1 12 2 11 3 9 4 10 5 8 7 7 8 87 9 84 10 85 11 86 12 6 13
REMARK SMILES IDX 1 14 2 15 3 16 4 17 5 18 88 19 89 20 90 21 91 22 92 23 93 24
REMARK SMILES IDX 97 25 94 26 96 27 95 28 14 29 15 30 16 31 17 32 18 33 19 34
REMARK SMILES IDX 20 36 21 37 22 38 83 39 23 40 82 41 24 42 25 43 26 44 76 45
REMARK SMILES IDX 27 46 81 47 75 48 77 49 28 50 80 51 74 52 73 53 29 55 61 56
REMARK SMILES IDX 41 57 60 58 42 59 45 60 59 61 78 62 43 63 44 64 58 66 79 67
REMARK SMILES IDX 46 68 30 69 31 70 39 71 32 72 38 73 40 74 37 75 33 76 34 77
REMARK SMILES IDX 35 78 36 79 62 80 63 81 71 82 64 83 70 84 72 85 69 86 65 87
REMARK SMILES IDX 66 88 67 89 68 90 47 91 48 92 56 93 49 94 55 95 57 96 54 97
REMARK SMILES IDX 50 98 51 99 52 100 53 101
REMARK H PARENT 11 6 18 35 77 54 45 65
REMARK Flexibility Score: inf
ROOT
ATOM      1  C   UNL     1      -1.508   7.001  -0.844  1.00  0.00     0.021 C 
ENDROOT
BRANCH   1   2
ATOM      2  C   UNL     1      -1.214   5.516  -0.793  1.00  0.00     0.116 C 
BRANCH   2   3
ATOM      3  N   UNL     1      -0.651   5.042  -2.044  1.00  0.00    -0.356 N 
ATOM      4  C   UNL     1       0.371   4.186  -2.278  1.00  0.00     0.226 C 
ATOM      5  O   UNL     1       0.681   3.946  -3.447  1.00  0.00    -0.275 OA
ATOM      6  H   UNL     1      -1.082   5.401  -2.853  1.00  0.00     0.163 HD
BRANCH   4   7
ATOM      7  C   UNL     1       1.131   3.538  -1.153  1.00  0.00     0.118 C 
ATOM      8  C   UNL     1       0.197   2.790  -0.205  1.00  0.00     0.164 C 
ATOM      9  N   UNL     1       0.704   3.048   1.136  1.00  0.00    -0.332 N 
ATOM     10  C   UNL     1       1.950   4.489  -0.305  1.00  0.00     0.116 C 
ATOM     11  C   UNL     1       1.734   4.010   1.103  1.00  0.00     0.224 C 
ATOM     12  O   UNL     1       2.307   4.482   2.063  1.00  0.00    -0.275 OA
BRANCH   8  13
ATOM     13  C   UNL     1      -0.057   1.369  -0.652  1.00  0.00     0.132 A 
ATOM     14  C   UNL     1       2.256   0.362  -1.211  1.00  0.00     0.151 C 
ATOM     15  N   UNL     1       0.819   0.388  -1.090  1.00  0.00    -0.336 N 
ATOM     16  C   UNL     1       0.068  -0.696  -1.491  1.00  0.00     0.107 A 
ATOM     17  C   UNL     1      -1.236  -0.320  -1.339  1.00  0.00     0.131 A 
ATOM     18  N   UNL     1      -1.301   0.953  -0.855  1.00  0.00    -0.239 NA
ENDBRANCH   8  13
BRANCH   9  19
ATOM     19  C   UNL     1      -0.038   3.014   2.417  1.00  0.00     0.122 C 
BRANCH  19  20
ATOM     20  C   UNL     1      -1.248   2.131   2.756  1.00  0.00     0.050 C 
BRANCH  20  21
ATOM     21  C   UNL     1      -1.389   0.641   2.437  1.00  0.00     0.162 C 
BRANCH  21  22
ATOM     22  O   UNL     1      -0.544  -0.283   3.127  1.00  0.00    -0.378 OA
BRANCH  22  23
ATOM     23  C   UNL     1       0.656  -0.632   2.429  1.00  0.00     0.118 C 
ATOM     24  C   UNL     1       1.697   0.418   2.757  1.00  0.00     0.032 C 
ATOM     25  C   UNL     1       1.149  -2.019   2.839  1.00  0.00     0.032 C 
ATOM     26  C   UNL     1       3.127   0.146   2.371  1.00  0.00     0.003 C 
ATOM     27  C   UNL     1       2.546  -2.290   2.272  1.00  0.00     0.003 C 
ATOM     28  C   UNL     1       3.557  -1.250   2.747  1.00  0.00     0.000 C 
ENDBRANCH  22  23
ENDBRANCH  21  22
ENDBRANCH  20  21
ENDBRANCH  19  20
ENDBRANCH   9  19
ENDBRANCH   4   7
ENDBRANCH   2   3
ENDBRANCH   1   2
BRANCH   1  29
ATOM     29  C   UNL     1      -2.580   7.368  -1.869  1.00  0.00     0.002 C 
BRANCH  29  30
ATOM     30  C   UNL     1      -3.901   6.604  -1.719  1.00  0.00     0.002 C 
BRANCH  30  31
ATOM     31  C   UNL     1      -4.533   6.672  -0.327  1.00  0.00     0.021 C 
BRANCH  31  32
ATOM     32  C   UNL     1      -4.687   8.082   0.229  1.00  0.00     0.116 C 
BRANCH  32  33
ATOM     33  N   UNL     1      -5.458   8.933  -0.660  1.00  0.00    -0.352 N 
ATOM     34  C   UNL     1      -6.527   9.739  -0.369  1.00  0.00     0.251 C 
ATOM     35  H   UNL     1      -5.173   8.930  -1.602  1.00  0.00     0.163 HD
ATOM     36  O   UNL     1      -7.184  10.232  -1.281  1.00  0.00    -0.269 OA
BRANCH  34  37
ATOM     37  C   UNL     1      -6.891   9.982   1.041  1.00  0.00     0.039 A 
ATOM     38  C   UNL     1      -8.235   9.909   1.410  1.00  0.00     0.014 A 
ATOM     39  C   UNL     1      -5.911  10.274   1.996  1.00  0.00     0.014 A 
ATOM     40  C   UNL     1      -8.591  10.080   2.748  1.00  0.00     0.010 A 
ATOM     41  C   UNL     1      -6.259  10.365   3.339  1.00  0.00     0.010 A 
ATOM     42  C   UNL     1      -7.604  10.278   3.728  1.00  0.00    -0.014 A 
BRANCH  42  43
ATOM     43  C   UNL     1      -7.970  10.408   5.162  1.00  0.00     0.031 A 
ATOM     44  C   UNL     1      -7.699  11.693   5.896  1.00  0.00     0.074 A 
ATOM     45  C   UNL     1      -8.509   9.356   5.809  1.00  0.00     0.049 A 
ATOM     46  N   UNL     1      -7.905  11.987   7.154  1.00  0.00    -0.248 NA
ATOM     47  C   UNL     1      -7.089  12.782   5.118  1.00  0.00     0.031 C 
ATOM     48  C   UNL     1      -8.784   8.048   5.210  1.00  0.00     0.029 A 
ATOM     49  N   UNL     1      -8.922   9.217   7.110  1.00  0.00    -0.354 N 
ATOM     50  C   UNL     1      -7.448  13.290   7.319  1.00  0.00     0.074 A 
ATOM     51  C   UNL     1      -6.888  13.701   6.050  1.00  0.00     0.031 C 
ATOM     52  C   UNL     1      -9.353   7.254   6.131  1.00  0.00     0.029 A 
ATOM     53  C   UNL     1      -9.437   7.974   7.397  1.00  0.00     0.049 A 
ATOM     54  H   UNL     1      -8.856   9.939   7.775  1.00  0.00     0.167 HD
ATOM     55  C   UNL     1      -7.514  14.079   8.420  1.00  0.00     0.034 A 
ATOM     56  C   UNL     1      -9.913   7.468   8.552  1.00  0.00     0.034 A 
ATOM     57  C   UNL     1      -8.079  13.652   9.678  1.00  0.00     0.049 A 
ATOM     58  C   UNL     1      -9.938   8.352   9.774  1.00  0.00     0.074 A 
ATOM     59  C   UNL     1      -8.234  14.380  10.845  1.00  0.00     0.029 A 
ATOM     60  N   UNL     1      -8.576  12.380   9.937  1.00  0.00    -0.354 N 
ATOM     61  N   UNL     1      -9.543   9.598   9.903  1.00  0.00    -0.248 NA
ATOM     62  C   UNL     1     -10.484   7.764  11.003  1.00  0.00     0.031 C 
ATOM     63  C   UNL     1      -8.751  13.530  11.828  1.00  0.00     0.029 A 
ATOM     64  C   UNL     1      -9.005  12.295  11.254  1.00  0.00     0.049 A 
ATOM     65  H   UNL     1      -8.617  11.646   9.282  1.00  0.00     0.167 HD
ATOM     66  C   UNL     1      -9.827   9.952  11.219  1.00  0.00     0.074 A 
ATOM     67  C   UNL     1     -10.441   8.794  11.835  1.00  0.00     0.031 C 
ATOM     68  C   UNL     1      -9.605  11.129  11.860  1.00  0.00     0.034 A 
BRANCH  55  69
ATOM     69  C   UNL     1      -6.937  15.472   8.313  1.00  0.00     0.023 A 
ATOM     70  C   UNL     1      -7.452  16.417   7.408  1.00  0.00     0.031 A 
ATOM     71  C   UNL     1      -5.841  15.854   9.106  1.00  0.00     0.131 A 
ATOM     72  C   UNL     1      -6.825  17.664   7.261  1.00  0.00     0.055 A 
ATOM     73  C   UNL     1      -5.276  17.129   9.018  1.00  0.00     0.041 A 
ATOM     74  F   UNL     1      -5.289  14.990   9.972  1.00  0.00    -0.206 F 
ATOM     75  C   UNL     1      -5.758  18.037   8.081  1.00  0.00     0.022 A 
BRANCH  72  76
ATOM     76  S   UNL     1      -7.327  18.729   5.881  1.00  0.00     0.124 S 
ATOM     77  O   UNL     1      -7.069  17.863   4.733  1.00  0.00    -0.237 OA
ATOM     78  O   UNL     1      -8.730  18.992   6.180  1.00  0.00    -0.237 OA
ATOM     79  O   UNL     1      -6.436  19.881   5.996  1.00  0.00    -0.744 OA
ENDBRANCH  72  76
ENDBRANCH  55  69
BRANCH  56  80
ATOM     80  C   UNL     1     -10.400   6.060   8.620  1.00  0.00     0.023 A 
ATOM     81  C   UNL     1     -11.740   5.772   8.921  1.00  0.00     0.031 A 
ATOM     82  C   UNL     1      -9.521   4.978   8.430  1.00  0.00     0.131 A 
ATOM     83  C   UNL     1     -12.153   4.440   9.078  1.00  0.00     0.055 A 
ATOM     84  C   UNL     1      -9.950   3.653   8.527  1.00  0.00     0.041 A 
ATOM     85  F   UNL     1      -8.229   5.196   8.136  1.00  0.00    -0.206 F 
ATOM     86  C   UNL     1     -11.270   3.378   8.868  1.00  0.00     0.022 A 
BRANCH  83  87
ATOM     87  S   UNL     1     -13.841   4.116   9.656  1.00  0.00     0.124 S 
ATOM     88  O   UNL     1     -13.863   4.837  10.924  1.00  0.00    -0.237 OA
ATOM     89  O   UNL     1     -14.644   4.686   8.579  1.00  0.00    -0.237 OA
ATOM     90  O   UNL     1     -13.890   2.660   9.764  1.00  0.00    -0.744 OA
ENDBRANCH  83  87
ENDBRANCH  56  80
BRANCH  68  91
ATOM     91  C   UNL     1     -10.079  11.230  13.291  1.00  0.00     0.023 A 
ATOM     92  C   UNL     1      -9.523  10.445  14.316  1.00  0.00     0.031 A 
ATOM     93  C   UNL     1     -11.118  12.116  13.629  1.00  0.00     0.131 A 
ATOM     94  C   UNL     1     -10.052  10.512  15.614  1.00  0.00     0.055 A 
ATOM     95  C   UNL     1     -11.592  12.230  14.937  1.00  0.00     0.041 A 
ATOM     96  F   UNL     1     -11.691  12.889  12.692  1.00  0.00    -0.206 F 
ATOM     97  C   UNL     1     -11.070  11.413  15.935  1.00  0.00     0.022 A 
BRANCH  94  98
ATOM     98  S   UNL     1      -9.466   9.325  16.854  1.00  0.00     0.124 S 
ATOM     99  O   UNL     1      -9.764   8.047  16.215  1.00  0.00    -0.237 OA
ATOM    100  O   UNL     1      -8.052   9.666  16.969  1.00  0.00    -0.237 OA
ATOM    101  O   UNL     1     -10.275   9.632  18.032  1.00  0.00    -0.744 OA
ENDBRANCH  94  98
ENDBRANCH  68  91
ENDBRANCH  42  43
ENDBRANCH  34  37
ENDBRANCH  32  33
ENDBRANCH  31  32
ENDBRANCH  30  31
ENDBRANCH  29  30
ENDBRANCH   1  29
TORSDOF 22
