REMARK SMILES C[C@@H](NC1=[NH+]C(=O)/C(=C\c2ccccc2-n2cccn2)S1)C(=O)NCCCCCCNC(=O)c1ccc(-c2c3nc(c(-c4cc(S(=O)(=O)[O-])ccc4F)c4ccc([nH]4)c(-c4cc(S(=O)(=O)[O-])ccc4F)c4nc(c(-c5cc(S(=O)(=O)[O-])ccc5F)c5ccc2[nH]5)C=C4)C=C3)cc1
REMARK SMILES IDX 27 1 26 2 25 3 24 4 22 5 23 6 2 8 1 9 3 10 4 11 5 13 21 14
REMARK SMILES IDX 6 15 8 17 7 18 9 19 10 20 11 21 15 22 12 23 14 24 13 25
REMARK SMILES IDX 16 26 17 27 20 28 18 29 19 30 28 31 29 32 30 33 31 34 32 35
REMARK SMILES IDX 33 37 34 38 35 39 96 40 36 41 95 42 37 43 38 44 39 45 89 46
REMARK SMILES IDX 40 47 94 48 88 49 90 50 41 51 93 52 87 53 86 54 42 56 74 57
REMARK SMILES IDX 54 58 73 59 55 60 58 61 72 62 91 63 56 64 57 65 71 67 92 68
REMARK SMILES IDX 59 69 43 70 44 71 52 72 45 73 51 74 53 75 50 76 46 77 47 78
REMARK SMILES IDX 48 79 49 80 75 81 76 82 84 83 77 84 83 85 85 86 82 87 78 88
REMARK SMILES IDX 79 89 80 90 81 91 60 92 61 93 69 94 62 95 68 96 70 97 67 98
REMARK SMILES IDX 63 99 64 100 65 101 66 102
REMARK H PARENT 24 7 3 12 5 16 31 36 90 55 58 66
REMARK Flexibility Score: inf
ROOT
ATOM      1  C   UNL     1      -2.811  -2.845   1.383  1.00  0.00     0.002 C 
ENDROOT
BRANCH   1   2
ATOM      2  C   UNL     1      -1.353  -2.476   1.075  1.00  0.00     0.021 C 
BRANCH   2   3
ATOM      3  C   UNL     1      -1.069  -1.822  -0.273  1.00  0.00     0.116 C 
BRANCH   3   4
ATOM      4  N   UNL     1      -1.638  -0.498  -0.429  1.00  0.00    -0.352 N 
ATOM      5  C   UNL     1      -1.142   0.584  -1.101  1.00  0.00     0.264 C 
ATOM      6  O   UNL     1      -1.882   1.563  -1.241  1.00  0.00    -0.270 OA
ATOM      7  H   UNL     1      -2.507  -0.358   0.013  1.00  0.00     0.163 HD
BRANCH   5   8
ATOM      8  C   UNL     1       0.305   0.616  -1.631  1.00  0.00     0.259 C 
ATOM      9  C   UNL     1       1.278   0.613  -0.441  1.00  0.00     0.069 C 
BRANCH   8  10
ATOM     10  N   UNL     1       0.614  -0.470  -2.561  1.00  0.00    -0.257 N 
ATOM     11  C   UNL     1      -0.081  -0.945  -3.636  1.00  0.00     0.317 C 
ATOM     12  H   UNL     1       1.463  -0.935  -2.383  1.00  0.00     0.306 HD
ATOM     13  N   UNL     1       0.179  -2.114  -4.122  1.00  0.00    -0.200 N 
ATOM     14  S   UNL     1      -1.360  -0.069  -4.450  1.00  0.00     0.006 SA
ATOM     15  C   UNL     1      -0.652  -2.493  -5.168  1.00  0.00     0.346 C 
ATOM     16  H   UNL     1       0.903  -2.687  -3.780  1.00  0.00     0.316 HD
ATOM     17  C   UNL     1      -1.736  -1.479  -5.405  1.00  0.00     0.110 C 
ATOM     18  O   UNL     1      -0.512  -3.502  -5.821  1.00  0.00    -0.240 OA
ATOM     19  C   UNL     1      -2.882  -1.625  -6.103  1.00  0.00     0.034 C 
BRANCH  19  20
ATOM     20  C   UNL     1      -3.433  -2.878  -6.694  1.00  0.00     0.002 A 
ATOM     21  C   UNL     1      -3.317  -3.099  -8.067  1.00  0.00     0.010 A 
ATOM     22  C   UNL     1      -4.029  -3.912  -5.934  1.00  0.00     0.072 A 
ATOM     23  C   UNL     1      -3.722  -4.320  -8.634  1.00  0.00     0.001 A 
ATOM     24  C   UNL     1      -4.367  -5.159  -6.478  1.00  0.00     0.029 A 
ATOM     25  C   UNL     1      -4.222  -5.355  -7.841  1.00  0.00     0.002 A 
BRANCH  22  26
ATOM     26  N   UNL     1      -4.155  -3.781  -4.546  1.00  0.00    -0.240 N 
ATOM     27  C   UNL     1      -4.602  -2.669  -3.866  1.00  0.00     0.115 A 
ATOM     28  N   UNL     1      -3.295  -4.496  -3.799  1.00  0.00    -0.177 NA
ATOM     29  C   UNL     1      -3.653  -2.441  -2.901  1.00  0.00     0.042 A 
ATOM     30  C   UNL     1      -2.813  -3.567  -2.979  1.00  0.00     0.135 A 
ENDBRANCH  22  26
ENDBRANCH  19  20
ENDBRANCH   8  10
ENDBRANCH   5   8
ENDBRANCH   3   4
ENDBRANCH   2   3
ENDBRANCH   1   2
BRANCH   1  31
ATOM     31  C   UNL     1      -3.584  -3.674   0.350  1.00  0.00     0.002 C 
BRANCH  31  32
ATOM     32  C   UNL     1      -2.902  -4.921  -0.230  1.00  0.00     0.021 C 
BRANCH  32  33
ATOM     33  C   UNL     1      -3.043  -6.188   0.579  1.00  0.00     0.116 C 
BRANCH  33  34
ATOM     34  N   UNL     1      -4.410  -6.724   0.510  1.00  0.00    -0.352 N 
ATOM     35  C   UNL     1      -5.010  -7.630   1.365  1.00  0.00     0.251 C 
ATOM     36  H   UNL     1      -4.966  -6.398  -0.234  1.00  0.00     0.163 HD
ATOM     37  O   UNL     1      -5.982  -8.291   1.024  1.00  0.00    -0.269 OA
BRANCH  35  38
ATOM     38  C   UNL     1      -4.421  -7.761   2.704  1.00  0.00     0.039 A 
ATOM     39  C   UNL     1      -4.061  -9.000   3.235  1.00  0.00     0.014 A 
ATOM     40  C   UNL     1      -4.046  -6.569   3.313  1.00  0.00     0.014 A 
ATOM     41  C   UNL     1      -3.203  -9.019   4.332  1.00  0.00     0.010 A 
ATOM     42  C   UNL     1      -3.034  -6.603   4.232  1.00  0.00     0.010 A 
ATOM     43  C   UNL     1      -2.649  -7.812   4.796  1.00  0.00    -0.014 A 
BRANCH  43  44
ATOM     44  C   UNL     1      -1.559  -7.789   5.768  1.00  0.00     0.031 A 
ATOM     45  C   UNL     1      -0.452  -8.736   5.474  1.00  0.00     0.074 A 
ATOM     46  C   UNL     1      -1.444  -6.853   6.739  1.00  0.00     0.049 A 
ATOM     47  N   UNL     1      -0.232  -9.871   6.047  1.00  0.00    -0.248 NA
ATOM     48  C   UNL     1       0.395  -8.502   4.293  1.00  0.00     0.031 C 
ATOM     49  C   UNL     1      -2.290  -5.677   6.984  1.00  0.00     0.029 A 
ATOM     50  N   UNL     1      -0.467  -6.703   7.672  1.00  0.00    -0.354 N 
ATOM     51  C   UNL     1       0.951 -10.353   5.500  1.00  0.00     0.074 A 
ATOM     52  C   UNL     1       1.138  -9.613   4.282  1.00  0.00     0.031 C 
ATOM     53  C   UNL     1      -1.663  -4.824   7.823  1.00  0.00     0.029 A 
ATOM     54  C   UNL     1      -0.473  -5.476   8.333  1.00  0.00     0.049 A 
ATOM     55  H   UNL     1       0.194  -7.406   7.866  1.00  0.00     0.167 HD
ATOM     56  C   UNL     1       1.801 -11.112   6.250  1.00  0.00     0.034 A 
ATOM     57  C   UNL     1       0.423  -5.022   9.251  1.00  0.00     0.034 A 
ATOM     58  C   UNL     1       1.140 -11.568   7.459  1.00  0.00     0.049 A 
ATOM     59  C   UNL     1       1.059  -6.228   9.836  1.00  0.00     0.074 A 
ATOM     60  C   UNL     1      -0.012 -12.289   7.719  1.00  0.00     0.029 A 
ATOM     61  N   UNL     1       1.436 -10.919   8.640  1.00  0.00    -0.354 N 
ATOM     62  N   UNL     1       0.398  -7.109  10.538  1.00  0.00    -0.248 NA
ATOM     63  C   UNL     1       2.280  -6.723   9.218  1.00  0.00     0.031 C 
ATOM     64  C   UNL     1      -0.615 -11.623   8.829  1.00  0.00     0.029 A 
ATOM     65  C   UNL     1       0.247 -10.612   9.258  1.00  0.00     0.049 A 
ATOM     66  H   UNL     1       2.337 -10.714   8.980  1.00  0.00     0.167 HD
ATOM     67  C   UNL     1       0.849  -8.340  10.085  1.00  0.00     0.074 A 
ATOM     68  C   UNL     1       2.078  -8.039   9.349  1.00  0.00     0.031 C 
ATOM     69  C   UNL     1       0.041  -9.443  10.097  1.00  0.00     0.034 A 
BRANCH  56  70
ATOM     70  C   UNL     1       3.313 -11.118   6.125  1.00  0.00     0.023 A 
ATOM     71  C   UNL     1       4.020 -11.922   7.040  1.00  0.00     0.031 A 
ATOM     72  C   UNL     1       4.097 -10.197   5.394  1.00  0.00     0.131 A 
ATOM     73  C   UNL     1       5.384 -11.702   7.299  1.00  0.00     0.055 A 
ATOM     74  C   UNL     1       5.470 -10.030   5.605  1.00  0.00     0.041 A 
ATOM     75  F   UNL     1       3.583  -9.348   4.499  1.00  0.00    -0.206 F 
ATOM     76  C   UNL     1       6.115 -10.756   6.589  1.00  0.00     0.022 A 
BRANCH  73  77
ATOM     77  S   UNL     1       6.127 -12.541   8.720  1.00  0.00     0.124 S 
ATOM     78  O   UNL     1       5.227 -12.140   9.795  1.00  0.00    -0.237 OA
ATOM     79  O   UNL     1       6.061 -13.940   8.309  1.00  0.00    -0.237 OA
ATOM     80  O   UNL     1       7.471 -11.972   8.783  1.00  0.00    -0.744 OA
ENDBRANCH  73  77
ENDBRANCH  56  70
BRANCH  57  81
ATOM     81  C   UNL     1       0.958  -3.638   9.389  1.00  0.00     0.023 A 
ATOM     82  C   UNL     1       1.627  -3.181  10.547  1.00  0.00     0.031 A 
ATOM     83  C   UNL     1       1.032  -2.805   8.249  1.00  0.00     0.131 A 
ATOM     84  C   UNL     1       2.334  -1.952  10.526  1.00  0.00     0.055 A 
ATOM     85  C   UNL     1       1.732  -1.597   8.234  1.00  0.00     0.041 A 
ATOM     86  F   UNL     1       0.496  -3.181   7.077  1.00  0.00    -0.206 F 
ATOM     87  C   UNL     1       2.397  -1.170   9.370  1.00  0.00     0.022 A 
BRANCH  84  88
ATOM     88  S   UNL     1       3.271  -1.388  11.987  1.00  0.00     0.124 S 
ATOM     89  O   UNL     1       2.208  -1.064  12.931  1.00  0.00    -0.237 OA
ATOM     90  O   UNL     1       4.091  -2.551  12.303  1.00  0.00    -0.237 OA
ATOM     91  O   UNL     1       4.019  -0.232  11.486  1.00  0.00    -0.744 OA
ENDBRANCH  84  88
ENDBRANCH  57  81
BRANCH  69  92
ATOM     92  C   UNL     1      -1.256  -9.385  10.889  1.00  0.00     0.023 A 
ATOM     93  C   UNL     1      -2.293  -8.442  10.700  1.00  0.00     0.031 A 
ATOM     94  C   UNL     1      -1.486 -10.423  11.810  1.00  0.00     0.131 A 
ATOM     95  C   UNL     1      -3.496  -8.557  11.431  1.00  0.00     0.055 A 
ATOM     96  C   UNL     1      -2.684 -10.548  12.512  1.00  0.00     0.041 A 
ATOM     97  F   UNL     1      -0.551 -11.365  12.021  1.00  0.00    -0.206 F 
ATOM     98  C   UNL     1      -3.692  -9.610  12.329  1.00  0.00     0.022 A 
BRANCH  95  99
ATOM     99  S   UNL     1      -4.826  -7.321  11.251  1.00  0.00     0.124 S 
ATOM    100  O   UNL     1      -4.124  -6.046  11.331  1.00  0.00    -0.237 OA
ATOM    101  O   UNL     1      -5.396  -7.655   9.949  1.00  0.00    -0.237 OA
ATOM    102  O   UNL     1      -5.707  -7.602  12.387  1.00  0.00    -0.744 OA
ENDBRANCH  95  99
ENDBRANCH  69  92
ENDBRANCH  43  44
ENDBRANCH  35  38
ENDBRANCH  33  34
ENDBRANCH  32  33
ENDBRANCH  31  32
ENDBRANCH   1  31
TORSDOF 19
