REMARK SMILES C[NH+](C)CC[NH2+][C@@H](C(=O)NCCCCCCNC(=O)c1ccc(-c2c3nc(c(-c4cc(S(=O)(=O)[O-])ccc4F)c4ccc([nH]4)c(-c4cc(S(=O)(=O)[O-])ccc4F)c4nc(c(-c5cc(S(=O)(=O)[O-])ccc5F)c5ccc2[nH]5)C=C4)C=C3)cc1)c1cccc(C2CC2)c1
REMARK SMILES IDX 13 1 12 2 11 3 10 4 8 5 9 6 7 8 6 9 5 12 4 13 2 14 1 15 3 16
REMARK SMILES IDX 83 18 84 19 91 20 85 21 87 22 86 23 88 24 89 25 90 26 14 27
REMARK SMILES IDX 15 28 16 29 17 30 18 31 19 33 20 34 21 35 82 36 22 37 81 38
REMARK SMILES IDX 23 39 24 40 25 41 75 42 26 43 80 44 74 45 76 46 27 47 79 48
REMARK SMILES IDX 73 49 72 50 28 52 60 53 40 54 59 55 41 56 44 57 58 58 77 59
REMARK SMILES IDX 42 60 43 61 57 63 78 64 45 65 29 66 30 67 38 68 31 69 37 70
REMARK SMILES IDX 39 71 36 72 32 73 33 74 34 75 35 76 61 77 62 78 70 79 63 80
REMARK SMILES IDX 69 81 71 82 68 83 64 84 65 85 66 86 67 87 46 88 47 89 55 90
REMARK SMILES IDX 48 91 54 92 56 93 53 94 49 95 50 96 51 97 52 98
REMARK H PARENT 10 7 6 10 6 11 2 17 17 32 76 51 44 62
REMARK Flexibility Score: inf
ROOT
ATOM      1  C   UNL     1      -3.465   4.120   0.501  1.00  0.00     0.002 C 
ENDROOT
BRANCH   1   2
ATOM      2  C   UNL     1      -1.971   3.868   0.699  1.00  0.00     0.021 C 
BRANCH   2   3
ATOM      3  C   UNL     1      -1.485   3.928   2.159  1.00  0.00     0.116 C 
BRANCH   3   4
ATOM      4  N   UNL     1      -1.839   2.692   2.832  1.00  0.00    -0.351 N 
ATOM      5  C   UNL     1      -1.112   1.545   2.998  1.00  0.00     0.283 C 
ATOM      6  O   UNL     1      -1.779   0.504   3.043  1.00  0.00    -0.268 OA
ATOM      7  H   UNL     1      -2.739   2.677   3.231  1.00  0.00     0.163 HD
BRANCH   5   8
ATOM      8  C   UNL     1       0.455   1.556   3.171  1.00  0.00     0.304 C 
BRANCH   8   9
ATOM      9  N   UNL     1       1.181   1.225   1.917  1.00  0.00    -0.328 N 
ATOM     10  H   UNL     1       2.172   1.138   2.142  1.00  0.00     0.347 HD
ATOM     11  H   UNL     1       0.760   0.363   1.570  1.00  0.00     0.347 HD
BRANCH   9  12
ATOM     12  C   UNL     1       1.051   2.190   0.840  1.00  0.00     0.323 C 
BRANCH  12  13
ATOM     13  C   UNL     1       1.457   1.699  -0.571  1.00  0.00     0.323 C 
BRANCH  13  14
ATOM     14  N   UNL     1       0.756   0.545  -1.161  1.00  0.00    -0.335 N 
ATOM     15  C   UNL     1       1.163  -0.749  -0.636  1.00  0.00     0.332 C 
ATOM     16  C   UNL     1      -0.695   0.674  -1.212  1.00  0.00     0.332 C 
ATOM     17  H   UNL     1       1.076   0.570  -2.130  1.00  0.00     0.347 HD
ENDBRANCH  13  14
ENDBRANCH  12  13
ENDBRANCH   9  12
ENDBRANCH   8   9
BRANCH   8  18
ATOM     18  C   UNL     1       0.833   0.491   4.224  1.00  0.00     0.019 A 
ATOM     19  C   UNL     1       0.697  -0.879   3.926  1.00  0.00     0.010 A 
ATOM     20  C   UNL     1       1.252   0.848   5.518  1.00  0.00     0.014 A 
ATOM     21  C   UNL     1       0.967  -1.854   4.876  1.00  0.00     0.001 A 
ATOM     22  C   UNL     1       1.519  -0.122   6.511  1.00  0.00    -0.044 A 
ATOM     23  C   UNL     1       1.369  -1.474   6.151  1.00  0.00     0.004 A 
BRANCH  22  24
ATOM     24  C   UNL     1       1.923   0.201   7.937  1.00  0.00     0.019 C 
ATOM     25  C   UNL     1       2.247   1.584   8.434  1.00  0.00     0.009 C 
ATOM     26  C   UNL     1       0.941   0.947   8.810  1.00  0.00     0.009 C 
ENDBRANCH  22  24
ENDBRANCH   8  18
ENDBRANCH   5   8
ENDBRANCH   3   4
ENDBRANCH   2   3
ENDBRANCH   1   2
BRANCH   1  27
ATOM     27  C   UNL     1      -3.896   5.565   0.726  1.00  0.00     0.002 C 
BRANCH  27  28
ATOM     28  C   UNL     1      -3.116   6.598  -0.090  1.00  0.00     0.021 C 
BRANCH  28  29
ATOM     29  C   UNL     1      -3.101   6.337  -1.594  1.00  0.00     0.116 C 
BRANCH  29  30
ATOM     30  N   UNL     1      -4.438   6.415  -2.160  1.00  0.00    -0.352 N 
ATOM     31  C   UNL     1      -4.933   7.333  -3.055  1.00  0.00     0.251 C 
ATOM     32  H   UNL     1      -5.070   5.721  -1.864  1.00  0.00     0.163 HD
ATOM     33  O   UNL     1      -6.140   7.448  -3.220  1.00  0.00    -0.269 OA
BRANCH  31  34
ATOM     34  C   UNL     1      -3.982   8.182  -3.804  1.00  0.00     0.039 A 
ATOM     35  C   UNL     1      -4.195   9.559  -3.870  1.00  0.00     0.014 A 
ATOM     36  C   UNL     1      -2.867   7.605  -4.421  1.00  0.00     0.014 A 
ATOM     37  C   UNL     1      -3.256  10.369  -4.514  1.00  0.00     0.010 A 
ATOM     38  C   UNL     1      -1.898   8.421  -4.995  1.00  0.00     0.010 A 
ATOM     39  C   UNL     1      -2.086   9.811  -5.055  1.00  0.00    -0.014 A 
BRANCH  39  40
ATOM     40  C   UNL     1      -1.053  10.652  -5.716  1.00  0.00     0.031 A 
ATOM     41  C   UNL     1      -0.750  10.442  -7.177  1.00  0.00     0.074 A 
ATOM     42  C   UNL     1      -0.344  11.545  -4.994  1.00  0.00     0.049 A 
ATOM     43  N   UNL     1       0.188  10.979  -7.912  1.00  0.00    -0.248 NA
ATOM     44  C   UNL     1      -1.599   9.479  -7.897  1.00  0.00     0.031 C 
ATOM     45  C   UNL     1      -0.533  11.820  -3.568  1.00  0.00     0.029 A 
ATOM     46  N   UNL     1       0.688  12.376  -5.355  1.00  0.00    -0.354 N 
ATOM     47  C   UNL     1       0.059  10.402  -9.172  1.00  0.00     0.074 A 
ATOM     48  C   UNL     1      -1.017   9.440  -9.087  1.00  0.00     0.031 C 
ATOM     49  C   UNL     1       0.339  12.766  -3.182  1.00  0.00     0.029 A 
ATOM     50  C   UNL     1       1.190  13.124  -4.313  1.00  0.00     0.049 A 
ATOM     51  H   UNL     1       1.037  12.432  -6.274  1.00  0.00     0.167 HD
ATOM     52  C   UNL     1       0.765  10.664 -10.298  1.00  0.00     0.034 A 
ATOM     53  C   UNL     1       2.230  13.982  -4.270  1.00  0.00     0.034 A 
ATOM     54  C   UNL     1       1.817  11.647 -10.371  1.00  0.00     0.049 A 
ATOM     55  C   UNL     1       3.020  14.229  -5.535  1.00  0.00     0.074 A 
ATOM     56  C   UNL     1       2.549  12.039 -11.479  1.00  0.00     0.029 A 
ATOM     57  N   UNL     1       2.292  12.388  -9.298  1.00  0.00    -0.354 N 
ATOM     58  N   UNL     1       2.849  13.712  -6.731  1.00  0.00    -0.248 NA
ATOM     59  C   UNL     1       4.137  15.181  -5.450  1.00  0.00     0.031 C 
ATOM     60  C   UNL     1       3.519  12.953 -11.060  1.00  0.00     0.029 A 
ATOM     61  C   UNL     1       3.332  13.206  -9.711  1.00  0.00     0.049 A 
ATOM     62  H   UNL     1       1.942  12.339  -8.379  1.00  0.00     0.167 HD
ATOM     63  C   UNL     1       3.804  14.317  -7.546  1.00  0.00     0.074 A 
ATOM     64  C   UNL     1       4.541  15.240  -6.710  1.00  0.00     0.031 C 
ATOM     65  C   UNL     1       4.046  14.133  -8.868  1.00  0.00     0.034 A 
BRANCH  52  66
ATOM     66  C   UNL     1       0.449   9.862 -11.536  1.00  0.00     0.023 A 
ATOM     67  C   UNL     1      -0.793   9.953 -12.185  1.00  0.00     0.031 A 
ATOM     68  C   UNL     1       1.422   9.009 -12.089  1.00  0.00     0.131 A 
ATOM     69  C   UNL     1      -1.047   9.171 -13.322  1.00  0.00     0.055 A 
ATOM     70  C   UNL     1       1.190   8.291 -13.263  1.00  0.00     0.041 A 
ATOM     71  F   UNL     1       2.619   8.864 -11.498  1.00  0.00    -0.206 F 
ATOM     72  C   UNL     1      -0.054   8.363 -13.882  1.00  0.00     0.022 A 
BRANCH  69  73
ATOM     73  S   UNL     1      -2.729   9.141 -13.998  1.00  0.00     0.124 S 
ATOM     74  O   UNL     1      -3.492   8.622 -12.866  1.00  0.00    -0.237 OA
ATOM     75  O   UNL     1      -2.959  10.541 -14.335  1.00  0.00    -0.237 OA
ATOM     76  O   UNL     1      -2.624   8.234 -15.139  1.00  0.00    -0.744 OA
ENDBRANCH  69  73
ENDBRANCH  52  66
BRANCH  53  77
ATOM     77  C   UNL     1       2.620  14.658  -2.996  1.00  0.00     0.023 A 
ATOM     78  C   UNL     1       2.630  16.059  -2.897  1.00  0.00     0.031 A 
ATOM     79  C   UNL     1       3.081  13.921  -1.890  1.00  0.00     0.131 A 
ATOM     80  C   UNL     1       3.164  16.678  -1.756  1.00  0.00     0.055 A 
ATOM     81  C   UNL     1       3.542  14.541  -0.727  1.00  0.00     0.041 A 
ATOM     82  F   UNL     1       3.096  12.579  -1.925  1.00  0.00    -0.206 F 
ATOM     83  C   UNL     1       3.606  15.930  -0.664  1.00  0.00     0.022 A 
BRANCH  80  84
ATOM     84  S   UNL     1       3.412  18.476  -1.784  1.00  0.00     0.124 S 
ATOM     85  O   UNL     1       4.222  18.642  -2.986  1.00  0.00    -0.237 OA
ATOM     86  O   UNL     1       2.040  18.968  -1.860  1.00  0.00    -0.237 OA
ATOM     87  O   UNL     1       4.101  18.742  -0.523  1.00  0.00    -0.744 OA
ENDBRANCH  80  84
ENDBRANCH  53  77
BRANCH  65  88
ATOM     88  C   UNL     1       5.098  15.003  -9.512  1.00  0.00     0.023 A 
ATOM     89  C   UNL     1       6.460  14.899  -9.183  1.00  0.00     0.031 A 
ATOM     90  C   UNL     1       4.723  15.946 -10.487  1.00  0.00     0.131 A 
ATOM     91  C   UNL     1       7.392  15.755  -9.790  1.00  0.00     0.055 A 
ATOM     92  C   UNL     1       5.662  16.748 -11.134  1.00  0.00     0.041 A 
ATOM     93  F   UNL     1       3.435  16.091 -10.838  1.00  0.00    -0.206 F 
ATOM     94  C   UNL     1       7.004  16.664 -10.778  1.00  0.00     0.022 A 
BRANCH  91  95
ATOM     95  S   UNL     1       9.110  15.724  -9.212  1.00  0.00     0.124 S 
ATOM     96  O   UNL     1       8.961  16.054  -7.798  1.00  0.00    -0.237 OA
ATOM     97  O   UNL     1       9.515  14.354  -9.507  1.00  0.00    -0.237 OA
ATOM     98  O   UNL     1       9.764  16.750 -10.023  1.00  0.00    -0.744 OA
ENDBRANCH  91  95
ENDBRANCH  65  88
ENDBRANCH  39  40
ENDBRANCH  31  34
ENDBRANCH  29  30
ENDBRANCH  28  29
ENDBRANCH  27  28
ENDBRANCH   1  27
TORSDOF 22
