REMARK SMILES COc1ccccc1C(=O)N/C(=C/c1ccc2c(c1)OCO2)C(=O)Nc1ccc(C(=O)NCCCCCCNC(=O)c2ccc(-c3c4nc(c(-c5cc(S(=O)(=O)[O-])ccc5F)c5ccc([nH]5)c(-c5cc(S(=O)(=O)[O-])ccc5F)c5nc(c(-c6cc(S(=O)(=O)[O-])ccc6F)c6ccc3[nH]6)C=C5)C=C4)cc2)cc1
REMARK SMILES IDX 34 1 33 2 32 3 30 4 31 5 29 7 26 8 27 9 106 10 28 11 105 12
REMARK SMILES IDX 25 13 23 14 24 15 12 17 13 18 11 19 9 20 10 21 8 23 3 24
REMARK SMILES IDX 4 25 5 26 7 27 6 28 2 29 1 30 14 31 15 32 19 33 16 34 18 35
REMARK SMILES IDX 17 36 20 37 22 38 21 39 35 40 36 41 37 42 38 43 39 44 40 45
REMARK SMILES IDX 41 47 42 48 43 49 104 50 44 51 103 52 45 53 46 54 47 55
REMARK SMILES IDX 97 56 48 57 102 58 96 59 98 60 49 61 101 62 95 63 94 64
REMARK SMILES IDX 50 66 82 67 62 68 81 69 63 70 66 71 80 72 99 73 64 74 65 75
REMARK SMILES IDX 79 77 100 78 67 79 51 80 52 81 60 82 53 83 59 84 61 85 58 86
REMARK SMILES IDX 54 87 55 88 56 89 57 90 83 91 84 92 92 93 85 94 91 95 93 96
REMARK SMILES IDX 90 97 86 98 87 99 88 100 89 101 68 102 69 103 77 104 70 105
REMARK SMILES IDX 76 106 78 107 75 108 71 109 72 110 73 111 74 112
REMARK H PARENT 32 6 25 16 11 22 39 46 98 65 66 76
REMARK Flexibility Score: inf
ROOT
ATOM      1  C   UNL     1      -1.653   6.535  -0.538  1.00  0.00     0.021 C 
ENDROOT
BRANCH   1   2
ATOM      2  C   UNL     1      -1.371   5.853   0.799  1.00  0.00     0.116 C 
BRANCH   2   3
ATOM      3  N   UNL     1      -2.629   5.680   1.499  1.00  0.00    -0.352 N 
ATOM      4  C   UNL     1      -3.540   4.651   1.467  1.00  0.00     0.251 C 
ATOM      5  O   UNL     1      -4.647   4.841   1.969  1.00  0.00    -0.269 OA
ATOM      6  H   UNL     1      -2.871   6.423   2.097  1.00  0.00     0.163 HD
BRANCH   4   7
ATOM      7  C   UNL     1      -3.143   3.279   1.024  1.00  0.00     0.039 A 
ATOM      8  C   UNL     1      -1.836   0.785   0.982  1.00  0.00     0.041 A 
ATOM      9  C   UNL     1      -3.001   0.982   1.748  1.00  0.00     0.027 A 
ATOM     10  C   UNL     1      -1.485   1.765   0.065  1.00  0.00     0.027 A 
ATOM     11  C   UNL     1      -3.630   2.230   1.799  1.00  0.00     0.016 A 
ATOM     12  C   UNL     1      -2.188   2.988   0.043  1.00  0.00     0.016 A 
BRANCH   8  13
ATOM     13  N   UNL     1      -1.134  -0.408   1.225  1.00  0.00    -0.321 N 
ATOM     14  C   UNL     1       0.152  -0.879   1.145  1.00  0.00     0.272 C 
ATOM     15  O   UNL     1       0.284  -2.080   1.418  1.00  0.00    -0.267 OA
ATOM     16  H   UNL     1      -1.743  -1.111   1.547  1.00  0.00     0.170 HD
BRANCH  14  17
ATOM     17  C   UNL     1       1.414  -0.047   0.986  1.00  0.00     0.108 C 
ATOM     18  C   UNL     1       1.666   1.019   1.785  1.00  0.00     0.040 C 
BRANCH  17  19
ATOM     19  N   UNL     1       2.536  -0.503   0.300  1.00  0.00    -0.317 N 
ATOM     20  C   UNL     1       2.923  -1.630  -0.382  1.00  0.00     0.259 C 
ATOM     21  O   UNL     1       4.120  -1.719  -0.674  1.00  0.00    -0.269 OA
ATOM     22  H   UNL     1       3.253   0.171   0.306  1.00  0.00     0.170 HD
BRANCH  20  23
ATOM     23  C   UNL     1       2.053  -2.750  -0.760  1.00  0.00     0.082 A 
ATOM     24  C   UNL     1       0.852  -2.639  -1.464  1.00  0.00     0.131 A 
ATOM     25  C   UNL     1       0.068  -3.793  -1.621  1.00  0.00     0.047 A 
ATOM     26  C   UNL     1       0.513  -5.046  -1.181  1.00  0.00     0.004 A 
ATOM     27  C   UNL     1       2.535  -4.026  -0.392  1.00  0.00     0.018 A 
ATOM     28  C   UNL     1       1.768  -5.169  -0.600  1.00  0.00     0.001 A 
BRANCH  24  29
ATOM     29  O   UNL     1       0.287  -1.513  -1.999  1.00  0.00    -0.496 OA
ATOM     30  C   UNL     1       1.158  -0.509  -2.512  1.00  0.00     0.278 C 
ENDBRANCH  24  29
ENDBRANCH  20  23
ENDBRANCH  17  19
BRANCH  18  31
ATOM     31  C   UNL     1       0.824   1.467   2.889  1.00  0.00    -0.019 A 
ATOM     32  C   UNL     1       0.239   2.747   2.843  1.00  0.00     0.012 A 
ATOM     33  C   UNL     1       0.491   0.555   3.897  1.00  0.00     0.058 A 
ATOM     34  C   UNL     1      -0.823   3.057   3.694  1.00  0.00     0.051 A 
ATOM     35  C   UNL     1      -0.605   0.859   4.659  1.00  0.00     0.166 A 
ATOM     36  C   UNL     1      -1.267   2.060   4.535  1.00  0.00     0.165 A 
ATOM     37  O   UNL     1      -1.259  -0.015   5.472  1.00  0.00    -0.454 OA
ATOM     38  O   UNL     1      -2.440   2.058   5.229  1.00  0.00    -0.454 OA
ATOM     39  C   UNL     1      -2.530   0.655   5.556  1.00  0.00     0.468 C 
ENDBRANCH  18  31
ENDBRANCH  14  17
ENDBRANCH   8  13
ENDBRANCH   4   7
ENDBRANCH   2   3
ENDBRANCH   1   2
BRANCH   1  40
ATOM     40  C   UNL     1      -1.811   8.050  -0.372  1.00  0.00     0.002 C 
BRANCH  40  41
ATOM     41  C   UNL     1      -0.501   8.769  -0.031  1.00  0.00     0.002 C 
BRANCH  41  42
ATOM     42  C   UNL     1       0.623   8.554  -1.046  1.00  0.00     0.021 C 
BRANCH  42  43
ATOM     43  C   UNL     1       0.245   8.913  -2.479  1.00  0.00     0.116 C 
BRANCH  43  44
ATOM     44  N   UNL     1      -0.124  10.314  -2.599  1.00  0.00    -0.352 N 
ATOM     45  C   UNL     1       0.411  11.284  -3.413  1.00  0.00     0.251 C 
ATOM     46  H   UNL     1      -0.860  10.609  -2.015  1.00  0.00     0.163 HD
ATOM     47  O   UNL     1       0.152  12.460  -3.219  1.00  0.00    -0.269 OA
BRANCH  45  48
ATOM     48  C   UNL     1       1.320  10.877  -4.507  1.00  0.00     0.039 A 
ATOM     49  C   UNL     1       2.521  11.567  -4.681  1.00  0.00     0.014 A 
ATOM     50  C   UNL     1       0.992   9.803  -5.340  1.00  0.00     0.014 A 
ATOM     51  C   UNL     1       3.427  11.133  -5.649  1.00  0.00     0.010 A 
ATOM     52  C   UNL     1       1.928   9.328  -6.253  1.00  0.00     0.010 A 
ATOM     53  C   UNL     1       3.158   9.986  -6.414  1.00  0.00    -0.014 A 
BRANCH  53  54
ATOM     54  C   UNL     1       4.155   9.447  -7.375  1.00  0.00     0.031 A 
ATOM     55  C   UNL     1       3.836   9.393  -8.843  1.00  0.00     0.074 A 
ATOM     56  C   UNL     1       5.320   8.950  -6.913  1.00  0.00     0.049 A 
ATOM     57  N   UNL     1       4.536   8.882  -9.822  1.00  0.00    -0.248 NA
ATOM     58  C   UNL     1       2.547   9.966  -9.260  1.00  0.00     0.031 C 
ATOM     59  C   UNL     1       5.728   8.921  -5.506  1.00  0.00     0.029 A 
ATOM     60  N   UNL     1       6.373   8.365  -7.572  1.00  0.00    -0.354 N 
ATOM     61  C   UNL     1       3.772   9.066 -10.970  1.00  0.00     0.074 A 
ATOM     62  C   UNL     1       2.529   9.677 -10.552  1.00  0.00     0.031 C 
ATOM     63  C   UNL     1       6.950   8.374  -5.412  1.00  0.00     0.029 A 
ATOM     64  C   UNL     1       7.391   7.958  -6.740  1.00  0.00     0.049 A 
ATOM     65  H   UNL     1       6.397   8.248  -8.549  1.00  0.00     0.167 HD
ATOM     66  C   UNL     1       4.090   8.771 -12.255  1.00  0.00     0.034 A 
ATOM     67  C   UNL     1       8.539   7.307  -7.011  1.00  0.00     0.034 A 
ATOM     68  C   UNL     1       5.338   8.165 -12.652  1.00  0.00     0.049 A 
ATOM     69  C   UNL     1       8.843   6.938  -8.443  1.00  0.00     0.074 A 
ATOM     70  C   UNL     1       5.782   7.870 -13.930  1.00  0.00     0.029 A 
ATOM     71  N   UNL     1       6.335   7.748 -11.780  1.00  0.00    -0.354 N 
ATOM     72  N   UNL     1       8.131   7.164  -9.523  1.00  0.00    -0.248 NA
ATOM     73  C   UNL     1      10.106   6.231  -8.692  1.00  0.00     0.031 C 
ATOM     74  C   UNL     1       7.007   7.204 -13.825  1.00  0.00     0.029 A 
ATOM     75  C   UNL     1       7.372   7.160 -12.489  1.00  0.00     0.049 A 
ATOM     76  H   UNL     1       6.310   7.853 -10.802  1.00  0.00     0.167 HD
ATOM     77  C   UNL     1       8.878   6.654 -10.582  1.00  0.00     0.074 A 
ATOM     78  C   UNL     1      10.100   6.126 -10.012  1.00  0.00     0.031 C 
ATOM     79  C   UNL     1       8.582   6.627 -11.907  1.00  0.00     0.034 A 
BRANCH  66  80
ATOM     80  C   UNL     1       3.061   9.076 -13.317  1.00  0.00     0.023 A 
ATOM     81  C   UNL     1       2.634  10.390 -13.577  1.00  0.00     0.031 A 
ATOM     82  C   UNL     1       2.491   8.039 -14.077  1.00  0.00     0.131 A 
ATOM     83  C   UNL     1       1.620  10.625 -14.517  1.00  0.00     0.055 A 
ATOM     84  C   UNL     1       1.543   8.288 -15.071  1.00  0.00     0.041 A 
ATOM     85  F   UNL     1       2.841   6.761 -13.860  1.00  0.00    -0.206 F 
ATOM     86  C   UNL     1       1.091   9.587 -15.286  1.00  0.00     0.022 A 
BRANCH  83  87
ATOM     87  S   UNL     1       0.902  12.288 -14.618  1.00  0.00     0.124 S 
ATOM     88  O   UNL     1       0.418  12.483 -13.253  1.00  0.00    -0.237 OA
ATOM     89  O   UNL     1       2.046  13.102 -15.013  1.00  0.00    -0.237 OA
ATOM     90  O   UNL     1      -0.144  12.149 -15.628  1.00  0.00    -0.744 OA
ENDBRANCH  83  87
ENDBRANCH  66  80
BRANCH  67  91
ATOM     91  C   UNL     1       9.479   6.934  -5.914  1.00  0.00     0.023 A 
ATOM     92  C   UNL     1      10.787   7.443  -5.878  1.00  0.00     0.031 A 
ATOM     93  C   UNL     1       9.103   6.018  -4.914  1.00  0.00     0.131 A 
ATOM     94  C   UNL     1      11.688   6.992  -4.901  1.00  0.00     0.055 A 
ATOM     95  C   UNL     1       9.983   5.621  -3.906  1.00  0.00     0.041 A 
ATOM     96  F   UNL     1       7.864   5.500  -4.898  1.00  0.00    -0.206 F 
ATOM     97  C   UNL     1      11.290   6.097  -3.905  1.00  0.00     0.022 A 
BRANCH  94  98
ATOM     98  S   UNL     1      13.422   7.512  -5.014  1.00  0.00     0.124 S 
ATOM     99  O   UNL     1      13.783   7.048  -6.348  1.00  0.00    -0.237 OA
ATOM    100  O   UNL     1      13.315   8.957  -4.843  1.00  0.00    -0.237 OA
ATOM    101  O   UNL     1      14.062   6.802  -3.909  1.00  0.00    -0.744 OA
ENDBRANCH  94  98
ENDBRANCH  67  91
BRANCH  79 102
ATOM    102  C   UNL     1       9.619   6.040 -12.834  1.00  0.00     0.023 A 
ATOM    103  C   UNL     1       9.959   4.677 -12.797  1.00  0.00     0.031 A 
ATOM    104  C   UNL     1      10.275   6.860 -13.770  1.00  0.00     0.131 A 
ATOM    105  C   UNL     1      10.964   4.184 -13.643  1.00  0.00     0.055 A 
ATOM    106  C   UNL     1      11.226   6.351 -14.654  1.00  0.00     0.041 A 
ATOM    107  F   UNL     1       9.993   8.171 -13.846  1.00  0.00    -0.206 F 
ATOM    108  C   UNL     1      11.585   5.008 -14.585  1.00  0.00     0.022 A 
BRANCH 105 109
ATOM    109  S   UNL     1      11.514   2.469 -13.436  1.00  0.00     0.124 S 
ATOM    110  O   UNL     1      11.975   2.464 -12.051  1.00  0.00    -0.237 OA
ATOM    111  O   UNL     1      10.293   1.715 -13.703  1.00  0.00    -0.237 OA
ATOM    112  O   UNL     1      12.565   2.321 -14.441  1.00  0.00    -0.744 OA
ENDBRANCH 105 109
ENDBRANCH  79 102
ENDBRANCH  53  54
ENDBRANCH  45  48
ENDBRANCH  43  44
ENDBRANCH  42  43
ENDBRANCH  41  42
ENDBRANCH  40  41
ENDBRANCH   1  40
TORSDOF 22
