REMARK SMILES CC[C@@]1(CC(=O)NCCCCCCNC(=O)c2ccc(-c3c4nc(c(-c5cc(S(=O)(=O)[O-])ccc5F)c5ccc([nH]5)c(-c5cc(S(=O)(=O)[O-])ccc5F)c5nc(c(-c6cc(S(=O)(=O)[O-])ccc6F)c6ccc3[nH]6)C=C5)C=C4)cc2)OC[C@H](Cc2ccccc2)c2c1[nH]c1ccccc21
REMARK SMILES IDX 10 1 9 2 8 3 7 4 5 5 6 6 4 8 3 9 80 10 91 11 81 12 90 13
REMARK SMILES IDX 92 14 82 15 98 16 93 17 97 19 94 20 96 21 95 22 2 23 1 24
REMARK SMILES IDX 83 25 84 26 85 27 89 28 86 29 88 30 87 31 11 32 12 33 13 34
REMARK SMILES IDX 14 35 15 36 16 38 17 39 18 40 79 41 19 42 78 43 20 44 21 45
REMARK SMILES IDX 22 46 72 47 23 48 77 49 71 50 73 51 24 52 76 53 70 54 69 55
REMARK SMILES IDX 25 57 57 58 37 59 56 60 38 61 41 62 55 63 74 64 39 65 40 66
REMARK SMILES IDX 54 68 75 69 42 70 26 71 27 72 35 73 28 74 34 75 36 76 33 77
REMARK SMILES IDX 29 78 30 79 31 80 32 81 58 82 59 83 67 84 60 85 66 86 68 87
REMARK SMILES IDX 65 88 61 89 62 90 63 91 64 92 43 93 44 94 52 95 45 96 51 97
REMARK SMILES IDX 53 98 50 99 46 100 47 101 48 102 49 103
REMARK H PARENT 7 7 92 18 14 37 73 56 41 67
REMARK Flexibility Score: inf
ROOT
ATOM      1  C   UNL     1      -3.690   0.005  -3.439  1.00  0.00     0.002 C 
ENDROOT
BRANCH   1   2
ATOM      2  C   UNL     1      -2.682   1.018  -2.910  1.00  0.00     0.021 C 
BRANCH   2   3
ATOM      3  C   UNL     1      -2.599   1.092  -1.389  1.00  0.00     0.116 C 
BRANCH   3   4
ATOM      4  N   UNL     1      -1.649   0.106  -0.910  1.00  0.00    -0.356 N 
ATOM      5  C   UNL     1      -0.329   0.253  -0.603  1.00  0.00     0.223 C 
ATOM      6  O   UNL     1       0.338  -0.764  -0.401  1.00  0.00    -0.275 OA
ATOM      7  H   UNL     1      -2.010  -0.802  -0.789  1.00  0.00     0.163 HD
BRANCH   5   8
ATOM      8  C   UNL     1       0.254   1.634  -0.399  1.00  0.00     0.142 C 
BRANCH   8   9
ATOM      9  C   UNL     1       1.133   2.205  -1.534  1.00  0.00     0.117 C 
ATOM     10  O   UNL     1       2.177   1.303  -1.952  1.00  0.00    -0.368 OA
ATOM     11  C   UNL     1       1.839   3.429  -0.997  1.00  0.00     0.052 A 
ATOM     12  C   UNL     1       3.199   1.038  -0.990  1.00  0.00     0.170 C 
ATOM     13  C   UNL     1       3.163   3.509  -0.622  1.00  0.00    -0.011 A 
ATOM     14  N   UNL     1       1.264   4.655  -0.803  1.00  0.00    -0.356 N 
ATOM     15  C   UNL     1       4.047   2.296  -0.652  1.00  0.00     0.052 C 
ATOM     16  C   UNL     1       3.446   4.883  -0.376  1.00  0.00     0.003 A 
ATOM     17  C   UNL     1       2.235   5.574  -0.478  1.00  0.00     0.046 A 
ATOM     18  H   UNL     1       0.302   4.850  -0.883  1.00  0.00     0.166 HD
ATOM     19  C   UNL     1       4.613   5.620  -0.099  1.00  0.00     0.010 A 
ATOM     20  C   UNL     1       2.128   6.957  -0.290  1.00  0.00     0.026 A 
ATOM     21  C   UNL     1       4.528   7.008   0.071  1.00  0.00     0.001 A 
ATOM     22  C   UNL     1       3.302   7.662  -0.017  1.00  0.00     0.002 A 
BRANCH   9  23
ATOM     23  C   UNL     1       0.361   2.613  -2.820  1.00  0.00     0.039 C 
ATOM     24  C   UNL     1       0.542   1.678  -4.013  1.00  0.00     0.007 C 
ENDBRANCH   9  23
BRANCH  15  25
ATOM     25  C   UNL     1       4.789   2.075   0.681  1.00  0.00     0.046 C 
BRANCH  25  26
ATOM     26  C   UNL     1       5.653   0.835   0.667  1.00  0.00    -0.047 A 
ATOM     27  C   UNL     1       6.729   0.733  -0.224  1.00  0.00     0.004 A 
ATOM     28  C   UNL     1       5.341  -0.255   1.490  1.00  0.00     0.004 A 
ATOM     29  C   UNL     1       7.459  -0.451  -0.314  1.00  0.00     0.000 A 
ATOM     30  C   UNL     1       6.078  -1.436   1.403  1.00  0.00     0.000 A 
ATOM     31  C   UNL     1       7.132  -1.536   0.497  1.00  0.00     0.000 A 
ENDBRANCH  25  26
ENDBRANCH  15  25
ENDBRANCH   8   9
ENDBRANCH   5   8
ENDBRANCH   3   4
ENDBRANCH   2   3
ENDBRANCH   1   2
BRANCH   1  32
ATOM     32  C   UNL     1      -5.146   0.411  -3.234  1.00  0.00     0.002 C 
BRANCH  32  33
ATOM     33  C   UNL     1      -5.518   1.794  -3.781  1.00  0.00     0.021 C 
BRANCH  33  34
ATOM     34  C   UNL     1      -5.144   2.029  -5.247  1.00  0.00     0.116 C 
BRANCH  34  35
ATOM     35  N   UNL     1      -5.683   1.046  -6.160  1.00  0.00    -0.352 N 
ATOM     36  C   UNL     1      -6.903   0.847  -6.744  1.00  0.00     0.251 C 
ATOM     37  H   UNL     1      -5.022   0.364  -6.420  1.00  0.00     0.163 HD
ATOM     38  O   UNL     1      -6.969  -0.086  -7.549  1.00  0.00    -0.269 OA
BRANCH  36  39
ATOM     39  C   UNL     1      -8.138   1.615  -6.422  1.00  0.00     0.039 A 
ATOM     40  C   UNL     1      -8.197   2.764  -5.635  1.00  0.00     0.014 A 
ATOM     41  C   UNL     1      -9.341   1.084  -6.923  1.00  0.00     0.014 A 
ATOM     42  C   UNL     1      -9.424   3.279  -5.234  1.00  0.00     0.010 A 
ATOM     43  C   UNL     1     -10.571   1.621  -6.561  1.00  0.00     0.010 A 
ATOM     44  C   UNL     1     -10.612   2.681  -5.663  1.00  0.00    -0.014 A 
BRANCH  44  45
ATOM     45  C   UNL     1     -11.868   3.261  -5.195  1.00  0.00     0.031 A 
ATOM     46  C   UNL     1     -12.064   4.697  -5.546  1.00  0.00     0.074 A 
ATOM     47  C   UNL     1     -12.827   2.562  -4.557  1.00  0.00     0.049 A 
ATOM     48  N   UNL     1     -12.100   5.718  -4.753  1.00  0.00    -0.248 NA
ATOM     49  C   UNL     1     -12.083   5.046  -6.973  1.00  0.00     0.031 C 
ATOM     50  C   UNL     1     -12.943   1.110  -4.391  1.00  0.00     0.029 A 
ATOM     51  N   UNL     1     -13.975   3.024  -3.988  1.00  0.00    -0.354 N 
ATOM     52  C   UNL     1     -12.331   6.831  -5.564  1.00  0.00     0.074 A 
ATOM     53  C   UNL     1     -12.162   6.376  -6.922  1.00  0.00     0.031 C 
ATOM     54  C   UNL     1     -14.197   0.806  -3.982  1.00  0.00     0.029 A 
ATOM     55  C   UNL     1     -14.909   2.041  -3.699  1.00  0.00     0.049 A 
ATOM     56  H   UNL     1     -14.128   3.978  -3.797  1.00  0.00     0.167 HD
ATOM     57  C   UNL     1     -12.817   8.005  -5.068  1.00  0.00     0.034 A 
ATOM     58  C   UNL     1     -16.196   2.232  -3.314  1.00  0.00     0.034 A 
ATOM     59  C   UNL     1     -12.712   8.053  -3.636  1.00  0.00     0.049 A 
ATOM     60  C   UNL     1     -16.320   3.616  -2.798  1.00  0.00     0.074 A 
ATOM     61  C   UNL     1     -11.669   8.080  -2.734  1.00  0.00     0.029 A 
ATOM     62  N   UNL     1     -13.832   7.737  -2.908  1.00  0.00    -0.354 N 
ATOM     63  N   UNL     1     -15.785   4.033  -1.686  1.00  0.00    -0.248 NA
ATOM     64  C   UNL     1     -16.689   4.654  -3.747  1.00  0.00     0.031 C 
ATOM     65  C   UNL     1     -12.127   7.321  -1.621  1.00  0.00     0.029 A 
ATOM     66  C   UNL     1     -13.439   6.919  -1.882  1.00  0.00     0.049 A 
ATOM     67  H   UNL     1     -14.750   8.043  -3.090  1.00  0.00     0.167 HD
ATOM     68  C   UNL     1     -15.332   5.309  -1.981  1.00  0.00     0.074 A 
ATOM     69  C   UNL     1     -16.007   5.676  -3.225  1.00  0.00     0.031 C 
ATOM     70  C   UNL     1     -14.246   5.841  -1.347  1.00  0.00     0.034 A 
BRANCH  57  71
ATOM     71  C   UNL     1     -13.679   8.974  -5.844  1.00  0.00     0.023 A 
ATOM     72  C   UNL     1     -14.255   8.656  -7.087  1.00  0.00     0.031 A 
ATOM     73  C   UNL     1     -14.142  10.165  -5.243  1.00  0.00     0.131 A 
ATOM     74  C   UNL     1     -15.223   9.476  -7.683  1.00  0.00     0.055 A 
ATOM     75  C   UNL     1     -15.158  10.950  -5.805  1.00  0.00     0.041 A 
ATOM     76  F   UNL     1     -13.665  10.572  -4.056  1.00  0.00    -0.206 F 
ATOM     77  C   UNL     1     -15.706  10.605  -7.032  1.00  0.00     0.022 A 
BRANCH  74  78
ATOM     78  S   UNL     1     -15.881   9.064  -9.323  1.00  0.00     0.124 S 
ATOM     79  O   UNL     1     -17.306   8.894  -9.038  1.00  0.00    -0.237 OA
ATOM     80  O   UNL     1     -15.531  10.261 -10.088  1.00  0.00    -0.237 OA
ATOM     81  O   UNL     1     -15.155   7.860  -9.691  1.00  0.00    -0.744 OA
ENDBRANCH  74  78
ENDBRANCH  57  71
BRANCH  58  82
ATOM     82  C   UNL     1     -17.380   1.506  -3.830  1.00  0.00     0.023 A 
ATOM     83  C   UNL     1     -17.365   1.002  -5.144  1.00  0.00     0.031 A 
ATOM     84  C   UNL     1     -18.627   1.609  -3.189  1.00  0.00     0.131 A 
ATOM     85  C   UNL     1     -18.564   0.684  -5.795  1.00  0.00     0.055 A 
ATOM     86  C   UNL     1     -19.822   1.270  -3.834  1.00  0.00     0.041 A 
ATOM     87  F   UNL     1     -18.714   2.117  -1.950  1.00  0.00    -0.206 F 
ATOM     88  C   UNL     1     -19.795   0.821  -5.152  1.00  0.00     0.022 A 
BRANCH  85  89
ATOM     89  S   UNL     1     -18.553   0.181  -7.538  1.00  0.00     0.124 S 
ATOM     90  O   UNL     1     -19.427  -0.990  -7.526  1.00  0.00    -0.237 OA
ATOM     91  O   UNL     1     -19.098   1.366  -8.191  1.00  0.00    -0.237 OA
ATOM     92  O   UNL     1     -17.146  -0.102  -7.802  1.00  0.00    -0.744 OA
ENDBRANCH  85  89
ENDBRANCH  58  82
BRANCH  70  93
ATOM     93  C   UNL     1     -13.678   5.125  -0.141  1.00  0.00     0.023 A 
ATOM     94  C   UNL     1     -13.411   5.907   0.997  1.00  0.00     0.031 A 
ATOM     95  C   UNL     1     -13.186   3.806  -0.151  1.00  0.00     0.131 A 
ATOM     96  C   UNL     1     -12.638   5.395   2.044  1.00  0.00     0.055 A 
ATOM     97  C   UNL     1     -12.479   3.272   0.933  1.00  0.00     0.041 A 
ATOM     98  F   UNL     1     -13.292   3.025  -1.234  1.00  0.00    -0.206 F 
ATOM     99  C   UNL     1     -12.185   4.074   2.030  1.00  0.00     0.022 A 
BRANCH  96 100
ATOM    100  S   UNL     1     -12.057   6.489   3.365  1.00  0.00     0.124 S 
ATOM    101  O   UNL     1     -12.708   5.925   4.543  1.00  0.00    -0.237 OA
ATOM    102  O   UNL     1     -10.607   6.307   3.301  1.00  0.00    -0.237 OA
ATOM    103  O   UNL     1     -12.528   7.812   2.963  1.00  0.00    -0.744 OA
ENDBRANCH  96 100
ENDBRANCH  70  93
ENDBRANCH  44  45
ENDBRANCH  36  39
ENDBRANCH  34  35
ENDBRANCH  33  34
ENDBRANCH  32  33
ENDBRANCH   1  32
TORSDOF 20
