REMARK SMILES O=C(NCCCCCCNC(=O)[C@@H]1CCn2c(C(=O)c3ccccc3)ccc21)c1ccc(-c2c3nc(c(-c4cc(S(=O)(=O)[O-])ccc4F)c4ccc([nH]4)c(-c4cc(S(=O)(=O)[O-])ccc4F)c4nc(c(-c5cc(S(=O)(=O)[O-])ccc5F)c5ccc2[nH]5)C=C4)C=C3)cc1
REMARK SMILES IDX 6 1 5 2 4 3 3 4 1 5 2 6 29 8 30 9 91 10 31 11 90 12 32 13
REMARK SMILES IDX 33 14 34 15 84 16 35 17 89 18 83 19 85 20 36 21 88 22 82 23
REMARK SMILES IDX 81 24 37 26 69 27 49 28 68 29 50 30 53 31 67 32 86 33 51 34
REMARK SMILES IDX 52 35 66 37 87 38 54 39 38 40 39 41 47 42 40 43 46 44 48 45
REMARK SMILES IDX 45 46 41 47 42 48 43 49 44 50 70 51 71 52 79 53 72 54 78 55
REMARK SMILES IDX 80 56 77 57 73 58 74 59 75 60 76 61 55 62 56 63 64 64 57 65
REMARK SMILES IDX 63 66 65 67 62 68 58 69 59 70 60 71 61 72 7 73 8 74 9 75
REMARK SMILES IDX 10 76 11 77 12 79 13 80 14 81 28 82 15 83 16 84 27 85 17 86
REMARK SMILES IDX 26 87 18 88 19 89 20 90 21 91 25 92 22 93 24 94 23 95
REMARK H PARENT 3 7 85 25 53 36 10 78
REMARK Flexibility Score: inf
ROOT
ATOM      1  C   UNL     1       4.132  -1.771  -3.433  1.00  0.00     0.002 C 
ENDROOT
BRANCH   1   2
ATOM      2  C   UNL     1       4.612  -1.842  -1.982  1.00  0.00     0.021 C 
BRANCH   2   3
ATOM      3  C   UNL     1       4.432  -0.556  -1.186  1.00  0.00     0.116 C 
BRANCH   3   4
ATOM      4  N   UNL     1       3.032  -0.205  -1.014  1.00  0.00    -0.352 N 
ATOM      5  O   UNL     1       1.123   0.171   0.127  1.00  0.00    -0.269 OA
ATOM      6  C   UNL     1       2.347   0.063   0.146  1.00  0.00     0.251 C 
ATOM      7  H   UNL     1       2.503  -0.152  -1.842  1.00  0.00     0.163 HD
BRANCH   6   8
ATOM      8  C   UNL     1       3.089   0.204   1.418  1.00  0.00     0.039 A 
ATOM      9  C   UNL     1       4.259   0.966   1.476  1.00  0.00     0.014 A 
ATOM     10  C   UNL     1       2.603  -0.426   2.567  1.00  0.00     0.014 A 
ATOM     11  C   UNL     1       5.007   0.994   2.647  1.00  0.00     0.010 A 
ATOM     12  C   UNL     1       3.315  -0.328   3.766  1.00  0.00     0.010 A 
ATOM     13  C   UNL     1       4.535   0.365   3.810  1.00  0.00    -0.014 A 
BRANCH  13  14
ATOM     14  C   UNL     1       5.299   0.510   5.076  1.00  0.00     0.031 A 
ATOM     15  C   UNL     1       5.937  -0.677   5.741  1.00  0.00     0.074 A 
ATOM     16  C   UNL     1       5.429   1.740   5.609  1.00  0.00     0.049 A 
ATOM     17  N   UNL     1       6.639  -0.725   6.844  1.00  0.00    -0.248 NA
ATOM     18  C   UNL     1       5.755  -1.982   5.090  1.00  0.00     0.031 C 
ATOM     19  C   UNL     1       4.841   2.962   5.051  1.00  0.00     0.029 A 
ATOM     20  N   UNL     1       6.100   2.175   6.722  1.00  0.00    -0.354 N 
ATOM     21  C   UNL     1       6.972  -2.062   7.031  1.00  0.00     0.074 A 
ATOM     22  C   UNL     1       6.365  -2.797   5.940  1.00  0.00     0.031 C 
ATOM     23  C   UNL     1       5.211   4.010   5.800  1.00  0.00     0.029 A 
ATOM     24  C   UNL     1       6.001   3.532   6.928  1.00  0.00     0.049 A 
ATOM     25  H   UNL     1       6.604   1.575   7.317  1.00  0.00     0.167 HD
ATOM     26  C   UNL     1       7.718  -2.619   8.019  1.00  0.00     0.034 A 
ATOM     27  C   UNL     1       6.470   4.305   7.925  1.00  0.00     0.034 A 
ATOM     28  C   UNL     1       8.312  -1.865   9.099  1.00  0.00     0.049 A 
ATOM     29  C   UNL     1       7.268   3.658   9.023  1.00  0.00     0.074 A 
ATOM     30  C   UNL     1       9.113  -2.323  10.132  1.00  0.00     0.029 A 
ATOM     31  N   UNL     1       8.163  -0.496   9.295  1.00  0.00    -0.354 N 
ATOM     32  N   UNL     1       7.590   2.394   9.173  1.00  0.00    -0.248 NA
ATOM     33  C   UNL     1       7.770   4.541  10.082  1.00  0.00     0.031 C 
ATOM     34  C   UNL     1       9.391  -1.248  10.985  1.00  0.00     0.029 A 
ATOM     35  C   UNL     1       8.829  -0.102  10.447  1.00  0.00     0.049 A 
ATOM     36  H   UNL     1       7.658   0.106   8.702  1.00  0.00     0.167 HD
ATOM     37  C   UNL     1       8.347   2.333  10.339  1.00  0.00     0.074 A 
ATOM     38  C   UNL     1       8.452   3.691  10.835  1.00  0.00     0.031 C 
ATOM     39  C   UNL     1       8.905   1.253  10.943  1.00  0.00     0.034 A 
BRANCH  26  40
ATOM     40  C   UNL     1       7.892  -4.119   8.001  1.00  0.00     0.023 A 
ATOM     41  C   UNL     1       8.586  -4.775   6.969  1.00  0.00     0.031 A 
ATOM     42  C   UNL     1       7.346  -4.908   9.030  1.00  0.00     0.131 A 
ATOM     43  C   UNL     1       8.663  -6.177   6.956  1.00  0.00     0.055 A 
ATOM     44  C   UNL     1       7.489  -6.297   9.050  1.00  0.00     0.041 A 
ATOM     45  F   UNL     1       6.656  -4.342  10.032  1.00  0.00    -0.206 F 
ATOM     46  C   UNL     1       8.139  -6.941   8.001  1.00  0.00     0.022 A 
BRANCH  43  47
ATOM     47  S   UNL     1       9.346  -6.996   5.488  1.00  0.00     0.124 S 
ATOM     48  O   UNL     1       8.463  -6.503   4.433  1.00  0.00    -0.237 OA
ATOM     49  O   UNL     1      10.716  -6.496   5.454  1.00  0.00    -0.237 OA
ATOM     50  O   UNL     1       9.208  -8.419   5.791  1.00  0.00    -0.744 OA
ENDBRANCH  43  47
ENDBRANCH  26  40
BRANCH  27  51
ATOM     51  C   UNL     1       6.164   5.762   7.947  1.00  0.00     0.023 A 
ATOM     52  C   UNL     1       7.179   6.722   7.828  1.00  0.00     0.031 A 
ATOM     53  C   UNL     1       4.840   6.215   8.102  1.00  0.00     0.131 A 
ATOM     54  C   UNL     1       6.860   8.087   7.901  1.00  0.00     0.055 A 
ATOM     55  C   UNL     1       4.522   7.573   8.119  1.00  0.00     0.041 A 
ATOM     56  F   UNL     1       3.831   5.337   8.215  1.00  0.00    -0.206 F 
ATOM     57  C   UNL     1       5.538   8.519   8.030  1.00  0.00     0.022 A 
BRANCH  54  58
ATOM     58  S   UNL     1       8.212   9.296   7.898  1.00  0.00     0.124 S 
ATOM     59  O   UNL     1       8.997   8.867   9.050  1.00  0.00    -0.237 OA
ATOM     60  O   UNL     1       8.817   9.070   6.589  1.00  0.00    -0.237 OA
ATOM     61  O   UNL     1       7.524  10.576   8.052  1.00  0.00    -0.744 OA
ENDBRANCH  54  58
ENDBRANCH  27  51
BRANCH  39  62
ATOM     62  C   UNL     1       9.704   1.517  12.195  1.00  0.00     0.023 A 
ATOM     63  C   UNL     1       9.093   1.968  13.379  1.00  0.00     0.031 A 
ATOM     64  C   UNL     1      11.099   1.344  12.193  1.00  0.00     0.131 A 
ATOM     65  C   UNL     1       9.882   2.288  14.493  1.00  0.00     0.055 A 
ATOM     66  C   UNL     1      11.872   1.607  13.324  1.00  0.00     0.041 A 
ATOM     67  F   UNL     1      11.733   0.919  11.089  1.00  0.00    -0.206 F 
ATOM     68  C   UNL     1      11.266   2.096  14.478  1.00  0.00     0.022 A 
BRANCH  65  69
ATOM     69  S   UNL     1       9.087   3.054  15.932  1.00  0.00     0.124 S 
ATOM     70  O   UNL     1       8.500   4.256  15.350  1.00  0.00    -0.237 OA
ATOM     71  O   UNL     1       8.144   2.023  16.353  1.00  0.00    -0.237 OA
ATOM     72  O   UNL     1      10.198   3.289  16.853  1.00  0.00    -0.744 OA
ENDBRANCH  65  69
ENDBRANCH  39  62
ENDBRANCH  13  14
ENDBRANCH   6   8
ENDBRANCH   3   4
ENDBRANCH   2   3
ENDBRANCH   1   2
BRANCH   1  73
ATOM     73  C   UNL     1       4.767  -0.666  -4.284  1.00  0.00     0.002 C 
BRANCH  73  74
ATOM     74  C   UNL     1       6.299  -0.619  -4.267  1.00  0.00     0.021 C 
BRANCH  74  75
ATOM     75  C   UNL     1       6.973  -1.931  -4.660  1.00  0.00     0.116 C 
BRANCH  75  76
ATOM     76  N   UNL     1       6.782  -2.236  -6.065  1.00  0.00    -0.356 N 
ATOM     77  C   UNL     1       7.682  -2.372  -7.078  1.00  0.00     0.229 C 
ATOM     78  H   UNL     1       5.843  -2.368  -6.331  1.00  0.00     0.163 HD
ATOM     79  O   UNL     1       7.230  -2.603  -8.206  1.00  0.00    -0.274 OA
BRANCH  77  80
ATOM     80  C   UNL     1       9.191  -2.308  -6.858  1.00  0.00     0.127 C 
ATOM     81  C   UNL     1       9.722  -3.368  -5.867  1.00  0.00     0.042 C 
ATOM     82  C   UNL     1       9.650  -1.026  -6.269  1.00  0.00     0.031 A 
ATOM     83  C   UNL     1      10.659  -2.633  -4.890  1.00  0.00     0.124 C 
ATOM     84  N   UNL     1      10.463  -1.224  -5.186  1.00  0.00    -0.341 N 
ATOM     85  C   UNL     1       9.502   0.318  -6.468  1.00  0.00     0.025 A 
ATOM     86  C   UNL     1      10.787  -0.042  -4.587  1.00  0.00     0.090 A 
ATOM     87  C   UNL     1      10.210   0.936  -5.404  1.00  0.00     0.032 A 
BRANCH  86  88
ATOM     88  C   UNL     1      11.506   0.235  -3.350  1.00  0.00     0.209 C 
ATOM     89  O   UNL     1      11.553   1.363  -2.861  1.00  0.00    -0.287 OA
BRANCH  88  90
ATOM     90  C   UNL     1      12.194  -0.832  -2.592  1.00  0.00     0.024 A 
ATOM     91  C   UNL     1      11.892  -0.986  -1.233  1.00  0.00     0.012 A 
ATOM     92  C   UNL     1      13.178  -1.627  -3.187  1.00  0.00     0.012 A 
ATOM     93  C   UNL     1      12.533  -1.973  -0.486  1.00  0.00     0.001 A 
ATOM     94  C   UNL     1      13.807  -2.623  -2.438  1.00  0.00     0.001 A 
ATOM     95  C   UNL     1      13.480  -2.799  -1.092  1.00  0.00     0.000 A 
ENDBRANCH  88  90
ENDBRANCH  86  88
ENDBRANCH  77  80
ENDBRANCH  75  76
ENDBRANCH  74  75
ENDBRANCH  73  74
ENDBRANCH   1  73
TORSDOF 18
