REMARK SMILES [NH3+]CCOCC(=O)N[C@H](C(=O)NCCCCCCNC(=O)c1ccc(-c2c3nc(c(-c4cc(S(=O)(=O)[O-])ccc4F)c4ccc([nH]4)c(-c4cc(S(=O)(=O)[O-])ccc4F)c4nc(c(-c5cc(S(=O)(=O)[O-])ccc5F)c5ccc2[nH]5)C=C4)C=C3)cc1)c1ccccc1
REMARK SMILES IDX 14 1 13 2 12 3 10 4 11 5 9 7 8 8 6 9 7 10 5 12 4 13 3 14
REMARK SMILES IDX 2 15 1 16 85 20 86 21 90 22 87 23 89 24 88 25 15 26 16 27
REMARK SMILES IDX 17 28 18 29 19 30 20 31 21 33 22 34 23 35 84 36 24 37 83 38
REMARK SMILES IDX 25 39 26 40 27 41 77 42 28 43 82 44 76 45 78 46 29 47 81 48
REMARK SMILES IDX 75 49 74 50 30 52 62 53 42 54 61 55 43 56 46 57 60 58 79 59
REMARK SMILES IDX 44 60 45 61 59 63 80 64 47 65 31 66 32 67 40 68 33 69 39 70
REMARK SMILES IDX 41 71 38 72 34 73 35 74 36 75 37 76 63 77 64 78 72 79 65 80
REMARK SMILES IDX 71 81 73 82 70 83 66 84 67 85 68 86 69 87 48 88 49 89 57 90
REMARK SMILES IDX 50 91 56 92 58 93 55 94 51 95 52 96 53 97 54 98
REMARK H PARENT 12 6 8 11 1 17 1 18 1 19 19 32 78 51 46 62
REMARK Flexibility Score: inf
ROOT
ATOM      1  C   UNL     1       1.542   2.766   1.059  1.00  0.00     0.021 C 
ENDROOT
BRANCH   1   2
ATOM      2  C   UNL     1       2.088   3.304  -0.268  1.00  0.00     0.116 C 
BRANCH   2   3
ATOM      3  N   UNL     1       2.598   2.273  -1.156  1.00  0.00    -0.354 N 
ATOM      4  C   UNL     1       2.943   2.328  -2.486  1.00  0.00     0.247 C 
ATOM      5  O   UNL     1       3.260   1.245  -2.984  1.00  0.00    -0.272 OA
ATOM      6  H   UNL     1       2.716   1.391  -0.736  1.00  0.00     0.163 HD
BRANCH   4   7
ATOM      7  C   UNL     1       2.729   3.643  -3.305  1.00  0.00     0.202 C 
BRANCH   7   8
ATOM      8  N   UNL     1       3.221   4.810  -2.566  1.00  0.00    -0.339 N 
ATOM      9  C   UNL     1       4.498   5.162  -2.250  1.00  0.00     0.246 C 
ATOM     10  O   UNL     1       4.663   6.198  -1.600  1.00  0.00    -0.272 OA
ATOM     11  H   UNL     1       2.525   5.431  -2.250  1.00  0.00     0.164 HD
BRANCH   9  12
ATOM     12  C   UNL     1       5.697   4.276  -2.642  1.00  0.00     0.260 C 
BRANCH  12  13
ATOM     13  O   UNL     1       6.018   3.123  -1.892  1.00  0.00    -0.366 OA
BRANCH  13  14
ATOM     14  C   UNL     1       5.845   3.214  -0.485  1.00  0.00     0.222 C 
BRANCH  14  15
ATOM     15  C   UNL     1       7.002   3.821   0.317  1.00  0.00     0.287 C 
BRANCH  15  16
ATOM     16  N   UNL     1       7.201   5.253   0.116  1.00  0.00    -0.356 N 
ATOM     17  H   UNL     1       7.986   5.570   0.685  1.00  0.00     0.344 HD
ATOM     18  H   UNL     1       6.357   5.755   0.392  1.00  0.00     0.344 HD
ATOM     19  H   UNL     1       7.399   5.434  -0.868  1.00  0.00     0.344 HD
ENDBRANCH  15  16
ENDBRANCH  14  15
ENDBRANCH  13  14
ENDBRANCH  12  13
ENDBRANCH   9  12
ENDBRANCH   7   8
BRANCH   7  20
ATOM     20  C   UNL     1       3.123   3.700  -4.789  1.00  0.00    -0.016 A 
ATOM     21  C   UNL     1       3.343   2.564  -5.584  1.00  0.00     0.006 A 
ATOM     22  C   UNL     1       3.196   4.953  -5.440  1.00  0.00     0.006 A 
ATOM     23  C   UNL     1       3.692   2.673  -6.936  1.00  0.00     0.000 A 
ATOM     24  C   UNL     1       3.544   5.064  -6.791  1.00  0.00     0.000 A 
ATOM     25  C   UNL     1       3.803   3.921  -7.537  1.00  0.00     0.000 A 
ENDBRANCH   7  20
ENDBRANCH   4   7
ENDBRANCH   2   3
ENDBRANCH   1   2
BRANCH   1  26
ATOM     26  C   UNL     1       2.429   1.807   1.867  1.00  0.00     0.002 C 
BRANCH  26  27
ATOM     27  C   UNL     1       3.799   2.311   2.318  1.00  0.00     0.002 C 
BRANCH  27  28
ATOM     28  C   UNL     1       3.841   3.652   3.041  1.00  0.00     0.021 C 
BRANCH  28  29
ATOM     29  C   UNL     1       3.076   3.670   4.354  1.00  0.00     0.116 C 
BRANCH  29  30
ATOM     30  N   UNL     1       3.647   2.763   5.339  1.00  0.00    -0.352 N 
ATOM     31  C   UNL     1       3.859   2.970   6.679  1.00  0.00     0.251 C 
ATOM     32  H   UNL     1       3.919   1.881   4.997  1.00  0.00     0.163 HD
ATOM     33  O   UNL     1       4.529   2.161   7.321  1.00  0.00    -0.269 OA
BRANCH  31  34
ATOM     34  C   UNL     1       3.300   4.170   7.336  1.00  0.00     0.039 A 
ATOM     35  C   UNL     1       4.059   4.835   8.302  1.00  0.00     0.014 A 
ATOM     36  C   UNL     1       2.023   4.633   7.007  1.00  0.00     0.014 A 
ATOM     37  C   UNL     1       3.544   5.979   8.915  1.00  0.00     0.010 A 
ATOM     38  C   UNL     1       1.559   5.829   7.537  1.00  0.00     0.010 A 
ATOM     39  C   UNL     1       2.297   6.494   8.524  1.00  0.00    -0.014 A 
BRANCH  39  40
ATOM     40  C   UNL     1       1.708   7.681   9.191  1.00  0.00     0.031 A 
ATOM     41  C   UNL     1       0.413   7.535   9.948  1.00  0.00     0.074 A 
ATOM     42  C   UNL     1       2.308   8.881   9.080  1.00  0.00     0.049 A 
ATOM     43  N   UNL     1      -0.306   8.448  10.548  1.00  0.00    -0.248 NA
ATOM     44  C   UNL     1      -0.172   6.186  10.000  1.00  0.00     0.031 C 
ATOM     45  C   UNL     1       3.542   9.143   8.335  1.00  0.00     0.029 A 
ATOM     46  N   UNL     1       1.965  10.105   9.592  1.00  0.00    -0.354 N 
ATOM     47  C   UNL     1      -1.431   7.787  11.031  1.00  0.00     0.074 A 
ATOM     48  C   UNL     1      -1.339   6.417  10.580  1.00  0.00     0.031 C 
ATOM     49  C   UNL     1       3.872  10.437   8.473  1.00  0.00     0.029 A 
ATOM     50  C   UNL     1       2.852  11.107   9.273  1.00  0.00     0.049 A 
ATOM     51  H   UNL     1       1.159  10.254  10.138  1.00  0.00     0.167 HD
ATOM     52  C   UNL     1      -2.430   8.269  11.810  1.00  0.00     0.034 A 
ATOM     53  C   UNL     1       2.839  12.416   9.591  1.00  0.00     0.034 A 
ATOM     54  C   UNL     1      -2.488   9.637  12.263  1.00  0.00     0.049 A 
ATOM     55  C   UNL     1       1.713  12.934  10.451  1.00  0.00     0.074 A 
ATOM     56  C   UNL     1      -3.426  10.237  13.084  1.00  0.00     0.029 A 
ATOM     57  N   UNL     1      -1.565  10.623  11.929  1.00  0.00    -0.354 N 
ATOM     58  N   UNL     1       0.676  12.288  10.937  1.00  0.00    -0.248 NA
ATOM     59  C   UNL     1       1.768  14.351  10.823  1.00  0.00     0.031 C 
ATOM     60  C   UNL     1      -3.112  11.596  13.187  1.00  0.00     0.029 A 
ATOM     61  C   UNL     1      -1.925  11.829  12.508  1.00  0.00     0.049 A 
ATOM     62  H   UNL     1      -0.771  10.484  11.364  1.00  0.00     0.167 HD
ATOM     63  C   UNL     1      -0.021  13.214  11.708  1.00  0.00     0.074 A 
ATOM     64  C   UNL     1       0.726  14.454  11.634  1.00  0.00     0.031 C 
ATOM     65  C   UNL     1      -1.169  13.057  12.418  1.00  0.00     0.034 A 
BRANCH  52  66
ATOM     66  C   UNL     1      -3.539   7.314  12.191  1.00  0.00     0.023 A 
ATOM     67  C   UNL     1      -3.287   6.141  12.927  1.00  0.00     0.031 A 
ATOM     68  C   UNL     1      -4.861   7.553  11.777  1.00  0.00     0.131 A 
ATOM     69  C   UNL     1      -4.317   5.213  13.145  1.00  0.00     0.055 A 
ATOM     70  C   UNL     1      -5.901   6.671  12.081  1.00  0.00     0.041 A 
ATOM     71  F   UNL     1      -5.164   8.640  11.050  1.00  0.00    -0.206 F 
ATOM     72  C   UNL     1      -5.629   5.484  12.753  1.00  0.00     0.022 A 
BRANCH  69  73
ATOM     73  S   UNL     1      -3.884   3.575  13.797  1.00  0.00     0.124 S 
ATOM     74  O   UNL     1      -2.947   3.095  12.784  1.00  0.00    -0.237 OA
ATOM     75  O   UNL     1      -3.310   3.895  15.098  1.00  0.00    -0.237 OA
ATOM     76  O   UNL     1      -5.165   2.872  13.833  1.00  0.00    -0.744 OA
ENDBRANCH  69  73
ENDBRANCH  52  66
BRANCH  53  77
ATOM     77  C   UNL     1       3.920  13.325   9.112  1.00  0.00     0.023 A 
ATOM     78  C   UNL     1       4.774  13.977  10.017  1.00  0.00     0.031 A 
ATOM     79  C   UNL     1       4.088  13.593   7.742  1.00  0.00     0.131 A 
ATOM     80  C   UNL     1       5.716  14.905   9.548  1.00  0.00     0.055 A 
ATOM     81  C   UNL     1       5.069  14.471   7.275  1.00  0.00     0.041 A 
ATOM     82  F   UNL     1       3.304  12.995   6.831  1.00  0.00    -0.206 F 
ATOM     83  C   UNL     1       5.880  15.146   8.183  1.00  0.00     0.022 A 
BRANCH  80  84
ATOM     84  S   UNL     1       6.658  15.873  10.760  1.00  0.00     0.124 S 
ATOM     85  O   UNL     1       5.592  16.514  11.520  1.00  0.00    -0.237 OA
ATOM     86  O   UNL     1       7.410  14.835  11.457  1.00  0.00    -0.237 OA
ATOM     87  O   UNL     1       7.460  16.769   9.929  1.00  0.00    -0.744 OA
ENDBRANCH  80  84
ENDBRANCH  53  77
BRANCH  65  88
ATOM     88  C   UNL     1      -1.643  14.247  13.220  1.00  0.00     0.023 A 
ATOM     89  C   UNL     1      -2.026  15.452  12.608  1.00  0.00     0.031 A 
ATOM     90  C   UNL     1      -1.676  14.181  14.625  1.00  0.00     0.131 A 
ATOM     91  C   UNL     1      -2.341  16.567  13.398  1.00  0.00     0.055 A 
ATOM     92  C   UNL     1      -2.069  15.269  15.404  1.00  0.00     0.041 A 
ATOM     93  F   UNL     1      -1.319  13.056  15.266  1.00  0.00    -0.206 F 
ATOM     94  C   UNL     1      -2.384  16.478  14.791  1.00  0.00     0.022 A 
BRANCH  91  95
ATOM     95  S   UNL     1      -2.552  18.174  12.584  1.00  0.00     0.124 S 
ATOM     96  O   UNL     1      -1.298  18.309  11.851  1.00  0.00    -0.237 OA
ATOM     97  O   UNL     1      -3.745  17.957  11.771  1.00  0.00    -0.237 OA
ATOM     98  O   UNL     1      -2.722  19.104  13.699  1.00  0.00    -0.744 OA
ENDBRANCH  91  95
ENDBRANCH  65  88
ENDBRANCH  39  40
ENDBRANCH  31  34
ENDBRANCH  29  30
ENDBRANCH  28  29
ENDBRANCH  27  28
ENDBRANCH  26  27
ENDBRANCH   1  26
TORSDOF 23
