REMARK SMILES COCc1cccc(C(=O)N2C[C@@H](O)C[C@@H]2C(=O)NCCCCCCNC(=O)c2ccc(-c3c4nc(c(-c5cc(S(=O)(=O)[O-])ccc5F)c5ccc([nH]5)c(-c5cc(S(=O)(=O)[O-])ccc5F)c5nc(c(-c6cc(S(=O)(=O)[O-])ccc6F)c6ccc3[nH]6)C=C5)C=C4)cc2)c1
REMARK SMILES IDX 22 1 21 2 20 3 19 4 17 5 18 6 16 8 11 9 12 10 13 11 15 12
REMARK SMILES IDX 9 13 10 14 8 15 4 16 5 17 92 18 6 19 7 20 3 21 2 22 1 23
REMARK SMILES IDX 14 24 23 26 24 27 25 28 26 29 27 30 28 32 29 33 30 34 91 35
REMARK SMILES IDX 31 36 90 37 32 38 33 39 34 40 84 41 35 42 89 43 83 44 85 45
REMARK SMILES IDX 36 46 88 47 82 48 81 49 37 51 69 52 49 53 68 54 50 55 53 56
REMARK SMILES IDX 67 57 86 58 51 59 52 60 66 62 87 63 54 64 38 65 39 66 47 67
REMARK SMILES IDX 40 68 46 69 48 70 45 71 41 72 42 73 43 74 44 75 70 76 71 77
REMARK SMILES IDX 79 78 72 79 78 80 80 81 77 82 73 83 74 84 75 85 76 86 55 87
REMARK SMILES IDX 56 88 64 89 57 90 63 91 65 92 62 93 58 94 59 95 60 96 61 97
REMARK H PARENT 19 7 14 25 26 31 85 50 53 61
REMARK Flexibility Score: inf
ROOT
ATOM      1  C   UNL     1       7.415  -7.327  -0.318  1.00  0.00     0.002 C 
ENDROOT
BRANCH   1   2
ATOM      2  C   UNL     1       6.103  -8.038   0.035  1.00  0.00     0.021 C 
BRANCH   2   3
ATOM      3  C   UNL     1       4.910  -7.098   0.200  1.00  0.00     0.116 C 
BRANCH   3   4
ATOM      4  N   UNL     1       4.432  -6.652  -1.087  1.00  0.00    -0.354 N 
ATOM      5  C   UNL     1       3.401  -7.017  -1.887  1.00  0.00     0.242 C 
ATOM      6  O   UNL     1       3.488  -6.578  -3.043  1.00  0.00    -0.273 OA
ATOM      7  H   UNL     1       4.974  -5.924  -1.468  1.00  0.00     0.163 HD
BRANCH   5   8
ATOM      8  C   UNL     1       2.097  -7.719  -1.425  1.00  0.00     0.177 C 
ATOM      9  N   UNL     1       1.117  -6.673  -1.114  1.00  0.00    -0.324 N 
ATOM     10  C   UNL     1       0.491  -6.905   0.178  1.00  0.00     0.152 C 
ATOM     11  C   UNL     1       1.478  -7.803   0.912  1.00  0.00     0.136 C 
ATOM     12  C   UNL     1       2.063  -8.654  -0.221  1.00  0.00     0.069 C 
BRANCH   9  13
ATOM     13  C   UNL     1       0.513  -5.953  -2.131  1.00  0.00     0.254 C 
ATOM     14  O   UNL     1       0.367  -6.401  -3.264  1.00  0.00    -0.269 OA
BRANCH  13  15
ATOM     15  C   UNL     1       0.101  -4.550  -1.836  1.00  0.00     0.040 A 
ATOM     16  C   UNL     1       0.289  -2.491  -0.529  1.00  0.00    -0.022 A 
ATOM     17  C   UNL     1      -0.636  -1.888  -1.390  1.00  0.00     0.006 A 
ATOM     18  C   UNL     1       0.668  -3.820  -0.780  1.00  0.00     0.020 A 
ATOM     19  C   UNL     1      -1.159  -2.588  -2.480  1.00  0.00     0.001 A 
ATOM     20  C   UNL     1      -0.796  -3.916  -2.700  1.00  0.00     0.014 A 
BRANCH  16  21
ATOM     21  C   UNL     1       0.866  -1.792   0.681  1.00  0.00     0.195 C 
BRANCH  21  22
ATOM     22  O   UNL     1       0.484  -0.420   0.783  1.00  0.00    -0.380 OA
ATOM     23  C   UNL     1       1.428   0.453   0.179  1.00  0.00     0.195 C 
ENDBRANCH  21  22
ENDBRANCH  16  21
ENDBRANCH  13  15
ENDBRANCH   9  13
BRANCH  11  24
ATOM     24  O   UNL     1       0.825  -8.592   1.890  1.00  0.00    -0.391 OA
ATOM     25  H   UNL     1       0.126  -9.115   1.469  1.00  0.00     0.211 HD
ENDBRANCH  11  24
ENDBRANCH   5   8
ENDBRANCH   3   4
ENDBRANCH   2   3
ENDBRANCH   1   2
BRANCH   1  26
ATOM     26  C   UNL     1       7.871  -6.258   0.682  1.00  0.00     0.002 C 
BRANCH  26  27
ATOM     27  C   UNL     1       7.881  -6.692   2.151  1.00  0.00     0.021 C 
BRANCH  27  28
ATOM     28  C   UNL     1       8.745  -7.912   2.453  1.00  0.00     0.116 C 
BRANCH  28  29
ATOM     29  N   UNL     1      10.149  -7.661   2.185  1.00  0.00    -0.352 N 
ATOM     30  C   UNL     1      11.233  -7.809   3.014  1.00  0.00     0.251 C 
ATOM     31  H   UNL     1      10.354  -7.339   1.277  1.00  0.00     0.163 HD
ATOM     32  O   UNL     1      12.316  -7.338   2.682  1.00  0.00    -0.269 OA
BRANCH  30  33
ATOM     33  C   UNL     1      11.089  -8.515   4.308  1.00  0.00     0.039 A 
ATOM     34  C   UNL     1      11.708  -7.977   5.440  1.00  0.00     0.014 A 
ATOM     35  C   UNL     1      10.378  -9.715   4.402  1.00  0.00     0.014 A 
ATOM     36  C   UNL     1      11.575  -8.619   6.673  1.00  0.00     0.010 A 
ATOM     37  C   UNL     1      10.194 -10.320   5.644  1.00  0.00     0.010 A 
ATOM     38  C   UNL     1      10.798  -9.783   6.791  1.00  0.00    -0.014 A 
BRANCH  38  39
ATOM     39  C   UNL     1      10.629 -10.461   8.102  1.00  0.00     0.031 A 
ATOM     40  C   UNL     1      11.200 -11.836   8.318  1.00  0.00     0.074 A 
ATOM     41  C   UNL     1       9.923  -9.858   9.080  1.00  0.00     0.049 A 
ATOM     42  N   UNL     1      11.107 -12.618   9.364  1.00  0.00    -0.248 NA
ATOM     43  C   UNL     1      11.951 -12.420   7.197  1.00  0.00     0.031 C 
ATOM     44  C   UNL     1       9.294  -8.540   8.976  1.00  0.00     0.029 A 
ATOM     45  N   UNL     1       9.611 -10.275  10.349  1.00  0.00    -0.354 N 
ATOM     46  C   UNL     1      11.780 -13.788   9.024  1.00  0.00     0.074 A 
ATOM     47  C   UNL     1      12.219 -13.634   7.653  1.00  0.00     0.031 C 
ATOM     48  C   UNL     1       8.692  -8.248  10.141  1.00  0.00     0.029 A 
ATOM     49  C   UNL     1       8.856  -9.370  11.059  1.00  0.00     0.049 A 
ATOM     50  H   UNL     1       9.901 -11.141  10.717  1.00  0.00     0.167 HD
ATOM     51  C   UNL     1      12.028 -14.878   9.792  1.00  0.00     0.034 A 
ATOM     52  C   UNL     1       8.348  -9.441  12.305  1.00  0.00     0.034 A 
ATOM     53  C   UNL     1      11.593 -15.011  11.162  1.00  0.00     0.049 A 
ATOM     54  C   UNL     1       8.621 -10.672  13.133  1.00  0.00     0.074 A 
ATOM     55  C   UNL     1      11.823 -16.052  12.044  1.00  0.00     0.029 A 
ATOM     56  N   UNL     1      10.834 -14.072  11.849  1.00  0.00    -0.354 N 
ATOM     57  N   UNL     1       9.293 -11.753  12.810  1.00  0.00    -0.248 NA
ATOM     58  C   UNL     1       8.079 -10.684  14.498  1.00  0.00     0.031 C 
ATOM     59  C   UNL     1      11.156 -15.770  13.242  1.00  0.00     0.029 A 
ATOM     60  C   UNL     1      10.567 -14.521  13.133  1.00  0.00     0.049 A 
ATOM     61  H   UNL     1      10.529 -13.213  11.477  1.00  0.00     0.167 HD
ATOM     62  C   UNL     1       9.280 -12.559  13.945  1.00  0.00     0.074 A 
ATOM     63  C   UNL     1       8.547 -11.833  14.962  1.00  0.00     0.031 C 
ATOM     64  C   UNL     1       9.826 -13.788  14.132  1.00  0.00     0.034 A 
BRANCH  51  65
ATOM     65  C   UNL     1      12.787 -16.017   9.153  1.00  0.00     0.023 A 
ATOM     66  C   UNL     1      14.109 -15.859   8.700  1.00  0.00     0.031 A 
ATOM     67  C   UNL     1      12.174 -17.268   8.965  1.00  0.00     0.131 A 
ATOM     68  C   UNL     1      14.745 -16.905   8.014  1.00  0.00     0.055 A 
ATOM     69  C   UNL     1      12.842 -18.332   8.354  1.00  0.00     0.041 A 
ATOM     70  F   UNL     1      10.907 -17.475   9.358  1.00  0.00    -0.206 F 
ATOM     71  C   UNL     1      14.130 -18.149   7.860  1.00  0.00     0.022 A 
BRANCH  68  72
ATOM     72  S   UNL     1      16.330 -16.567   7.199  1.00  0.00     0.124 S 
ATOM     73  O   UNL     1      15.962 -15.500   6.271  1.00  0.00    -0.237 OA
ATOM     74  O   UNL     1      17.182 -16.176   8.316  1.00  0.00    -0.237 OA
ATOM     75  O   UNL     1      16.670 -17.841   6.569  1.00  0.00    -0.744 OA
ENDBRANCH  68  72
ENDBRANCH  51  65
BRANCH  52  76
ATOM     76  C   UNL     1       7.529  -8.323  12.854  1.00  0.00     0.023 A 
ATOM     77  C   UNL     1       7.976  -7.574  13.953  1.00  0.00     0.031 A 
ATOM     78  C   UNL     1       6.266  -8.018  12.316  1.00  0.00     0.131 A 
ATOM     79  C   UNL     1       7.146  -6.590  14.513  1.00  0.00     0.055 A 
ATOM     80  C   UNL     1       5.466  -7.004  12.844  1.00  0.00     0.041 A 
ATOM     81  F   UNL     1       5.795  -8.700  11.260  1.00  0.00    -0.206 F 
ATOM     82  C   UNL     1       5.899  -6.292  13.959  1.00  0.00     0.022 A 
BRANCH  79  83
ATOM     83  S   UNL     1       7.686  -5.763  16.034  1.00  0.00     0.124 S 
ATOM     84  O   UNL     1       7.878  -6.893  16.935  1.00  0.00    -0.237 OA
ATOM     85  O   UNL     1       8.898  -5.081  15.591  1.00  0.00    -0.237 OA
ATOM     86  O   UNL     1       6.564  -4.886  16.360  1.00  0.00    -0.744 OA
ENDBRANCH  79  83
ENDBRANCH  52  76
BRANCH  64  87
ATOM     87  C   UNL     1       9.687 -14.393  15.507  1.00  0.00     0.023 A 
ATOM     88  C   UNL     1       8.439 -14.794  16.015  1.00  0.00     0.031 A 
ATOM     89  C   UNL     1      10.818 -14.550  16.327  1.00  0.00     0.131 A 
ATOM     90  C   UNL     1       8.343 -15.279  17.328  1.00  0.00     0.055 A 
ATOM     91  C   UNL     1      10.724 -15.087  17.612  1.00  0.00     0.041 A 
ATOM     92  F   UNL     1      12.034 -14.182  15.892  1.00  0.00    -0.206 F 
ATOM     93  C   UNL     1       9.479 -15.442  18.124  1.00  0.00     0.022 A 
BRANCH  90  94
ATOM     94  S   UNL     1       6.697 -15.608  18.016  1.00  0.00     0.124 S 
ATOM     95  O   UNL     1       6.050 -14.306  17.893  1.00  0.00    -0.237 OA
ATOM     96  O   UNL     1       6.193 -16.655  17.132  1.00  0.00    -0.237 OA
ATOM     97  O   UNL     1       6.977 -16.036  19.385  1.00  0.00    -0.744 OA
ENDBRANCH  90  94
ENDBRANCH  64  87
ENDBRANCH  38  39
ENDBRANCH  30  33
ENDBRANCH  28  29
ENDBRANCH  27  28
ENDBRANCH  26  27
ENDBRANCH   1  26
TORSDOF 21
