REMARK SMILES C/C=C(\C)[C@H]1C(C)=C[C@H]2CC[C@@H](OS(=O)(=O)[O-])[C@@H](C)[C@H]2[C@H]1/C=C/C=C/C(=O)NCCCCCCNC(=O)c1ccc(-c2c3nc(c(-c4cc(S(=O)(=O)[O-])ccc4F)c4ccc([nH]4)c(-c4cc(S(=O)(=O)[O-])ccc4F)c4nc(c(-c5cc(S(=O)(=O)[O-])ccc5F)c5ccc2[nH]5)C=C4)C=C3)cc1
REMARK SMILES IDX 31 1 30 2 29 3 28 4 26 5 27 6 25 8 24 9 23 10 22 11 21 12
REMARK SMILES IDX 5 13 6 14 7 15 8 16 20 17 9 18 18 19 10 20 12 21 19 22 11 23
REMARK SMILES IDX 3 24 1 25 2 26 4 27 13 28 14 29 15 30 16 31 17 32 32 33
REMARK SMILES IDX 33 34 34 35 35 36 36 37 37 39 38 40 39 41 100 42 40 43 99 44
REMARK SMILES IDX 41 45 42 46 43 47 93 48 44 49 98 50 92 51 94 52 45 53 97 54
REMARK SMILES IDX 91 55 90 56 46 58 78 59 58 60 77 61 59 62 62 63 76 64 95 65
REMARK SMILES IDX 60 66 61 67 75 69 96 70 63 71 47 72 48 73 56 74 49 75 55 76
REMARK SMILES IDX 57 77 54 78 50 79 51 80 52 81 53 82 79 83 80 84 88 85 81 86
REMARK SMILES IDX 87 87 89 88 86 89 82 90 83 91 84 92 85 93 64 94 65 95 73 96
REMARK SMILES IDX 66 97 72 98 74 99 71 100 67 101 68 102 69 103 70 104
REMARK H PARENT 28 7 35 38 94 57 62 68
REMARK Flexibility Score: inf
ROOT
ATOM      1  C   UNL     1       2.796   4.693   3.334  1.00  0.00     0.002 C 
ENDROOT
BRANCH   1   2
ATOM      2  C   UNL     1       2.256   4.326   1.947  1.00  0.00     0.021 C 
BRANCH   2   3
ATOM      3  C   UNL     1       0.743   4.508   1.814  1.00  0.00     0.116 C 
BRANCH   3   4
ATOM      4  N   UNL     1       0.417   5.913   1.642  1.00  0.00    -0.353 N 
ATOM      5  C   UNL     1       0.116   6.626   0.523  1.00  0.00     0.243 C 
ATOM      6  O   UNL     1      -0.150   7.822   0.621  1.00  0.00    -0.270 OA
ATOM      7  H   UNL     1       0.413   6.438   2.475  1.00  0.00     0.163 HD
BRANCH   5   8
ATOM      8  C   UNL     1      -0.016   5.955  -0.792  1.00  0.00     0.071 C 
ATOM      9  C   UNL     1       0.805   5.011  -1.271  1.00  0.00     0.005 C 
BRANCH   9  10
ATOM     10  C   UNL     1       0.537   4.257  -2.470  1.00  0.00    -0.004 C 
ATOM     11  C   UNL     1      -0.104   3.077  -2.399  1.00  0.00    -0.022 C 
BRANCH  11  12
ATOM     12  C   UNL     1      -0.479   2.215  -3.592  1.00  0.00     0.027 C 
ATOM     13  C   UNL     1      -0.702   0.616  -3.411  1.00  0.00     0.047 C 
ATOM     14  C   UNL     1      -2.141   0.198  -3.834  1.00  0.00    -0.069 C 
ATOM     15  C   UNL     1      -2.924  -0.919  -3.199  1.00  0.00     0.040 C 
ATOM     16  C   UNL     1      -2.764   0.839  -4.846  1.00  0.00    -0.024 C 
ATOM     17  C   UNL     1      -1.629   2.969  -4.347  1.00  0.00     0.009 C 
ATOM     18  C   UNL     1      -2.240   2.098  -5.457  1.00  0.00     0.016 C 
ATOM     19  C   UNL     1      -2.710   3.648  -3.422  1.00  0.00     0.021 C 
ATOM     20  C   UNL     1      -3.333   2.865  -6.223  1.00  0.00     0.011 C 
ATOM     21  C   UNL     1      -3.744   4.410  -4.275  1.00  0.00     0.141 C 
ATOM     22  C   UNL     1      -3.379   2.743  -2.372  1.00  0.00     0.011 C 
ATOM     23  C   UNL     1      -4.388   3.504  -5.321  1.00  0.00     0.034 C 
BRANCH  13  24
ATOM     24  C   UNL     1      -0.056  -0.135  -2.192  1.00  0.00    -0.070 C 
ATOM     25  C   UNL     1       1.381  -0.203  -0.066  1.00  0.00     0.035 C 
ATOM     26  C   UNL     1       0.839   0.401  -1.330  1.00  0.00    -0.031 C 
ATOM     27  C   UNL     1      -0.289  -1.630  -2.066  1.00  0.00     0.040 C 
ENDBRANCH  13  24
BRANCH  21  28
ATOM     28  O   UNL     1      -4.726   4.969  -3.411  1.00  0.00    -0.276 OA
BRANCH  28  29
ATOM     29  S   UNL     1      -5.565   6.269  -3.890  1.00  0.00     0.217 S 
ATOM     30  O   UNL     1      -4.688   7.200  -4.557  1.00  0.00    -0.213 OA
ATOM     31  O   UNL     1      -6.800   5.821  -4.498  1.00  0.00    -0.213 OA
ATOM     32  O   UNL     1      -6.005   6.946  -2.498  1.00  0.00    -0.726 OA
ENDBRANCH  28  29
ENDBRANCH  21  28
ENDBRANCH  11  12
ENDBRANCH   9  10
ENDBRANCH   5   8
ENDBRANCH   3   4
ENDBRANCH   2   3
ENDBRANCH   1   2
BRANCH   1  33
ATOM     33  C   UNL     1       2.241   3.842   4.481  1.00  0.00     0.002 C 
BRANCH  33  34
ATOM     34  C   UNL     1       2.419   2.332   4.302  1.00  0.00     0.021 C 
BRANCH  34  35
ATOM     35  C   UNL     1       3.874   1.884   4.203  1.00  0.00     0.116 C 
BRANCH  35  36
ATOM     36  N   UNL     1       4.603   2.167   5.431  1.00  0.00    -0.352 N 
ATOM     37  C   UNL     1       5.197   1.292   6.307  1.00  0.00     0.251 C 
ATOM     38  H   UNL     1       4.680   3.120   5.667  1.00  0.00     0.163 HD
ATOM     39  O   UNL     1       5.534   1.675   7.423  1.00  0.00    -0.269 OA
BRANCH  37  40
ATOM     40  C   UNL     1       5.410  -0.111   5.898  1.00  0.00     0.039 A 
ATOM     41  C   UNL     1       5.070  -1.139   6.779  1.00  0.00     0.014 A 
ATOM     42  C   UNL     1       5.931  -0.407   4.635  1.00  0.00     0.014 A 
ATOM     43  C   UNL     1       5.180  -2.468   6.363  1.00  0.00     0.010 A 
ATOM     44  C   UNL     1       5.970  -1.726   4.196  1.00  0.00     0.010 A 
ATOM     45  C   UNL     1       5.587  -2.770   5.053  1.00  0.00    -0.014 A 
BRANCH  45  46
ATOM     46  C   UNL     1       5.597  -4.167   4.546  1.00  0.00     0.031 A 
ATOM     47  C   UNL     1       6.890  -4.803   4.118  1.00  0.00     0.074 A 
ATOM     48  C   UNL     1       4.431  -4.828   4.398  1.00  0.00     0.049 A 
ATOM     49  N   UNL     1       7.091  -5.962   3.547  1.00  0.00    -0.248 NA
ATOM     50  C   UNL     1       8.114  -4.020   4.339  1.00  0.00     0.031 C 
ATOM     51  C   UNL     1       3.112  -4.303   4.757  1.00  0.00     0.029 A 
ATOM     52  N   UNL     1       4.163  -6.077   3.896  1.00  0.00    -0.354 N 
ATOM     53  C   UNL     1       8.462  -6.045   3.331  1.00  0.00     0.074 A 
ATOM     54  C   UNL     1       9.033  -4.793   3.780  1.00  0.00     0.031 C 
ATOM     55  C   UNL     1       2.180  -5.230   4.485  1.00  0.00     0.029 A 
ATOM     56  C   UNL     1       2.823  -6.389   3.875  1.00  0.00     0.049 A 
ATOM     57  H   UNL     1       4.864  -6.692   3.580  1.00  0.00     0.167 HD
ATOM     58  C   UNL     1       9.178  -7.079   2.823  1.00  0.00     0.034 A 
ATOM     59  C   UNL     1       2.182  -7.474   3.394  1.00  0.00     0.034 A 
ATOM     60  C   UNL     1       8.589  -8.320   2.384  1.00  0.00     0.049 A 
ATOM     61  C   UNL     1       2.994  -8.581   2.770  1.00  0.00     0.074 A 
ATOM     62  C   UNL     1       9.226  -9.452   1.904  1.00  0.00     0.029 A 
ATOM     63  N   UNL     1       7.226  -8.590   2.352  1.00  0.00    -0.354 N 
ATOM     64  N   UNL     1       4.296  -8.665   2.618  1.00  0.00    -0.248 NA
ATOM     65  C   UNL     1       2.253  -9.739   2.252  1.00  0.00     0.031 C 
ATOM     66  C   UNL     1       8.248 -10.368   1.503  1.00  0.00     0.029 A 
ATOM     67  C   UNL     1       7.002  -9.849   1.816  1.00  0.00     0.049 A 
ATOM     68  H   UNL     1       6.523  -7.976   2.665  1.00  0.00     0.167 HD
ATOM     69  C   UNL     1       4.529  -9.898   2.014  1.00  0.00     0.074 A 
ATOM     70  C   UNL     1       3.236 -10.528   1.844  1.00  0.00     0.031 C 
ATOM     71  C   UNL     1       5.706 -10.460   1.639  1.00  0.00     0.034 A 
BRANCH  58  72
ATOM     72  C   UNL     1      10.671  -6.896   2.687  1.00  0.00     0.023 A 
ATOM     73  C   UNL     1      11.495  -6.683   3.805  1.00  0.00     0.031 A 
ATOM     74  C   UNL     1      11.278  -6.919   1.419  1.00  0.00     0.131 A 
ATOM     75  C   UNL     1      12.864  -6.429   3.630  1.00  0.00     0.055 A 
ATOM     76  C   UNL     1      12.655  -6.753   1.258  1.00  0.00     0.041 A 
ATOM     77  F   UNL     1      10.541  -7.095   0.311  1.00  0.00    -0.206 F 
ATOM     78  C   UNL     1      13.454  -6.491   2.366  1.00  0.00     0.022 A 
BRANCH  75  79
ATOM     79  S   UNL     1      13.829  -5.869   5.059  1.00  0.00     0.124 S 
ATOM     80  O   UNL     1      13.097  -4.668   5.456  1.00  0.00    -0.237 OA
ATOM     81  O   UNL     1      13.735  -7.005   5.968  1.00  0.00    -0.237 OA
ATOM     82  O   UNL     1      15.157  -5.623   4.500  1.00  0.00    -0.744 OA
ENDBRANCH  75  79
ENDBRANCH  58  72
BRANCH  59  83
ATOM     83  C   UNL     1       0.693  -7.561   3.452  1.00  0.00     0.023 A 
ATOM     84  C   UNL     1       0.057  -8.574   4.186  1.00  0.00     0.031 A 
ATOM     85  C   UNL     1      -0.117  -6.661   2.735  1.00  0.00     0.131 A 
ATOM     86  C   UNL     1      -1.341  -8.696   4.146  1.00  0.00     0.055 A 
ATOM     87  C   UNL     1      -1.510  -6.748   2.750  1.00  0.00     0.041 A 
ATOM     88  F   UNL     1       0.436  -5.673   2.014  1.00  0.00    -0.206 F 
ATOM     89  C   UNL     1      -2.130  -7.780   3.447  1.00  0.00     0.022 A 
BRANCH  86  90
ATOM     90  S   UNL     1      -2.108 -10.136   4.938  1.00  0.00     0.124 S 
ATOM     91  O   UNL     1      -1.450 -11.239   4.246  1.00  0.00    -0.237 OA
ATOM     92  O   UNL     1      -1.740  -9.944   6.337  1.00  0.00    -0.237 OA
ATOM     93  O   UNL     1      -3.529  -9.970   4.640  1.00  0.00    -0.744 OA
ENDBRANCH  86  90
ENDBRANCH  59  83
BRANCH  71  94
ATOM     94  C   UNL     1       5.651 -11.844   1.038  1.00  0.00     0.023 A 
ATOM     95  C   UNL     1       5.060 -12.085  -0.214  1.00  0.00     0.031 A 
ATOM     96  C   UNL     1       6.218 -12.934   1.723  1.00  0.00     0.131 A 
ATOM     97  C   UNL     1       5.011 -13.391  -0.724  1.00  0.00     0.055 A 
ATOM     98  C   UNL     1       6.223 -14.220   1.182  1.00  0.00     0.041 A 
ATOM     99  F   UNL     1       6.792 -12.763   2.925  1.00  0.00    -0.206 F 
ATOM    100  C   UNL     1       5.608 -14.456  -0.044  1.00  0.00     0.022 A 
BRANCH  97 101
ATOM    101  S   UNL     1       4.089 -13.695  -2.255  1.00  0.00     0.124 S 
ATOM    102  O   UNL     1       2.743 -13.267  -1.889  1.00  0.00    -0.237 OA
ATOM    103  O   UNL     1       4.788 -12.847  -3.216  1.00  0.00    -0.237 OA
ATOM    104  O   UNL     1       4.246 -15.132  -2.471  1.00  0.00    -0.744 OA
ENDBRANCH  97 101
ENDBRANCH  71  94
ENDBRANCH  45  46
ENDBRANCH  37  40
ENDBRANCH  35  36
ENDBRANCH  34  35
ENDBRANCH  33  34
ENDBRANCH   1  33
TORSDOF 21
