REMARK SMILES O=C(C[C@@H]1C(=O)NC(=S)N1c1ccccc1)NCCCCCCNC(=O)c1ccc(-c2c3nc(c(-c4cc(S(=O)(=O)[O-])ccc4F)c4ccc([nH]4)c(-c4cc(S(=O)(=O)[O-])ccc4F)c4nc(c(-c5cc(S(=O)(=O)[O-])ccc5F)c5ccc2[nH]5)C=C4)C=C3)cc1
REMARK SMILES IDX 21 1 20 2 19 3 18 4 17 5 1 6 2 7 3 9 4 10 5 11 10 12 6 13
REMARK SMILES IDX 7 14 8 15 9 17 11 18 12 19 16 20 13 21 15 22 14 23 22 24
REMARK SMILES IDX 23 25 24 26 25 27 26 29 27 30 28 31 89 32 29 33 88 34 30 35
REMARK SMILES IDX 31 36 32 37 82 38 33 39 87 40 81 41 83 42 34 43 86 44 80 45
REMARK SMILES IDX 79 46 35 48 67 49 47 50 66 51 48 52 51 53 65 54 84 55 49 56
REMARK SMILES IDX 50 57 64 59 85 60 52 61 36 62 37 63 45 64 38 65 44 66 46 67
REMARK SMILES IDX 43 68 39 69 40 70 41 71 42 72 68 73 69 74 77 75 70 76 76 77
REMARK SMILES IDX 78 78 75 79 71 80 72 81 73 82 74 83 53 84 54 85 62 86 55 87
REMARK SMILES IDX 61 88 63 89 60 90 56 91 57 92 58 93 59 94
REMARK H PARENT 17 8 7 16 24 28 83 47 51 58
REMARK Flexibility Score: inf
ROOT
ATOM      1  C   UNL     1       4.641  -1.607   4.024  1.00  0.00     0.002 C 
ENDROOT
BRANCH   1   2
ATOM      2  C   UNL     1       4.171  -2.395   2.798  1.00  0.00     0.002 C 
BRANCH   2   3
ATOM      3  C   UNL     1       2.664  -2.332   2.515  1.00  0.00     0.021 C 
BRANCH   3   4
ATOM      4  C   UNL     1       2.113  -0.923   2.289  1.00  0.00     0.116 C 
BRANCH   4   5
ATOM      5  N   UNL     1       2.663  -0.337   1.081  1.00  0.00    -0.356 N 
ATOM      6  O   UNL     1       0.742   0.745   0.449  1.00  0.00    -0.275 OA
ATOM      7  C   UNL     1       1.915   0.453   0.239  1.00  0.00     0.222 C 
ATOM      8  H   UNL     1       3.606  -0.510   0.857  1.00  0.00     0.163 HD
BRANCH   7   9
ATOM      9  C   UNL     1       2.599   0.821  -1.058  1.00  0.00     0.135 C 
BRANCH   9  10
ATOM     10  C   UNL     1       3.938   1.514  -0.844  1.00  0.00     0.188 C 
ATOM     11  C   UNL     1       3.756   3.020  -1.038  1.00  0.00     0.249 C 
ATOM     12  N   UNL     1       4.975   1.255  -1.854  1.00  0.00    -0.306 N 
ATOM     13  O   UNL     1       2.973   3.736  -0.432  1.00  0.00    -0.272 OA
ATOM     14  N   UNL     1       4.620   3.459  -1.988  1.00  0.00    -0.301 N 
ATOM     15  C   UNL     1       5.379   2.443  -2.477  1.00  0.00     0.180 C 
ATOM     16  H   UNL     1       4.687   4.395  -2.285  1.00  0.00     0.172 HD
ATOM     17  S   UNL     1       6.523   2.699  -3.654  1.00  0.00    -0.040 S 
BRANCH  12  18
ATOM     18  C   UNL     1       5.699   0.036  -1.861  1.00  0.00     0.044 A 
ATOM     19  C   UNL     1       7.050   0.005  -1.496  1.00  0.00     0.026 A 
ATOM     20  C   UNL     1       5.080  -1.155  -2.250  1.00  0.00     0.026 A 
ATOM     21  C   UNL     1       7.761  -1.200  -1.510  1.00  0.00     0.002 A 
ATOM     22  C   UNL     1       5.789  -2.358  -2.265  1.00  0.00     0.002 A 
ATOM     23  C   UNL     1       7.130  -2.381  -1.892  1.00  0.00     0.000 A 
ENDBRANCH  12  18
ENDBRANCH   9  10
ENDBRANCH   7   9
ENDBRANCH   4   5
ENDBRANCH   3   4
ENDBRANCH   2   3
ENDBRANCH   1   2
BRANCH   1  24
ATOM     24  C   UNL     1       3.954  -1.981   5.339  1.00  0.00     0.021 C 
BRANCH  24  25
ATOM     25  C   UNL     1       4.097  -3.445   5.744  1.00  0.00     0.116 C 
BRANCH  25  26
ATOM     26  N   UNL     1       5.479  -3.811   6.008  1.00  0.00    -0.352 N 
ATOM     27  C   UNL     1       6.026  -4.413   7.116  1.00  0.00     0.251 C 
ATOM     28  H   UNL     1       6.116  -3.596   5.289  1.00  0.00     0.163 HD
ATOM     29  O   UNL     1       7.247  -4.462   7.235  1.00  0.00    -0.269 OA
BRANCH  27  30
ATOM     30  C   UNL     1       5.148  -4.975   8.169  1.00  0.00     0.039 A 
ATOM     31  C   UNL     1       5.486  -4.770   9.509  1.00  0.00     0.014 A 
ATOM     32  C   UNL     1       4.006  -5.712   7.843  1.00  0.00     0.014 A 
ATOM     33  C   UNL     1       4.649  -5.255  10.518  1.00  0.00     0.010 A 
ATOM     34  C   UNL     1       3.133  -6.124   8.848  1.00  0.00     0.010 A 
ATOM     35  C   UNL     1       3.447  -5.908  10.199  1.00  0.00    -0.014 A 
BRANCH  35  36
ATOM     36  C   UNL     1       2.524  -6.387  11.264  1.00  0.00     0.031 A 
ATOM     37  C   UNL     1       2.233  -7.858  11.408  1.00  0.00     0.074 A 
ATOM     38  C   UNL     1       1.920  -5.498  12.079  1.00  0.00     0.049 A 
ATOM     39  N   UNL     1       1.416  -8.465  12.230  1.00  0.00    -0.248 NA
ATOM     40  C   UNL     1       2.935  -8.762  10.484  1.00  0.00     0.031 C 
ATOM     41  C   UNL     1       2.092  -4.045  12.019  1.00  0.00     0.029 A 
ATOM     42  N   UNL     1       1.036  -5.682  13.113  1.00  0.00    -0.354 N 
ATOM     43  C   UNL     1       1.508  -9.820  11.927  1.00  0.00     0.074 A 
ATOM     44  C   UNL     1       2.399  -9.933  10.792  1.00  0.00     0.031 C 
ATOM     45  C   UNL     1       1.361  -3.474  12.990  1.00  0.00     0.029 A 
ATOM     46  C   UNL     1       0.627  -4.510  13.710  1.00  0.00     0.049 A 
ATOM     47  H   UNL     1       0.723  -6.569  13.402  1.00  0.00     0.167 HD
ATOM     48  C   UNL     1       0.932 -10.875  12.556  1.00  0.00     0.034 A 
ATOM     49  C   UNL     1      -0.249  -4.293  14.712  1.00  0.00     0.034 A 
ATOM     50  C   UNL     1       0.043 -10.748  13.686  1.00  0.00     0.049 A 
ATOM     51  C   UNL     1      -0.917  -5.480  15.363  1.00  0.00     0.074 A 
ATOM     52  C   UNL     1      -0.585 -11.749  14.407  1.00  0.00     0.029 A 
ATOM     53  N   UNL     1      -0.350  -9.544  14.259  1.00  0.00    -0.354 N 
ATOM     54  N   UNL     1      -0.790  -6.758  15.085  1.00  0.00    -0.248 NA
ATOM     55  C   UNL     1      -1.834  -5.196  16.474  1.00  0.00     0.031 C 
ATOM     56  C   UNL     1      -1.407 -11.152  15.368  1.00  0.00     0.029 A 
ATOM     57  C   UNL     1      -1.226  -9.780  15.309  1.00  0.00     0.049 A 
ATOM     58  H   UNL     1      -0.049  -8.655  13.964  1.00  0.00     0.167 HD
ATOM     59  C   UNL     1      -1.578  -7.429  16.018  1.00  0.00     0.074 A 
ATOM     60  C   UNL     1      -2.159  -6.416  16.874  1.00  0.00     0.031 C 
ATOM     61  C   UNL     1      -1.799  -8.761  16.157  1.00  0.00     0.034 A 
BRANCH  48  62
ATOM     62  C   UNL     1       1.240 -12.254  12.021  1.00  0.00     0.023 A 
ATOM     63  C   UNL     1       2.551 -12.764  12.017  1.00  0.00     0.031 A 
ATOM     64  C   UNL     1       0.221 -13.064  11.490  1.00  0.00     0.131 A 
ATOM     65  C   UNL     1       2.820 -14.006  11.425  1.00  0.00     0.055 A 
ATOM     66  C   UNL     1       0.482 -14.339  10.982  1.00  0.00     0.041 A 
ATOM     67  F   UNL     1      -1.048 -12.626  11.444  1.00  0.00    -0.206 F 
ATOM     68  C   UNL     1       1.790 -14.810  10.933  1.00  0.00     0.022 A 
BRANCH  65  69
ATOM     69  S   UNL     1       4.550 -14.486  11.171  1.00  0.00     0.124 S 
ATOM     70  O   UNL     1       5.039 -13.393  10.334  1.00  0.00    -0.237 OA
ATOM     71  O   UNL     1       5.069 -14.530  12.533  1.00  0.00    -0.237 OA
ATOM     72  O   UNL     1       4.452 -15.780  10.497  1.00  0.00    -0.744 OA
ENDBRANCH  65  69
ENDBRANCH  48  62
BRANCH  49  73
ATOM     73  C   UNL     1      -0.568  -2.904  15.159  1.00  0.00     0.023 A 
ATOM     74  C   UNL     1      -0.311  -2.488  16.476  1.00  0.00     0.031 A 
ATOM     75  C   UNL     1      -1.205  -1.994  14.297  1.00  0.00     0.131 A 
ATOM     76  C   UNL     1      -0.752  -1.229  16.912  1.00  0.00     0.055 A 
ATOM     77  C   UNL     1      -1.579  -0.715  14.716  1.00  0.00     0.041 A 
ATOM     78  F   UNL     1      -1.475  -2.335  13.027  1.00  0.00    -0.206 F 
ATOM     79  C   UNL     1      -1.370  -0.334  16.037  1.00  0.00     0.022 A 
BRANCH  76  80
ATOM     80  S   UNL     1      -0.621  -0.828  18.677  1.00  0.00     0.124 S 
ATOM     81  O   UNL     1      -1.349  -1.934  19.286  1.00  0.00    -0.237 OA
ATOM     82  O   UNL     1       0.824  -0.821  18.879  1.00  0.00    -0.237 OA
ATOM     83  O   UNL     1      -1.269   0.478  18.777  1.00  0.00    -0.744 OA
ENDBRANCH  76  80
ENDBRANCH  49  73
BRANCH  61  84
ATOM     84  C   UNL     1      -2.656  -9.199  17.323  1.00  0.00     0.023 A 
ATOM     85  C   UNL     1      -4.013  -8.846  17.425  1.00  0.00     0.031 A 
ATOM     86  C   UNL     1      -2.094  -9.963  18.362  1.00  0.00     0.131 A 
ATOM     87  C   UNL     1      -4.742  -9.194  18.573  1.00  0.00     0.055 A 
ATOM     88  C   UNL     1      -2.844 -10.368  19.467  1.00  0.00     0.041 A 
ATOM     89  F   UNL     1      -0.802 -10.327  18.322  1.00  0.00    -0.206 F 
ATOM     90  C   UNL     1      -4.171  -9.969  19.586  1.00  0.00     0.022 A 
BRANCH  87  91
ATOM     91  S   UNL     1      -6.412  -8.517  18.782  1.00  0.00     0.124 S 
ATOM     92  O   UNL     1      -6.171  -7.081  18.690  1.00  0.00    -0.237 OA
ATOM     93  O   UNL     1      -7.133  -9.116  17.664  1.00  0.00    -0.237 OA
ATOM     94  O   UNL     1      -6.813  -8.995  20.105  1.00  0.00    -0.744 OA
ENDBRANCH  87  91
ENDBRANCH  61  84
ENDBRANCH  35  36
ENDBRANCH  27  30
ENDBRANCH  25  26
ENDBRANCH  24  25
ENDBRANCH   1  24
TORSDOF 18
