REMARK SMILES Cc1cccc(C(=O)N2CCC[C@H]2c2nnc(SCC(=O)Nc3ccc(C(=O)NCCCCCCNC(=O)c4ccc(-c5c6nc(c(-c7cc(S(=O)(=O)[O-])ccc7F)c7ccc([nH]7)c(-c7cc(S(=O)(=O)[O-])ccc7F)c7nc(c(-c8cc(S(=O)(=O)[O-])ccc8F)c8ccc5[nH]8)C=C7)C=C6)cc4)cc3)n2C)c1
REMARK SMILES IDX 30 1 29 2 27 3 28 4 26 6 23 7 24 8 103 9 25 10 102 11 22 12
REMARK SMILES IDX 20 13 21 14 19 16 18 17 17 18 14 19 15 20 104 21 16 22
REMARK SMILES IDX 105 23 13 24 9 25 10 26 11 27 12 28 7 29 8 30 6 31 1 32 2 33
REMARK SMILES IDX 3 34 106 35 4 36 5 37 31 38 32 39 33 40 34 41 35 42 36 43
REMARK SMILES IDX 37 44 38 46 39 47 40 48 101 49 41 50 100 51 42 52 43 53
REMARK SMILES IDX 44 54 94 55 45 56 99 57 93 58 95 59 46 60 98 61 92 62 91 63
REMARK SMILES IDX 47 65 79 66 59 67 78 68 60 69 63 70 77 71 96 72 61 73 62 74
REMARK SMILES IDX 76 76 97 77 64 78 48 79 49 80 57 81 50 82 56 83 58 84 55 85
REMARK SMILES IDX 51 86 52 87 53 88 54 89 80 90 81 91 89 92 82 93 88 94 90 95
REMARK SMILES IDX 87 96 83 97 84 98 85 99 86 100 65 101 66 102 74 103 67 104
REMARK SMILES IDX 73 105 75 106 72 107 68 108 69 109 70 110 71 111
REMARK H PARENT 29 5 22 15 36 45 95 64 63 75
REMARK Flexibility Score: inf
ROOT
ATOM      1  C   UNL     1     -10.682   6.804   1.445  1.00  0.00     0.116 C 
ENDROOT
BRANCH   1   2
ATOM      2  N   UNL     1     -11.462   5.583   1.566  1.00  0.00    -0.352 N 
ATOM      3  C   UNL     1     -11.131   4.301   1.926  1.00  0.00     0.251 C 
ATOM      4  O   UNL     1     -12.038   3.479   2.068  1.00  0.00    -0.269 OA
ATOM      5  H   UNL     1     -12.414   5.699   1.346  1.00  0.00     0.163 HD
BRANCH   3   6
ATOM      6  C   UNL     1      -9.736   3.878   2.229  1.00  0.00     0.039 A 
ATOM      7  C   UNL     1      -7.176   3.116   3.076  1.00  0.00     0.041 A 
ATOM      8  C   UNL     1      -7.329   4.105   2.107  1.00  0.00     0.027 A 
ATOM      9  C   UNL     1      -8.285   2.406   3.527  1.00  0.00     0.027 A 
ATOM     10  C   UNL     1      -8.603   4.452   1.653  1.00  0.00     0.016 A 
ATOM     11  C   UNL     1      -9.563   2.812   3.130  1.00  0.00     0.016 A 
BRANCH   7  12
ATOM     12  N   UNL     1      -5.916   2.818   3.600  1.00  0.00    -0.325 N 
ATOM     13  C   UNL     1      -5.048   3.699   4.196  1.00  0.00     0.234 C 
ATOM     14  O   UNL     1      -3.932   3.303   4.544  1.00  0.00    -0.274 OA
ATOM     15  H   UNL     1      -5.621   1.881   3.536  1.00  0.00     0.169 HD
BRANCH  13  16
ATOM     16  C   UNL     1      -5.557   5.061   4.636  1.00  0.00     0.178 C 
BRANCH  16  17
ATOM     17  S   UNL     1      -5.026   6.530   3.749  1.00  0.00    -0.076 SA
BRANCH  17  18
ATOM     18  C   UNL     1      -4.041   6.008   2.441  1.00  0.00     0.191 A 
ATOM     19  C   UNL     1      -2.301   5.413   1.258  1.00  0.00     0.156 A 
ATOM     20  N   UNL     1      -3.245   5.812   0.428  1.00  0.00    -0.132 NA
ATOM     21  N   UNL     1      -2.759   5.558   2.550  1.00  0.00    -0.307 N 
ATOM     22  N   UNL     1      -4.336   6.193   1.175  1.00  0.00    -0.123 NA
ATOM     23  C   UNL     1      -1.980   5.320   3.737  1.00  0.00     0.154 C 
BRANCH  19  24
ATOM     24  C   UNL     1      -0.949   4.887   0.922  1.00  0.00     0.154 C 
ATOM     25  N   UNL     1      -0.992   3.731   0.039  1.00  0.00    -0.328 N 
ATOM     26  C   UNL     1      -0.247   3.994  -1.186  1.00  0.00     0.120 C 
ATOM     27  C   UNL     1       0.762   5.045  -0.749  1.00  0.00     0.024 C 
ATOM     28  C   UNL     1      -0.066   5.910   0.200  1.00  0.00     0.035 C 
BRANCH  25  29
ATOM     29  C   UNL     1      -1.506   2.537   0.508  1.00  0.00     0.254 C 
ATOM     30  O   UNL     1      -2.323   2.465   1.424  1.00  0.00    -0.269 OA
BRANCH  29  31
ATOM     31  C   UNL     1      -0.905   1.265   0.054  1.00  0.00     0.040 A 
ATOM     32  C   UNL     1       2.573  -0.273  -0.025  1.00  0.00     0.044 C 
ATOM     33  C   UNL     1       1.084  -0.124  -0.107  1.00  0.00    -0.050 A 
ATOM     34  C   UNL     1       0.263  -1.238  -0.321  1.00  0.00     0.003 A 
ATOM     35  C   UNL     1       0.488   1.123   0.099  1.00  0.00     0.017 A 
ATOM     36  C   UNL     1      -1.129  -1.102  -0.350  1.00  0.00     0.001 A 
ATOM     37  C   UNL     1      -1.716   0.149  -0.158  1.00  0.00     0.014 A 
ENDBRANCH  29  31
ENDBRANCH  25  29
ENDBRANCH  19  24
ENDBRANCH  17  18
ENDBRANCH  16  17
ENDBRANCH  13  16
ENDBRANCH   7  12
ENDBRANCH   3   6
ENDBRANCH   1   2
BRANCH   1  38
ATOM     38  C   UNL     1     -10.554   7.238  -0.017  1.00  0.00     0.021 C 
BRANCH  38  39
ATOM     39  C   UNL     1     -11.799   7.943  -0.576  1.00  0.00     0.002 C 
BRANCH  39  40
ATOM     40  C   UNL     1     -12.283   9.179   0.203  1.00  0.00     0.002 C 
BRANCH  40  41
ATOM     41  C   UNL     1     -11.218  10.234   0.504  1.00  0.00     0.021 C 
BRANCH  41  42
ATOM     42  C   UNL     1     -10.711  10.964  -0.735  1.00  0.00     0.116 C 
BRANCH  42  43
ATOM     43  N   UNL     1     -11.245  12.314  -0.884  1.00  0.00    -0.352 N 
ATOM     44  C   UNL     1     -10.958  13.260  -1.857  1.00  0.00     0.251 C 
ATOM     45  H   UNL     1     -11.899  12.590  -0.202  1.00  0.00     0.163 HD
ATOM     46  O   UNL     1     -11.435  14.379  -1.825  1.00  0.00    -0.269 OA
BRANCH  44  47
ATOM     47  C   UNL     1     -10.154  12.832  -3.027  1.00  0.00     0.039 A 
ATOM     48  C   UNL     1     -10.745  12.968  -4.288  1.00  0.00     0.014 A 
ATOM     49  C   UNL     1      -8.986  12.092  -2.866  1.00  0.00     0.014 A 
ATOM     50  C   UNL     1     -10.302  12.168  -5.337  1.00  0.00     0.010 A 
ATOM     51  C   UNL     1      -8.603  11.232  -3.877  1.00  0.00     0.010 A 
ATOM     52  C   UNL     1      -9.304  11.225  -5.088  1.00  0.00    -0.014 A 
BRANCH  52  53
ATOM     53  C   UNL     1      -9.043  10.105  -5.986  1.00  0.00     0.031 A 
ATOM     54  C   UNL     1      -7.846  10.090  -6.848  1.00  0.00     0.074 A 
ATOM     55  C   UNL     1      -9.904   9.065  -6.024  1.00  0.00     0.049 A 
ATOM     56  N   UNL     1      -7.778   9.483  -7.985  1.00  0.00    -0.248 NA
ATOM     57  C   UNL     1      -6.627  10.812  -6.506  1.00  0.00     0.031 C 
ATOM     58  C   UNL     1      -9.715   7.778  -6.687  1.00  0.00     0.029 A 
ATOM     59  N   UNL     1     -11.248   9.073  -5.659  1.00  0.00    -0.354 N 
ATOM     60  C   UNL     1      -6.464   9.498  -8.390  1.00  0.00     0.074 A 
ATOM     61  C   UNL     1      -5.800  10.391  -7.468  1.00  0.00     0.031 C 
ATOM     62  C   UNL     1     -10.918   7.227  -6.913  1.00  0.00     0.029 A 
ATOM     63  C   UNL     1     -11.924   8.200  -6.526  1.00  0.00     0.049 A 
ATOM     64  H   UNL     1     -11.650   9.595  -4.927  1.00  0.00     0.167 HD
ATOM     65  C   UNL     1      -6.049   8.650  -9.375  1.00  0.00     0.034 A 
ATOM     66  C   UNL     1     -12.937   8.648  -7.324  1.00  0.00     0.034 A 
ATOM     67  C   UNL     1      -7.151   7.841  -9.889  1.00  0.00     0.049 A 
ATOM     68  C   UNL     1     -12.660   8.480  -8.802  1.00  0.00     0.074 A 
ATOM     69  C   UNL     1      -7.569   6.549  -9.613  1.00  0.00     0.029 A 
ATOM     70  N   UNL     1      -8.176   8.442 -10.608  1.00  0.00    -0.354 N 
ATOM     71  N   UNL     1     -11.481   8.232  -9.303  1.00  0.00    -0.248 NA
ATOM     72  C   UNL     1     -13.685   8.600  -9.835  1.00  0.00     0.031 C 
ATOM     73  C   UNL     1      -8.888   6.399 -10.114  1.00  0.00     0.029 A 
ATOM     74  C   UNL     1      -9.253   7.585 -10.728  1.00  0.00     0.049 A 
ATOM     75  H   UNL     1      -8.139   9.353 -10.982  1.00  0.00     0.167 HD
ATOM     76  C   UNL     1     -11.559   8.186 -10.672  1.00  0.00     0.074 A 
ATOM     77  C   UNL     1     -12.968   8.394 -10.954  1.00  0.00     0.031 C 
ATOM     78  C   UNL     1     -10.450   7.995 -11.450  1.00  0.00     0.034 A 
BRANCH  65  79
ATOM     79  C   UNL     1      -4.596   8.334  -9.647  1.00  0.00     0.023 A 
ATOM     80  C   UNL     1      -4.238   7.043 -10.092  1.00  0.00     0.031 A 
ATOM     81  C   UNL     1      -3.524   9.226  -9.455  1.00  0.00     0.131 A 
ATOM     82  C   UNL     1      -2.892   6.654 -10.210  1.00  0.00     0.055 A 
ATOM     83  C   UNL     1      -2.183   8.822  -9.509  1.00  0.00     0.041 A 
ATOM     84  F   UNL     1      -3.729  10.535  -9.255  1.00  0.00    -0.206 F 
ATOM     85  C   UNL     1      -1.860   7.524  -9.873  1.00  0.00     0.022 A 
BRANCH  82  86
ATOM     86  S   UNL     1      -2.503   4.991 -10.825  1.00  0.00     0.124 S 
ATOM     87  O   UNL     1      -3.192   4.134  -9.865  1.00  0.00    -0.237 OA
ATOM     88  O   UNL     1      -3.054   5.024 -12.175  1.00  0.00    -0.237 OA
ATOM     89  O   UNL     1      -1.043   4.938 -10.758  1.00  0.00    -0.744 OA
ENDBRANCH  82  86
ENDBRANCH  65  79
BRANCH  66  90
ATOM     90  C   UNL     1     -13.727   9.751  -6.705  1.00  0.00     0.023 A 
ATOM     91  C   UNL     1     -14.354   9.482  -5.468  1.00  0.00     0.031 A 
ATOM     92  C   UNL     1     -13.549  11.091  -7.071  1.00  0.00     0.131 A 
ATOM     93  C   UNL     1     -14.630  10.523  -4.572  1.00  0.00     0.055 A 
ATOM     94  C   UNL     1     -13.884  12.133  -6.196  1.00  0.00     0.041 A 
ATOM     95  F   UNL     1     -12.934  11.411  -8.219  1.00  0.00    -0.206 F 
ATOM     96  C   UNL     1     -14.383  11.851  -4.923  1.00  0.00     0.022 A 
BRANCH  93  97
ATOM     97  S   UNL     1     -15.051  10.112  -2.851  1.00  0.00     0.124 S 
ATOM     98  O   UNL     1     -16.508  10.085  -2.891  1.00  0.00    -0.237 OA
ATOM     99  O   UNL     1     -14.397   8.820  -2.655  1.00  0.00    -0.237 OA
ATOM    100  O   UNL     1     -14.460  11.209  -2.087  1.00  0.00    -0.744 OA
ENDBRANCH  93  97
ENDBRANCH  66  90
BRANCH  78 101
ATOM    101  C   UNL     1     -10.387   8.098 -12.961  1.00  0.00     0.023 A 
ATOM    102  C   UNL     1     -11.345   8.768 -13.736  1.00  0.00     0.031 A 
ATOM    103  C   UNL     1      -9.277   7.579 -13.676  1.00  0.00     0.131 A 
ATOM    104  C   UNL     1     -11.228   8.838 -15.138  1.00  0.00     0.055 A 
ATOM    105  C   UNL     1      -9.122   7.721 -15.058  1.00  0.00     0.041 A 
ATOM    106  F   UNL     1      -8.288   6.913 -13.061  1.00  0.00    -0.206 F 
ATOM    107  C   UNL     1     -10.110   8.341 -15.802  1.00  0.00     0.022 A 
BRANCH 104 108
ATOM    108  S   UNL     1     -12.606   9.540 -16.082  1.00  0.00     0.124 S 
ATOM    109  O   UNL     1     -13.685   8.605 -15.778  1.00  0.00    -0.237 OA
ATOM    110  O   UNL     1     -12.739  10.872 -15.501  1.00  0.00    -0.237 OA
ATOM    111  O   UNL     1     -12.130   9.510 -17.464  1.00  0.00    -0.744 OA
ENDBRANCH 104 108
ENDBRANCH  78 101
ENDBRANCH  52  53
ENDBRANCH  44  47
ENDBRANCH  42  43
ENDBRANCH  41  42
ENDBRANCH  40  41
ENDBRANCH  39  40
ENDBRANCH  38  39
ENDBRANCH   1  38
TORSDOF 23
