REMARK SMILES CCOc1ccc(C(=O)N2CCC(C(=O)NCCCCCCNC(=O)c3ccc(-c4c5nc(c(-c6cc(S(=O)(=O)[O-])ccc6F)c6ccc([nH]6)c(-c6cc(S(=O)(=O)[O-])ccc6F)c6nc(c(-c7cc(S(=O)(=O)[O-])ccc7F)c7ccc4[nH]7)C=C6)C=C5)cc3)(c3ccccc3)CC2)cc1OC
REMARK SMILES IDX 19 1 18 2 17 3 16 4 14 5 15 6 13 8 8 9 9 10 10 11 11 12
REMARK SMILES IDX 96 13 12 14 95 15 7 16 4 17 5 18 98 19 6 20 97 21 3 22 2 23
REMARK SMILES IDX 1 24 99 25 100 26 89 27 90 28 94 29 91 30 93 31 92 32 20 33
REMARK SMILES IDX 21 34 22 35 23 36 24 37 25 39 26 40 27 41 88 42 28 43 87 44
REMARK SMILES IDX 29 45 30 46 31 47 81 48 32 49 86 50 80 51 82 52 33 53 85 54
REMARK SMILES IDX 79 55 78 56 34 58 66 59 46 60 65 61 47 62 50 63 64 64 83 65
REMARK SMILES IDX 48 66 49 67 63 69 84 70 51 71 35 72 36 73 44 74 37 75 43 76
REMARK SMILES IDX 45 77 42 78 38 79 39 80 40 81 41 82 67 83 68 84 76 85 69 86
REMARK SMILES IDX 75 87 77 88 74 89 70 90 71 91 72 92 73 93 52 94 53 95 61 96
REMARK SMILES IDX 54 97 60 98 62 99 59 100 55 101 56 102 57 103 58 104
REMARK H PARENT 16 7 23 38 82 57 50 68
REMARK Flexibility Score: inf
ROOT
ATOM      1  C   UNL     1      12.466   5.937   1.670  1.00  0.00     0.002 C 
ENDROOT
BRANCH   1   2
ATOM      2  C   UNL     1      11.301   4.965   1.887  1.00  0.00     0.021 C 
BRANCH   2   3
ATOM      3  C   UNL     1      10.398   4.804   0.668  1.00  0.00     0.116 C 
BRANCH   3   4
ATOM      4  N   UNL     1      11.136   4.216  -0.439  1.00  0.00    -0.355 N 
ATOM      5  C   UNL     1      11.003   3.046  -1.131  1.00  0.00     0.230 C 
ATOM      6  O   UNL     1      11.931   2.837  -1.914  1.00  0.00    -0.274 OA
ATOM      7  H   UNL     1      11.883   4.775  -0.753  1.00  0.00     0.163 HD
BRANCH   5   8
ATOM      8  C   UNL     1       9.762   2.103  -0.929  1.00  0.00     0.077 C 
ATOM      9  C   UNL     1       6.487   2.566   1.923  1.00  0.00     0.253 C 
ATOM     10  O   UNL     1       6.833   2.790   3.083  1.00  0.00    -0.269 OA
ATOM     11  N   UNL     1       7.444   2.347   0.912  1.00  0.00    -0.339 N 
ATOM     12  C   UNL     1       8.505   1.421   1.268  1.00  0.00     0.121 C 
ATOM     13  C   UNL     1       7.257   2.673  -0.500  1.00  0.00     0.121 C 
ATOM     14  C   UNL     1       9.829   1.608   0.543  1.00  0.00     0.043 C 
ATOM     15  C   UNL     1       8.532   3.004  -1.253  1.00  0.00     0.043 C 
BRANCH   9  16
ATOM     16  C   UNL     1       5.024   2.361   1.656  1.00  0.00     0.043 A 
ATOM     17  C   UNL     1       2.289   1.749   1.248  1.00  0.00     0.161 A 
ATOM     18  C   UNL     1       2.715   2.383   2.427  1.00  0.00     0.051 A 
ATOM     19  C   UNL     1       3.221   1.451   0.260  1.00  0.00     0.161 A 
ATOM     20  C   UNL     1       4.072   2.700   2.624  1.00  0.00     0.018 A 
ATOM     21  C   UNL     1       4.570   1.690   0.523  1.00  0.00     0.064 A 
BRANCH  17  22
ATOM     22  O   UNL     1       0.961   1.496   1.058  1.00  0.00    -0.490 OA
BRANCH  22  23
ATOM     23  C   UNL     1       0.451   0.458   1.905  1.00  0.00     0.226 C 
ATOM     24  C   UNL     1      -0.165  -0.623   1.029  1.00  0.00     0.049 C 
ENDBRANCH  22  23
ENDBRANCH  17  22
BRANCH  19  25
ATOM     25  O   UNL     1       3.066   0.933  -0.993  1.00  0.00    -0.493 OA
ATOM     26  C   UNL     1       1.781   0.611  -1.480  1.00  0.00     0.278 C 
ENDBRANCH  19  25
ENDBRANCH   9  16
BRANCH   8  27
ATOM     27  C   UNL     1       9.692   0.832  -1.857  1.00  0.00    -0.032 A 
ATOM     28  C   UNL     1      10.639   0.518  -2.846  1.00  0.00     0.005 A 
ATOM     29  C   UNL     1       8.628  -0.091  -1.730  1.00  0.00     0.005 A 
ATOM     30  C   UNL     1      10.530  -0.624  -3.654  1.00  0.00     0.000 A 
ATOM     31  C   UNL     1       8.505  -1.225  -2.542  1.00  0.00     0.000 A 
ATOM     32  C   UNL     1       9.459  -1.493  -3.508  1.00  0.00     0.000 A 
ENDBRANCH   8  27
ENDBRANCH   5   8
ENDBRANCH   3   4
ENDBRANCH   2   3
ENDBRANCH   1   2
BRANCH   1  33
ATOM     33  C   UNL     1      12.054   7.339   1.209  1.00  0.00     0.002 C 
BRANCH  33  34
ATOM     34  C   UNL     1      11.013   8.023   2.098  1.00  0.00     0.021 C 
BRANCH  34  35
ATOM     35  C   UNL     1      11.415   8.134   3.563  1.00  0.00     0.116 C 
BRANCH  35  36
ATOM     36  N   UNL     1      12.613   8.938   3.735  1.00  0.00    -0.352 N 
ATOM     37  C   UNL     1      12.811  10.032   4.540  1.00  0.00     0.251 C 
ATOM     38  H   UNL     1      13.390   8.658   3.200  1.00  0.00     0.163 HD
ATOM     39  O   UNL     1      13.812  10.723   4.395  1.00  0.00    -0.269 OA
BRANCH  37  40
ATOM     40  C   UNL     1      11.796  10.379   5.559  1.00  0.00     0.039 A 
ATOM     41  C   UNL     1      11.415  11.714   5.704  1.00  0.00     0.014 A 
ATOM     42  C   UNL     1      11.220   9.390   6.362  1.00  0.00     0.014 A 
ATOM     43  C   UNL     1      10.414  12.048   6.617  1.00  0.00     0.010 A 
ATOM     44  C   UNL     1      10.166   9.714   7.210  1.00  0.00     0.010 A 
ATOM     45  C   UNL     1       9.757  11.048   7.354  1.00  0.00    -0.014 A 
BRANCH  45  46
ATOM     46  C   UNL     1       8.645  11.385   8.280  1.00  0.00     0.031 A 
ATOM     47  C   UNL     1       8.782  11.122   9.755  1.00  0.00     0.074 A 
ATOM     48  C   UNL     1       7.495  11.886   7.786  1.00  0.00     0.049 A 
ATOM     49  N   UNL     1       7.913  11.310  10.715  1.00  0.00    -0.248 NA
ATOM     50  C   UNL     1      10.057  10.544  10.204  1.00  0.00     0.031 C 
ATOM     51  C   UNL     1       7.230  12.150   6.370  1.00  0.00     0.029 A 
ATOM     52  N   UNL     1       6.337  12.265   8.416  1.00  0.00    -0.354 N 
ATOM     53  C   UNL     1       8.532  10.869  11.880  1.00  0.00     0.074 A 
ATOM     54  C   UNL     1       9.820  10.335  11.489  1.00  0.00     0.031 C 
ATOM     55  C   UNL     1       6.005  12.682   6.245  1.00  0.00     0.029 A 
ATOM     56  C   UNL     1       5.375  12.750   7.559  1.00  0.00     0.049 A 
ATOM     57  H   UNL     1       6.205  12.195   9.389  1.00  0.00     0.167 HD
ATOM     58  C   UNL     1       8.081  10.928  13.158  1.00  0.00     0.034 A 
ATOM     59  C   UNL     1       4.125  13.191   7.804  1.00  0.00     0.034 A 
ATOM     60  C   UNL     1       6.790  11.460  13.525  1.00  0.00     0.049 A 
ATOM     61  C   UNL     1       3.624  13.201   9.226  1.00  0.00     0.074 A 
ATOM     62  C   UNL     1       6.247  11.610  14.790  1.00  0.00     0.029 A 
ATOM     63  N   UNL     1       5.831  11.918  12.628  1.00  0.00    -0.354 N 
ATOM     64  N   UNL     1       4.240  12.827  10.324  1.00  0.00    -0.248 NA
ATOM     65  C   UNL     1       2.261  13.702   9.440  1.00  0.00     0.031 C 
ATOM     66  C   UNL     1       4.935  12.078  14.652  1.00  0.00     0.029 A 
ATOM     67  C   UNL     1       4.688  12.312  13.309  1.00  0.00     0.049 A 
ATOM     68  H   UNL     1       5.947  11.958  11.651  1.00  0.00     0.167 HD
ATOM     69  C   UNL     1       3.349  13.080  11.363  1.00  0.00     0.074 A 
ATOM     70  C   UNL     1       2.163  13.653  10.760  1.00  0.00     0.031 C 
ATOM     71  C   UNL     1       3.501  12.865  12.696  1.00  0.00     0.034 A 
BRANCH  58  72
ATOM     72  C   UNL     1       8.982  10.372  14.237  1.00  0.00     0.023 A 
ATOM     73  C   UNL     1      10.267  10.897  14.470  1.00  0.00     0.031 A 
ATOM     74  C   UNL     1       8.574   9.274  15.015  1.00  0.00     0.131 A 
ATOM     75  C   UNL     1      11.128  10.269  15.383  1.00  0.00     0.055 A 
ATOM     76  C   UNL     1       9.402   8.713  15.991  1.00  0.00     0.041 A 
ATOM     77  F   UNL     1       7.370   8.712  14.828  1.00  0.00    -0.206 F 
ATOM     78  C   UNL     1      10.694   9.198  16.166  1.00  0.00     0.022 A 
BRANCH  75  79
ATOM     79  S   UNL     1      12.874  10.760  15.401  1.00  0.00     0.124 S 
ATOM     80  O   UNL     1      13.261  10.527  14.012  1.00  0.00    -0.237 OA
ATOM     81  O   UNL     1      12.805  12.155  15.820  1.00  0.00    -0.237 OA
ATOM     82  O   UNL     1      13.477   9.846  16.369  1.00  0.00    -0.744 OA
ENDBRANCH  75  79
ENDBRANCH  58  72
BRANCH  59  83
ATOM     83  C   UNL     1       3.259  13.656   6.684  1.00  0.00     0.023 A 
ATOM     84  C   UNL     1       2.829  14.991   6.608  1.00  0.00     0.031 A 
ATOM     85  C   UNL     1       2.820  12.766   5.687  1.00  0.00     0.131 A 
ATOM     86  C   UNL     1       1.955  15.388   5.585  1.00  0.00     0.055 A 
ATOM     87  C   UNL     1       1.997  13.179   4.638  1.00  0.00     0.041 A 
ATOM     88  F   UNL     1       3.203  11.479   5.709  1.00  0.00    -0.206 F 
ATOM     89  C   UNL     1       1.549  14.495   4.590  1.00  0.00     0.022 A 
BRANCH  86  90
ATOM     90  S   UNL     1       1.287  17.074   5.618  1.00  0.00     0.124 S 
ATOM     91  O   UNL     1       0.609  17.099   6.908  1.00  0.00    -0.237 OA
ATOM     92  O   UNL     1       2.498  17.882   5.512  1.00  0.00    -0.237 OA
ATOM     93  O   UNL     1       0.410  17.115   4.450  1.00  0.00    -0.744 OA
ENDBRANCH  86  90
ENDBRANCH  59  83
BRANCH  71  94
ATOM     94  C   UNL     1       2.365  13.295  13.595  1.00  0.00     0.023 A 
ATOM     95  C   UNL     1       1.095  12.694  13.528  1.00  0.00     0.031 A 
ATOM     96  C   UNL     1       2.551  14.338  14.520  1.00  0.00     0.131 A 
ATOM     97  C   UNL     1       0.046  13.183  14.322  1.00  0.00     0.055 A 
ATOM     98  C   UNL     1       1.524  14.771  15.360  1.00  0.00     0.041 A 
ATOM     99  F   UNL     1       3.740  14.954  14.626  1.00  0.00    -0.206 F 
ATOM    100  C   UNL     1       0.258  14.204  15.252  1.00  0.00     0.022 A 
BRANCH  97 101
ATOM    101  S   UNL     1      -1.628  12.543  14.043  1.00  0.00     0.124 S 
ATOM    102  O   UNL     1      -1.836  12.843  12.630  1.00  0.00    -0.237 OA
ATOM    103  O   UNL     1      -1.484  11.131  14.381  1.00  0.00    -0.237 OA
ATOM    104  O   UNL     1      -2.451  13.320  14.969  1.00  0.00    -0.744 OA
ENDBRANCH  97 101
ENDBRANCH  71  94
ENDBRANCH  45  46
ENDBRANCH  37  40
ENDBRANCH  35  36
ENDBRANCH  34  35
ENDBRANCH  33  34
ENDBRANCH   1  33
TORSDOF 21
