REMARK SMILES Cc1ccc(S(=O)(=O)Nc2cc(C(=O)NCCCCCCNC(=O)c3ccc(-c4c5nc(c(-c6cc(S(=O)(=O)[O-])ccc6F)c6ccc([nH]6)c(-c6cc(S(=O)(=O)[O-])ccc6F)c6nc(c(-c7cc(S(=O)(=O)[O-])ccc7F)c7ccc4[nH]7)C=C6)C=C5)cc3)cnc2N2CCCC2)c(C)c1
REMARK SMILES IDX 18 1 17 2 16 3 15 4 13 5 14 6 12 8 10 9 11 10 90 11 89 12
REMARK SMILES IDX 88 13 9 14 6 16 7 17 8 18 5 19 1 20 2 21 3 22 98 23 4 24
REMARK SMILES IDX 96 25 97 26 91 27 92 28 95 29 93 30 94 31 19 32 20 33 21 34
REMARK SMILES IDX 22 35 23 36 24 38 25 39 26 40 87 41 27 42 86 43 28 44 29 45
REMARK SMILES IDX 30 46 80 47 31 48 85 49 79 50 81 51 32 52 84 53 78 54 77 55
REMARK SMILES IDX 33 57 65 58 45 59 64 60 46 61 49 62 63 63 82 64 47 65 48 66
REMARK SMILES IDX 62 68 83 69 50 70 34 71 35 72 43 73 36 74 42 75 44 76 41 77
REMARK SMILES IDX 37 78 38 79 39 80 40 81 66 82 67 83 75 84 68 85 74 86 76 87
REMARK SMILES IDX 73 88 69 89 70 90 71 91 72 92 51 93 52 94 60 95 53 96 59 97
REMARK SMILES IDX 61 98 58 99 54 100 55 101 56 102 57 103
REMARK H PARENT 15 7 9 15 22 37 81 56 49 67
REMARK Flexibility Score: inf
ROOT
ATOM      1  C   UNL     1       1.209  -1.196   5.177  1.00  0.00     0.002 C 
ENDROOT
BRANCH   1   2
ATOM      2  C   UNL     1       0.435  -1.857   4.030  1.00  0.00     0.021 C 
BRANCH   2   3
ATOM      3  C   UNL     1       1.197  -1.821   2.705  1.00  0.00     0.116 C 
BRANCH   3   4
ATOM      4  N   UNL     1       2.128  -2.935   2.627  1.00  0.00    -0.352 N 
ATOM      5  C   UNL     1       2.096  -4.131   1.960  1.00  0.00     0.252 C 
ATOM      6  O   UNL     1       3.068  -4.878   2.077  1.00  0.00    -0.269 OA
ATOM      7  H   UNL     1       2.945  -2.804   3.160  1.00  0.00     0.163 HD
BRANCH   5   8
ATOM      8  C   UNL     1       0.997  -4.538   1.052  1.00  0.00     0.060 A 
ATOM      9  C   UNL     1      -1.176  -4.393   0.054  1.00  0.00     0.092 A 
ATOM     10  C   UNL     1      -0.314  -4.082   1.103  1.00  0.00     0.046 A 
ATOM     11  C   UNL     1      -0.789  -5.341  -0.922  1.00  0.00     0.153 A 
ATOM     12  N   UNL     1       0.443  -5.884  -0.908  1.00  0.00    -0.236 NA
ATOM     13  C   UNL     1       1.312  -5.445   0.042  1.00  0.00     0.127 A 
BRANCH   9  14
ATOM     14  N   UNL     1      -2.446  -3.769  -0.082  1.00  0.00    -0.276 N 
ATOM     15  H   UNL     1      -3.210  -4.347  -0.308  1.00  0.00     0.180 HD
BRANCH  14  16
ATOM     16  S   UNL     1      -2.753  -2.140   0.112  1.00  0.00     0.262 S 
ATOM     17  O   UNL     1      -2.876  -1.925   1.542  1.00  0.00    -0.201 OA
ATOM     18  O   UNL     1      -3.842  -1.869  -0.799  1.00  0.00    -0.201 OA
BRANCH  16  19
ATOM     19  C   UNL     1      -1.377  -1.112  -0.416  1.00  0.00     0.090 A 
ATOM     20  C   UNL     1       2.329   1.095  -0.404  1.00  0.00     0.044 C 
ATOM     21  C   UNL     1       1.029   0.351  -0.487  1.00  0.00    -0.051 A 
ATOM     22  C   UNL     1       0.960  -0.925  -1.049  1.00  0.00     0.005 A 
ATOM     23  C   UNL     1      -0.151   0.949  -0.039  1.00  0.00     0.008 A 
ATOM     24  C   UNL     1      -0.242  -1.645  -1.035  1.00  0.00     0.023 A 
ATOM     25  C   UNL     1      -1.365   0.239  -0.009  1.00  0.00    -0.030 A 
ATOM     26  C   UNL     1      -2.586   0.997   0.446  1.00  0.00     0.046 C 
ENDBRANCH  16  19
ENDBRANCH  14  16
ENDBRANCH   9  14
BRANCH  11  27
ATOM     27  N   UNL     1      -1.671  -5.781  -1.871  1.00  0.00    -0.355 N 
ATOM     28  C   UNL     1      -2.276  -5.024  -2.948  1.00  0.00     0.118 C 
ATOM     29  C   UNL     1      -2.069  -7.179  -1.878  1.00  0.00     0.118 C 
ATOM     30  C   UNL     1      -3.573  -5.799  -3.168  1.00  0.00     0.023 C 
ATOM     31  C   UNL     1      -3.134  -7.248  -2.978  1.00  0.00     0.023 C 
ENDBRANCH  11  27
ENDBRANCH   5   8
ENDBRANCH   3   4
ENDBRANCH   2   3
ENDBRANCH   1   2
BRANCH   1  32
ATOM     32  C   UNL     1       1.390   0.321   5.034  1.00  0.00     0.002 C 
BRANCH  32  33
ATOM     33  C   UNL     1       0.094   1.123   4.877  1.00  0.00     0.021 C 
BRANCH  33  34
ATOM     34  C   UNL     1      -0.904   0.956   6.020  1.00  0.00     0.116 C 
BRANCH  34  35
ATOM     35  N   UNL     1      -0.361   1.430   7.283  1.00  0.00    -0.352 N 
ATOM     36  C   UNL     1      -0.910   2.297   8.195  1.00  0.00     0.251 C 
ATOM     37  H   UNL     1       0.528   1.078   7.518  1.00  0.00     0.163 HD
ATOM     38  O   UNL     1      -0.214   2.744   9.102  1.00  0.00    -0.269 OA
BRANCH  36  39
ATOM     39  C   UNL     1      -2.327   2.703   8.071  1.00  0.00     0.039 A 
ATOM     40  C   UNL     1      -2.661   4.049   8.246  1.00  0.00     0.014 A 
ATOM     41  C   UNL     1      -3.325   1.758   7.812  1.00  0.00     0.014 A 
ATOM     42  C   UNL     1      -3.991   4.457   8.112  1.00  0.00     0.010 A 
ATOM     43  C   UNL     1      -4.641   2.174   7.626  1.00  0.00     0.010 A 
ATOM     44  C   UNL     1      -4.987   3.525   7.780  1.00  0.00    -0.014 A 
BRANCH  44  45
ATOM     45  C   UNL     1      -6.400   3.942   7.604  1.00  0.00     0.031 A 
ATOM     46  C   UNL     1      -7.449   3.476   8.574  1.00  0.00     0.074 A 
ATOM     47  C   UNL     1      -6.749   4.673   6.528  1.00  0.00     0.049 A 
ATOM     48  N   UNL     1      -8.744   3.659   8.548  1.00  0.00    -0.248 NA
ATOM     49  C   UNL     1      -6.976   2.665   9.704  1.00  0.00     0.031 C 
ATOM     50  C   UNL     1      -5.829   5.136   5.488  1.00  0.00     0.029 A 
ATOM     51  N   UNL     1      -7.974   5.134   6.120  1.00  0.00    -0.354 N 
ATOM     52  C   UNL     1      -9.245   2.971   9.648  1.00  0.00     0.074 A 
ATOM     53  C   UNL     1      -8.116   2.322  10.282  1.00  0.00     0.031 C 
ATOM     54  C   UNL     1      -6.523   5.813   4.559  1.00  0.00     0.029 A 
ATOM     55  C   UNL     1      -7.936   5.809   4.924  1.00  0.00     0.049 A 
ATOM     56  H   UNL     1      -8.801   4.994   6.635  1.00  0.00     0.167 HD
ATOM     57  C   UNL     1     -10.524   2.903  10.097  1.00  0.00     0.034 A 
ATOM     58  C   UNL     1      -8.930   6.351   4.195  1.00  0.00     0.034 A 
ATOM     59  C   UNL     1     -11.636   3.564   9.455  1.00  0.00     0.049 A 
ATOM     60  C   UNL     1     -10.341   6.277   4.711  1.00  0.00     0.074 A 
ATOM     61  C   UNL     1     -12.958   3.626   9.860  1.00  0.00     0.029 A 
ATOM     62  N   UNL     1     -11.556   4.268   8.259  1.00  0.00    -0.354 N 
ATOM     63  N   UNL     1     -10.794   5.679   5.788  1.00  0.00    -0.248 NA
ATOM     64  C   UNL     1     -11.370   6.965   3.922  1.00  0.00     0.031 C 
ATOM     65  C   UNL     1     -13.685   4.319   8.884  1.00  0.00     0.029 A 
ATOM     66  C   UNL     1     -12.808   4.743   7.898  1.00  0.00     0.049 A 
ATOM     67  H   UNL     1     -10.730   4.409   7.743  1.00  0.00     0.167 HD
ATOM     68  C   UNL     1     -12.162   5.931   5.814  1.00  0.00     0.074 A 
ATOM     69  C   UNL     1     -12.455   6.747   4.651  1.00  0.00     0.031 C 
ATOM     70  C   UNL     1     -13.090   5.531   6.721  1.00  0.00     0.034 A 
BRANCH  57  71
ATOM     71  C   UNL     1     -10.776   2.056  11.323  1.00  0.00     0.023 A 
ATOM     72  C   UNL     1     -10.177   2.354  12.560  1.00  0.00     0.031 A 
ATOM     73  C   UNL     1     -11.569   0.898  11.241  1.00  0.00     0.131 A 
ATOM     74  C   UNL     1     -10.294   1.457  13.632  1.00  0.00     0.055 A 
ATOM     75  C   UNL     1     -11.755   0.053  12.338  1.00  0.00     0.041 A 
ATOM     76  F   UNL     1     -12.155   0.551  10.085  1.00  0.00    -0.206 F 
ATOM     77  C   UNL     1     -11.098   0.319  13.537  1.00  0.00     0.022 A 
BRANCH  74  78
ATOM     78  S   UNL     1      -9.239   1.706  15.086  1.00  0.00     0.124 S 
ATOM     79  O   UNL     1      -7.906   1.716  14.487  1.00  0.00    -0.237 OA
ATOM     80  O   UNL     1      -9.716   2.982  15.607  1.00  0.00    -0.237 OA
ATOM     81  O   UNL     1      -9.527   0.542  15.922  1.00  0.00    -0.744 OA
ENDBRANCH  74  78
ENDBRANCH  57  71
BRANCH  58  82
ATOM     82  C   UNL     1      -8.622   6.998   2.892  1.00  0.00     0.023 A 
ATOM     83  C   UNL     1      -8.680   8.391   2.743  1.00  0.00     0.031 A 
ATOM     84  C   UNL     1      -8.255   6.223   1.778  1.00  0.00     0.131 A 
ATOM     85  C   UNL     1      -8.397   8.970   1.496  1.00  0.00     0.055 A 
ATOM     86  C   UNL     1      -7.943   6.805   0.549  1.00  0.00     0.041 A 
ATOM     87  F   UNL     1      -8.171   4.887   1.880  1.00  0.00    -0.206 F 
ATOM     88  C   UNL     1      -8.020   8.187   0.402  1.00  0.00     0.022 A 
BRANCH  85  89
ATOM     89  S   UNL     1      -8.549  10.768   1.317  1.00  0.00     0.124 S 
ATOM     90  O   UNL     1      -9.970  10.974   1.571  1.00  0.00    -0.237 OA
ATOM     91  O   UNL     1      -7.636  11.255   2.345  1.00  0.00    -0.237 OA
ATOM     92  O   UNL     1      -8.117  11.010  -0.059  1.00  0.00    -0.744 OA
ENDBRANCH  85  89
ENDBRANCH  58  82
BRANCH  70  93
ATOM     93  C   UNL     1     -14.504   6.000   6.494  1.00  0.00     0.023 A 
ATOM     94  C   UNL     1     -15.283   5.507   5.432  1.00  0.00     0.031 A 
ATOM     95  C   UNL     1     -15.073   6.965   7.343  1.00  0.00     0.131 A 
ATOM     96  C   UNL     1     -16.572   6.018   5.218  1.00  0.00     0.055 A 
ATOM     97  C   UNL     1     -16.374   7.433   7.154  1.00  0.00     0.041 A 
ATOM     98  F   UNL     1     -14.371   7.470   8.370  1.00  0.00    -0.206 F 
ATOM     99  C   UNL     1     -17.127   6.967   6.080  1.00  0.00     0.022 A 
BRANCH  96 100
ATOM    100  S   UNL     1     -17.490   5.480   3.748  1.00  0.00     0.124 S 
ATOM    101  O   UNL     1     -16.604   5.898   2.667  1.00  0.00    -0.237 OA
ATOM    102  O   UNL     1     -17.605   4.041   3.960  1.00  0.00    -0.237 OA
ATOM    103  O   UNL     1     -18.748   6.221   3.840  1.00  0.00    -0.744 OA
ENDBRANCH  96 100
ENDBRANCH  70  93
ENDBRANCH  44  45
ENDBRANCH  36  39
ENDBRANCH  34  35
ENDBRANCH  33  34
ENDBRANCH  32  33
ENDBRANCH   1  32
TORSDOF 20
