REMARK SMILES Cc1ccc(S(=O)(=O)n2cc(C(=O)C(=O)NCC(=O)N[C@H](Cc3c[nH]c4ccccc34)C(=O)NCCCCCCNC(=O)c3ccc(-c4c5nc(c(-c6cc(S(=O)(=O)[O-])ccc6F)c6ccc([nH]6)c(-c6cc(S(=O)(=O)[O-])ccc6F)c6nc(c(-c7cc(S(=O)(=O)[O-])ccc7F)c7ccc4[nH]7)C=C6)C=C5)cc3)c3ccccc32)cc1
REMARK SMILES IDX 35 1 34 2 32 3 33 4 21 6 20 7 18 8 19 9 17 11 16 12 14 13
REMARK SMILES IDX 15 14 12 16 13 17 11 18 9 19 10 20 112 21 107 22 111 23
REMARK SMILES IDX 108 24 110 25 109 26 6 27 7 28 8 29 5 30 1 31 2 32 3 33
REMARK SMILES IDX 114 34 4 35 113 36 22 37 23 38 24 39 31 40 25 41 26 42 30 43
REMARK SMILES IDX 27 45 29 46 28 47 36 48 37 49 38 50 39 51 40 52 41 53 42 54
REMARK SMILES IDX 43 56 44 57 45 58 106 59 46 60 105 61 47 62 48 63 49 64
REMARK SMILES IDX 99 65 50 66 104 67 98 68 100 69 51 70 103 71 97 72 96 73
REMARK SMILES IDX 52 75 84 76 64 77 83 78 65 79 68 80 82 81 101 82 66 83 67 84
REMARK SMILES IDX 81 86 102 87 69 88 53 89 54 90 62 91 55 92 61 93 63 94 60 95
REMARK SMILES IDX 56 96 57 97 58 98 59 99 85 100 86 101 94 102 87 103 93 104
REMARK SMILES IDX 95 105 92 106 88 107 89 108 90 109 91 110 70 111 71 112
REMARK SMILES IDX 79 113 72 114 78 115 80 116 77 117 73 118 74 119 75 120
REMARK SMILES IDX 76 121
REMARK H PARENT 34 5 20 10 16 15 25 44 41 55 100 74 68 85
REMARK Flexibility Score: inf
ROOT
ATOM      1  C   UNL     1     -10.107   1.727   5.841  1.00  0.00     0.116 C 
ENDROOT
BRANCH   1   2
ATOM      2  N   UNL     1      -9.330   0.709   5.165  1.00  0.00    -0.354 N 
ATOM      3  C   UNL     1      -9.208   0.352   3.865  1.00  0.00     0.242 C 
ATOM      4  O   UNL     1      -8.565  -0.682   3.646  1.00  0.00    -0.273 OA
ATOM      5  H   UNL     1      -8.777   0.168   5.774  1.00  0.00     0.163 HD
BRANCH   3   6
ATOM      6  C   UNL     1      -9.787   1.147   2.684  1.00  0.00     0.175 C 
BRANCH   6   7
ATOM      7  N   UNL     1      -9.318   2.539   2.816  1.00  0.00    -0.342 N 
ATOM      8  C   UNL     1      -8.082   3.069   2.604  1.00  0.00     0.240 C 
ATOM      9  O   UNL     1      -7.936   4.267   2.871  1.00  0.00    -0.273 OA
ATOM     10  H   UNL     1     -10.005   3.185   3.100  1.00  0.00     0.164 HD
BRANCH   8  11
ATOM     11  C   UNL     1      -6.972   2.295   1.865  1.00  0.00     0.216 C 
BRANCH  11  12
ATOM     12  N   UNL     1      -6.723   0.906   2.227  1.00  0.00    -0.340 N 
ATOM     13  C   UNL     1      -6.365  -0.142   1.395  1.00  0.00     0.292 C 
ATOM     14  O   UNL     1      -6.063  -1.251   1.816  1.00  0.00    -0.265 OA
ATOM     15  H   UNL     1      -6.822   0.684   3.181  1.00  0.00     0.164 HD
BRANCH  13  16
ATOM     16  C   UNL     1      -6.312   0.112  -0.106  1.00  0.00     0.252 C 
ATOM     17  O   UNL     1      -5.472   0.924  -0.494  1.00  0.00    -0.283 OA
BRANCH  16  18
ATOM     18  C   UNL     1      -7.336  -0.438  -0.999  1.00  0.00     0.054 A 
ATOM     19  N   UNL     1      -8.732  -1.759  -2.187  1.00  0.00    -0.240 N 
ATOM     20  C   UNL     1      -7.778  -1.753  -1.168  1.00  0.00     0.117 A 
ATOM     21  C   UNL     1      -9.101  -0.424  -2.418  1.00  0.00     0.065 A 
ATOM     22  C   UNL     1      -8.040   0.350  -1.957  1.00  0.00     0.012 A 
ATOM     23  C   UNL     1     -10.120   0.126  -3.217  1.00  0.00     0.028 A 
ATOM     24  C   UNL     1      -7.891   1.662  -2.455  1.00  0.00     0.011 A 
ATOM     25  C   UNL     1      -9.921   1.403  -3.742  1.00  0.00     0.002 A 
ATOM     26  C   UNL     1      -8.800   2.148  -3.398  1.00  0.00     0.001 A 
BRANCH  19  27
ATOM     27  S   UNL     1      -8.531  -2.651  -3.688  1.00  0.00     0.268 S 
ATOM     28  O   UNL     1      -7.227  -2.228  -4.170  1.00  0.00    -0.201 OA
ATOM     29  O   UNL     1      -9.741  -2.329  -4.433  1.00  0.00    -0.201 OA
BRANCH  27  30
ATOM     30  C   UNL     1      -8.520  -4.409  -3.752  1.00  0.00     0.088 A 
ATOM     31  C   UNL     1      -8.698  -8.599  -4.789  1.00  0.00     0.044 C 
ATOM     32  C   UNL     1      -8.598  -7.152  -4.399  1.00  0.00    -0.051 A 
ATOM     33  C   UNL     1      -8.712  -6.206  -5.409  1.00  0.00     0.005 A 
ATOM     34  C   UNL     1      -8.446  -6.713  -3.065  1.00  0.00     0.005 A 
ATOM     35  C   UNL     1      -8.661  -4.861  -5.086  1.00  0.00     0.022 A 
ATOM     36  C   UNL     1      -8.408  -5.335  -2.728  1.00  0.00     0.022 A 
ENDBRANCH  27  30
ENDBRANCH  19  27
ENDBRANCH  16  18
ENDBRANCH  13  16
ENDBRANCH  11  12
ENDBRANCH   8  11
ENDBRANCH   6   7
BRANCH   6  37
ATOM     37  C   UNL     1     -11.307   1.075   2.429  1.00  0.00     0.072 C 
BRANCH  37  38
ATOM     38  C   UNL     1     -12.144  -0.057   2.963  1.00  0.00    -0.020 A 
ATOM     39  C   UNL     1     -11.787  -1.150   3.728  1.00  0.00     0.087 A 
ATOM     40  C   UNL     1     -13.575  -0.163   2.794  1.00  0.00     0.003 A 
ATOM     41  N   UNL     1     -12.923  -1.743   4.218  1.00  0.00    -0.361 N 
ATOM     42  C   UNL     1     -14.027  -1.178   3.637  1.00  0.00     0.046 A 
ATOM     43  C   UNL     1     -14.536   0.540   2.033  1.00  0.00     0.010 A 
ATOM     44  H   UNL     1     -12.942  -2.466   4.886  1.00  0.00     0.166 HD
ATOM     45  C   UNL     1     -15.380  -1.488   3.809  1.00  0.00     0.026 A 
ATOM     46  C   UNL     1     -15.893   0.204   2.151  1.00  0.00     0.001 A 
ATOM     47  C   UNL     1     -16.307  -0.782   3.042  1.00  0.00     0.002 A 
ENDBRANCH  37  38
ENDBRANCH   6  37
ENDBRANCH   3   6
ENDBRANCH   1   2
BRANCH   1  48
ATOM     48  C   UNL     1     -11.430   1.191   6.388  1.00  0.00     0.021 C 
BRANCH  48  49
ATOM     49  C   UNL     1     -11.333  -0.128   7.171  1.00  0.00     0.002 C 
BRANCH  49  50
ATOM     50  C   UNL     1     -10.494  -0.100   8.455  1.00  0.00     0.002 C 
BRANCH  50  51
ATOM     51  C   UNL     1     -10.854   0.992   9.462  1.00  0.00     0.021 C 
BRANCH  51  52
ATOM     52  C   UNL     1     -12.301   0.946   9.945  1.00  0.00     0.116 C 
BRANCH  52  53
ATOM     53  N   UNL     1     -12.473   0.382  11.263  1.00  0.00    -0.352 N 
ATOM     54  C   UNL     1     -13.619   0.335  12.052  1.00  0.00     0.251 C 
ATOM     55  H   UNL     1     -11.669  -0.026  11.659  1.00  0.00     0.163 HD
ATOM     56  O   UNL     1     -13.543   0.071  13.244  1.00  0.00    -0.269 OA
BRANCH  54  57
ATOM     57  C   UNL     1     -14.953   0.422  11.403  1.00  0.00     0.039 A 
ATOM     58  C   UNL     1     -15.892  -0.550  11.781  1.00  0.00     0.014 A 
ATOM     59  C   UNL     1     -15.224   1.254  10.319  1.00  0.00     0.014 A 
ATOM     60  C   UNL     1     -16.973  -0.837  10.947  1.00  0.00     0.010 A 
ATOM     61  C   UNL     1     -16.250   0.925   9.450  1.00  0.00     0.010 A 
ATOM     62  C   UNL     1     -17.082  -0.158   9.733  1.00  0.00    -0.014 A 
BRANCH  62  63
ATOM     63  C   UNL     1     -17.936  -0.614   8.644  1.00  0.00     0.031 A 
ATOM     64  C   UNL     1     -19.229   0.034   8.360  1.00  0.00     0.074 A 
ATOM     65  C   UNL     1     -17.541  -1.652   7.875  1.00  0.00     0.049 A 
ATOM     66  N   UNL     1     -20.245  -0.585   7.860  1.00  0.00    -0.248 NA
ATOM     67  C   UNL     1     -19.491   1.439   8.650  1.00  0.00     0.031 C 
ATOM     68  C   UNL     1     -18.147  -2.121   6.633  1.00  0.00     0.029 A 
ATOM     69  N   UNL     1     -16.635  -2.646   8.202  1.00  0.00    -0.354 N 
ATOM     70  C   UNL     1     -21.169   0.364   7.501  1.00  0.00     0.074 A 
ATOM     71  C   UNL     1     -20.691   1.601   8.079  1.00  0.00     0.031 C 
ATOM     72  C   UNL     1     -17.791  -3.400   6.432  1.00  0.00     0.029 A 
ATOM     73  C   UNL     1     -17.052  -3.838   7.603  1.00  0.00     0.049 A 
ATOM     74  H   UNL     1     -15.833  -2.532   8.762  1.00  0.00     0.167 HD
ATOM     75  C   UNL     1     -22.167   0.051   6.629  1.00  0.00     0.034 A 
ATOM     76  C   UNL     1     -17.337  -4.944   8.352  1.00  0.00     0.034 A 
ATOM     77  C   UNL     1     -22.093  -1.332   6.178  1.00  0.00     0.049 A 
ATOM     78  C   UNL     1     -18.771  -5.405   8.212  1.00  0.00     0.074 A 
ATOM     79  C   UNL     1     -21.569  -1.916   5.035  1.00  0.00     0.029 A 
ATOM     80  N   UNL     1     -22.339  -2.366   7.072  1.00  0.00    -0.354 N 
ATOM     81  N   UNL     1     -19.727  -4.673   7.708  1.00  0.00    -0.248 NA
ATOM     82  C   UNL     1     -19.247  -6.719   8.634  1.00  0.00     0.031 C 
ATOM     83  C   UNL     1     -21.443  -3.308   5.273  1.00  0.00     0.029 A 
ATOM     84  C   UNL     1     -21.922  -3.573   6.544  1.00  0.00     0.049 A 
ATOM     85  H   UNL     1     -22.753  -2.254   7.958  1.00  0.00     0.167 HD
ATOM     86  C   UNL     1     -20.910  -5.366   7.740  1.00  0.00     0.074 A 
ATOM     87  C   UNL     1     -20.550  -6.653   8.308  1.00  0.00     0.031 C 
ATOM     88  C   UNL     1     -22.080  -4.810   7.297  1.00  0.00     0.034 A 
BRANCH  75  89
ATOM     89  C   UNL     1     -23.007   1.104   5.960  1.00  0.00     0.023 A 
ATOM     90  C   UNL     1     -23.331   0.977   4.594  1.00  0.00     0.031 A 
ATOM     91  C   UNL     1     -23.486   2.259   6.605  1.00  0.00     0.131 A 
ATOM     92  C   UNL     1     -24.009   1.998   3.908  1.00  0.00     0.055 A 
ATOM     93  C   UNL     1     -24.120   3.299   5.912  1.00  0.00     0.041 A 
ATOM     94  F   UNL     1     -23.367   2.411   7.933  1.00  0.00    -0.206 F 
ATOM     95  C   UNL     1     -24.373   3.178   4.552  1.00  0.00     0.022 A 
BRANCH  92  96
ATOM     96  S   UNL     1     -24.406   1.760   2.153  1.00  0.00     0.124 S 
ATOM     97  O   UNL     1     -23.087   1.555   1.562  1.00  0.00    -0.237 OA
ATOM     98  O   UNL     1     -25.283   0.595   2.190  1.00  0.00    -0.237 OA
ATOM     99  O   UNL     1     -25.060   3.013   1.780  1.00  0.00    -0.744 OA
ENDBRANCH  92  96
ENDBRANCH  75  89
BRANCH  76 100
ATOM    100  C   UNL     1     -16.496  -5.045   9.582  1.00  0.00     0.023 A 
ATOM    101  C   UNL     1     -15.096  -5.033   9.390  1.00  0.00     0.031 A 
ATOM    102  C   UNL     1     -16.985  -4.727  10.855  1.00  0.00     0.131 A 
ATOM    103  C   UNL     1     -14.250  -4.511  10.379  1.00  0.00     0.055 A 
ATOM    104  C   UNL     1     -16.123  -4.299  11.875  1.00  0.00     0.041 A 
ATOM    105  F   UNL     1     -18.304  -4.697  11.095  1.00  0.00    -0.206 F 
ATOM    106  C   UNL     1     -14.757  -4.139  11.624  1.00  0.00     0.022 A 
BRANCH 103 107
ATOM    107  S   UNL     1     -12.560  -4.026   9.898  1.00  0.00     0.124 S 
ATOM    108  O   UNL     1     -11.803  -5.239  10.183  1.00  0.00    -0.237 OA
ATOM    109  O   UNL     1     -12.710  -3.687   8.482  1.00  0.00    -0.237 OA
ATOM    110  O   UNL     1     -12.270  -2.880  10.757  1.00  0.00    -0.744 OA
ENDBRANCH 103 107
ENDBRANCH  76 100
BRANCH  88 111
ATOM    111  C   UNL     1     -23.468  -5.402   7.442  1.00  0.00     0.023 A 
ATOM    112  C   UNL     1     -23.783  -6.427   8.344  1.00  0.00     0.031 A 
ATOM    113  C   UNL     1     -24.562  -4.881   6.705  1.00  0.00     0.131 A 
ATOM    114  C   UNL     1     -25.089  -6.947   8.430  1.00  0.00     0.055 A 
ATOM    115  C   UNL     1     -25.874  -5.344   6.850  1.00  0.00     0.041 A 
ATOM    116  F   UNL     1     -24.409  -3.891   5.813  1.00  0.00    -0.206 F 
ATOM    117  C   UNL     1     -26.143  -6.397   7.707  1.00  0.00     0.022 A 
BRANCH 114 118
ATOM    118  S   UNL     1     -25.362  -8.408   9.466  1.00  0.00     0.124 S 
ATOM    119  O   UNL     1     -24.518  -9.403   8.809  1.00  0.00    -0.237 OA
ATOM    120  O   UNL     1     -24.904  -7.955  10.775  1.00  0.00    -0.237 OA
ATOM    121  O   UNL     1     -26.800  -8.646   9.358  1.00  0.00    -0.744 OA
ENDBRANCH 114 118
ENDBRANCH  88 111
ENDBRANCH  62  63
ENDBRANCH  54  57
ENDBRANCH  52  53
ENDBRANCH  51  52
ENDBRANCH  50  51
ENDBRANCH  49  50
ENDBRANCH  48  49
ENDBRANCH   1  48
TORSDOF 25
