REMARK SMILES O=C(C[C@@H]([NH2+]Cc1cccnc1)C(=O)NCCCCCCNC(=O)c1ccc(-c2c3nc(c(-c4cc(S(=O)(=O)[O-])ccc4F)c4ccc([nH]4)c(-c4cc(S(=O)(=O)[O-])ccc4F)c4nc(c(-c5cc(S(=O)(=O)[O-])ccc5F)c5ccc2[nH]5)C=C4)C=C3)cc1)Nc1ccc2ccccc2c1
REMARK SMILES IDX 18 1 17 2 16 3 15 4 13 5 14 6 4 8 3 9 2 10 1 11 88 12 89 14
REMARK SMILES IDX 90 15 98 16 91 17 97 18 92 19 96 20 93 21 95 22 94 23 5 24
REMARK SMILES IDX 6 27 7 28 8 29 12 30 9 31 11 32 10 33 19 34 20 35 21 36
REMARK SMILES IDX 22 37 23 38 24 40 25 41 26 42 87 43 27 44 86 45 28 46 29 47
REMARK SMILES IDX 30 48 80 49 31 50 85 51 79 52 81 53 32 54 84 55 78 56 77 57
REMARK SMILES IDX 33 59 65 60 45 61 64 62 46 63 49 64 63 65 82 66 47 67 48 68
REMARK SMILES IDX 62 70 83 71 50 72 34 73 35 74 43 75 36 76 42 77 44 78 41 79
REMARK SMILES IDX 37 80 38 81 39 82 40 83 66 84 67 85 75 86 68 87 74 88 76 89
REMARK SMILES IDX 73 90 69 91 70 92 71 93 72 94 51 95 52 96 60 97 53 98 59 99
REMARK SMILES IDX 61 100 58 101 54 102 55 103 56 104 57 105
REMARK H PARENT 15 7 88 13 5 25 5 26 22 39 81 58 49 69
REMARK Flexibility Score: inf
ROOT
ATOM      1  C   UNL     1       6.272  -0.388   4.669  1.00  0.00     0.002 C 
ENDROOT
BRANCH   1   2
ATOM      2  C   UNL     1       5.420   0.116   3.497  1.00  0.00     0.021 C 
BRANCH   2   3
ATOM      3  C   UNL     1       5.800  -0.517   2.159  1.00  0.00     0.116 C 
BRANCH   3   4
ATOM      4  N   UNL     1       5.375  -1.903   2.129  1.00  0.00    -0.351 N 
ATOM      5  C   UNL     1       4.398  -2.505   1.395  1.00  0.00     0.278 C 
ATOM      6  O   UNL     1       4.187  -3.705   1.594  1.00  0.00    -0.268 OA
ATOM      7  H   UNL     1       5.870  -2.503   2.733  1.00  0.00     0.163 HD
BRANCH   5   8
ATOM      8  C   UNL     1       3.628  -1.735   0.302  1.00  0.00     0.282 C 
BRANCH   8   9
ATOM      9  C   UNL     1       2.745  -0.632   0.929  1.00  0.00     0.175 C 
BRANCH   9  10
ATOM     10  C   UNL     1       1.916   0.132  -0.087  1.00  0.00     0.230 C 
ATOM     11  O   UNL     1       0.696   0.015  -0.141  1.00  0.00    -0.274 OA
ATOM     12  N   UNL     1       2.694   0.898  -0.945  1.00  0.00    -0.326 N 
ATOM     13  H   UNL     1       3.620   1.113  -0.688  1.00  0.00     0.169 HD
BRANCH  12  14
ATOM     14  C   UNL     1       2.197   1.374  -2.169  1.00  0.00     0.041 A 
ATOM     15  C   UNL     1       2.756   0.865  -3.340  1.00  0.00     0.027 A 
ATOM     16  C   UNL     1       1.188   2.332  -2.237  1.00  0.00     0.034 A 
ATOM     17  C   UNL     1       2.203   1.185  -4.575  1.00  0.00     0.011 A 
ATOM     18  C   UNL     1       0.736   2.788  -3.491  1.00  0.00    -0.016 A 
ATOM     19  C   UNL     1       1.196   2.148  -4.667  1.00  0.00    -0.018 A 
ATOM     20  C   UNL     1      -0.137   3.881  -3.620  1.00  0.00     0.009 A 
ATOM     21  C   UNL     1       0.677   2.519  -5.914  1.00  0.00     0.009 A 
ATOM     22  C   UNL     1      -0.570   4.303  -4.881  1.00  0.00     0.001 A 
ATOM     23  C   UNL     1      -0.195   3.600  -6.022  1.00  0.00     0.001 A 
ENDBRANCH  12  14
ENDBRANCH   9  10
ENDBRANCH   8   9
BRANCH   8  24
ATOM     24  N   UNL     1       4.561  -1.234  -0.755  1.00  0.00    -0.332 N 
ATOM     25  H   UNL     1       5.142  -0.502  -0.347  1.00  0.00     0.347 HD
ATOM     26  H   UNL     1       3.979  -0.897  -1.522  1.00  0.00     0.347 HD
BRANCH  24  27
ATOM     27  C   UNL     1       5.450  -2.268  -1.322  1.00  0.00     0.299 C 
BRANCH  27  28
ATOM     28  C   UNL     1       4.747  -3.358  -2.087  1.00  0.00     0.024 A 
ATOM     29  C   UNL     1       5.032  -4.704  -1.848  1.00  0.00     0.013 A 
ATOM     30  C   UNL     1       3.817  -3.084  -3.088  1.00  0.00     0.120 A 
ATOM     31  C   UNL     1       4.368  -5.693  -2.570  1.00  0.00     0.021 A 
ATOM     32  N   UNL     1       3.153  -4.020  -3.801  1.00  0.00    -0.264 NA
ATOM     33  C   UNL     1       3.436  -5.305  -3.517  1.00  0.00     0.111 A 
ENDBRANCH  27  28
ENDBRANCH  24  27
ENDBRANCH   8  24
ENDBRANCH   5   8
ENDBRANCH   3   4
ENDBRANCH   2   3
ENDBRANCH   1   2
BRANCH   1  34
ATOM     34  C   UNL     1       7.775  -0.131   4.519  1.00  0.00     0.002 C 
BRANCH  34  35
ATOM     35  C   UNL     1       8.151   1.329   4.257  1.00  0.00     0.021 C 
BRANCH  35  36
ATOM     36  C   UNL     1       7.691   2.296   5.342  1.00  0.00     0.116 C 
BRANCH  36  37
ATOM     37  N   UNL     1       8.319   2.005   6.620  1.00  0.00    -0.352 N 
ATOM     38  C   UNL     1       9.057   2.833   7.431  1.00  0.00     0.251 C 
ATOM     39  H   UNL     1       8.197   1.086   6.952  1.00  0.00     0.163 HD
ATOM     40  O   UNL     1       9.711   2.360   8.351  1.00  0.00    -0.269 OA
BRANCH  38  41
ATOM     41  C   UNL     1       9.070   4.288   7.166  1.00  0.00     0.039 A 
ATOM     42  C   UNL     1      10.285   4.974   7.213  1.00  0.00     0.014 A 
ATOM     43  C   UNL     1       7.887   4.970   6.866  1.00  0.00     0.014 A 
ATOM     44  C   UNL     1      10.321   6.335   6.902  1.00  0.00     0.010 A 
ATOM     45  C   UNL     1       7.937   6.305   6.478  1.00  0.00     0.010 A 
ATOM     46  C   UNL     1       9.154   7.003   6.495  1.00  0.00    -0.014 A 
BRANCH  46  47
ATOM     47  C   UNL     1       9.188   8.433   6.088  1.00  0.00     0.031 A 
ATOM     48  C   UNL     1       8.418   9.460   6.872  1.00  0.00     0.074 A 
ATOM     49  C   UNL     1       9.869   8.794   4.983  1.00  0.00     0.049 A 
ATOM     50  N   UNL     1       8.271  10.739   6.640  1.00  0.00    -0.248 NA
ATOM     51  C   UNL     1       7.694   8.978   8.057  1.00  0.00     0.031 C 
ATOM     52  C   UNL     1      10.626   7.882   4.122  1.00  0.00     0.029 A 
ATOM     53  N   UNL     1      10.033  10.020   4.389  1.00  0.00    -0.354 N 
ATOM     54  C   UNL     1       7.433  11.213   7.643  1.00  0.00     0.074 A 
ATOM     55  C   UNL     1       7.048  10.068   8.441  1.00  0.00     0.031 C 
ATOM     56  C   UNL     1      11.198   8.585   3.132  1.00  0.00     0.029 A 
ATOM     57  C   UNL     1      10.807   9.986   3.252  1.00  0.00     0.049 A 
ATOM     58  H   UNL     1       9.633  10.848   4.743  1.00  0.00     0.167 HD
ATOM     59  C   UNL     1       7.040  12.488   7.890  1.00  0.00     0.034 A 
ATOM     60  C   UNL     1      11.152  10.968   2.395  1.00  0.00     0.034 A 
ATOM     61  C   UNL     1       7.435  13.617   7.082  1.00  0.00     0.049 A 
ATOM     62  C   UNL     1      10.664  12.370   2.661  1.00  0.00     0.074 A 
ATOM     63  C   UNL     1       7.135  14.956   7.267  1.00  0.00     0.029 A 
ATOM     64  N   UNL     1       8.204  13.542   5.927  1.00  0.00    -0.354 N 
ATOM     65  N   UNL     1       9.910  12.810   3.643  1.00  0.00    -0.248 NA
ATOM     66  C   UNL     1      11.081  13.407   1.710  1.00  0.00     0.031 C 
ATOM     67  C   UNL     1       7.650  15.676   6.184  1.00  0.00     0.029 A 
ATOM     68  C   UNL     1       8.354  14.803   5.370  1.00  0.00     0.049 A 
ATOM     69  H   UNL     1       8.587  12.713   5.558  1.00  0.00     0.167 HD
ATOM     70  C   UNL     1       9.793  14.184   3.444  1.00  0.00     0.074 A 
ATOM     71  C   UNL     1      10.565  14.497   2.258  1.00  0.00     0.031 C 
ATOM     72  C   UNL     1       9.115  15.103   4.178  1.00  0.00     0.034 A 
BRANCH  59  73
ATOM     73  C   UNL     1       6.114  12.715   9.064  1.00  0.00     0.023 A 
ATOM     74  C   UNL     1       6.495  12.394  10.379  1.00  0.00     0.031 A 
ATOM     75  C   UNL     1       4.820  13.228   8.864  1.00  0.00     0.131 A 
ATOM     76  C   UNL     1       5.567  12.505  11.425  1.00  0.00     0.055 A 
ATOM     77  C   UNL     1       3.933  13.424   9.924  1.00  0.00     0.041 A 
ATOM     78  F   UNL     1       4.388  13.533   7.630  1.00  0.00    -0.206 F 
ATOM     79  C   UNL     1       4.298  13.044  11.212  1.00  0.00     0.022 A 
BRANCH  76  80
ATOM     80  S   UNL     1       5.987  11.776  13.033  1.00  0.00     0.124 S 
ATOM     81  O   UNL     1       6.248  10.385  12.666  1.00  0.00    -0.237 OA
ATOM     82  O   UNL     1       7.149  12.557  13.440  1.00  0.00    -0.237 OA
ATOM     83  O   UNL     1       4.781  11.986  13.830  1.00  0.00    -0.744 OA
ENDBRANCH  76  80
ENDBRANCH  59  73
BRANCH  60  84
ATOM     84  C   UNL     1      11.993  10.666   1.200  1.00  0.00     0.023 A 
ATOM     85  C   UNL     1      13.269  11.231   1.052  1.00  0.00     0.031 A 
ATOM     86  C   UNL     1      11.516   9.836   0.169  1.00  0.00     0.131 A 
ATOM     87  C   UNL     1      14.006  10.998  -0.120  1.00  0.00     0.055 A 
ATOM     88  C   UNL     1      12.277   9.559  -0.968  1.00  0.00     0.041 A 
ATOM     89  F   UNL     1      10.303   9.267   0.260  1.00  0.00    -0.206 F 
ATOM     90  C   UNL     1      13.525  10.153  -1.123  1.00  0.00     0.022 A 
BRANCH  87  91
ATOM     91  S   UNL     1      15.568  11.889  -0.355  1.00  0.00     0.124 S 
ATOM     92  O   UNL     1      15.131  13.278  -0.279  1.00  0.00    -0.237 OA
ATOM     93  O   UNL     1      16.365  11.403   0.766  1.00  0.00    -0.237 OA
ATOM     94  O   UNL     1      16.016  11.446  -1.674  1.00  0.00    -0.744 OA
ENDBRANCH  87  91
ENDBRANCH  60  84
BRANCH  72  95
ATOM     95  C   UNL     1       9.221  16.546   3.743  1.00  0.00     0.023 A 
ATOM     96  C   UNL     1       8.699  16.994   2.517  1.00  0.00     0.031 A 
ATOM     97  C   UNL     1       9.864  17.486   4.569  1.00  0.00     0.131 A 
ATOM     98  C   UNL     1       8.882  18.329   2.125  1.00  0.00     0.055 A 
ATOM     99  C   UNL     1       9.981  18.828   4.205  1.00  0.00     0.041 A 
ATOM    100  F   UNL     1      10.388  17.115   5.749  1.00  0.00    -0.206 F 
ATOM    101  C   UNL     1       9.501  19.254   2.971  1.00  0.00     0.022 A 
BRANCH  98 102
ATOM    102  S   UNL     1       8.393  18.820   0.449  1.00  0.00     0.124 S 
ATOM    103  O   UNL     1       9.183  17.912  -0.375  1.00  0.00    -0.237 OA
ATOM    104  O   UNL     1       6.953  18.580   0.461  1.00  0.00    -0.237 OA
ATOM    105  O   UNL     1       8.786  20.226   0.375  1.00  0.00    -0.744 OA
ENDBRANCH  98 102
ENDBRANCH  72  95
ENDBRANCH  46  47
ENDBRANCH  38  41
ENDBRANCH  36  37
ENDBRANCH  35  36
ENDBRANCH  34  35
ENDBRANCH   1  34
TORSDOF 22
