REMARK SMILES CCCn1ncc(C(=O)N2CCC(C(=O)NCCCCCCNC(=O)c3ccc(-c4c5nc(c(-c6cc(S(=O)(=O)[O-])ccc6F)c6ccc([nH]6)c(-c6cc(S(=O)(=O)[O-])ccc6F)c6nc(c(-c7cc(S(=O)(=O)[O-])ccc7F)c7ccc4[nH]7)C=C6)C=C5)cc3)CC2)c1C
REMARK SMILES IDX 19 1 18 2 17 3 16 4 14 5 15 6 13 8 8 9 9 10 10 11 11 12
REMARK SMILES IDX 90 13 12 14 89 15 7 16 4 17 5 18 91 19 6 20 92 21 3 22 2 23
REMARK SMILES IDX 1 24 20 25 21 26 22 27 23 28 24 29 25 31 26 32 27 33 88 34
REMARK SMILES IDX 28 35 87 36 29 37 30 38 31 39 81 40 32 41 86 42 80 43 82 44
REMARK SMILES IDX 33 45 85 46 79 47 78 48 34 50 66 51 46 52 65 53 47 54 50 55
REMARK SMILES IDX 64 56 83 57 48 58 49 59 63 61 84 62 51 63 35 64 36 65 44 66
REMARK SMILES IDX 37 67 43 68 45 69 42 70 38 71 39 72 40 73 41 74 67 75 68 76
REMARK SMILES IDX 76 77 69 78 75 79 77 80 74 81 70 82 71 83 72 84 73 85 52 86
REMARK SMILES IDX 53 87 61 88 54 89 60 90 62 91 59 92 55 93 56 94 57 95 58 96
REMARK H PARENT 16 7 23 30 82 49 50 60
REMARK Flexibility Score: inf
ROOT
ATOM      1  C   UNL     1      -2.377  10.797  -6.092  1.00  0.00     0.002 C 
ENDROOT
BRANCH   1   2
ATOM      2  C   UNL     1      -1.551   9.564  -5.714  1.00  0.00     0.021 C 
BRANCH   2   3
ATOM      3  C   UNL     1      -2.356   8.269  -5.664  1.00  0.00     0.116 C 
BRANCH   3   4
ATOM      4  N   UNL     1      -2.826   7.877  -6.985  1.00  0.00    -0.356 N 
ATOM      5  C   UNL     1      -2.622   6.736  -7.698  1.00  0.00     0.223 C 
ATOM      6  O   UNL     1      -3.155   6.636  -8.806  1.00  0.00    -0.275 OA
ATOM      7  H   UNL     1      -3.384   8.549  -7.438  1.00  0.00     0.163 HD
BRANCH   5   8
ATOM      8  C   UNL     1      -1.800   5.589  -7.132  1.00  0.00     0.082 C 
ATOM      9  C   UNL     1       0.108   4.964  -3.609  1.00  0.00     0.257 C 
ATOM     10  O   UNL     1       0.617   6.063  -3.398  1.00  0.00    -0.269 OA
ATOM     11  N   UNL     1      -0.345   4.608  -4.874  1.00  0.00    -0.338 N 
ATOM     12  C   UNL     1       0.421   5.015  -6.038  1.00  0.00     0.120 C 
ATOM     13  C   UNL     1      -1.645   4.012  -5.133  1.00  0.00     0.120 C 
ATOM     14  C   UNL     1      -0.337   5.999  -6.908  1.00  0.00     0.035 C 
ATOM     15  C   UNL     1      -2.523   4.970  -5.924  1.00  0.00     0.035 C 
BRANCH   9  16
ATOM     16  C   UNL     1       0.074   3.916  -2.591  1.00  0.00     0.080 A 
ATOM     17  N   UNL     1       0.423   2.740  -0.748  1.00  0.00    -0.269 N 
ATOM     18  N   UNL     1      -0.104   1.855  -1.611  1.00  0.00    -0.180 NA
ATOM     19  C   UNL     1       0.490   4.016  -1.265  1.00  0.00     0.048 A 
ATOM     20  C   UNL     1      -0.243   2.549  -2.736  1.00  0.00     0.149 A 
ATOM     21  C   UNL     1       0.997   5.199  -0.514  1.00  0.00     0.067 C 
BRANCH  17  22
ATOM     22  C   UNL     1       0.942   2.277   0.530  1.00  0.00     0.144 C 
BRANCH  22  23
ATOM     23  C   UNL     1       0.523   0.871   0.980  1.00  0.00     0.020 C 
ATOM     24  C   UNL     1       1.203  -0.262   0.218  1.00  0.00     0.006 C 
ENDBRANCH  22  23
ENDBRANCH  17  22
ENDBRANCH   9  16
ENDBRANCH   5   8
ENDBRANCH   3   4
ENDBRANCH   2   3
ENDBRANCH   1   2
BRANCH   1  25
ATOM     25  C   UNL     1      -3.667  11.011  -5.283  1.00  0.00     0.002 C 
BRANCH  25  26
ATOM     26  C   UNL     1      -3.528  11.004  -3.753  1.00  0.00     0.021 C 
BRANCH  26  27
ATOM     27  C   UNL     1      -2.687  12.147  -3.218  1.00  0.00     0.116 C 
BRANCH  27  28
ATOM     28  N   UNL     1      -3.316  13.457  -3.421  1.00  0.00    -0.352 N 
ATOM     29  C   UNL     1      -2.841  14.709  -3.047  1.00  0.00     0.251 C 
ATOM     30  H   UNL     1      -4.186  13.448  -3.882  1.00  0.00     0.163 HD
ATOM     31  O   UNL     1      -3.590  15.660  -2.937  1.00  0.00    -0.269 OA
BRANCH  29  32
ATOM     32  C   UNL     1      -1.391  14.840  -2.808  1.00  0.00     0.039 A 
ATOM     33  C   UNL     1      -0.838  15.634  -1.798  1.00  0.00     0.014 A 
ATOM     34  C   UNL     1      -0.579  14.078  -3.632  1.00  0.00     0.014 A 
ATOM     35  C   UNL     1       0.546  15.602  -1.614  1.00  0.00     0.010 A 
ATOM     36  C   UNL     1       0.698  13.817  -3.254  1.00  0.00     0.010 A 
ATOM     37  C   UNL     1       1.299  14.687  -2.359  1.00  0.00    -0.014 A 
BRANCH  37  38
ATOM     38  C   UNL     1       2.744  14.559  -2.284  1.00  0.00     0.031 A 
ATOM     39  C   UNL     1       3.258  14.009  -1.005  1.00  0.00     0.074 A 
ATOM     40  C   UNL     1       3.475  14.594  -3.424  1.00  0.00     0.049 A 
ATOM     41  N   UNL     1       4.007  14.602  -0.140  1.00  0.00    -0.248 NA
ATOM     42  C   UNL     1       2.755  12.702  -0.546  1.00  0.00     0.031 C 
ATOM     43  C   UNL     1       3.012  14.765  -4.812  1.00  0.00     0.029 A 
ATOM     44  N   UNL     1       4.786  14.311  -3.602  1.00  0.00    -0.354 N 
ATOM     45  C   UNL     1       4.262  13.669   0.862  1.00  0.00     0.074 A 
ATOM     46  C   UNL     1       3.294  12.624   0.672  1.00  0.00     0.031 C 
ATOM     47  C   UNL     1       3.959  14.317  -5.667  1.00  0.00     0.029 A 
ATOM     48  C   UNL     1       5.149  13.985  -4.905  1.00  0.00     0.049 A 
ATOM     49  H   UNL     1       5.436  14.334  -2.862  1.00  0.00     0.167 HD
ATOM     50  C   UNL     1       5.393  13.738   1.621  1.00  0.00     0.034 A 
ATOM     51  C   UNL     1       6.322  13.417  -5.303  1.00  0.00     0.034 A 
ATOM     52  C   UNL     1       6.074  14.996   1.400  1.00  0.00     0.049 A 
ATOM     53  C   UNL     1       7.291  13.683  -4.199  1.00  0.00     0.074 A 
ATOM     54  C   UNL     1       5.723  16.321   1.573  1.00  0.00     0.029 A 
ATOM     55  N   UNL     1       7.135  15.006   0.516  1.00  0.00    -0.354 N 
ATOM     56  N   UNL     1       7.656  14.893  -3.853  1.00  0.00    -0.248 NA
ATOM     57  C   UNL     1       7.406  12.686  -3.140  1.00  0.00     0.031 C 
ATOM     58  C   UNL     1       6.204  16.973   0.399  1.00  0.00     0.029 A 
ATOM     59  C   UNL     1       6.919  16.043  -0.362  1.00  0.00     0.049 A 
ATOM     60  H   UNL     1       7.901  14.388   0.515  1.00  0.00     0.167 HD
ATOM     61  C   UNL     1       7.630  14.904  -2.464  1.00  0.00     0.074 A 
ATOM     62  C   UNL     1       7.546  13.492  -2.080  1.00  0.00     0.031 C 
ATOM     63  C   UNL     1       7.349  16.041  -1.753  1.00  0.00     0.034 A 
BRANCH  50  64
ATOM     64  C   UNL     1       6.085  12.583   2.309  1.00  0.00     0.023 A 
ATOM     65  C   UNL     1       7.241  12.886   3.057  1.00  0.00     0.031 A 
ATOM     66  C   UNL     1       5.855  11.210   2.075  1.00  0.00     0.131 A 
ATOM     67  C   UNL     1       8.150  11.883   3.433  1.00  0.00     0.055 A 
ATOM     68  C   UNL     1       6.727  10.207   2.512  1.00  0.00     0.041 A 
ATOM     69  F   UNL     1       4.834  10.760   1.339  1.00  0.00    -0.206 F 
ATOM     70  C   UNL     1       7.900  10.542   3.165  1.00  0.00     0.022 A 
BRANCH  67  71
ATOM     71  S   UNL     1       9.751  12.386   4.115  1.00  0.00     0.124 S 
ATOM     72  O   UNL     1      10.215  13.338   3.111  1.00  0.00    -0.237 OA
ATOM     73  O   UNL     1       9.364  12.947   5.405  1.00  0.00    -0.237 OA
ATOM     74  O   UNL     1      10.499  11.133   4.178  1.00  0.00    -0.744 OA
ENDBRANCH  67  71
ENDBRANCH  50  64
BRANCH  51  75
ATOM     75  C   UNL     1       6.467  12.354  -6.350  1.00  0.00     0.023 A 
ATOM     76  C   UNL     1       7.677  12.052  -7.017  1.00  0.00     0.031 A 
ATOM     77  C   UNL     1       5.394  11.456  -6.577  1.00  0.00     0.131 A 
ATOM     78  C   UNL     1       7.763  10.920  -7.873  1.00  0.00     0.055 A 
ATOM     79  C   UNL     1       5.482  10.348  -7.425  1.00  0.00     0.041 A 
ATOM     80  F   UNL     1       4.231  11.580  -5.917  1.00  0.00    -0.206 F 
ATOM     81  C   UNL     1       6.671  10.073  -8.075  1.00  0.00     0.022 A 
BRANCH  78  82
ATOM     82  S   UNL     1       9.333  10.477  -8.697  1.00  0.00     0.124 S 
ATOM     83  O   UNL     1       9.520  11.583  -9.628  1.00  0.00    -0.237 OA
ATOM     84  O   UNL     1      10.265  10.404  -7.578  1.00  0.00    -0.237 OA
ATOM     85  O   UNL     1       9.038   9.189  -9.329  1.00  0.00    -0.744 OA
ENDBRANCH  78  82
ENDBRANCH  51  75
BRANCH  63  86
ATOM     86  C   UNL     1       7.253  17.375  -2.482  1.00  0.00     0.023 A 
ATOM     87  C   UNL     1       6.361  17.662  -3.543  1.00  0.00     0.031 A 
ATOM     88  C   UNL     1       7.976  18.453  -1.939  1.00  0.00     0.131 A 
ATOM     89  C   UNL     1       6.220  18.987  -4.012  1.00  0.00     0.055 A 
ATOM     90  C   UNL     1       7.815  19.763  -2.388  1.00  0.00     0.041 A 
ATOM     91  F   UNL     1       8.821  18.256  -0.913  1.00  0.00    -0.206 F 
ATOM     92  C   UNL     1       6.937  20.035  -3.429  1.00  0.00     0.022 A 
BRANCH  89  93
ATOM     93  S   UNL     1       5.106  19.376  -5.405  1.00  0.00     0.124 S 
ATOM     94  O   UNL     1       5.442  18.366  -6.401  1.00  0.00    -0.237 OA
ATOM     95  O   UNL     1       3.784  19.261  -4.796  1.00  0.00    -0.237 OA
ATOM     96  O   UNL     1       5.487  20.742  -5.772  1.00  0.00    -0.744 OA
ENDBRANCH  89  93
ENDBRANCH  63  86
ENDBRANCH  37  38
ENDBRANCH  29  32
ENDBRANCH  27  28
ENDBRANCH  26  27
ENDBRANCH  25  26
ENDBRANCH   1  25
TORSDOF 19
