REMARK SMILES Nc1c(Nc2ccc(I)cc2)ncnc1Nc1ccc(C(=O)NCCCCCCNC(=O)c2ccc(-c3c4nc(c(-c5cc(S(=O)(=O)[O-])ccc5F)c5ccc([nH]5)c(-c5cc(S(=O)(=O)[O-])ccc5F)c5nc(c(-c6cc(S(=O)(=O)[O-])ccc6F)c6ccc3[nH]6)C=C5)C=C4)cc2)cc1
REMARK SMILES IDX 26 1 25 2 24 3 23 4 21 5 22 6 20 8 17 9 18 10 97 11 19 12
REMARK SMILES IDX 96 13 16 14 15 16 2 17 3 18 12 19 14 20 13 21 1 22 4 25 5 27
REMARK SMILES IDX 6 28 11 29 7 30 10 31 8 32 9 33 27 34 28 35 29 36 30 37
REMARK SMILES IDX 31 38 32 40 33 41 34 42 95 43 35 44 94 45 36 46 37 47 38 48
REMARK SMILES IDX 88 49 39 50 93 51 87 52 89 53 40 54 92 55 86 56 85 57 41 59
REMARK SMILES IDX 73 60 53 61 72 62 54 63 57 64 71 65 90 66 55 67 56 68 70 70
REMARK SMILES IDX 91 71 58 72 42 73 43 74 51 75 44 76 50 77 52 78 49 79 45 80
REMARK SMILES IDX 46 81 47 82 48 83 74 84 75 85 83 86 76 87 82 88 84 89 81 90
REMARK SMILES IDX 77 91 78 92 79 93 80 94 59 95 60 96 68 97 61 98 67 99 69 100
REMARK SMILES IDX 66 101 62 102 63 103 64 104 65 105
REMARK H PARENT 23 7 16 15 1 23 1 24 4 26 30 39 89 58 57 69
REMARK Flexibility Score: inf
ROOT
ATOM      1  C   UNL     1       4.680  -7.441   7.804  1.00  0.00     0.002 C 
ENDROOT
BRANCH   1   2
ATOM      2  C   UNL     1       4.264  -6.554   6.620  1.00  0.00     0.021 C 
BRANCH   2   3
ATOM      3  C   UNL     1       2.805  -6.099   6.697  1.00  0.00     0.116 C 
BRANCH   3   4
ATOM      4  N   UNL     1       2.686  -4.993   7.628  1.00  0.00    -0.352 N 
ATOM      5  C   UNL     1       2.598  -3.636   7.466  1.00  0.00     0.251 C 
ATOM      6  O   UNL     1       2.559  -2.951   8.491  1.00  0.00    -0.269 OA
ATOM      7  H   UNL     1       2.665  -5.277   8.571  1.00  0.00     0.163 HD
BRANCH   5   8
ATOM      8  C   UNL     1       2.469  -2.958   6.144  1.00  0.00     0.039 A 
ATOM      9  C   UNL     1       1.892  -1.609   3.725  1.00  0.00     0.040 A 
ATOM     10  C   UNL     1       1.541  -1.040   4.950  1.00  0.00     0.027 A 
ATOM     11  C   UNL     1       2.593  -2.819   3.726  1.00  0.00     0.027 A 
ATOM     12  C   UNL     1       1.817  -1.714   6.144  1.00  0.00     0.016 A 
ATOM     13  C   UNL     1       2.922  -3.464   4.925  1.00  0.00     0.016 A 
BRANCH   9  14
ATOM     14  N   UNL     1       1.410  -1.056   2.527  1.00  0.00    -0.338 N 
ATOM     15  H   UNL     1       1.765  -0.181   2.248  1.00  0.00     0.168 HD
BRANCH  14  16
ATOM     16  C   UNL     1       0.444  -1.680   1.691  1.00  0.00     0.159 A 
ATOM     17  C   UNL     1       0.162  -1.095   0.449  1.00  0.00     0.118 A 
ATOM     18  C   UNL     1      -0.848  -1.725  -0.293  1.00  0.00     0.159 A 
ATOM     19  N   UNL     1      -1.515  -2.801   0.164  1.00  0.00    -0.217 NA
ATOM     20  N   UNL     1      -0.174  -2.794   2.127  1.00  0.00    -0.217 NA
ATOM     21  C   UNL     1      -1.130  -3.293   1.343  1.00  0.00     0.226 A 
BRANCH  17  22
ATOM     22  N   UNL     1       0.805   0.074   0.021  1.00  0.00    -0.393 N 
ATOM     23  H   UNL     1       0.588   0.463  -0.856  1.00  0.00     0.156 HD
ATOM     24  H   UNL     1       1.475   0.507   0.600  1.00  0.00     0.156 HD
ENDBRANCH  17  22
BRANCH  18  25
ATOM     25  N   UNL     1      -1.144  -1.235  -1.591  1.00  0.00    -0.338 N 
ATOM     26  H   UNL     1      -0.542  -0.543  -1.949  1.00  0.00     0.168 HD
BRANCH  25  27
ATOM     27  C   UNL     1      -2.207  -1.635  -2.422  1.00  0.00     0.040 A 
ATOM     28  C   UNL     1      -1.954  -1.954  -3.763  1.00  0.00     0.027 A 
ATOM     29  C   UNL     1      -3.508  -1.804  -1.931  1.00  0.00     0.027 A 
ATOM     30  C   UNL     1      -2.970  -2.449  -4.587  1.00  0.00     0.017 A 
ATOM     31  C   UNL     1      -4.532  -2.286  -2.752  1.00  0.00     0.017 A 
ATOM     32  C   UNL     1      -4.255  -2.615  -4.077  1.00  0.00     0.013 A 
ATOM     33  I   UNL     1      -5.759  -3.378  -5.290  1.00  0.00    -0.044 I 
ENDBRANCH  25  27
ENDBRANCH  18  25
ENDBRANCH  14  16
ENDBRANCH   9  14
ENDBRANCH   5   8
ENDBRANCH   3   4
ENDBRANCH   2   3
ENDBRANCH   1   2
BRANCH   1  34
ATOM     34  C   UNL     1       3.940  -8.782   7.892  1.00  0.00     0.002 C 
BRANCH  34  35
ATOM     35  C   UNL     1       4.013  -9.644   6.628  1.00  0.00     0.021 C 
BRANCH  35  36
ATOM     36  C   UNL     1       5.429 -10.044   6.224  1.00  0.00     0.116 C 
BRANCH  36  37
ATOM     37  N   UNL     1       6.045 -10.897   7.229  1.00  0.00    -0.352 N 
ATOM     38  C   UNL     1       6.536 -12.171   7.098  1.00  0.00     0.251 C 
ATOM     39  H   UNL     1       6.121 -10.504   8.128  1.00  0.00     0.163 HD
ATOM     40  O   UNL     1       6.776 -12.839   8.098  1.00  0.00    -0.269 OA
BRANCH  38  41
ATOM     41  C   UNL     1       6.767 -12.732   5.749  1.00  0.00     0.039 A 
ATOM     42  C   UNL     1       6.366 -14.043   5.479  1.00  0.00     0.014 A 
ATOM     43  C   UNL     1       7.402 -11.970   4.763  1.00  0.00     0.014 A 
ATOM     44  C   UNL     1       6.559 -14.574   4.202  1.00  0.00     0.010 A 
ATOM     45  C   UNL     1       7.540 -12.480   3.476  1.00  0.00     0.010 A 
ATOM     46  C   UNL     1       7.125 -13.788   3.185  1.00  0.00    -0.014 A 
BRANCH  46  47
ATOM     47  C   UNL     1       7.319 -14.319   1.813  1.00  0.00     0.031 A 
ATOM     48  C   UNL     1       8.711 -14.521   1.282  1.00  0.00     0.074 A 
ATOM     49  C   UNL     1       6.249 -14.568   1.034  1.00  0.00     0.049 A 
ATOM     50  N   UNL     1       9.096 -14.855   0.078  1.00  0.00    -0.248 NA
ATOM     51  C   UNL     1       9.816 -14.295   2.227  1.00  0.00     0.031 C 
ATOM     52  C   UNL     1       4.851 -14.411   1.442  1.00  0.00     0.029 A 
ATOM     53  N   UNL     1       6.169 -15.003  -0.264  1.00  0.00    -0.354 N 
ATOM     54  C   UNL     1      10.485 -14.877   0.118  1.00  0.00     0.074 A 
ATOM     55  C   UNL     1      10.876 -14.471   1.451  1.00  0.00     0.031 C 
ATOM     56  C   UNL     1       4.054 -14.770   0.423  1.00  0.00     0.029 A 
ATOM     57  C   UNL     1       4.880 -15.133  -0.725  1.00  0.00     0.049 A 
ATOM     58  H   UNL     1       6.960 -15.204  -0.815  1.00  0.00     0.167 HD
ATOM     59  C   UNL     1      11.354 -15.223  -0.863  1.00  0.00     0.034 A 
ATOM     60  C   UNL     1       4.416 -15.491  -1.938  1.00  0.00     0.034 A 
ATOM     61  C   UNL     1      10.950 -15.636  -2.184  1.00  0.00     0.049 A 
ATOM     62  C   UNL     1       5.402 -15.818  -3.028  1.00  0.00     0.074 A 
ATOM     63  C   UNL     1      11.749 -16.020  -3.247  1.00  0.00     0.029 A 
ATOM     64  N   UNL     1       9.636 -15.724  -2.622  1.00  0.00    -0.354 N 
ATOM     65  N   UNL     1       6.714 -15.809  -2.983  1.00  0.00    -0.248 NA
ATOM     66  C   UNL     1       4.845 -16.203  -4.331  1.00  0.00     0.031 C 
ATOM     67  C   UNL     1      10.921 -16.286  -4.343  1.00  0.00     0.029 A 
ATOM     68  C   UNL     1       9.602 -16.136  -3.945  1.00  0.00     0.049 A 
ATOM     69  H   UNL     1       8.843 -15.523  -2.074  1.00  0.00     0.167 HD
ATOM     70  C   UNL     1       7.139 -16.210  -4.246  1.00  0.00     0.074 A 
ATOM     71  C   UNL     1       5.944 -16.461  -5.026  1.00  0.00     0.031 C 
ATOM     72  C   UNL     1       8.403 -16.364  -4.715  1.00  0.00     0.034 A 
BRANCH  59  73
ATOM     73  C   UNL     1      12.825 -15.154  -0.547  1.00  0.00     0.023 A 
ATOM     74  C   UNL     1      13.419 -16.028   0.380  1.00  0.00     0.031 A 
ATOM     75  C   UNL     1      13.647 -14.210  -1.187  1.00  0.00     0.131 A 
ATOM     76  C   UNL     1      14.785 -15.912   0.674  1.00  0.00     0.055 A 
ATOM     77  C   UNL     1      15.019 -14.143  -0.939  1.00  0.00     0.041 A 
ATOM     78  F   UNL     1      13.129 -13.337  -2.066  1.00  0.00    -0.206 F 
ATOM     79  C   UNL     1      15.595 -14.992   0.002  1.00  0.00     0.022 A 
BRANCH  76  80
ATOM     80  S   UNL     1      15.477 -16.925   2.009  1.00  0.00     0.124 S 
ATOM     81  O   UNL     1      14.764 -16.404   3.172  1.00  0.00    -0.237 OA
ATOM     82  O   UNL     1      15.125 -18.278   1.596  1.00  0.00    -0.237 OA
ATOM     83  O   UNL     1      16.905 -16.614   1.969  1.00  0.00    -0.744 OA
ENDBRANCH  76  80
ENDBRANCH  59  73
BRANCH  60  84
ATOM     84  C   UNL     1       2.950 -15.552  -2.188  1.00  0.00     0.023 A 
ATOM     85  C   UNL     1       2.310 -16.782  -2.402  1.00  0.00     0.031 A 
ATOM     86  C   UNL     1       2.169 -14.384  -2.216  1.00  0.00     0.131 A 
ATOM     87  C   UNL     1       0.931 -16.816  -2.658  1.00  0.00     0.055 A 
ATOM     88  C   UNL     1       0.791 -14.426  -2.433  1.00  0.00     0.041 A 
ATOM     89  F   UNL     1       2.734 -13.184  -2.008  1.00  0.00    -0.206 F 
ATOM     90  C   UNL     1       0.165 -15.648  -2.662  1.00  0.00     0.022 A 
BRANCH  87  91
ATOM     91  S   UNL     1       0.151 -18.414  -3.017  1.00  0.00     0.124 S 
ATOM     92  O   UNL     1       0.807 -18.790  -4.264  1.00  0.00    -0.237 OA
ATOM     93  O   UNL     1       0.509 -19.198  -1.840  1.00  0.00    -0.237 OA
ATOM     94  O   UNL     1      -1.267 -18.081  -3.132  1.00  0.00    -0.744 OA
ENDBRANCH  87  91
ENDBRANCH  60  84
BRANCH  72  95
ATOM     95  C   UNL     1       8.557 -16.855  -6.131  1.00  0.00     0.023 A 
ATOM     96  C   UNL     1       8.216 -16.049  -7.230  1.00  0.00     0.031 A 
ATOM     97  C   UNL     1       9.070 -18.140  -6.381  1.00  0.00     0.131 A 
ATOM     98  C   UNL     1       8.352 -16.553  -8.531  1.00  0.00     0.055 A 
ATOM     99  C   UNL     1       9.254 -18.616  -7.679  1.00  0.00     0.041 A 
ATOM    100  F   UNL     1       9.412 -18.948  -5.365  1.00  0.00    -0.206 F 
ATOM    101  C   UNL     1       8.885 -17.824  -8.764  1.00  0.00     0.022 A 
BRANCH  98 102
ATOM    102  S   UNL     1       7.767 -15.546  -9.921  1.00  0.00     0.124 S 
ATOM    103  O   UNL     1       6.342 -15.428  -9.629  1.00  0.00    -0.237 OA
ATOM    104  O   UNL     1       8.550 -14.323  -9.774  1.00  0.00    -0.237 OA
ATOM    105  O   UNL     1       8.096 -16.353 -11.094  1.00  0.00    -0.744 OA
ENDBRANCH  98 102
ENDBRANCH  72  95
ENDBRANCH  46  47
ENDBRANCH  38  41
ENDBRANCH  36  37
ENDBRANCH  35  36
ENDBRANCH  34  35
ENDBRANCH   1  34
TORSDOF 21
