REMARK SMILES [NH3+][C@@]1(C(=O)NCCCCCCNC(=O)c2ccc(-c3c4nc(c(-c5cc(S(=O)(=O)[O-])ccc5F)c5ccc([nH]5)c(-c5cc(S(=O)(=O)[O-])ccc5F)c5nc(c(-c6cc(S(=O)(=O)[O-])ccc6F)c6ccc3[nH]6)C=C5)C=C4)cc2)CC[C@H](Sc2cccs2)C1
REMARK SMILES IDX 9 1 8 2 7 3 6 4 5 5 3 6 4 7 2 9 78 10 87 11 79 12 80 13 1 14
REMARK SMILES IDX 81 18 82 19 83 20 86 21 84 22 85 23 10 24 11 25 12 26 13 27
REMARK SMILES IDX 14 29 15 30 16 31 77 32 17 33 76 34 18 35 19 36 20 37 70 38
REMARK SMILES IDX 21 39 75 40 69 41 71 42 22 43 74 44 68 45 67 46 23 48 55 49
REMARK SMILES IDX 35 50 54 51 36 52 39 53 53 54 72 55 37 56 38 57 52 59 73 60
REMARK SMILES IDX 40 61 24 62 25 63 33 64 26 65 32 66 34 67 31 68 27 69 28 70
REMARK SMILES IDX 29 71 30 72 56 73 57 74 65 75 58 76 64 77 66 78 63 79 59 80
REMARK SMILES IDX 60 81 61 82 62 83 41 84 42 85 50 86 43 87 49 88 51 89 48 90
REMARK SMILES IDX 44 91 45 92 46 93 47 94
REMARK H PARENT 5 8 1 15 1 16 1 17 12 28 71 47 39 58
REMARK Flexibility Score: inf
ROOT
ATOM      1  C   UNL     1      -2.224   5.259  -4.425  1.00  0.00     0.002 C 
ENDROOT
BRANCH   1   2
ATOM      2  C   UNL     1      -0.790   4.730  -4.544  1.00  0.00     0.002 C 
BRANCH   2   3
ATOM      3  C   UNL     1      -0.031   4.560  -3.228  1.00  0.00     0.021 C 
BRANCH   3   4
ATOM      4  C   UNL     1      -0.739   3.707  -2.183  1.00  0.00     0.116 C 
BRANCH   4   5
ATOM      5  N   UNL     1      -0.562   2.289  -2.401  1.00  0.00    -0.351 N 
ATOM      6  C   UNL     1      -0.051   1.315  -1.605  1.00  0.00     0.281 C 
ATOM      7  O   UNL     1      -0.062   0.169  -2.079  1.00  0.00    -0.268 OA
ATOM      8  H   UNL     1      -0.866   1.974  -3.283  1.00  0.00     0.163 HD
BRANCH   6   9
ATOM      9  C   UNL     1       0.493   1.552  -0.146  1.00  0.00     0.175 C 
ATOM     10  C   UNL     1      -0.632   1.833   0.860  1.00  0.00     0.080 C 
ATOM     11  C   UNL     1       1.506   2.696   0.006  1.00  0.00     0.094 C 
ATOM     12  C   UNL     1      -0.534   3.313   1.217  1.00  0.00     0.022 C 
ATOM     13  C   UNL     1       0.953   3.634   1.101  1.00  0.00     0.059 C 
BRANCH   9  14
ATOM     14  N   UNL     1       1.163   0.283   0.265  1.00  0.00    -0.345 N 
ATOM     15  H   UNL     1       0.507  -0.493   0.172  1.00  0.00     0.345 HD
ATOM     16  H   UNL     1       1.465   0.357   1.236  1.00  0.00     0.345 HD
ATOM     17  H   UNL     1       1.973   0.117  -0.331  1.00  0.00     0.345 HD
ENDBRANCH   9  14
BRANCH  13  18
ATOM     18  S   UNL     1       1.526   5.329   0.761  1.00  0.00    -0.112 SA
BRANCH  18  19
ATOM     19  C   UNL     1       0.158   6.420   0.833  1.00  0.00     0.060 A 
ATOM     20  C   UNL     1      -0.841   6.498   1.780  1.00  0.00     0.027 A 
ATOM     21  S   UNL     1       0.024   7.695  -0.311  1.00  0.00    -0.137 S 
ATOM     22  C   UNL     1      -1.724   7.599   1.556  1.00  0.00     0.013 A 
ATOM     23  C   UNL     1      -1.355   8.344   0.459  1.00  0.00     0.066 A 
ENDBRANCH  18  19
ENDBRANCH  13  18
ENDBRANCH   6   9
ENDBRANCH   4   5
ENDBRANCH   3   4
ENDBRANCH   2   3
ENDBRANCH   1   2
BRANCH   1  24
ATOM     24  C   UNL     1      -2.419   6.500  -3.547  1.00  0.00     0.021 C 
BRANCH  24  25
ATOM     25  C   UNL     1      -1.573   7.714  -3.920  1.00  0.00     0.116 C 
BRANCH  25  26
ATOM     26  N   UNL     1      -1.835   8.172  -5.271  1.00  0.00    -0.352 N 
ATOM     27  C   UNL     1      -2.199   9.417  -5.722  1.00  0.00     0.251 C 
ATOM     28  H   UNL     1      -1.738   7.487  -5.971  1.00  0.00     0.163 HD
ATOM     29  O   UNL     1      -2.557   9.551  -6.888  1.00  0.00    -0.269 OA
BRANCH  27  30
ATOM     30  C   UNL     1      -2.185  10.584  -4.810  1.00  0.00     0.039 A 
ATOM     31  C   UNL     1      -3.248  11.489  -4.870  1.00  0.00     0.014 A 
ATOM     32  C   UNL     1      -1.122  10.816  -3.931  1.00  0.00     0.014 A 
ATOM     33  C   UNL     1      -3.271  12.596  -4.018  1.00  0.00     0.010 A 
ATOM     34  C   UNL     1      -1.175  11.888  -3.039  1.00  0.00     0.010 A 
ATOM     35  C   UNL     1      -2.248  12.792  -3.076  1.00  0.00    -0.014 A 
BRANCH  35  36
ATOM     36  C   UNL     1      -2.290  13.939  -2.130  1.00  0.00     0.031 A 
ATOM     37  C   UNL     1      -1.258  15.031  -2.215  1.00  0.00     0.074 A 
ATOM     38  C   UNL     1      -3.232  13.971  -1.166  1.00  0.00     0.049 A 
ATOM     39  N   UNL     1      -1.098  16.079  -1.447  1.00  0.00    -0.248 NA
ATOM     40  C   UNL     1      -0.263  14.916  -3.291  1.00  0.00     0.031 C 
ATOM     41  C   UNL     1      -4.267  12.955  -0.964  1.00  0.00     0.029 A 
ATOM     42  N   UNL     1      -3.468  14.886  -0.170  1.00  0.00    -0.354 N 
ATOM     43  C   UNL     1       0.022  16.742  -1.938  1.00  0.00     0.074 A 
ATOM     44  C   UNL     1       0.529  15.948  -3.037  1.00  0.00     0.031 C 
ATOM     45  C   UNL     1      -5.035  13.311   0.079  1.00  0.00     0.029 A 
ATOM     46  C   UNL     1      -4.524  14.555   0.648  1.00  0.00     0.049 A 
ATOM     47  H   UNL     1      -2.931  15.703  -0.051  1.00  0.00     0.167 HD
ATOM     48  C   UNL     1       0.566  17.913  -1.521  1.00  0.00     0.034 A 
ATOM     49  C   UNL     1      -5.017  15.174   1.739  1.00  0.00     0.034 A 
ATOM     50  C   UNL     1       0.042  18.700  -0.430  1.00  0.00     0.049 A 
ATOM     51  C   UNL     1      -4.383  16.464   2.195  1.00  0.00     0.074 A 
ATOM     52  C   UNL     1       0.480  19.928   0.035  1.00  0.00     0.029 A 
ATOM     53  N   UNL     1      -1.030  18.334   0.374  1.00  0.00    -0.354 N 
ATOM     54  N   UNL     1      -3.356  17.105   1.686  1.00  0.00    -0.248 NA
ATOM     55  C   UNL     1      -4.983  17.120   3.364  1.00  0.00     0.031 C 
ATOM     56  C   UNL     1      -0.279  20.270   1.160  1.00  0.00     0.029 A 
ATOM     57  C   UNL     1      -1.245  19.295   1.351  1.00  0.00     0.049 A 
ATOM     58  H   UNL     1      -1.561  17.511   0.266  1.00  0.00     0.167 HD
ATOM     59  C   UNL     1      -3.209  18.256   2.455  1.00  0.00     0.074 A 
ATOM     60  C   UNL     1      -4.260  18.227   3.451  1.00  0.00     0.031 C 
ATOM     61  C   UNL     1      -2.291  19.250   2.346  1.00  0.00     0.034 A 
BRANCH  48  62
ATOM     62  C   UNL     1       1.810  18.397  -2.230  1.00  0.00     0.023 A 
ATOM     63  C   UNL     1       1.798  18.745  -3.592  1.00  0.00     0.031 A 
ATOM     64  C   UNL     1       3.028  18.502  -1.535  1.00  0.00     0.131 A 
ATOM     65  C   UNL     1       2.992  19.114  -4.231  1.00  0.00     0.055 A 
ATOM     66  C   UNL     1       4.196  18.945  -2.158  1.00  0.00     0.041 A 
ATOM     67  F   UNL     1       3.106  18.166  -0.238  1.00  0.00    -0.206 F 
ATOM     68  C   UNL     1       4.186  19.241  -3.518  1.00  0.00     0.022 A 
BRANCH  65  69
ATOM     69  S   UNL     1       2.989  19.298  -6.035  1.00  0.00     0.124 S 
ATOM     70  O   UNL     1       2.560  17.969  -6.466  1.00  0.00    -0.237 OA
ATOM     71  O   UNL     1       2.029  20.377  -6.241  1.00  0.00    -0.237 OA
ATOM     72  O   UNL     1       4.377  19.629  -6.349  1.00  0.00    -0.744 OA
ENDBRANCH  65  69
ENDBRANCH  48  62
BRANCH  49  73
ATOM     73  C   UNL     1      -6.160  14.580   2.492  1.00  0.00     0.023 A 
ATOM     74  C   UNL     1      -7.394  15.243   2.579  1.00  0.00     0.031 A 
ATOM     75  C   UNL     1      -6.018  13.360   3.177  1.00  0.00     0.131 A 
ATOM     76  C   UNL     1      -8.421  14.710   3.374  1.00  0.00     0.055 A 
ATOM     77  C   UNL     1      -7.060  12.805   3.921  1.00  0.00     0.041 A 
ATOM     78  F   UNL     1      -4.861  12.680   3.121  1.00  0.00    -0.206 F 
ATOM     79  C   UNL     1      -8.266  13.489   4.035  1.00  0.00     0.022 A 
BRANCH  76  80
ATOM     80  S   UNL     1      -9.934  15.682   3.606  1.00  0.00     0.124 S 
ATOM     81  O   UNL     1      -9.407  16.925   4.157  1.00  0.00    -0.237 OA
ATOM     82  O   UNL     1     -10.458  15.754   2.246  1.00  0.00    -0.237 OA
ATOM     83  O   UNL     1     -10.720  14.871   4.533  1.00  0.00    -0.744 OA
ENDBRANCH  76  80
ENDBRANCH  49  73
BRANCH  61  84
ATOM     84  C   UNL     1      -2.417  20.410   3.303  1.00  0.00     0.023 A 
ATOM     85  C   UNL     1      -2.200  20.260   4.684  1.00  0.00     0.031 A 
ATOM     86  C   UNL     1      -2.773  21.684   2.824  1.00  0.00     0.131 A 
ATOM     87  C   UNL     1      -2.395  21.351   5.545  1.00  0.00     0.055 A 
ATOM     88  C   UNL     1      -2.906  22.779   3.678  1.00  0.00     0.041 A 
ATOM     89  F   UNL     1      -2.995  21.885   1.515  1.00  0.00    -0.206 F 
ATOM     90  C   UNL     1      -2.730  22.613   5.049  1.00  0.00     0.022 A 
BRANCH  87  91
ATOM     91  S   UNL     1      -2.294  21.077   7.335  1.00  0.00     0.124 S 
ATOM     92  O   UNL     1      -3.321  20.061   7.545  1.00  0.00    -0.237 OA
ATOM     93  O   UNL     1      -0.914  20.633   7.506  1.00  0.00    -0.237 OA
ATOM     94  O   UNL     1      -2.596  22.391   7.901  1.00  0.00    -0.744 OA
ENDBRANCH  87  91
ENDBRANCH  61  84
ENDBRANCH  35  36
ENDBRANCH  27  30
ENDBRANCH  25  26
ENDBRANCH  24  25
ENDBRANCH   1  24
TORSDOF 19
