REMARK SMILES O=C(NCCCCCCNC(=O)[C@@]1([NH2+]C2CC2)CCC[C@@H](n2cncn2)C1)c1ccc(-c2c3nc(c(-c4cc(S(=O)(=O)[O-])ccc4F)c4ccc([nH]4)c(-c4cc(S(=O)(=O)[O-])ccc4F)c4nc(c(-c5cc(S(=O)(=O)[O-])ccc5F)c5ccc2[nH]5)C=C4)C=C3)cc1
REMARK SMILES IDX 6 1 5 2 4 3 3 4 1 5 2 6 28 8 29 9 90 10 30 11 89 12 31 13
REMARK SMILES IDX 32 14 33 15 83 16 34 17 88 18 82 19 84 20 35 21 87 22 81 23
REMARK SMILES IDX 80 24 36 26 68 27 48 28 67 29 49 30 52 31 66 32 85 33 50 34
REMARK SMILES IDX 51 35 65 37 86 38 53 39 37 40 38 41 46 42 39 43 45 44 47 45
REMARK SMILES IDX 44 46 40 47 41 48 42 49 43 50 69 51 70 52 78 53 71 54 77 55
REMARK SMILES IDX 79 56 76 57 72 58 73 59 74 60 75 61 54 62 55 63 63 64 56 65
REMARK SMILES IDX 62 66 64 67 61 68 57 69 58 70 59 71 60 72 7 73 8 74 9 75
REMARK SMILES IDX 10 76 11 77 12 79 13 80 18 81 27 82 19 83 21 84 20 85 14 86
REMARK SMILES IDX 15 89 16 90 17 91 22 92 23 93 26 94 24 95 25 96
REMARK H PARENT 3 7 84 25 52 36 10 78 14 87 14 88
REMARK Flexibility Score: inf
ROOT
ATOM      1  C   UNL     1       3.840  -1.546   3.043  1.00  0.00     0.002 C 
ENDROOT
BRANCH   1   2
ATOM      2  C   UNL     1       4.618  -0.541   2.188  1.00  0.00     0.021 C 
BRANCH   2   3
ATOM      3  C   UNL     1       4.569  -0.792   0.683  1.00  0.00     0.116 C 
BRANCH   3   4
ATOM      4  N   UNL     1       3.238  -0.962   0.134  1.00  0.00    -0.352 N 
ATOM      5  O   UNL     1       1.185  -0.639  -0.620  1.00  0.00    -0.269 OA
ATOM      6  C   UNL     1       2.181  -0.126  -0.102  1.00  0.00     0.251 C 
ATOM      7  H   UNL     1       3.053  -1.892  -0.131  1.00  0.00     0.163 HD
BRANCH   6   8
ATOM      8  C   UNL     1       2.141   1.316   0.260  1.00  0.00     0.039 A 
ATOM      9  C   UNL     1       3.258   2.136   0.423  1.00  0.00     0.014 A 
ATOM     10  C   UNL     1       0.861   1.886   0.392  1.00  0.00     0.014 A 
ATOM     11  C   UNL     1       3.103   3.480   0.767  1.00  0.00     0.010 A 
ATOM     12  C   UNL     1       0.702   3.232   0.710  1.00  0.00     0.010 A 
ATOM     13  C   UNL     1       1.826   4.030   0.913  1.00  0.00    -0.014 A 
BRANCH  13  14
ATOM     14  C   UNL     1       1.708   5.479   1.105  1.00  0.00     0.031 A 
ATOM     15  C   UNL     1       2.150   6.323  -0.046  1.00  0.00     0.074 A 
ATOM     16  C   UNL     1       1.067   6.059   2.140  1.00  0.00     0.049 A 
ATOM     17  N   UNL     1       3.040   7.262  -0.065  1.00  0.00    -0.248 NA
ATOM     18  C   UNL     1       1.566   6.037  -1.366  1.00  0.00     0.031 C 
ATOM     19  C   UNL     1       0.294   5.396   3.191  1.00  0.00     0.029 A 
ATOM     20  N   UNL     1       0.869   7.388   2.395  1.00  0.00    -0.354 N 
ATOM     21  C   UNL     1       3.002   7.816  -1.345  1.00  0.00     0.074 A 
ATOM     22  C   UNL     1       2.177   6.940  -2.134  1.00  0.00     0.031 C 
ATOM     23  C   UNL     1      -0.466   6.316   3.826  1.00  0.00     0.029 A 
ATOM     24  C   UNL     1      -0.144   7.639   3.313  1.00  0.00     0.049 A 
ATOM     25  H   UNL     1       1.396   8.101   1.967  1.00  0.00     0.167 HD
ATOM     26  C   UNL     1       3.517   9.049  -1.621  1.00  0.00     0.034 A 
ATOM     27  C   UNL     1      -0.738   8.831   3.582  1.00  0.00     0.034 A 
ATOM     28  C   UNL     1       4.422   9.488  -0.589  1.00  0.00     0.049 A 
ATOM     29  C   UNL     1       0.185   9.905   3.146  1.00  0.00     0.074 A 
ATOM     30  C   UNL     1       5.593   8.995  -0.046  1.00  0.00     0.029 A 
ATOM     31  N   UNL     1       4.001  10.465   0.283  1.00  0.00    -0.354 N 
ATOM     32  N   UNL     1       1.338  10.141   3.705  1.00  0.00    -0.248 NA
ATOM     33  C   UNL     1       0.021  10.463   1.812  1.00  0.00     0.031 C 
ATOM     34  C   UNL     1       5.523   9.324   1.339  1.00  0.00     0.029 A 
ATOM     35  C   UNL     1       4.342  10.040   1.542  1.00  0.00     0.049 A 
ATOM     36  H   UNL     1       3.544  11.305   0.050  1.00  0.00     0.167 HD
ATOM     37  C   UNL     1       2.179  10.490   2.662  1.00  0.00     0.074 A 
ATOM     38  C   UNL     1       1.289  10.784   1.543  1.00  0.00     0.031 C 
ATOM     39  C   UNL     1       3.521  10.241   2.719  1.00  0.00     0.034 A 
BRANCH  26  40
ATOM     40  C   UNL     1       2.996  10.005  -2.674  1.00  0.00     0.023 A 
ATOM     41  C   UNL     1       3.689  11.221  -2.855  1.00  0.00     0.031 A 
ATOM     42  C   UNL     1       1.725   9.928  -3.284  1.00  0.00     0.131 A 
ATOM     43  C   UNL     1       3.089  12.307  -3.515  1.00  0.00     0.055 A 
ATOM     44  C   UNL     1       1.165  10.986  -4.008  1.00  0.00     0.041 A 
ATOM     45  F   UNL     1       0.918   8.871  -3.135  1.00  0.00    -0.206 F 
ATOM     46  C   UNL     1       1.831  12.197  -4.099  1.00  0.00     0.022 A 
BRANCH  43  47
ATOM     47  S   UNL     1       3.899  13.927  -3.421  1.00  0.00     0.124 S 
ATOM     48  O   UNL     1       4.097  14.074  -1.983  1.00  0.00    -0.237 OA
ATOM     49  O   UNL     1       5.100  13.710  -4.219  1.00  0.00    -0.237 OA
ATOM     50  O   UNL     1       2.914  14.833  -4.009  1.00  0.00    -0.744 OA
ENDBRANCH  43  47
ENDBRANCH  26  40
BRANCH  27  51
ATOM     51  C   UNL     1      -2.167   9.062   3.926  1.00  0.00     0.023 A 
ATOM     52  C   UNL     1      -2.620  10.235   4.563  1.00  0.00     0.031 A 
ATOM     53  C   UNL     1      -3.160   8.195   3.413  1.00  0.00     0.131 A 
ATOM     54  C   UNL     1      -4.007  10.491   4.678  1.00  0.00     0.055 A 
ATOM     55  C   UNL     1      -4.527   8.444   3.542  1.00  0.00     0.041 A 
ATOM     56  F   UNL     1      -2.832   7.112   2.691  1.00  0.00    -0.206 F 
ATOM     57  C   UNL     1      -4.957   9.600   4.171  1.00  0.00     0.022 A 
BRANCH  54  58
ATOM     58  S   UNL     1      -4.599  12.054   5.402  1.00  0.00     0.124 S 
ATOM     59  O   UNL     1      -4.271  11.888   6.811  1.00  0.00    -0.237 OA
ATOM     60  O   UNL     1      -3.825  13.052   4.667  1.00  0.00    -0.237 OA
ATOM     61  O   UNL     1      -6.030  12.050   5.097  1.00  0.00    -0.744 OA
ENDBRANCH  54  58
ENDBRANCH  27  51
BRANCH  39  62
ATOM     62  C   UNL     1       4.144   9.892   4.052  1.00  0.00     0.023 A 
ATOM     63  C   UNL     1       3.742   8.808   4.863  1.00  0.00     0.031 A 
ATOM     64  C   UNL     1       5.284  10.615   4.445  1.00  0.00     0.131 A 
ATOM     65  C   UNL     1       4.470   8.492   6.027  1.00  0.00     0.055 A 
ATOM     66  C   UNL     1       6.013  10.288   5.587  1.00  0.00     0.041 A 
ATOM     67  F   UNL     1       5.737  11.635   3.696  1.00  0.00    -0.206 F 
ATOM     68  C   UNL     1       5.604   9.228   6.387  1.00  0.00     0.022 A 
BRANCH  65  69
ATOM     69  S   UNL     1       3.949   7.113   7.096  1.00  0.00     0.124 S 
ATOM     70  O   UNL     1       2.520   7.337   7.273  1.00  0.00    -0.237 OA
ATOM     71  O   UNL     1       4.322   5.942   6.304  1.00  0.00    -0.237 OA
ATOM     72  O   UNL     1       4.750   7.302   8.307  1.00  0.00    -0.744 OA
ENDBRANCH  65  69
ENDBRANCH  39  62
ENDBRANCH  13  14
ENDBRANCH   6   8
ENDBRANCH   3   4
ENDBRANCH   2   3
ENDBRANCH   1   2
BRANCH   1  73
ATOM     73  C   UNL     1       4.213  -3.020   2.848  1.00  0.00     0.002 C 
BRANCH  73  74
ATOM     74  C   UNL     1       5.655  -3.378   3.228  1.00  0.00     0.021 C 
BRANCH  74  75
ATOM     75  C   UNL     1       5.970  -3.126   4.705  1.00  0.00     0.116 C 
BRANCH  75  76
ATOM     76  N   UNL     1       6.404  -4.322   5.380  1.00  0.00    -0.351 N 
ATOM     77  C   UNL     1       7.544  -4.691   5.995  1.00  0.00     0.281 C 
ATOM     78  H   UNL     1       5.716  -5.025   5.396  1.00  0.00     0.163 HD
ATOM     79  O   UNL     1       7.351  -5.620   6.802  1.00  0.00    -0.268 OA
BRANCH  77  80
ATOM     80  C   UNL     1       8.993  -4.083   5.828  1.00  0.00     0.177 C 
ATOM     81  C   UNL     1       9.285  -2.960   6.835  1.00  0.00     0.079 C 
ATOM     82  C   UNL     1       9.898  -5.301   6.281  1.00  0.00     0.106 C 
ATOM     83  C   UNL     1      10.775  -2.604   6.902  1.00  0.00     0.009 C 
ATOM     84  C   UNL     1      11.400  -5.045   6.471  1.00  0.00     0.116 C 
ATOM     85  C   UNL     1      11.627  -3.791   7.333  1.00  0.00     0.028 C 
BRANCH  80  86
ATOM     86  N   UNL     1       9.389  -3.805   4.425  1.00  0.00    -0.331 N 
ATOM     87  H   UNL     1       9.091  -4.627   3.901  1.00  0.00     0.347 HD
ATOM     88  H   UNL     1      10.366  -3.555   4.578  1.00  0.00     0.347 HD
BRANCH  86  89
ATOM     89  C   UNL     1       8.981  -2.664   3.602  1.00  0.00     0.183 C 
ATOM     90  C   UNL     1       8.637  -1.256   3.995  1.00  0.00     0.071 C 
ATOM     91  C   UNL     1       9.977  -1.533   3.414  1.00  0.00     0.071 C 
ENDBRANCH  86  89
ENDBRANCH  80  86
BRANCH  84  92
ATOM     92  N   UNL     1      12.058  -6.230   7.040  1.00  0.00    -0.250 N 
ATOM     93  C   UNL     1      11.848  -7.545   6.732  1.00  0.00     0.220 A 
ATOM     94  N   UNL     1      13.008  -6.125   7.993  1.00  0.00    -0.160 NA
ATOM     95  N   UNL     1      12.599  -8.310   7.491  1.00  0.00    -0.224 NA
ATOM     96  C   UNL     1      13.275  -7.405   8.254  1.00  0.00     0.246 A 
ENDBRANCH  84  92
ENDBRANCH  77  80
ENDBRANCH  75  76
ENDBRANCH  74  75
ENDBRANCH  73  74
ENDBRANCH   1  73
TORSDOF 19
