REMARK SMILES CC(C)n1ccc(C#CC(=O)NCCCCCCNC(=O)c2ccc(-c3c4nc(c(-c5cc(S(=O)(=O)[O-])ccc5F)c5ccc([nH]5)c(-c5cc(S(=O)(=O)[O-])ccc5F)c5nc(c(-c6cc(S(=O)(=O)[O-])ccc6F)c6ccc3[nH]6)C=C5)C=C4)cc2)n1
REMARK SMILES IDX 16 1 15 2 14 3 13 4 12 5 10 6 11 7 9 9 8 10 7 11 4 12 5 13
REMARK SMILES IDX 85 14 6 15 2 16 1 17 3 18 17 19 18 20 19 21 20 22 21 24
REMARK SMILES IDX 22 25 23 26 84 27 24 28 83 29 25 30 26 31 27 32 77 33 28 34
REMARK SMILES IDX 82 35 76 36 78 37 29 38 81 39 75 40 74 41 30 43 62 44 42 45
REMARK SMILES IDX 61 46 43 47 46 48 60 49 79 50 44 51 45 52 59 54 80 55 47 56
REMARK SMILES IDX 31 57 32 58 40 59 33 60 39 61 41 62 38 63 34 64 35 65 36 66
REMARK SMILES IDX 37 67 63 68 64 69 72 70 65 71 71 72 73 73 70 74 66 75 67 76
REMARK SMILES IDX 68 77 69 78 48 79 49 80 57 81 50 82 56 83 58 84 55 85 51 86
REMARK SMILES IDX 52 87 53 88 54 89
REMARK H PARENT 12 8 19 23 78 42 46 53
REMARK Flexibility Score: inf
ROOT
ATOM      1  C   UNL     1     -10.912   0.182  -0.922  1.00  0.00     0.002 C 
ENDROOT
BRANCH   1   2
ATOM      2  C   UNL     1     -10.217   0.314   0.442  1.00  0.00     0.002 C 
BRANCH   2   3
ATOM      3  C   UNL     1      -8.868  -0.404   0.576  1.00  0.00     0.021 C 
BRANCH   3   4
ATOM      4  C   UNL     1      -7.828   0.001  -0.466  1.00  0.00     0.117 C 
BRANCH   4   5
ATOM      5  N   UNL     1      -7.475   1.404  -0.356  1.00  0.00    -0.345 N 
ATOM      6  C   UNL     1      -6.232   1.945  -0.181  1.00  0.00     0.296 C 
ATOM      7  O   UNL     1      -6.075   3.156  -0.098  1.00  0.00    -0.260 OA
ATOM      8  H   UNL     1      -8.221   2.044  -0.414  1.00  0.00     0.164 HD
BRANCH   6   9
ATOM      9  C   UNL     1      -5.088   1.066  -0.126  1.00  0.00     0.002 C 
ATOM     10  C   UNL     1      -4.175   0.299  -0.111  1.00  0.00    -0.034 C 
BRANCH  10  11
ATOM     11  C   UNL     1      -3.129  -0.669  -0.124  1.00  0.00     0.135 A 
ATOM     12  N   UNL     1      -1.149  -1.397  -0.121  1.00  0.00    -0.269 N 
ATOM     13  C   UNL     1      -1.942  -2.514  -0.193  1.00  0.00     0.110 A 
ATOM     14  N   UNL     1      -1.864  -0.252  -0.121  1.00  0.00    -0.164 NA
ATOM     15  C   UNL     1      -3.242  -2.067  -0.167  1.00  0.00     0.059 A 
BRANCH  12  16
ATOM     16  C   UNL     1       0.313  -1.369  -0.117  1.00  0.00     0.101 C 
ATOM     17  C   UNL     1       0.901   0.041   0.019  1.00  0.00     0.033 C 
ATOM     18  C   UNL     1       0.888  -2.268   0.982  1.00  0.00     0.033 C 
ENDBRANCH  12  16
ENDBRANCH  10  11
ENDBRANCH   6   9
ENDBRANCH   4   5
ENDBRANCH   3   4
ENDBRANCH   2   3
ENDBRANCH   1   2
BRANCH   1  19
ATOM     19  C   UNL     1     -11.156  -1.248  -1.426  1.00  0.00     0.021 C 
BRANCH  19  20
ATOM     20  C   UNL     1     -12.066  -2.071  -0.526  1.00  0.00     0.116 C 
BRANCH  20  21
ATOM     21  N   UNL     1     -13.461  -1.614  -0.547  1.00  0.00    -0.352 N 
ATOM     22  C   UNL     1     -14.579  -2.238  -0.006  1.00  0.00     0.251 C 
ATOM     23  H   UNL     1     -13.626  -0.756  -1.003  1.00  0.00     0.163 HD
ATOM     24  O   UNL     1     -15.698  -2.000  -0.445  1.00  0.00    -0.269 OA
BRANCH  22  25
ATOM     25  C   UNL     1     -14.394  -3.152   1.142  1.00  0.00     0.039 A 
ATOM     26  C   UNL     1     -15.172  -4.290   1.384  1.00  0.00     0.014 A 
ATOM     27  C   UNL     1     -13.344  -2.847   1.990  1.00  0.00     0.014 A 
ATOM     28  C   UNL     1     -14.878  -5.078   2.508  1.00  0.00     0.010 A 
ATOM     29  C   UNL     1     -12.860  -3.823   2.804  1.00  0.00     0.010 A 
ATOM     30  C   UNL     1     -13.718  -4.804   3.249  1.00  0.00    -0.014 A 
BRANCH  30  31
ATOM     31  C   UNL     1     -13.165  -5.649   4.308  1.00  0.00     0.031 A 
ATOM     32  C   UNL     1     -12.794  -6.974   3.749  1.00  0.00     0.074 A 
ATOM     33  C   UNL     1     -12.777  -5.177   5.526  1.00  0.00     0.049 A 
ATOM     34  N   UNL     1     -13.514  -8.048   3.785  1.00  0.00    -0.248 NA
ATOM     35  C   UNL     1     -11.689  -7.055   2.768  1.00  0.00     0.031 C 
ATOM     36  C   UNL     1     -12.884  -3.813   6.065  1.00  0.00     0.029 A 
ATOM     37  N   UNL     1     -12.137  -5.822   6.554  1.00  0.00    -0.354 N 
ATOM     38  C   UNL     1     -12.733  -9.013   3.164  1.00  0.00     0.074 A 
ATOM     39  C   UNL     1     -11.864  -8.288   2.286  1.00  0.00     0.031 C 
ATOM     40  C   UNL     1     -12.159  -3.693   7.208  1.00  0.00     0.029 A 
ATOM     41  C   UNL     1     -11.627  -4.994   7.580  1.00  0.00     0.049 A 
ATOM     42  H   UNL     1     -12.040  -6.802   6.577  1.00  0.00     0.167 HD
ATOM     43  C   UNL     1     -12.577 -10.236   3.747  1.00  0.00     0.034 A 
ATOM     44  C   UNL     1     -10.853  -5.368   8.656  1.00  0.00     0.034 A 
ATOM     45  C   UNL     1     -13.577 -10.419   4.784  1.00  0.00     0.049 A 
ATOM     46  C   UNL     1     -11.089  -6.826   8.833  1.00  0.00     0.074 A 
ATOM     47  C   UNL     1     -14.957 -10.363   4.826  1.00  0.00     0.029 A 
ATOM     48  N   UNL     1     -13.158 -10.258   6.088  1.00  0.00    -0.354 N 
ATOM     49  N   UNL     1     -12.252  -7.306   9.184  1.00  0.00    -0.248 NA
ATOM     50  C   UNL     1     -10.246  -7.727   8.061  1.00  0.00     0.031 C 
ATOM     51  C   UNL     1     -15.260  -9.681   6.044  1.00  0.00     0.029 A 
ATOM     52  C   UNL     1     -14.074  -9.485   6.755  1.00  0.00     0.049 A 
ATOM     53  H   UNL     1     -12.336 -10.636   6.476  1.00  0.00     0.167 HD
ATOM     54  C   UNL     1     -12.480  -8.353   8.303  1.00  0.00     0.074 A 
ATOM     55  C   UNL     1     -11.182  -8.595   7.662  1.00  0.00     0.031 C 
ATOM     56  C   UNL     1     -13.751  -8.693   7.928  1.00  0.00     0.034 A 
BRANCH  43  57
ATOM     57  C   UNL     1     -11.283 -11.036   3.752  1.00  0.00     0.023 A 
ATOM     58  C   UNL     1     -11.303 -12.239   4.482  1.00  0.00     0.031 A 
ATOM     59  C   UNL     1      -9.999 -10.581   3.369  1.00  0.00     0.131 A 
ATOM     60  C   UNL     1     -10.113 -12.843   4.920  1.00  0.00     0.055 A 
ATOM     61  C   UNL     1      -8.818 -11.221   3.755  1.00  0.00     0.041 A 
ATOM     62  F   UNL     1      -9.789  -9.461   2.672  1.00  0.00    -0.206 F 
ATOM     63  C   UNL     1      -8.867 -12.339   4.566  1.00  0.00     0.022 A 
BRANCH  60  64
ATOM     64  S   UNL     1     -10.235 -14.191   6.119  1.00  0.00     0.124 S 
ATOM     65  O   UNL     1     -10.974 -13.548   7.199  1.00  0.00    -0.237 OA
ATOM     66  O   UNL     1     -10.956 -15.204   5.355  1.00  0.00    -0.237 OA
ATOM     67  O   UNL     1      -8.839 -14.507   6.412  1.00  0.00    -0.744 OA
ENDBRANCH  60  64
ENDBRANCH  43  57
BRANCH  44  68
ATOM     68  C   UNL     1      -9.654  -4.679   9.276  1.00  0.00     0.023 A 
ATOM     69  C   UNL     1      -9.063  -5.019  10.532  1.00  0.00     0.031 A 
ATOM     70  C   UNL     1      -8.887  -3.824   8.456  1.00  0.00     0.131 A 
ATOM     71  C   UNL     1      -7.780  -4.510  10.900  1.00  0.00     0.055 A 
ATOM     72  C   UNL     1      -7.621  -3.346   8.815  1.00  0.00     0.041 A 
ATOM     73  F   UNL     1      -9.306  -3.490   7.226  1.00  0.00    -0.206 F 
ATOM     74  C   UNL     1      -7.058  -3.693  10.030  1.00  0.00     0.022 A 
BRANCH  71  75
ATOM     75  S   UNL     1      -6.968  -4.928  12.497  1.00  0.00     0.124 S 
ATOM     76  O   UNL     1      -7.846  -4.295  13.474  1.00  0.00    -0.237 OA
ATOM     77  O   UNL     1      -6.955  -6.386  12.481  1.00  0.00    -0.237 OA
ATOM     78  O   UNL     1      -5.644  -4.310  12.384  1.00  0.00    -0.744 OA
ENDBRANCH  71  75
ENDBRANCH  44  68
BRANCH  56  79
ATOM     79  C   UNL     1     -14.917  -8.110   8.708  1.00  0.00     0.023 A 
ATOM     80  C   UNL     1     -15.230  -6.736   8.850  1.00  0.00     0.031 A 
ATOM     81  C   UNL     1     -15.819  -9.041   9.250  1.00  0.00     0.131 A 
ATOM     82  C   UNL     1     -16.407  -6.350   9.531  1.00  0.00     0.055 A 
ATOM     83  C   UNL     1     -16.992  -8.658   9.892  1.00  0.00     0.041 A 
ATOM     84  F   UNL     1     -15.587 -10.359   9.130  1.00  0.00    -0.206 F 
ATOM     85  C   UNL     1     -17.288  -7.310  10.042  1.00  0.00     0.022 A 
BRANCH  82  86
ATOM     86  S   UNL     1     -16.808  -4.590   9.811  1.00  0.00     0.124 S 
ATOM     87  O   UNL     1     -15.558  -4.034  10.315  1.00  0.00    -0.237 OA
ATOM     88  O   UNL     1     -17.216  -4.142   8.483  1.00  0.00    -0.237 OA
ATOM     89  O   UNL     1     -17.893  -4.640  10.794  1.00  0.00    -0.744 OA
ENDBRANCH  82  86
ENDBRANCH  56  79
ENDBRANCH  30  31
ENDBRANCH  22  25
ENDBRANCH  20  21
ENDBRANCH  19  20
ENDBRANCH   1  19
TORSDOF 18
