REMARK SMILES O=C(NCCCCCCNC(=O)c1ccc(-c2c3nc(c(-c4cc(S(=O)(=O)[O-])ccc4F)c4ccc([nH]4)c(-c4cc(S(=O)(=O)[O-])ccc4F)c4nc(c(-c5cc(S(=O)(=O)[O-])ccc5F)c5ccc2[nH]5)C=C4)C=C3)cc1)C1=Cc2cc(Cl)ccc2O[C@@H]1C(F)(F)F
REMARK SMILES IDX 7 1 6 2 5 3 4 4 3 5 1 6 2 7 76 9 77 10 86 11 78 12 85 13
REMARK SMILES IDX 79 14 84 15 80 16 83 17 81 18 82 19 87 20 88 21 89 22 90 23
REMARK SMILES IDX 8 24 9 25 10 26 11 27 12 29 13 30 14 31 75 32 15 33 74 34
REMARK SMILES IDX 16 35 17 36 18 37 68 38 19 39 73 40 67 41 69 42 20 43 72 44
REMARK SMILES IDX 66 45 65 46 21 48 53 49 33 50 52 51 34 52 37 53 51 54 70 55
REMARK SMILES IDX 35 56 36 57 50 59 71 60 38 61 22 62 23 63 31 64 24 65 30 66
REMARK SMILES IDX 32 67 29 68 25 69 26 70 27 71 28 72 54 73 55 74 63 75 56 76
REMARK SMILES IDX 62 77 64 78 61 79 57 80 58 81 59 82 60 83 39 84 40 85 48 86
REMARK SMILES IDX 41 87 47 88 49 89 46 90 42 91 43 92 44 93 45 94
REMARK H PARENT 3 8 10 28 69 47 37 58
REMARK Flexibility Score: inf
ROOT
ATOM      1  C   UNL     1       4.473   4.034   2.168  1.00  0.00     0.002 C 
ENDROOT
BRANCH   1   2
ATOM      2  C   UNL     1       3.804   4.314   0.817  1.00  0.00     0.002 C 
BRANCH   2   3
ATOM      3  C   UNL     1       4.157   3.372  -0.332  1.00  0.00     0.021 C 
BRANCH   3   4
ATOM      4  C   UNL     1       3.893   1.890  -0.098  1.00  0.00     0.116 C 
BRANCH   4   5
ATOM      5  N   UNL     1       2.575   1.418  -0.479  1.00  0.00    -0.352 N 
ATOM      6  O   UNL     1       0.956  -0.066  -0.940  1.00  0.00    -0.270 OA
ATOM      7  C   UNL     1       2.156   0.148  -0.768  1.00  0.00     0.251 C 
ATOM      8  H   UNL     1       1.880   2.113  -0.539  1.00  0.00     0.163 HD
BRANCH   7   9
ATOM      9  C   UNL     1       3.087  -1.022  -0.798  1.00  0.00     0.067 C 
ATOM     10  C   UNL     1       4.314  -0.963  -1.346  1.00  0.00     0.025 C 
ATOM     11  C   UNL     1       2.860  -1.970   0.360  1.00  0.00     0.314 C 
ATOM     12  C   UNL     1       5.360  -0.916  -0.288  1.00  0.00     0.019 A 
ATOM     13  O   UNL     1       3.821  -1.737   1.427  1.00  0.00    -0.475 OA
ATOM     14  C   UNL     1       6.587  -0.315  -0.593  1.00  0.00     0.032 A 
ATOM     15  C   UNL     1       5.027  -1.202   1.047  1.00  0.00     0.128 A 
ATOM     16  C   UNL     1       7.421   0.095   0.445  1.00  0.00     0.041 A 
ATOM     17  C   UNL     1       5.887  -0.821   2.075  1.00  0.00     0.048 A 
ATOM     18  Cl  UNL     1       8.827   1.018   0.084  1.00  0.00    -0.084 Cl
ATOM     19  C   UNL     1       7.072  -0.145   1.774  1.00  0.00     0.024 A 
BRANCH  11  20
ATOM     20  C   UNL     1       2.848  -3.445  -0.072  1.00  0.00     0.429 C 
ATOM     21  F   UNL     1       2.491  -4.256   0.954  1.00  0.00    -0.167 F 
ATOM     22  F   UNL     1       1.960  -3.666  -1.071  1.00  0.00    -0.167 F 
ATOM     23  F   UNL     1       4.055  -3.869  -0.515  1.00  0.00    -0.167 F 
ENDBRANCH  11  20
ENDBRANCH   7   9
ENDBRANCH   4   5
ENDBRANCH   3   4
ENDBRANCH   2   3
ENDBRANCH   1   2
BRANCH   1  24
ATOM     24  C   UNL     1       5.993   3.843   2.166  1.00  0.00     0.021 C 
BRANCH  24  25
ATOM     25  C   UNL     1       6.817   4.958   1.529  1.00  0.00     0.116 C 
BRANCH  25  26
ATOM     26  N   UNL     1       6.585   6.253   2.144  1.00  0.00    -0.352 N 
ATOM     27  C   UNL     1       7.476   7.166   2.656  1.00  0.00     0.251 C 
ATOM     28  H   UNL     1       5.639   6.519   2.205  1.00  0.00     0.163 HD
ATOM     29  O   UNL     1       7.048   8.134   3.276  1.00  0.00    -0.269 OA
BRANCH  27  30
ATOM     30  C   UNL     1       8.938   6.977   2.491  1.00  0.00     0.039 A 
ATOM     31  C   UNL     1       9.776   7.276   3.570  1.00  0.00     0.014 A 
ATOM     32  C   UNL     1       9.492   6.544   1.284  1.00  0.00     0.014 A 
ATOM     33  C   UNL     1      11.156   7.086   3.456  1.00  0.00     0.010 A 
ATOM     34  C   UNL     1      10.860   6.283   1.196  1.00  0.00     0.010 A 
ATOM     35  C   UNL     1      11.709   6.555   2.280  1.00  0.00    -0.014 A 
BRANCH  35  36
ATOM     36  C   UNL     1      13.170   6.289   2.168  1.00  0.00     0.031 A 
ATOM     37  C   UNL     1      14.002   7.036   1.158  1.00  0.00     0.074 A 
ATOM     38  C   UNL     1      13.738   5.344   2.944  1.00  0.00     0.049 A 
ATOM     39  N   UNL     1      15.273   6.908   0.875  1.00  0.00    -0.248 NA
ATOM     40  C   UNL     1      13.306   8.042   0.341  1.00  0.00     0.031 C 
ATOM     41  C   UNL     1      13.033   4.534   3.941  1.00  0.00     0.029 A 
ATOM     42  N   UNL     1      15.036   4.900   3.020  1.00  0.00    -0.354 N 
ATOM     43  C   UNL     1      15.526   7.801  -0.162  1.00  0.00     0.074 A 
ATOM     44  C   UNL     1      14.262   8.426  -0.491  1.00  0.00     0.031 C 
ATOM     45  C   UNL     1      13.910   3.720   4.549  1.00  0.00     0.029 A 
ATOM     46  C   UNL     1      15.229   3.906   3.953  1.00  0.00     0.049 A 
ATOM     47  H   UNL     1      15.760   5.259   2.459  1.00  0.00     0.167 HD
ATOM     48  C   UNL     1      16.705   8.085  -0.769  1.00  0.00     0.034 A 
ATOM     49  C   UNL     1      16.339   3.214   4.283  1.00  0.00     0.034 A 
ATOM     50  C   UNL     1      17.959   7.466  -0.415  1.00  0.00     0.049 A 
ATOM     51  C   UNL     1      17.630   3.526   3.564  1.00  0.00     0.074 A 
ATOM     52  C   UNL     1      19.221   7.731  -0.918  1.00  0.00     0.029 A 
ATOM     53  N   UNL     1      18.112   6.450   0.520  1.00  0.00    -0.354 N 
ATOM     54  N   UNL     1      17.861   4.417   2.627  1.00  0.00    -0.248 NA
ATOM     55  C   UNL     1      18.811   2.745   3.955  1.00  0.00     0.031 C 
ATOM     56  C   UNL     1      20.120   6.822  -0.351  1.00  0.00     0.029 A 
ATOM     57  C   UNL     1      19.439   6.051   0.576  1.00  0.00     0.049 A 
ATOM     58  H   UNL     1      17.385   6.070   1.064  1.00  0.00     0.167 HD
ATOM     59  C   UNL     1      19.223   4.328   2.348  1.00  0.00     0.074 A 
ATOM     60  C   UNL     1      19.761   3.310   3.225  1.00  0.00     0.031 C 
ATOM     61  C   UNL     1      19.964   5.029   1.452  1.00  0.00     0.034 A 
BRANCH  48  62
ATOM     62  C   UNL     1      16.689   9.085  -1.902  1.00  0.00     0.023 A 
ATOM     63  C   UNL     1      16.326  10.429  -1.705  1.00  0.00     0.031 A 
ATOM     64  C   UNL     1      17.046   8.686  -3.203  1.00  0.00     0.131 A 
ATOM     65  C   UNL     1      16.264  11.306  -2.799  1.00  0.00     0.055 A 
ATOM     66  C   UNL     1      17.061   9.583  -4.272  1.00  0.00     0.041 A 
ATOM     67  F   UNL     1      17.381   7.411  -3.459  1.00  0.00    -0.206 F 
ATOM     68  C   UNL     1      16.656  10.900  -4.076  1.00  0.00     0.022 A 
BRANCH  65  69
ATOM     69  S   UNL     1      15.537  12.950  -2.554  1.00  0.00     0.124 S 
ATOM     70  O   UNL     1      14.198  12.611  -2.075  1.00  0.00    -0.237 OA
ATOM     71  O   UNL     1      16.433  13.549  -1.572  1.00  0.00    -0.237 OA
ATOM     72  O   UNL     1      15.581  13.547  -3.887  1.00  0.00    -0.744 OA
ENDBRANCH  65  69
ENDBRANCH  48  62
BRANCH  49  73
ATOM     73  C   UNL     1      16.296   2.152   5.331  1.00  0.00     0.023 A 
ATOM     74  C   UNL     1      17.069   2.260   6.498  1.00  0.00     0.031 A 
ATOM     75  C   UNL     1      15.537   0.981   5.152  1.00  0.00     0.131 A 
ATOM     76  C   UNL     1      17.117   1.194   7.410  1.00  0.00     0.055 A 
ATOM     77  C   UNL     1      15.537  -0.050   6.094  1.00  0.00     0.041 A 
ATOM     78  F   UNL     1      14.779   0.822   4.056  1.00  0.00    -0.206 F 
ATOM     79  C   UNL     1      16.344   0.046   7.223  1.00  0.00     0.022 A 
BRANCH  76  80
ATOM     80  S   UNL     1      18.295   1.282   8.786  1.00  0.00     0.124 S 
ATOM     81  O   UNL     1      19.559   1.468   8.082  1.00  0.00    -0.237 OA
ATOM     82  O   UNL     1      17.801   2.433   9.534  1.00  0.00    -0.237 OA
ATOM     83  O   UNL     1      18.135  -0.009   9.453  1.00  0.00    -0.744 OA
ENDBRANCH  76  80
ENDBRANCH  49  73
BRANCH  61  84
ATOM     84  C   UNL     1      21.448   4.754   1.420  1.00  0.00     0.023 A 
ATOM     85  C   UNL     1      21.966   3.510   1.018  1.00  0.00     0.031 A 
ATOM     86  C   UNL     1      22.359   5.753   1.808  1.00  0.00     0.131 A 
ATOM     87  C   UNL     1      23.349   3.278   1.073  1.00  0.00     0.055 A 
ATOM     88  C   UNL     1      23.738   5.539   1.794  1.00  0.00     0.041 A 
ATOM     89  F   UNL     1      21.923   6.959   2.205  1.00  0.00    -0.206 F 
ATOM     90  C   UNL     1      24.239   4.290   1.439  1.00  0.00     0.022 A 
BRANCH  87  91
ATOM     91  S   UNL     1      23.964   1.601   0.755  1.00  0.00     0.124 S 
ATOM     92  O   UNL     1      23.259   0.823   1.768  1.00  0.00    -0.237 OA
ATOM     93  O   UNL     1      23.549   1.373  -0.626  1.00  0.00    -0.237 OA
ATOM     94  O   UNL     1      25.407   1.721   0.956  1.00  0.00    -0.744 OA
ENDBRANCH  87  91
ENDBRANCH  61  84
ENDBRANCH  35  36
ENDBRANCH  27  30
ENDBRANCH  25  26
ENDBRANCH  24  25
ENDBRANCH   1  24
TORSDOF 17
