REMARK SMILES CCOc1cnc(C(=O)c2[nH]c3cc(Cl)ccc3c2CC(=O)NCCCCCCNC(=O)c2ccc(-c3c4nc(c(-c5cc(S(=O)(=O)[O-])ccc5F)c5ccc([nH]5)c(-c5cc(S(=O)(=O)[O-])ccc5F)c5nc(c(-c6cc(S(=O)(=O)[O-])ccc6F)c6ccc3[nH]6)C=C5)C=C4)cc2)cc1CC
REMARK SMILES IDX 25 1 24 2 23 3 21 4 22 5 20 7 19 8 10 9 11 10 12 11 18 13
REMARK SMILES IDX 13 14 17 15 14 16 16 17 15 18 8 19 9 20 7 21 4 22 5 23 97 24
REMARK SMILES IDX 6 25 96 26 3 27 2 28 1 29 98 30 99 31 26 32 27 33 28 34
REMARK SMILES IDX 29 35 30 36 31 37 32 39 33 40 34 41 95 42 35 43 94 44 36 45
REMARK SMILES IDX 37 46 38 47 88 48 39 49 93 50 87 51 89 52 40 53 92 54 86 55
REMARK SMILES IDX 85 56 41 58 73 59 53 60 72 61 54 62 57 63 71 64 90 65 55 66
REMARK SMILES IDX 56 67 70 69 91 70 58 71 42 72 43 73 51 74 44 75 50 76 52 77
REMARK SMILES IDX 49 78 45 79 46 80 47 81 48 82 74 83 75 84 83 85 76 86 82 87
REMARK SMILES IDX 84 88 81 89 77 90 78 91 79 92 80 93 59 94 60 95 68 96 61 97
REMARK SMILES IDX 67 98 69 99 66 100 62 101 63 102 64 103 65 104
REMARK H PARENT 23 6 11 12 30 38 89 57 57 68
REMARK Flexibility Score: inf
ROOT
ATOM      1  C   UNL     1      10.907  -3.513   2.487  1.00  0.00     0.021 C 
ENDROOT
BRANCH   1   2
ATOM      2  C   UNL     1      11.258  -3.287   1.016  1.00  0.00     0.116 C 
BRANCH   2   3
ATOM      3  N   UNL     1      10.480  -4.126   0.129  1.00  0.00    -0.356 N 
ATOM      4  C   UNL     1       9.446  -3.792  -0.698  1.00  0.00     0.224 C 
ATOM      5  O   UNL     1       9.028  -4.655  -1.476  1.00  0.00    -0.275 OA
ATOM      6  H   UNL     1      10.733  -5.077   0.121  1.00  0.00     0.163 HD
BRANCH   4   7
ATOM      7  C   UNL     1       8.921  -2.365  -0.765  1.00  0.00     0.138 C 
BRANCH   7   8
ATOM      8  C   UNL     1       8.430  -1.798   0.537  1.00  0.00    -0.002 A 
ATOM      9  C   UNL     1       7.344  -2.231   1.290  1.00  0.00     0.093 A 
ATOM     10  N   UNL     1       7.365  -1.525   2.473  1.00  0.00    -0.351 N 
ATOM     11  C   UNL     1       8.250  -0.478   2.391  1.00  0.00     0.048 A 
ATOM     12  H   UNL     1       6.822  -1.740   3.265  1.00  0.00     0.167 HD
ATOM     13  C   UNL     1       8.936  -0.620   1.187  1.00  0.00     0.004 A 
ATOM     14  C   UNL     1       8.496   0.568   3.289  1.00  0.00     0.047 A 
ATOM     15  C   UNL     1       9.924   0.335   0.862  1.00  0.00     0.012 A 
ATOM     16  C   UNL     1       9.472   1.503   2.934  1.00  0.00     0.043 A 
ATOM     17  C   UNL     1      10.180   1.394   1.742  1.00  0.00     0.021 A 
ATOM     18  Cl  UNL     1       9.794   2.823   3.991  1.00  0.00    -0.084 Cl
BRANCH   9  19
ATOM     19  C   UNL     1       6.355  -3.252   0.974  1.00  0.00     0.227 C 
ATOM     20  O   UNL     1       6.672  -4.422   0.800  1.00  0.00    -0.285 OA
BRANCH  19  21
ATOM     21  C   UNL     1       4.907  -2.817   0.856  1.00  0.00     0.113 A 
ATOM     22  C   UNL     1       2.249  -2.124   0.714  1.00  0.00     0.140 A 
ATOM     23  C   UNL     1       2.703  -3.422   0.511  1.00  0.00     0.158 A 
ATOM     24  C   UNL     1       3.172  -1.134   1.048  1.00  0.00    -0.002 A 
ATOM     25  N   UNL     1       4.003  -3.792   0.587  1.00  0.00    -0.249 NA
ATOM     26  C   UNL     1       4.528  -1.486   1.046  1.00  0.00     0.040 A 
BRANCH  22  27
ATOM     27  O   UNL     1       0.913  -1.847   0.670  1.00  0.00    -0.492 OA
BRANCH  27  28
ATOM     28  C   UNL     1       0.453  -1.645  -0.674  1.00  0.00     0.226 C 
ATOM     29  C   UNL     1       0.126  -0.176  -0.884  1.00  0.00     0.049 C 
ENDBRANCH  27  28
ENDBRANCH  22  27
BRANCH  24  30
ATOM     30  C   UNL     1       2.764   0.274   1.407  1.00  0.00     0.036 C 
ATOM     31  C   UNL     1       3.330   0.736   2.746  1.00  0.00     0.009 C 
ENDBRANCH  24  30
ENDBRANCH  19  21
ENDBRANCH   9  19
ENDBRANCH   7   8
ENDBRANCH   4   7
ENDBRANCH   2   3
ENDBRANCH   1   2
BRANCH   1  32
ATOM     32  C   UNL     1      11.378  -4.858   3.052  1.00  0.00     0.002 C 
BRANCH  32  33
ATOM     33  C   UNL     1      12.880  -5.136   2.930  1.00  0.00     0.002 C 
BRANCH  33  34
ATOM     34  C   UNL     1      13.800  -4.051   3.499  1.00  0.00     0.021 C 
BRANCH  34  35
ATOM     35  C   UNL     1      13.635  -3.780   4.992  1.00  0.00     0.116 C 
BRANCH  35  36
ATOM     36  N   UNL     1      13.995  -4.933   5.798  1.00  0.00    -0.352 N 
ATOM     37  C   UNL     1      14.831  -5.020   6.883  1.00  0.00     0.251 C 
ATOM     38  H   UNL     1      13.576  -5.781   5.524  1.00  0.00     0.163 HD
ATOM     39  O   UNL     1      15.161  -6.129   7.296  1.00  0.00    -0.269 OA
BRANCH  37  40
ATOM     40  C   UNL     1      15.347  -3.798   7.545  1.00  0.00     0.039 A 
ATOM     41  C   UNL     1      16.669  -3.792   8.002  1.00  0.00     0.014 A 
ATOM     42  C   UNL     1      14.528  -2.688   7.775  1.00  0.00     0.014 A 
ATOM     43  C   UNL     1      17.176  -2.668   8.661  1.00  0.00     0.010 A 
ATOM     44  C   UNL     1      15.053  -1.545   8.377  1.00  0.00     0.010 A 
ATOM     45  C   UNL     1      16.376  -1.530   8.844  1.00  0.00    -0.014 A 
BRANCH  45  46
ATOM     46  C   UNL     1      16.893  -0.342   9.573  1.00  0.00     0.031 A 
ATOM     47  C   UNL     1      16.304   0.035  10.906  1.00  0.00     0.074 A 
ATOM     48  C   UNL     1      17.858   0.418   9.021  1.00  0.00     0.049 A 
ATOM     49  N   UNL     1      16.576   1.058  11.676  1.00  0.00    -0.248 NA
ATOM     50  C   UNL     1      15.242  -0.840  11.424  1.00  0.00     0.031 C 
ATOM     51  C   UNL     1      18.477   0.182   7.715  1.00  0.00     0.029 A 
ATOM     52  N   UNL     1      18.483   1.548   9.485  1.00  0.00    -0.354 N 
ATOM     53  C   UNL     1      15.707   0.960  12.759  1.00  0.00     0.074 A 
ATOM     54  C   UNL     1      14.861  -0.189  12.511  1.00  0.00     0.031 C 
ATOM     55  C   UNL     1      19.405   1.127   7.492  1.00  0.00     0.029 A 
ATOM     56  C   UNL     1      19.428   2.051   8.622  1.00  0.00     0.049 A 
ATOM     57  H   UNL     1      18.273   1.960  10.354  1.00  0.00     0.167 HD
ATOM     58  C   UNL     1      15.634   1.742  13.867  1.00  0.00     0.034 A 
ATOM     59  C   UNL     1      20.223   3.133   8.732  1.00  0.00     0.034 A 
ATOM     60  C   UNL     1      16.498   2.874  14.107  1.00  0.00     0.049 A 
ATOM     61  C   UNL     1      20.152   3.967   9.984  1.00  0.00     0.074 A 
ATOM     62  C   UNL     1      16.539   3.714  15.207  1.00  0.00     0.029 A 
ATOM     63  N   UNL     1      17.477   3.324  13.230  1.00  0.00    -0.354 N 
ATOM     64  N   UNL     1      19.353   3.840  11.018  1.00  0.00    -0.248 NA
ATOM     65  C   UNL     1      21.107   5.077  10.093  1.00  0.00     0.031 C 
ATOM     66  C   UNL     1      17.508   4.698  14.975  1.00  0.00     0.029 A 
ATOM     67  C   UNL     1      18.118   4.435  13.759  1.00  0.00     0.049 A 
ATOM     68  H   UNL     1      17.686   2.914  12.360  1.00  0.00     0.167 HD
ATOM     69  C   UNL     1      19.733   4.834  11.915  1.00  0.00     0.074 A 
ATOM     70  C   UNL     1      20.841   5.541  11.305  1.00  0.00     0.031 C 
ATOM     71  C   UNL     1      19.218   5.133  13.136  1.00  0.00     0.034 A 
BRANCH  58  72
ATOM     72  C   UNL     1      14.564   1.405  14.879  1.00  0.00     0.023 A 
ATOM     73  C   UNL     1      14.550   0.171  15.555  1.00  0.00     0.031 A 
ATOM     74  C   UNL     1      13.512   2.303  15.133  1.00  0.00     0.131 A 
ATOM     75  C   UNL     1      13.463  -0.167  16.376  1.00  0.00     0.055 A 
ATOM     76  C   UNL     1      12.478   1.995  16.020  1.00  0.00     0.041 A 
ATOM     77  F   UNL     1      13.458   3.488  14.505  1.00  0.00    -0.206 F 
ATOM     78  C   UNL     1      12.439   0.746  16.633  1.00  0.00     0.022 A 
BRANCH  75  79
ATOM     79  S   UNL     1      13.326  -1.876  16.969  1.00  0.00     0.124 S 
ATOM     80  O   UNL     1      13.281  -2.620  15.713  1.00  0.00    -0.237 OA
ATOM     81  O   UNL     1      14.540  -2.033  17.762  1.00  0.00    -0.237 OA
ATOM     82  O   UNL     1      12.079  -1.876  17.730  1.00  0.00    -0.744 OA
ENDBRANCH  75  79
ENDBRANCH  58  72
BRANCH  59  83
ATOM     83  C   UNL     1      21.167   3.486   7.635  1.00  0.00     0.023 A 
ATOM     84  C   UNL     1      22.556   3.393   7.818  1.00  0.00     0.031 A 
ATOM     85  C   UNL     1      20.693   3.954   6.397  1.00  0.00     0.131 A 
ATOM     86  C   UNL     1      23.425   3.805   6.797  1.00  0.00     0.055 A 
ATOM     87  C   UNL     1      21.561   4.321   5.368  1.00  0.00     0.041 A 
ATOM     88  F   UNL     1      19.373   4.050   6.169  1.00  0.00    -0.206 F 
ATOM     89  C   UNL     1      22.937   4.259   5.569  1.00  0.00     0.022 A 
BRANCH  86  90
ATOM     90  S   UNL     1      25.209   3.804   7.122  1.00  0.00     0.124 S 
ATOM     91  O   UNL     1      25.304   4.698   8.270  1.00  0.00    -0.237 OA
ATOM     92  O   UNL     1      25.467   2.392   7.385  1.00  0.00    -0.237 OA
ATOM     93  O   UNL     1      25.781   4.318   5.879  1.00  0.00    -0.744 OA
ENDBRANCH  86  90
ENDBRANCH  59  83
BRANCH  71  94
ATOM     94  C   UNL     1      19.893   6.241  13.905  1.00  0.00     0.023 A 
ATOM     95  C   UNL     1      19.849   7.578  13.473  1.00  0.00     0.031 A 
ATOM     96  C   UNL     1      20.621   5.946  15.072  1.00  0.00     0.131 A 
ATOM     97  C   UNL     1      20.574   8.560  14.165  1.00  0.00     0.055 A 
ATOM     98  C   UNL     1      21.293   6.936  15.789  1.00  0.00     0.041 A 
ATOM     99  F   UNL     1      20.696   4.686  15.529  1.00  0.00    -0.206 F 
ATOM    100  C   UNL     1      21.285   8.250  15.327  1.00  0.00     0.022 A 
BRANCH  97 101
ATOM    101  S   UNL     1      20.666  10.231  13.464  1.00  0.00     0.124 S 
ATOM    102  O   UNL     1      21.171   9.972  12.120  1.00  0.00    -0.237 OA
ATOM    103  O   UNL     1      19.279  10.679  13.548  1.00  0.00    -0.237 OA
ATOM    104  O   UNL     1      21.596  10.925  14.353  1.00  0.00    -0.744 OA
ENDBRANCH  97 101
ENDBRANCH  71  94
ENDBRANCH  45  46
ENDBRANCH  37  40
ENDBRANCH  35  36
ENDBRANCH  34  35
ENDBRANCH  33  34
ENDBRANCH  32  33
ENDBRANCH   1  32
TORSDOF 22
