REMARK SMILES COCCOc1ccc(C(=O)NCCCCCCNC(=O)c2ccc(-c3c4nc(c(-c5cc(S(=O)(=O)[O-])ccc5F)c5ccc([nH]5)c(-c5cc(S(=O)(=O)[O-])ccc5F)c5nc(c(-c6cc(S(=O)(=O)[O-])ccc6F)c6ccc3[nH]6)C=C5)C=C4)cc2)cc1Br
REMARK SMILES IDX 15 1 14 2 13 3 12 4 10 5 11 6 9 8 6 9 7 10 86 11 8 12 85 13
REMARK SMILES IDX 87 14 5 15 4 16 3 17 2 18 1 19 16 20 17 21 18 22 19 23 20 24
REMARK SMILES IDX 21 26 22 27 23 28 84 29 24 30 83 31 25 32 26 33 27 34 77 35
REMARK SMILES IDX 28 36 82 37 76 38 78 39 29 40 81 41 75 42 74 43 30 45 62 46
REMARK SMILES IDX 42 47 61 48 43 49 46 50 60 51 79 52 44 53 45 54 59 56 80 57
REMARK SMILES IDX 47 58 31 59 32 60 40 61 33 62 39 63 41 64 38 65 34 66 35 67
REMARK SMILES IDX 36 68 37 69 63 70 64 71 72 72 65 73 71 74 73 75 70 76 66 77
REMARK SMILES IDX 67 78 68 79 69 80 48 81 49 82 57 83 50 84 56 85 58 86 55 87
REMARK SMILES IDX 51 88 52 89 53 90 54 91
REMARK H PARENT 12 7 19 25 78 44 46 55
REMARK Flexibility Score: inf
ROOT
ATOM      1  C   UNL     1       1.231   6.363   0.142  1.00  0.00     0.002 C 
ENDROOT
BRANCH   1   2
ATOM      2  C   UNL     1       1.042   4.853  -0.011  1.00  0.00     0.021 C 
BRANCH   2   3
ATOM      3  C   UNL     1      -0.325   4.508  -0.619  1.00  0.00     0.116 C 
BRANCH   3   4
ATOM      4  N   UNL     1      -0.198   4.252  -2.044  1.00  0.00    -0.352 N 
ATOM      5  C   UNL     1      -0.004   3.114  -2.787  1.00  0.00     0.251 C 
ATOM      6  O   UNL     1       0.060   3.240  -4.010  1.00  0.00    -0.269 OA
ATOM      7  H   UNL     1      -0.265   5.067  -2.593  1.00  0.00     0.163 HD
BRANCH   5   8
ATOM      8  C   UNL     1       0.079   1.746  -2.199  1.00  0.00     0.041 A 
ATOM      9  C   UNL     1       0.076  -0.893  -1.139  1.00  0.00     0.133 A 
ATOM     10  C   UNL     1      -0.007  -0.656  -2.523  1.00  0.00     0.048 A 
ATOM     11  C   UNL     1       0.111   0.217  -0.294  1.00  0.00     0.060 A 
ATOM     12  C   UNL     1      -0.062   0.644  -3.045  1.00  0.00     0.018 A 
ATOM     13  C   UNL     1       0.258   1.494  -0.846  1.00  0.00     0.033 A 
ATOM     14  Br  UNL     1      -0.138   0.284   1.592  1.00  0.00    -0.047 Br
BRANCH   9  15
ATOM     15  O   UNL     1       0.234  -2.219  -0.858  1.00  0.00    -0.490 OA
BRANCH  15  16
ATOM     16  C   UNL     1      -0.092  -2.748   0.420  1.00  0.00     0.258 C 
BRANCH  16  17
ATOM     17  C   UNL     1       1.123  -3.053   1.313  1.00  0.00     0.201 C 
BRANCH  17  18
ATOM     18  O   UNL     1       1.904  -1.938   1.733  1.00  0.00    -0.381 OA
ATOM     19  C   UNL     1       2.966  -1.589   0.859  1.00  0.00     0.195 C 
ENDBRANCH  17  18
ENDBRANCH  16  17
ENDBRANCH  15  16
ENDBRANCH   9  15
ENDBRANCH   5   8
ENDBRANCH   3   4
ENDBRANCH   2   3
ENDBRANCH   1   2
BRANCH   1  20
ATOM     20  C   UNL     1       0.297   6.992   1.184  1.00  0.00     0.002 C 
BRANCH  20  21
ATOM     21  C   UNL     1       0.534   6.523   2.623  1.00  0.00     0.021 C 
BRANCH  21  22
ATOM     22  C   UNL     1       1.912   6.871   3.176  1.00  0.00     0.116 C 
BRANCH  22  23
ATOM     23  N   UNL     1       2.147   8.305   3.134  1.00  0.00    -0.352 N 
ATOM     24  C   UNL     1       2.374   9.185   4.159  1.00  0.00     0.251 C 
ATOM     25  H   UNL     1       2.143   8.704   2.233  1.00  0.00     0.163 HD
ATOM     26  O   UNL     1       2.225  10.387   3.965  1.00  0.00    -0.269 OA
BRANCH  24  27
ATOM     27  C   UNL     1       2.799   8.687   5.485  1.00  0.00     0.039 A 
ATOM     28  C   UNL     1       2.326   9.330   6.630  1.00  0.00     0.014 A 
ATOM     29  C   UNL     1       3.704   7.626   5.600  1.00  0.00     0.014 A 
ATOM     30  C   UNL     1       2.737   8.890   7.888  1.00  0.00     0.010 A 
ATOM     31  C   UNL     1       4.047   7.135   6.856  1.00  0.00     0.010 A 
ATOM     32  C   UNL     1       3.583   7.775   8.014  1.00  0.00    -0.014 A 
BRANCH  32  33
ATOM     33  C   UNL     1       3.998   7.288   9.354  1.00  0.00     0.031 A 
ATOM     34  C   UNL     1       5.446   7.332   9.763  1.00  0.00     0.074 A 
ATOM     35  C   UNL     1       3.068   6.788  10.190  1.00  0.00     0.049 A 
ATOM     36  N   UNL     1       5.998   6.963  10.890  1.00  0.00    -0.248 NA
ATOM     37  C   UNL     1       6.403   7.831   8.763  1.00  0.00     0.031 C 
ATOM     38  C   UNL     1       1.643   6.650   9.879  1.00  0.00     0.029 A 
ATOM     39  N   UNL     1       3.175   6.309  11.470  1.00  0.00    -0.354 N 
ATOM     40  C   UNL     1       7.364   7.180  10.735  1.00  0.00     0.074 A 
ATOM     41  C   UNL     1       7.561   7.645   9.379  1.00  0.00     0.031 C 
ATOM     42  C   UNL     1       1.003   6.164  10.953  1.00  0.00     0.029 A 
ATOM     43  C   UNL     1       1.974   5.911  12.012  1.00  0.00     0.049 A 
ATOM     44  H   UNL     1       4.029   6.255  11.956  1.00  0.00     0.167 HD
ATOM     45  C   UNL     1       8.356   7.031  11.648  1.00  0.00     0.034 A 
ATOM     46  C   UNL     1       1.690   5.398  13.226  1.00  0.00     0.034 A 
ATOM     47  C   UNL     1       8.135   6.569  12.998  1.00  0.00     0.049 A 
ATOM     48  C   UNL     1       2.812   5.228  14.218  1.00  0.00     0.074 A 
ATOM     49  C   UNL     1       9.055   6.426  14.022  1.00  0.00     0.029 A 
ATOM     50  N   UNL     1       6.908   6.166  13.511  1.00  0.00    -0.354 N 
ATOM     51  N   UNL     1       4.090   5.496  14.076  1.00  0.00    -0.248 NA
ATOM     52  C   UNL     1       2.449   4.702  15.538  1.00  0.00     0.031 C 
ATOM     53  C   UNL     1       8.401   5.866  15.125  1.00  0.00     0.029 A 
ATOM     54  C   UNL     1       7.054   5.742  14.824  1.00  0.00     0.049 A 
ATOM     55  H   UNL     1       6.058   6.178  13.014  1.00  0.00     0.167 HD
ATOM     56  C   UNL     1       4.678   5.200  15.303  1.00  0.00     0.074 A 
ATOM     57  C   UNL     1       3.608   4.758  16.175  1.00  0.00     0.031 C 
ATOM     58  C   UNL     1       5.981   5.287  15.677  1.00  0.00     0.034 A 
BRANCH  45  59
ATOM     59  C   UNL     1       9.766   7.346  11.203  1.00  0.00     0.023 A 
ATOM     60  C   UNL     1      10.139   8.633  10.774  1.00  0.00     0.031 A 
ATOM     61  C   UNL     1      10.750   6.341  11.185  1.00  0.00     0.131 A 
ATOM     62  C   UNL     1      11.430   8.862  10.275  1.00  0.00     0.055 A 
ATOM     63  C   UNL     1      12.059   6.596  10.769  1.00  0.00     0.041 A 
ATOM     64  F   UNL     1      10.453   5.086  11.560  1.00  0.00    -0.206 F 
ATOM     65  C   UNL     1      12.401   7.859  10.296  1.00  0.00     0.022 A 
BRANCH  62  66
ATOM     66  S   UNL     1      11.778  10.445   9.461  1.00  0.00     0.124 S 
ATOM     67  O   UNL     1      10.784  10.450   8.389  1.00  0.00    -0.237 OA
ATOM     68  O   UNL     1      11.563  11.407  10.536  1.00  0.00    -0.237 OA
ATOM     69  O   UNL     1      13.162  10.305   9.015  1.00  0.00    -0.744 OA
ENDBRANCH  62  66
ENDBRANCH  45  59
BRANCH  46  70
ATOM     70  C   UNL     1       0.292   5.011  13.575  1.00  0.00     0.023 A 
ATOM     71  C   UNL     1      -0.401   5.652  14.614  1.00  0.00     0.031 A 
ATOM     72  C   UNL     1      -0.358   3.963  12.899  1.00  0.00     0.131 A 
ATOM     73  C   UNL     1      -1.679   5.205  14.983  1.00  0.00     0.055 A 
ATOM     74  C   UNL     1      -1.653   3.562  13.230  1.00  0.00     0.041 A 
ATOM     75  F   UNL     1       0.256   3.319  11.893  1.00  0.00    -0.206 F 
ATOM     76  C   UNL     1      -2.316   4.175  14.289  1.00  0.00     0.022 A 
BRANCH  73  77
ATOM     77  S   UNL     1      -2.462   5.928  16.451  1.00  0.00     0.124 S 
ATOM     78  O   UNL     1      -1.469   5.652  17.483  1.00  0.00    -0.237 OA
ATOM     79  O   UNL     1      -2.608   7.326  16.058  1.00  0.00    -0.237 OA
ATOM     80  O   UNL     1      -3.712   5.183  16.572  1.00  0.00    -0.744 OA
ENDBRANCH  73  77
ENDBRANCH  46  70
BRANCH  58  81
ATOM     81  C   UNL     1       6.303   4.931  17.110  1.00  0.00     0.023 A 
ATOM     82  C   UNL     1       6.109   3.632  17.612  1.00  0.00     0.031 A 
ATOM     83  C   UNL     1       6.779   5.916  17.994  1.00  0.00     0.131 A 
ATOM     84  C   UNL     1       6.313   3.372  18.976  1.00  0.00     0.055 A 
ATOM     85  C   UNL     1       7.052   5.633  19.333  1.00  0.00     0.041 A 
ATOM     86  F   UNL     1       6.980   7.175  17.573  1.00  0.00    -0.206 F 
ATOM     87  C   UNL     1       6.802   4.359  19.835  1.00  0.00     0.022 A 
BRANCH  84  88
ATOM     88  S   UNL     1       5.807   1.761  19.637  1.00  0.00     0.124 S 
ATOM     89  O   UNL     1       4.399   1.707  19.259  1.00  0.00    -0.237 OA
ATOM     90  O   UNL     1       6.692   0.842  18.930  1.00  0.00    -0.237 OA
ATOM     91  O   UNL     1       6.060   1.885  21.072  1.00  0.00    -0.744 OA
ENDBRANCH  84  88
ENDBRANCH  58  81
ENDBRANCH  32  33
ENDBRANCH  24  27
ENDBRANCH  22  23
ENDBRANCH  21  22
ENDBRANCH  20  21
ENDBRANCH   1  20
TORSDOF 20
