REMARK SMILES O=C(Cn1nc(C2CC2)c2c(C(F)F)cc(-c3ccc(Cl)cc3)nc21)NCCCCCCNC(=O)c1ccc(-c2c3nc(c(-c4cc(S(=O)(=O)[O-])ccc4F)c4ccc([nH]4)c(-c4cc(S(=O)(=O)[O-])ccc4F)c4nc(c(-c5cc(S(=O)(=O)[O-])ccc5F)c5ccc2[nH]5)C=C4)C=C3)cc1
REMARK SMILES IDX 30 1 29 2 28 3 27 4 26 5 1 6 2 7 3 9 4 10 5 11 25 12 6 13
REMARK SMILES IDX 10 14 24 15 11 16 16 17 15 18 7 19 8 20 9 21 12 22 13 23
REMARK SMILES IDX 14 24 17 25 18 26 23 27 19 28 22 29 20 30 21 31 31 32 32 33
REMARK SMILES IDX 33 34 34 35 35 37 36 38 37 39 98 40 38 41 97 42 39 43 40 44
REMARK SMILES IDX 41 45 91 46 42 47 96 48 90 49 92 50 43 51 95 52 89 53 88 54
REMARK SMILES IDX 44 56 76 57 56 58 75 59 57 60 60 61 74 62 93 63 58 64 59 65
REMARK SMILES IDX 73 67 94 68 61 69 45 70 46 71 54 72 47 73 53 74 55 75 52 76
REMARK SMILES IDX 48 77 49 78 50 79 51 80 77 81 78 82 86 83 79 84 85 85 87 86
REMARK SMILES IDX 84 87 80 88 81 89 82 90 83 91 62 92 63 93 71 94 64 95 70 96
REMARK SMILES IDX 72 97 69 98 65 99 66 100 67 101 68 102
REMARK H PARENT 26 8 33 36 92 55 60 66
REMARK Flexibility Score: inf
ROOT
ATOM      1  C   UNL     1       4.552   2.622   3.437  1.00  0.00     0.002 C 
ENDROOT
BRANCH   1   2
ATOM      2  C   UNL     1       4.168   1.156   3.683  1.00  0.00     0.002 C 
BRANCH   2   3
ATOM      3  C   UNL     1       2.680   0.813   3.529  1.00  0.00     0.021 C 
BRANCH   3   4
ATOM      4  C   UNL     1       2.067   1.161   2.176  1.00  0.00     0.116 C 
BRANCH   4   5
ATOM      5  N   UNL     1       2.761   0.521   1.078  1.00  0.00    -0.354 N 
ATOM      6  O   UNL     1       0.870  -0.042  -0.112  1.00  0.00    -0.273 OA
ATOM      7  C   UNL     1       2.094   0.022  -0.024  1.00  0.00     0.241 C 
ATOM      8  H   UNL     1       3.741   0.438   1.119  1.00  0.00     0.163 HD
BRANCH   7   9
ATOM      9  C   UNL     1       2.993  -0.526  -1.102  1.00  0.00     0.246 C 
BRANCH   9  10
ATOM     10  N   UNL     1       3.743   0.459  -1.867  1.00  0.00    -0.237 N 
ATOM     11  N   UNL     1       4.689  -0.008  -2.698  1.00  0.00    -0.175 NA
ATOM     12  C   UNL     1       3.651   1.824  -1.883  1.00  0.00     0.159 A 
ATOM     13  C   UNL     1       5.248   1.083  -3.236  1.00  0.00     0.076 A 
ATOM     14  C   UNL     1       4.623   2.294  -2.783  1.00  0.00     0.051 A 
ATOM     15  N   UNL     1       2.777   2.550  -1.154  1.00  0.00    -0.228 NA
ATOM     16  C   UNL     1       4.673   3.706  -2.959  1.00  0.00     0.033 A 
ATOM     17  C   UNL     1       2.834   3.870  -1.351  1.00  0.00     0.073 A 
ATOM     18  C   UNL     1       3.740   4.465  -2.215  1.00  0.00     0.039 A 
BRANCH  13  19
ATOM     19  C   UNL     1       6.418   0.779  -4.168  1.00  0.00     0.041 C 
ATOM     20  C   UNL     1       6.923   1.680  -5.255  1.00  0.00     0.011 C 
ATOM     21  C   UNL     1       7.717   1.528  -3.999  1.00  0.00     0.011 C 
ENDBRANCH  13  19
BRANCH  16  22
ATOM     22  C   UNL     1       5.539   4.509  -3.893  1.00  0.00     0.373 C 
ATOM     23  F   UNL     1       6.867   4.256  -3.790  1.00  0.00    -0.205 F 
ATOM     24  F   UNL     1       5.194   4.353  -5.199  1.00  0.00    -0.205 F 
ENDBRANCH  16  22
BRANCH  17  25
ATOM     25  C   UNL     1       1.887   4.714  -0.615  1.00  0.00     0.000 A 
ATOM     26  C   UNL     1       2.080   5.003   0.745  1.00  0.00     0.012 A 
ATOM     27  C   UNL     1       0.840   5.362  -1.294  1.00  0.00     0.012 A 
ATOM     28  C   UNL     1       1.283   5.951   1.396  1.00  0.00     0.021 A 
ATOM     29  C   UNL     1       0.045   6.311  -0.647  1.00  0.00     0.021 A 
ATOM     30  C   UNL     1       0.281   6.613   0.691  1.00  0.00     0.041 A 
ATOM     31  Cl  UNL     1      -0.647   7.838   1.464  1.00  0.00    -0.084 Cl
ENDBRANCH  17  25
ENDBRANCH   9  10
ENDBRANCH   7   9
ENDBRANCH   4   5
ENDBRANCH   3   4
ENDBRANCH   2   3
ENDBRANCH   1   2
BRANCH   1  32
ATOM     32  C   UNL     1       3.837   3.659   4.314  1.00  0.00     0.021 C 
BRANCH  32  33
ATOM     33  C   UNL     1       4.122   3.508   5.804  1.00  0.00     0.116 C 
BRANCH  33  34
ATOM     34  N   UNL     1       5.510   3.821   6.129  1.00  0.00    -0.352 N 
ATOM     35  C   UNL     1       6.099   3.875   7.375  1.00  0.00     0.251 C 
ATOM     36  H   UNL     1       6.098   4.017   5.364  1.00  0.00     0.163 HD
ATOM     37  O   UNL     1       7.143   4.488   7.540  1.00  0.00    -0.269 OA
BRANCH  35  38
ATOM     38  C   UNL     1       5.458   3.170   8.501  1.00  0.00     0.039 A 
ATOM     39  C   UNL     1       5.419   3.755   9.772  1.00  0.00     0.014 A 
ATOM     40  C   UNL     1       4.931   1.897   8.282  1.00  0.00     0.014 A 
ATOM     41  C   UNL     1       4.795   3.072  10.812  1.00  0.00     0.010 A 
ATOM     42  C   UNL     1       4.239   1.260   9.285  1.00  0.00     0.010 A 
ATOM     43  C   UNL     1       4.204   1.828  10.557  1.00  0.00    -0.014 A 
BRANCH  43  44
ATOM     44  C   UNL     1       3.454   1.135  11.597  1.00  0.00     0.031 A 
ATOM     45  C   UNL     1       2.190   1.805  12.014  1.00  0.00     0.074 A 
ATOM     46  C   UNL     1       3.743  -0.135  11.945  1.00  0.00     0.049 A 
ATOM     47  N   UNL     1       1.883   2.279  13.177  1.00  0.00    -0.248 NA
ATOM     48  C   UNL     1       1.191   2.099  10.973  1.00  0.00     0.031 C 
ATOM     49  C   UNL     1       4.750  -1.020  11.348  1.00  0.00     0.029 A 
ATOM     50  N   UNL     1       3.098  -0.958  12.812  1.00  0.00    -0.354 N 
ATOM     51  C   UNL     1       0.574   2.747  13.069  1.00  0.00     0.074 A 
ATOM     52  C   UNL     1       0.277   2.786  11.660  1.00  0.00     0.031 C 
ATOM     53  C   UNL     1       4.482  -2.299  11.691  1.00  0.00     0.029 A 
ATOM     54  C   UNL     1       3.386  -2.306  12.644  1.00  0.00     0.049 A 
ATOM     55  H   UNL     1       2.478  -0.626  13.502  1.00  0.00     0.167 HD
ATOM     56  C   UNL     1      -0.250   2.851  14.153  1.00  0.00     0.034 A 
ATOM     57  C   UNL     1       2.717  -3.354  13.187  1.00  0.00     0.034 A 
ATOM     58  C   UNL     1       0.480   2.691  15.380  1.00  0.00     0.049 A 
ATOM     59  C   UNL     1       1.919  -2.838  14.325  1.00  0.00     0.074 A 
ATOM     60  C   UNL     1       1.506   3.377  15.996  1.00  0.00     0.029 A 
ATOM     61  N   UNL     1       0.429   1.455  15.979  1.00  0.00    -0.354 N 
ATOM     62  N   UNL     1       2.439  -2.395  15.435  1.00  0.00    -0.248 NA
ATOM     63  C   UNL     1       0.559  -2.396  14.051  1.00  0.00     0.031 C 
ATOM     64  C   UNL     1       2.312   2.368  16.594  1.00  0.00     0.029 A 
ATOM     65  C   UNL     1       1.702   1.132  16.369  1.00  0.00     0.049 A 
ATOM     66  H   UNL     1      -0.376   0.902  16.105  1.00  0.00     0.167 HD
ATOM     67  C   UNL     1       1.678  -1.279  15.748  1.00  0.00     0.074 A 
ATOM     68  C   UNL     1       0.470  -1.397  14.932  1.00  0.00     0.031 C 
ATOM     69  C   UNL     1       2.227  -0.217  16.405  1.00  0.00     0.034 A 
BRANCH  56  70
ATOM     70  C   UNL     1      -1.754   2.737  14.102  1.00  0.00     0.023 A 
ATOM     71  C   UNL     1      -2.437   2.190  13.001  1.00  0.00     0.031 A 
ATOM     72  C   UNL     1      -2.529   2.955  15.260  1.00  0.00     0.131 A 
ATOM     73  C   UNL     1      -3.806   1.900  13.053  1.00  0.00     0.055 A 
ATOM     74  C   UNL     1      -3.883   2.602  15.336  1.00  0.00     0.041 A 
ATOM     75  F   UNL     1      -1.978   3.461  16.375  1.00  0.00    -0.206 F 
ATOM     76  C   UNL     1      -4.530   2.071  14.227  1.00  0.00     0.022 A 
BRANCH  73  77
ATOM     77  S   UNL     1      -4.658   1.260  11.586  1.00  0.00     0.124 S 
ATOM     78  O   UNL     1      -5.166  -0.020  12.068  1.00  0.00    -0.237 OA
ATOM     79  O   UNL     1      -5.662   2.295  11.353  1.00  0.00    -0.237 OA
ATOM     80  O   UNL     1      -3.600   1.187  10.582  1.00  0.00    -0.744 OA
ENDBRANCH  73  77
ENDBRANCH  56  70
BRANCH  57  81
ATOM     81  C   UNL     1       2.399  -4.644  12.530  1.00  0.00     0.023 A 
ATOM     82  C   UNL     1       2.377  -4.734  11.127  1.00  0.00     0.031 A 
ATOM     83  C   UNL     1       1.810  -5.699  13.250  1.00  0.00     0.131 A 
ATOM     84  C   UNL     1       1.723  -5.795  10.487  1.00  0.00     0.055 A 
ATOM     85  C   UNL     1       1.170  -6.768  12.610  1.00  0.00     0.041 A 
ATOM     86  F   UNL     1       1.777  -5.674  14.592  1.00  0.00    -0.206 F 
ATOM     87  C   UNL     1       1.109  -6.811  11.220  1.00  0.00     0.022 A 
BRANCH  84  88
ATOM     88  S   UNL     1       1.607  -5.812   8.678  1.00  0.00     0.124 S 
ATOM     89  O   UNL     1       1.725  -7.234   8.363  1.00  0.00    -0.237 OA
ATOM     90  O   UNL     1       0.290  -5.225   8.459  1.00  0.00    -0.237 OA
ATOM     91  O   UNL     1       2.744  -4.995   8.261  1.00  0.00    -0.744 OA
ENDBRANCH  84  88
ENDBRANCH  57  81
BRANCH  69  92
ATOM     92  C   UNL     1       3.607  -0.365  17.001  1.00  0.00     0.023 A 
ATOM     93  C   UNL     1       3.762   0.007  18.345  1.00  0.00     0.031 A 
ATOM     94  C   UNL     1       4.775  -0.604  16.252  1.00  0.00     0.131 A 
ATOM     95  C   UNL     1       5.040   0.180  18.885  1.00  0.00     0.055 A 
ATOM     96  C   UNL     1       6.051  -0.493  16.813  1.00  0.00     0.041 A 
ATOM     97  F   UNL     1       4.726  -0.862  14.941  1.00  0.00    -0.206 F 
ATOM     98  C   UNL     1       6.189  -0.082  18.133  1.00  0.00     0.022 A 
BRANCH  95  99
ATOM     99  S   UNL     1       5.240   0.892  20.536  1.00  0.00     0.124 S 
ATOM    100  O   UNL     1       5.965  -0.161  21.242  1.00  0.00    -0.237 OA
ATOM    101  O   UNL     1       6.008   2.103  20.256  1.00  0.00    -0.237 OA
ATOM    102  O   UNL     1       3.871   1.119  20.992  1.00  0.00    -0.744 OA
ENDBRANCH  95  99
ENDBRANCH  69  92
ENDBRANCH  43  44
ENDBRANCH  35  38
ENDBRANCH  33  34
ENDBRANCH  32  33
ENDBRANCH   1  32
TORSDOF 20
