REMARK SMILES C[C@H](C(=O)NCCCCCCNC(=O)c1ccc(-c2c3nc(c(-c4cc(S(=O)(=O)[O-])ccc4F)c4ccc([nH]4)c(-c4cc(S(=O)(=O)[O-])ccc4F)c4nc(c(-c5cc(S(=O)(=O)[O-])ccc5F)c5ccc2[nH]5)C=C4)C=C3)cc1)[N@@H+](C)C[C@@H]1CCC[N@H+]1C
REMARK SMILES IDX 8 1 7 2 6 3 5 4 3 5 4 6 2 8 1 9 78 10 79 11 80 13 81 14
REMARK SMILES IDX 82 15 85 16 83 17 84 18 86 19 9 21 10 22 11 23 12 24 13 25
REMARK SMILES IDX 14 27 15 28 16 29 77 30 17 31 76 32 18 33 19 34 20 35 70 36
REMARK SMILES IDX 21 37 75 38 69 39 71 40 22 41 74 42 68 43 67 44 23 46 55 47
REMARK SMILES IDX 35 48 54 49 36 50 39 51 53 52 72 53 37 54 38 55 52 57 73 58
REMARK SMILES IDX 40 59 24 60 25 61 33 62 26 63 32 64 34 65 31 66 27 67 28 68
REMARK SMILES IDX 29 69 30 70 56 71 57 72 65 73 58 74 64 75 66 76 63 77 59 78
REMARK SMILES IDX 60 79 61 80 62 81 41 82 42 83 50 84 43 85 49 86 51 87 48 88
REMARK SMILES IDX 44 89 45 90 46 91 47 92
REMARK H PARENT 5 7 78 12 85 20 12 26 71 45 39 56
REMARK Flexibility Score: inf
ROOT
ATOM      1  C   UNL     1      -1.054  -8.400  -6.569  1.00  0.00     0.002 C 
ENDROOT
BRANCH   1   2
ATOM      2  C   UNL     1      -2.224  -7.479  -6.223  1.00  0.00     0.021 C 
BRANCH   2   3
ATOM      3  C   UNL     1      -2.268  -7.076  -4.758  1.00  0.00     0.116 C 
BRANCH   3   4
ATOM      4  N   UNL     1      -1.038  -6.423  -4.364  1.00  0.00    -0.351 N 
ATOM      5  C   UNL     1      -0.865  -5.194  -3.797  1.00  0.00     0.278 C 
ATOM      6  O   UNL     1       0.292  -4.772  -3.736  1.00  0.00    -0.268 OA
ATOM      7  H   UNL     1      -0.214  -6.936  -4.529  1.00  0.00     0.163 HD
BRANCH   5   8
ATOM      8  C   UNL     1      -2.123  -4.450  -3.276  1.00  0.00     0.270 C 
ATOM      9  C   UNL     1      -2.809  -5.313  -2.211  1.00  0.00     0.086 C 
BRANCH   8  10
ATOM     10  N   UNL     1      -1.804  -3.077  -2.873  1.00  0.00    -0.322 N 
ATOM     11  C   UNL     1      -2.691  -2.016  -3.278  1.00  0.00     0.333 C 
ATOM     12  H   UNL     1      -1.085  -2.998  -3.592  1.00  0.00     0.348 HD
BRANCH  10  13
ATOM     13  C   UNL     1      -0.833  -2.812  -1.820  1.00  0.00     0.328 C 
BRANCH  13  14
ATOM     14  C   UNL     1      -1.336  -2.460  -0.388  1.00  0.00     0.239 C 
ATOM     15  C   UNL     1      -0.169  -2.565   0.608  1.00  0.00     0.077 C 
ATOM     16  N   UNL     1      -2.342  -3.406   0.114  1.00  0.00    -0.330 N 
ATOM     17  C   UNL     1      -0.392  -3.882   1.329  1.00  0.00     0.068 C 
ATOM     18  C   UNL     1      -1.899  -4.013   1.360  1.00  0.00     0.262 C 
ATOM     19  C   UNL     1      -3.694  -2.876   0.178  1.00  0.00     0.333 C 
ATOM     20  H   UNL     1      -2.416  -4.146  -0.584  1.00  0.00     0.348 HD
ENDBRANCH  13  14
ENDBRANCH  10  13
ENDBRANCH   8  10
ENDBRANCH   5   8
ENDBRANCH   3   4
ENDBRANCH   2   3
ENDBRANCH   1   2
BRANCH   1  21
ATOM     21  C   UNL     1      -0.953  -9.650  -5.691  1.00  0.00     0.002 C 
BRANCH  21  22
ATOM     22  C   UNL     1      -2.209 -10.522  -5.681  1.00  0.00     0.021 C 
BRANCH  22  23
ATOM     23  C   UNL     1      -2.708 -10.907  -7.067  1.00  0.00     0.116 C 
BRANCH  23  24
ATOM     24  N   UNL     1      -1.689 -11.603  -7.834  1.00  0.00    -0.352 N 
ATOM     25  C   UNL     1      -1.809 -12.755  -8.566  1.00  0.00     0.251 C 
ATOM     26  H   UNL     1      -0.794 -11.193  -7.827  1.00  0.00     0.163 HD
ATOM     27  O   UNL     1      -0.805 -13.325  -8.986  1.00  0.00    -0.269 OA
BRANCH  25  28
ATOM     28  C   UNL     1      -3.154 -13.307  -8.818  1.00  0.00     0.039 A 
ATOM     29  C   UNL     1      -3.367 -14.675  -8.646  1.00  0.00     0.014 A 
ATOM     30  C   UNL     1      -4.202 -12.468  -9.209  1.00  0.00     0.014 A 
ATOM     31  C   UNL     1      -4.647 -15.197  -8.830  1.00  0.00     0.010 A 
ATOM     32  C   UNL     1      -5.491 -12.975  -9.306  1.00  0.00     0.010 A 
ATOM     33  C   UNL     1      -5.723 -14.349  -9.140  1.00  0.00    -0.014 A 
BRANCH  33  34
ATOM     34  C   UNL     1      -7.091 -14.886  -9.344  1.00  0.00     0.031 A 
ATOM     35  C   UNL     1      -7.747 -14.762 -10.692  1.00  0.00     0.074 A 
ATOM     36  C   UNL     1      -7.757 -15.436  -8.310  1.00  0.00     0.049 A 
ATOM     37  N   UNL     1      -8.950 -15.113 -11.065  1.00  0.00    -0.248 NA
ATOM     38  C   UNL     1      -6.952 -14.123 -11.751  1.00  0.00     0.031 C 
ATOM     39  C   UNL     1      -7.236 -15.579  -6.949  1.00  0.00     0.029 A 
ATOM     40  N   UNL     1      -9.015 -15.978  -8.243  1.00  0.00    -0.354 N 
ATOM     41  C   UNL     1      -9.063 -14.720 -12.395  1.00  0.00     0.074 A 
ATOM     42  C   UNL     1      -7.834 -14.036 -12.734  1.00  0.00     0.031 C 
ATOM     43  C   UNL     1      -8.151 -16.206  -6.193  1.00  0.00     0.029 A 
ATOM     44  C   UNL     1      -9.340 -16.465  -6.999  1.00  0.00     0.049 A 
ATOM     45  H   UNL     1      -9.627 -16.015  -9.013  1.00  0.00     0.167 HD
ATOM     46  C   UNL     1     -10.086 -14.933 -13.260  1.00  0.00     0.034 A 
ATOM     47  C   UNL     1     -10.471 -17.050  -6.559  1.00  0.00     0.034 A 
ATOM     48  C   UNL     1     -11.299 -15.628 -12.902  1.00  0.00     0.049 A 
ATOM     49  C   UNL     1     -11.608 -17.253  -7.528  1.00  0.00     0.074 A 
ATOM     50  C   UNL     1     -12.377 -15.952 -13.705  1.00  0.00     0.029 A 
ATOM     51  N   UNL     1     -11.600 -16.098 -11.628  1.00  0.00    -0.354 N 
ATOM     52  N   UNL     1     -11.685 -16.922  -8.797  1.00  0.00    -0.248 NA
ATOM     53  C   UNL     1     -12.807 -17.920  -7.006  1.00  0.00     0.031 C 
ATOM     54  C   UNL     1     -13.360 -16.544 -12.903  1.00  0.00     0.029 A 
ATOM     55  C   UNL     1     -12.861 -16.675 -11.617  1.00  0.00     0.049 A 
ATOM     56  H   UNL     1     -11.004 -16.030 -10.847  1.00  0.00     0.167 HD
ATOM     57  C   UNL     1     -12.925 -17.381  -9.235  1.00  0.00     0.074 A 
ATOM     58  C   UNL     1     -13.556 -18.014  -8.094  1.00  0.00     0.031 C 
ATOM     59  C   UNL     1     -13.485 -17.296 -10.469  1.00  0.00     0.034 A 
BRANCH  46  60
ATOM     60  C   UNL     1      -9.939 -14.371 -14.657  1.00  0.00     0.023 A 
ATOM     61  C   UNL     1      -8.883 -14.755 -15.504  1.00  0.00     0.031 A 
ATOM     62  C   UNL     1     -10.830 -13.391 -15.129  1.00  0.00     0.131 A 
ATOM     63  C   UNL     1      -8.682 -14.090 -16.723  1.00  0.00     0.055 A 
ATOM     64  C   UNL     1     -10.683 -12.804 -16.388  1.00  0.00     0.041 A 
ATOM     65  F   UNL     1     -11.846 -12.964 -14.363  1.00  0.00    -0.206 F 
ATOM     66  C   UNL     1      -9.591 -13.136 -17.184  1.00  0.00     0.022 A 
BRANCH  63  67
ATOM     67  S   UNL     1      -7.114 -14.349 -17.599  1.00  0.00     0.124 S 
ATOM     68  O   UNL     1      -6.140 -13.977 -16.576  1.00  0.00    -0.237 OA
ATOM     69  O   UNL     1      -7.174 -15.765 -17.941  1.00  0.00    -0.237 OA
ATOM     70  O   UNL     1      -7.198 -13.428 -18.731  1.00  0.00    -0.744 OA
ENDBRANCH  63  67
ENDBRANCH  46  60
BRANCH  47  71
ATOM     71  C   UNL     1     -10.582 -17.502  -5.143  1.00  0.00     0.023 A 
ATOM     72  C   UNL     1     -10.700 -18.865  -4.830  1.00  0.00     0.031 A 
ATOM     73  C   UNL     1     -10.596 -16.578  -4.083  1.00  0.00     0.131 A 
ATOM     74  C   UNL     1     -10.867 -19.264  -3.495  1.00  0.00     0.055 A 
ATOM     75  C   UNL     1     -10.710 -16.983  -2.753  1.00  0.00     0.041 A 
ATOM     76  F   UNL     1     -10.480 -15.262  -4.328  1.00  0.00    -0.206 F 
ATOM     77  C   UNL     1     -10.859 -18.334  -2.453  1.00  0.00     0.022 A 
BRANCH  74  78
ATOM     78  S   UNL     1     -11.168 -21.018  -3.144  1.00  0.00     0.124 S 
ATOM     79  O   UNL     1     -12.395 -21.264  -3.893  1.00  0.00    -0.237 OA
ATOM     80  O   UNL     1      -9.959 -21.644  -3.668  1.00  0.00    -0.237 OA
ATOM     81  O   UNL     1     -11.305 -21.055  -1.690  1.00  0.00    -0.744 OA
ENDBRANCH  74  78
ENDBRANCH  47  71
BRANCH  59  82
ATOM     82  C   UNL     1     -14.827 -17.961 -10.662  1.00  0.00     0.023 A 
ATOM     83  C   UNL     1     -15.985 -17.515 -10.001  1.00  0.00     0.031 A 
ATOM     84  C   UNL     1     -14.944 -19.073 -11.517  1.00  0.00     0.131 A 
ATOM     85  C   UNL     1     -17.192 -18.214 -10.155  1.00  0.00     0.055 A 
ATOM     86  C   UNL     1     -16.162 -19.721 -11.721  1.00  0.00     0.041 A 
ATOM     87  F   UNL     1     -13.871 -19.546 -12.173  1.00  0.00    -0.206 F 
ATOM     88  C   UNL     1     -17.292 -19.302 -11.026  1.00  0.00     0.022 A 
BRANCH  85  89
ATOM     89  S   UNL     1     -18.606 -17.751  -9.118  1.00  0.00     0.124 S 
ATOM     90  O   UNL     1     -18.057 -17.896  -7.774  1.00  0.00    -0.237 OA
ATOM     91  O   UNL     1     -18.877 -16.384  -9.552  1.00  0.00    -0.237 OA
ATOM     92  O   UNL     1     -19.631 -18.730  -9.478  1.00  0.00    -0.744 OA
ENDBRANCH  85  89
ENDBRANCH  59  82
ENDBRANCH  33  34
ENDBRANCH  25  28
ENDBRANCH  23  24
ENDBRANCH  22  23
ENDBRANCH  21  22
ENDBRANCH   1  21
TORSDOF 19
