REMARK SMILES O=C(Cn1cnc(-c2ccccc2)c1-c1ccccc1)NCCCCCCNC(=O)c1ccc(-c2c3nc(c(-c4cc(S(=O)(=O)[O-])ccc4F)c4ccc([nH]4)c(-c4cc(S(=O)(=O)[O-])ccc4F)c4nc(c(-c5cc(S(=O)(=O)[O-])ccc5F)c5ccc2[nH]5)C=C4)C=C3)cc1
REMARK SMILES IDX 25 1 24 2 23 3 22 4 21 5 1 6 2 7 3 9 4 10 5 11 14 12 6 13
REMARK SMILES IDX 7 14 15 15 16 16 20 17 17 18 19 19 18 20 8 21 9 22 13 23
REMARK SMILES IDX 10 24 12 25 11 26 26 27 27 28 28 29 29 30 30 32 31 33 32 34
REMARK SMILES IDX 93 35 33 36 92 37 34 38 35 39 36 40 86 41 37 42 91 43 85 44
REMARK SMILES IDX 87 45 38 46 90 47 84 48 83 49 39 51 71 52 51 53 70 54 52 55
REMARK SMILES IDX 55 56 69 57 88 58 53 59 54 60 68 62 89 63 56 64 40 65 41 66
REMARK SMILES IDX 49 67 42 68 48 69 50 70 47 71 43 72 44 73 45 74 46 75 72 76
REMARK SMILES IDX 73 77 81 78 74 79 80 80 82 81 79 82 75 83 76 84 77 85 78 86
REMARK SMILES IDX 57 87 58 88 66 89 59 90 65 91 67 92 64 93 60 94 61 95 62 96
REMARK SMILES IDX 63 97
REMARK H PARENT 21 8 28 31 87 50 55 61
REMARK Flexibility Score: inf
ROOT
ATOM      1  C   UNL     1       4.750   3.456   2.542  1.00  0.00     0.002 C 
ENDROOT
BRANCH   1   2
ATOM      2  C   UNL     1       4.287   2.136   3.175  1.00  0.00     0.002 C 
BRANCH   2   3
ATOM      3  C   UNL     1       2.788   1.825   3.075  1.00  0.00     0.021 C 
BRANCH   3   4
ATOM      4  C   UNL     1       2.225   1.800   1.656  1.00  0.00     0.116 C 
BRANCH   4   5
ATOM      5  N   UNL     1       2.886   0.802   0.838  1.00  0.00    -0.355 N 
ATOM      6  O   UNL     1       0.982  -0.028  -0.146  1.00  0.00    -0.273 OA
ATOM      7  C   UNL     1       2.202  -0.040  -0.013  1.00  0.00     0.239 C 
ATOM      8  H   UNL     1       3.866   0.723   0.891  1.00  0.00     0.163 HD
BRANCH   7   9
ATOM      9  C   UNL     1       3.083  -0.995  -0.789  1.00  0.00     0.223 C 
BRANCH   9  10
ATOM     10  N   UNL     1       3.861  -0.376  -1.855  1.00  0.00    -0.321 N 
ATOM     11  C   UNL     1       3.904   0.957  -2.169  1.00  0.00     0.201 A 
ATOM     12  C   UNL     1       4.743  -1.032  -2.699  1.00  0.00     0.076 A 
ATOM     13  N   UNL     1       4.779   1.213  -3.111  1.00  0.00    -0.236 NA
ATOM     14  C   UNL     1       5.273  -0.011  -3.479  1.00  0.00     0.096 A 
BRANCH  12  15
ATOM     15  C   UNL     1       5.015  -2.469  -2.716  1.00  0.00     0.000 A 
ATOM     16  C   UNL     1       6.328  -2.935  -2.559  1.00  0.00     0.010 A 
ATOM     17  C   UNL     1       3.998  -3.391  -2.991  1.00  0.00     0.010 A 
ATOM     18  C   UNL     1       6.620  -4.295  -2.686  1.00  0.00     0.001 A 
ATOM     19  C   UNL     1       4.289  -4.753  -3.107  1.00  0.00     0.001 A 
ATOM     20  C   UNL     1       5.600  -5.203  -2.962  1.00  0.00     0.000 A 
ENDBRANCH  12  15
BRANCH  14  21
ATOM     21  C   UNL     1       6.207  -0.178  -4.575  1.00  0.00     0.002 A 
ATOM     22  C   UNL     1       7.415   0.526  -4.584  1.00  0.00     0.010 A 
ATOM     23  C   UNL     1       5.904  -1.040  -5.637  1.00  0.00     0.010 A 
ATOM     24  C   UNL     1       8.320   0.350  -5.633  1.00  0.00     0.001 A 
ATOM     25  C   UNL     1       6.806  -1.210  -6.687  1.00  0.00     0.001 A 
ATOM     26  C   UNL     1       8.015  -0.518  -6.682  1.00  0.00     0.000 A 
ENDBRANCH  14  21
ENDBRANCH   9  10
ENDBRANCH   7   9
ENDBRANCH   4   5
ENDBRANCH   3   4
ENDBRANCH   2   3
ENDBRANCH   1   2
BRANCH   1  27
ATOM     27  C   UNL     1       4.049   4.731   3.027  1.00  0.00     0.021 C 
BRANCH  27  28
ATOM     28  C   UNL     1       4.175   4.999   4.523  1.00  0.00     0.116 C 
BRANCH  28  29
ATOM     29  N   UNL     1       5.546   5.285   4.934  1.00  0.00    -0.352 N 
ATOM     30  C   UNL     1       6.029   5.499   6.213  1.00  0.00     0.251 C 
ATOM     31  H   UNL     1       6.211   5.331   4.209  1.00  0.00     0.163 HD
ATOM     32  O   UNL     1       7.070   6.116   6.381  1.00  0.00    -0.269 OA
BRANCH  30  33
ATOM     33  C   UNL     1       5.265   4.980   7.367  1.00  0.00     0.039 A 
ATOM     34  C   UNL     1       5.149   5.721   8.547  1.00  0.00     0.014 A 
ATOM     35  C   UNL     1       4.649   3.736   7.253  1.00  0.00     0.014 A 
ATOM     36  C   UNL     1       4.331   5.239   9.570  1.00  0.00     0.010 A 
ATOM     37  C   UNL     1       3.744   3.326   8.204  1.00  0.00     0.010 A 
ATOM     38  C   UNL     1       3.604   4.052   9.383  1.00  0.00    -0.014 A 
BRANCH  38  39
ATOM     39  C   UNL     1       2.569   3.646  10.336  1.00  0.00     0.031 A 
ATOM     40  C   UNL     1       1.561   4.700  10.627  1.00  0.00     0.074 A 
ATOM     41  C   UNL     1       2.377   2.371  10.746  1.00  0.00     0.049 A 
ATOM     42  N   UNL     1       1.391   5.332  11.740  1.00  0.00    -0.248 NA
ATOM     43  C   UNL     1       0.754   5.234   9.518  1.00  0.00     0.031 C 
ATOM     44  C   UNL     1       3.126   1.179  10.337  1.00  0.00     0.029 A 
ATOM     45  N   UNL     1       1.386   1.847  11.523  1.00  0.00    -0.354 N 
ATOM     46  C   UNL     1       0.278   6.143  11.552  1.00  0.00     0.074 A 
ATOM     47  C   UNL     1       0.087   6.216  10.128  1.00  0.00     0.031 C 
ATOM     48  C   UNL     1       2.427   0.070  10.663  1.00  0.00     0.029 A 
ATOM     49  C   UNL     1       1.262   0.459  11.439  1.00  0.00     0.049 A 
ATOM     50  H   UNL     1       0.806   2.400  12.095  1.00  0.00     0.167 HD
ATOM     51  C   UNL     1      -0.545   6.450  12.595  1.00  0.00     0.034 A 
ATOM     52  C   UNL     1       0.270  -0.324  11.945  1.00  0.00     0.034 A 
ATOM     53  C   UNL     1       0.096   6.148  13.860  1.00  0.00     0.049 A 
ATOM     54  C   UNL     1      -0.342   0.437  13.061  1.00  0.00     0.074 A 
ATOM     55  C   UNL     1       1.295   6.510  14.448  1.00  0.00     0.029 A 
ATOM     56  N   UNL     1      -0.328   5.035  14.556  1.00  0.00    -0.354 N 
ATOM     57  N   UNL     1       0.301   0.728  14.158  1.00  0.00    -0.248 NA
ATOM     58  C   UNL     1      -1.482   1.294  12.771  1.00  0.00     0.031 C 
ATOM     59  C   UNL     1       1.767   5.319  15.076  1.00  0.00     0.029 A 
ATOM     60  C   UNL     1       0.791   4.332  14.930  1.00  0.00     0.049 A 
ATOM     61  H   UNL     1      -1.262   4.789  14.748  1.00  0.00     0.167 HD
ATOM     62  C   UNL     1      -0.038   2.044  14.428  1.00  0.00     0.074 A 
ATOM     63  C   UNL     1      -1.228   2.299  13.616  1.00  0.00     0.031 C 
ATOM     64  C   UNL     1       0.840   2.887  15.050  1.00  0.00     0.034 A 
BRANCH  51  65
ATOM     65  C   UNL     1      -2.047   6.634  12.491  1.00  0.00     0.023 A 
ATOM     66  C   UNL     1      -2.735   6.903  13.691  1.00  0.00     0.031 A 
ATOM     67  C   UNL     1      -2.858   6.265  11.394  1.00  0.00     0.131 A 
ATOM     68  C   UNL     1      -4.113   6.660  13.806  1.00  0.00     0.055 A 
ATOM     69  C   UNL     1      -4.243   6.100  11.494  1.00  0.00     0.041 A 
ATOM     70  F   UNL     1      -2.362   5.955  10.192  1.00  0.00    -0.206 F 
ATOM     71  C   UNL     1      -4.875   6.256  12.714  1.00  0.00     0.022 A 
BRANCH  68  72
ATOM     72  S   UNL     1      -4.843   6.675  15.462  1.00  0.00     0.124 S 
ATOM     73  O   UNL     1      -3.987   5.722  16.161  1.00  0.00    -0.237 OA
ATOM     74  O   UNL     1      -4.694   8.076  15.841  1.00  0.00    -0.237 OA
ATOM     75  O   UNL     1      -6.215   6.233  15.231  1.00  0.00    -0.744 OA
ENDBRANCH  68  72
ENDBRANCH  51  65
BRANCH  52  76
ATOM     76  C   UNL     1      -0.316  -1.571  11.371  1.00  0.00     0.023 A 
ATOM     77  C   UNL     1      -1.132  -2.452  12.116  1.00  0.00     0.031 A 
ATOM     78  C   UNL     1      -0.275  -1.786   9.974  1.00  0.00     0.131 A 
ATOM     79  C   UNL     1      -1.862  -3.478  11.465  1.00  0.00     0.055 A 
ATOM     80  C   UNL     1      -0.992  -2.802   9.338  1.00  0.00     0.041 A 
ATOM     81  F   UNL     1       0.397  -0.956   9.160  1.00  0.00    -0.206 F 
ATOM     82  C   UNL     1      -1.800  -3.646  10.080  1.00  0.00     0.022 A 
BRANCH  79  83
ATOM     83  S   UNL     1      -3.003  -4.554  12.399  1.00  0.00     0.124 S 
ATOM     84  O   UNL     1      -2.085  -5.423  13.125  1.00  0.00    -0.237 OA
ATOM     85  O   UNL     1      -3.761  -3.597  13.195  1.00  0.00    -0.237 OA
ATOM     86  O   UNL     1      -3.777  -5.220  11.350  1.00  0.00    -0.744 OA
ENDBRANCH  79  83
ENDBRANCH  52  76
BRANCH  64  87
ATOM     87  C   UNL     1       2.061   2.294  15.728  1.00  0.00     0.023 A 
ATOM     88  C   UNL     1       3.021   1.468  15.099  1.00  0.00     0.031 A 
ATOM     89  C   UNL     1       2.312   2.684  17.056  1.00  0.00     0.131 A 
ATOM     90  C   UNL     1       4.167   1.050  15.806  1.00  0.00     0.055 A 
ATOM     91  C   UNL     1       3.459   2.290  17.744  1.00  0.00     0.041 A 
ATOM     92  F   UNL     1       1.454   3.490  17.704  1.00  0.00    -0.206 F 
ATOM     93  C   UNL     1       4.388   1.464  17.123  1.00  0.00     0.022 A 
BRANCH  90  94
ATOM     94  S   UNL     1       5.385  -0.064  15.032  1.00  0.00     0.124 S 
ATOM     95  O   UNL     1       4.563  -1.110  14.435  1.00  0.00    -0.237 OA
ATOM     96  O   UNL     1       6.073   0.821  14.095  1.00  0.00    -0.237 OA
ATOM     97  O   UNL     1       6.206  -0.506  16.161  1.00  0.00    -0.744 OA
ENDBRANCH  90  94
ENDBRANCH  64  87
ENDBRANCH  38  39
ENDBRANCH  30  33
ENDBRANCH  28  29
ENDBRANCH  27  28
ENDBRANCH   1  27
TORSDOF 19
