REMARK SMILES [NH3+][C@@H](C(=O)NCCCCCCNC(=O)c1ccc(-c2c3nc(c(-c4cc(S(=O)(=O)[O-])ccc4F)c4ccc([nH]4)c(-c4cc(S(=O)(=O)[O-])ccc4F)c4nc(c(-c5cc(S(=O)(=O)[O-])ccc5F)c5ccc2[nH]5)C=C4)C=C3)cc1)C(C(F)(F)F)C(F)(F)F
REMARK SMILES IDX 9 1 8 2 7 3 6 4 5 5 3 6 4 7 2 9 1 10 78 14 79 15 80 16 81 17
REMARK SMILES IDX 82 18 83 19 84 20 85 21 86 22 10 23 11 24 12 25 13 26 14 28
REMARK SMILES IDX 15 29 16 30 77 31 17 32 76 33 18 34 19 35 20 36 70 37 21 38
REMARK SMILES IDX 75 39 69 40 71 41 22 42 74 43 68 44 67 45 23 47 55 48 35 49
REMARK SMILES IDX 54 50 36 51 39 52 53 53 72 54 37 55 38 56 52 58 73 59 40 60
REMARK SMILES IDX 24 61 25 62 33 63 26 64 32 65 34 66 31 67 27 68 28 69 29 70
REMARK SMILES IDX 30 71 56 72 57 73 65 74 58 75 64 76 66 77 63 78 59 79 60 80
REMARK SMILES IDX 61 81 62 82 41 83 42 84 50 85 43 86 49 87 51 88 48 89 44 90
REMARK SMILES IDX 45 91 46 92 47 93
REMARK H PARENT 5 8 1 11 1 12 1 13 12 27 71 46 39 57
REMARK Flexibility Score: inf
ROOT
ATOM      1  C   UNL     1       5.913  -3.121   0.932  1.00  0.00     0.002 C 
ENDROOT
BRANCH   1   2
ATOM      2  C   UNL     1       4.971  -2.145   1.643  1.00  0.00     0.002 C 
BRANCH   2   3
ATOM      3  C   UNL     1       4.225  -1.167   0.722  1.00  0.00     0.021 C 
BRANCH   3   4
ATOM      4  C   UNL     1       3.332  -1.845  -0.322  1.00  0.00     0.116 C 
BRANCH   4   5
ATOM      5  N   UNL     1       2.242  -2.551   0.330  1.00  0.00    -0.351 N 
ATOM      6  C   UNL     1       0.941  -2.177   0.479  1.00  0.00     0.279 C 
ATOM      7  O   UNL     1       0.266  -2.714   1.358  1.00  0.00    -0.268 OA
ATOM      8  H   UNL     1       2.477  -3.424   0.720  1.00  0.00     0.163 HD
BRANCH   6   9
ATOM      9  C   UNL     1       0.368  -1.045  -0.399  1.00  0.00     0.292 C 
BRANCH   9  10
ATOM     10  N   UNL     1       0.708   0.231   0.265  1.00  0.00    -0.346 N 
ATOM     11  H   UNL     1       1.721   0.302   0.366  1.00  0.00     0.345 HD
ATOM     12  H   UNL     1       0.272   0.262   1.187  1.00  0.00     0.345 HD
ATOM     13  H   UNL     1       0.367   1.010  -0.299  1.00  0.00     0.345 HD
ENDBRANCH   9  10
BRANCH   9  14
ATOM     14  C   UNL     1      -1.151  -1.206  -0.577  1.00  0.00     0.267 C 
BRANCH  14  15
ATOM     15  C   UNL     1      -1.732  -0.115  -1.429  1.00  0.00     0.406 C 
ATOM     16  F   UNL     1      -1.149  -0.044  -2.644  1.00  0.00    -0.170 F 
ATOM     17  F   UNL     1      -3.059  -0.291  -1.629  1.00  0.00    -0.170 F 
ATOM     18  F   UNL     1      -1.615   1.103  -0.854  1.00  0.00    -0.170 F 
ENDBRANCH  14  15
BRANCH  14  19
ATOM     19  C   UNL     1      -1.477  -2.483  -1.309  1.00  0.00     0.406 C 
ATOM     20  F   UNL     1      -1.052  -3.583  -0.654  1.00  0.00    -0.170 F 
ATOM     21  F   UNL     1      -2.808  -2.647  -1.474  1.00  0.00    -0.170 F 
ATOM     22  F   UNL     1      -0.905  -2.526  -2.531  1.00  0.00    -0.170 F 
ENDBRANCH  14  19
ENDBRANCH   9  14
ENDBRANCH   6   9
ENDBRANCH   4   5
ENDBRANCH   3   4
ENDBRANCH   2   3
ENDBRANCH   1   2
BRANCH   1  23
ATOM     23  C   UNL     1       6.974  -2.467   0.045  1.00  0.00     0.021 C 
BRANCH  23  24
ATOM     24  C   UNL     1       7.921  -1.523   0.779  1.00  0.00     0.116 C 
BRANCH  24  25
ATOM     25  N   UNL     1       8.783  -2.229   1.713  1.00  0.00    -0.352 N 
ATOM     26  C   UNL     1      10.149  -2.139   1.851  1.00  0.00     0.251 C 
ATOM     27  H   UNL     1       8.331  -2.853   2.327  1.00  0.00     0.163 HD
ATOM     28  O   UNL     1      10.752  -2.938   2.560  1.00  0.00    -0.269 OA
BRANCH  26  29
ATOM     29  C   UNL     1      10.879  -1.085   1.115  1.00  0.00     0.039 A 
ATOM     30  C   UNL     1      12.009  -1.428   0.367  1.00  0.00     0.014 A 
ATOM     31  C   UNL     1      10.425   0.236   1.146  1.00  0.00     0.014 A 
ATOM     32  C   UNL     1      12.650  -0.454  -0.404  1.00  0.00     0.010 A 
ATOM     33  C   UNL     1      11.026   1.188   0.330  1.00  0.00     0.010 A 
ATOM     34  C   UNL     1      12.144   0.854  -0.452  1.00  0.00    -0.014 A 
BRANCH  34  35
ATOM     35  C   UNL     1      12.773   1.915  -1.281  1.00  0.00     0.031 A 
ATOM     36  C   UNL     1      13.364   3.121  -0.605  1.00  0.00     0.074 A 
ATOM     37  C   UNL     1      12.707   1.855  -2.624  1.00  0.00     0.049 A 
ATOM     38  N   UNL     1      13.769   4.251  -1.123  1.00  0.00    -0.248 NA
ATOM     39  C   UNL     1      13.467   3.054   0.860  1.00  0.00     0.031 C 
ATOM     40  C   UNL     1      12.133   0.752  -3.395  1.00  0.00     0.029 A 
ATOM     41  N   UNL     1      13.097   2.761  -3.579  1.00  0.00    -0.354 N 
ATOM     42  C   UNL     1      14.142   5.047  -0.044  1.00  0.00     0.074 A 
ATOM     43  C   UNL     1      13.860   4.283   1.154  1.00  0.00     0.031 C 
ATOM     44  C   UNL     1      12.201   1.049  -4.703  1.00  0.00     0.029 A 
ATOM     45  C   UNL     1      12.777   2.381  -4.861  1.00  0.00     0.049 A 
ATOM     46  H   UNL     1      13.561   3.603  -3.366  1.00  0.00     0.167 HD
ATOM     47  C   UNL     1      14.683   6.291  -0.054  1.00  0.00     0.034 A 
ATOM     48  C   UNL     1      12.903   3.043  -6.029  1.00  0.00     0.034 A 
ATOM     49  C   UNL     1      14.972   7.025  -1.263  1.00  0.00     0.049 A 
ATOM     50  C   UNL     1      13.499   4.426  -6.026  1.00  0.00     0.074 A 
ATOM     51  C   UNL     1      15.572   8.264  -1.399  1.00  0.00     0.029 A 
ATOM     52  N   UNL     1      14.674   6.586  -2.548  1.00  0.00    -0.354 N 
ATOM     53  N   UNL     1      13.878   5.158  -5.004  1.00  0.00    -0.248 NA
ATOM     54  C   UNL     1      13.694   5.069  -7.332  1.00  0.00     0.031 C 
ATOM     55  C   UNL     1      15.581   8.601  -2.758  1.00  0.00     0.029 A 
ATOM     56  C   UNL     1      15.055   7.540  -3.478  1.00  0.00     0.049 A 
ATOM     57  H   UNL     1      14.253   5.723  -2.765  1.00  0.00     0.167 HD
ATOM     58  C   UNL     1      14.387   6.334  -5.546  1.00  0.00     0.074 A 
ATOM     59  C   UNL     1      14.262   6.217  -6.985  1.00  0.00     0.031 C 
ATOM     60  C   UNL     1      14.922   7.408  -4.911  1.00  0.00     0.034 A 
BRANCH  47  61
ATOM     61  C   UNL     1      14.952   6.936   1.286  1.00  0.00     0.023 A 
ATOM     62  C   UNL     1      15.828   6.357   2.221  1.00  0.00     0.031 A 
ATOM     63  C   UNL     1      14.269   8.105   1.665  1.00  0.00     0.131 A 
ATOM     64  C   UNL     1      15.911   6.878   3.521  1.00  0.00     0.055 A 
ATOM     65  C   UNL     1      14.433   8.678   2.929  1.00  0.00     0.041 A 
ATOM     66  F   UNL     1      13.405   8.697   0.825  1.00  0.00    -0.206 F 
ATOM     67  C   UNL     1      15.240   8.050   3.874  1.00  0.00     0.022 A 
BRANCH  64  68
ATOM     68  S   UNL     1      16.748   5.890   4.792  1.00  0.00     0.124 S 
ATOM     69  O   UNL     1      16.012   4.630   4.716  1.00  0.00    -0.237 OA
ATOM     70  O   UNL     1      18.123   5.857   4.309  1.00  0.00    -0.237 OA
ATOM     71  O   UNL     1      16.532   6.656   6.018  1.00  0.00    -0.744 OA
ENDBRANCH  64  68
ENDBRANCH  47  61
BRANCH  48  72
ATOM     72  C   UNL     1      12.433   2.411  -7.293  1.00  0.00     0.023 A 
ATOM     73  C   UNL     1      13.342   1.988  -8.274  1.00  0.00     0.031 A 
ATOM     74  C   UNL     1      11.060   2.214  -7.531  1.00  0.00     0.131 A 
ATOM     75  C   UNL     1      12.867   1.411  -9.462  1.00  0.00     0.055 A 
ATOM     76  C   UNL     1      10.595   1.605  -8.697  1.00  0.00     0.041 A 
ATOM     77  F   UNL     1      10.152   2.591  -6.617  1.00  0.00    -0.206 F 
ATOM     78  C   UNL     1      11.502   1.205  -9.675  1.00  0.00     0.022 A 
BRANCH  75  79
ATOM     79  S   UNL     1      14.063   0.963 -10.750  1.00  0.00     0.124 S 
ATOM     80  O   UNL     1      14.644   2.259 -11.079  1.00  0.00    -0.237 OA
ATOM     81  O   UNL     1      14.934   0.029 -10.043  1.00  0.00    -0.237 OA
ATOM     82  O   UNL     1      13.232   0.366 -11.793  1.00  0.00    -0.744 OA
ENDBRANCH  75  79
ENDBRANCH  48  72
BRANCH  60  83
ATOM     83  C   UNL     1      15.476   8.515  -5.771  1.00  0.00     0.023 A 
ATOM     84  C   UNL     1      14.644   9.381  -6.500  1.00  0.00     0.031 A 
ATOM     85  C   UNL     1      16.866   8.721  -5.830  1.00  0.00     0.131 A 
ATOM     86  C   UNL     1      15.214  10.397  -7.284  1.00  0.00     0.055 A 
ATOM     87  C   UNL     1      17.424   9.761  -6.573  1.00  0.00     0.041 A 
ATOM     88  F   UNL     1      17.704   7.920  -5.151  1.00  0.00    -0.206 F 
ATOM     89  C   UNL     1      16.597  10.602  -7.311  1.00  0.00     0.022 A 
BRANCH  86  90
ATOM     90  S   UNL     1      14.128  11.427  -8.308  1.00  0.00     0.124 S 
ATOM     91  O   UNL     1      13.542  10.442  -9.212  1.00  0.00    -0.237 OA
ATOM     92  O   UNL     1      13.222  12.006  -7.322  1.00  0.00    -0.237 OA
ATOM     93  O   UNL     1      15.046  12.376  -8.936  1.00  0.00    -0.744 OA
ENDBRANCH  86  90
ENDBRANCH  60  83
ENDBRANCH  34  35
ENDBRANCH  26  29
ENDBRANCH  24  25
ENDBRANCH  23  24
ENDBRANCH   1  23
TORSDOF 20
