REMARK SMILES Cc1cc(C)c2c(c1)C=C(C(=O)NCCCCCCNC(=O)c1ccc(-c3c4nc(c(-c5cc(S(=O)(=O)[O-])ccc5F)c5ccc([nH]5)c(-c5cc(S(=O)(=O)[O-])ccc5F)c5nc(c(-c6cc(S(=O)(=O)[O-])ccc6F)c6ccc3[nH]6)C=C5)C=C4)cc1)[C@@H](C(F)(F)F)O2
REMARK SMILES IDX 17 1 16 2 15 3 14 4 13 5 11 6 12 7 10 9 1 10 2 11 3 12 8 13
REMARK SMILES IDX 4 14 7 15 5 16 6 17 9 18 91 19 86 20 87 21 88 22 89 23 90 24
REMARK SMILES IDX 18 25 19 26 20 27 21 28 22 30 23 31 24 32 85 33 25 34 84 35
REMARK SMILES IDX 26 36 27 37 28 38 78 39 29 40 83 41 77 42 79 43 30 44 82 45
REMARK SMILES IDX 76 46 75 47 31 49 63 50 43 51 62 52 44 53 47 54 61 55 80 56
REMARK SMILES IDX 45 57 46 58 60 60 81 61 48 62 32 63 33 64 41 65 34 66 40 67
REMARK SMILES IDX 42 68 39 69 35 70 36 71 37 72 38 73 64 74 65 75 73 76 66 77
REMARK SMILES IDX 72 78 74 79 71 80 67 81 68 82 69 83 70 84 49 85 50 86 58 87
REMARK SMILES IDX 51 88 57 89 59 90 56 91 52 92 53 93 54 94 55 95
REMARK H PARENT 13 8 20 29 79 48 47 59
REMARK Flexibility Score: inf
ROOT
ATOM      1  C   UNL     1       0.677  12.233  -0.616  1.00  0.00     0.002 C 
ENDROOT
BRANCH   1   2
ATOM      2  C   UNL     1       0.338  11.413   0.637  1.00  0.00     0.002 C 
BRANCH   2   3
ATOM      3  C   UNL     1      -0.282  10.041   0.359  1.00  0.00     0.021 C 
BRANCH   3   4
ATOM      4  C   UNL     1       0.572   9.165  -0.550  1.00  0.00     0.116 C 
BRANCH   4   5
ATOM      5  N   UNL     1       1.583   8.439   0.198  1.00  0.00    -0.352 N 
ATOM      6  C   UNL     1       1.911   7.144   0.420  1.00  0.00     0.251 C 
ATOM      7  O   UNL     1       2.905   6.966   1.133  1.00  0.00    -0.270 OA
ATOM      8  H   UNL     1       2.194   9.051   0.668  1.00  0.00     0.163 HD
BRANCH   6   9
ATOM      9  C   UNL     1       1.170   5.966  -0.121  1.00  0.00     0.067 C 
ATOM     10  C   UNL     1       1.133  -0.217   0.113  1.00  0.00     0.044 C 
ATOM     11  C   UNL     1       0.659   1.152  -0.276  1.00  0.00    -0.050 A 
ATOM     12  C   UNL     1      -0.498   1.305  -1.052  1.00  0.00     0.010 A 
ATOM     13  C   UNL     1       1.335   2.291   0.187  1.00  0.00     0.015 A 
ATOM     14  C   UNL     1      -0.969   2.577  -1.390  1.00  0.00    -0.008 A 
ATOM     15  C   UNL     1       0.877   3.569  -0.146  1.00  0.00     0.018 A 
ATOM     16  C   UNL     1      -2.206   2.745  -2.227  1.00  0.00     0.048 C 
ATOM     17  C   UNL     1      -0.265   3.699  -0.937  1.00  0.00     0.130 A 
ATOM     18  C   UNL     1       1.546   4.765   0.354  1.00  0.00     0.025 C 
ATOM     19  O   UNL     1      -0.786   4.916  -1.266  1.00  0.00    -0.475 OA
ATOM     20  C   UNL     1       0.093   6.060  -1.163  1.00  0.00     0.314 C 
BRANCH  20  21
ATOM     21  C   UNL     1       0.643   6.402  -2.559  1.00  0.00     0.429 C 
ATOM     22  F   UNL     1      -0.353   6.833  -3.371  1.00  0.00    -0.167 F 
ATOM     23  F   UNL     1       1.565   7.393  -2.529  1.00  0.00    -0.167 F 
ATOM     24  F   UNL     1       1.229   5.341  -3.160  1.00  0.00    -0.167 F 
ENDBRANCH  20  21
ENDBRANCH   6   9
ENDBRANCH   4   5
ENDBRANCH   3   4
ENDBRANCH   2   3
ENDBRANCH   1   2
BRANCH   1  25
ATOM     25  C   UNL     1      -0.457  12.361  -1.638  1.00  0.00     0.021 C 
BRANCH  25  26
ATOM     26  C   UNL     1      -1.735  12.978  -1.082  1.00  0.00     0.116 C 
BRANCH  26  27
ATOM     27  N   UNL     1      -1.501  14.316  -0.566  1.00  0.00    -0.352 N 
ATOM     28  C   UNL     1      -2.066  15.502  -0.956  1.00  0.00     0.251 C 
ATOM     29  H   UNL     1      -0.844  14.379   0.165  1.00  0.00     0.163 HD
ATOM     30  O   UNL     1      -1.571  16.566  -0.589  1.00  0.00    -0.269 OA
BRANCH  28  31
ATOM     31  C   UNL     1      -3.259  15.489  -1.824  1.00  0.00     0.039 A 
ATOM     32  C   UNL     1      -3.313  16.355  -2.917  1.00  0.00     0.014 A 
ATOM     33  C   UNL     1      -4.324  14.623  -1.553  1.00  0.00     0.014 A 
ATOM     34  C   UNL     1      -4.418  16.320  -3.768  1.00  0.00     0.010 A 
ATOM     35  C   UNL     1      -5.391  14.539  -2.442  1.00  0.00     0.010 A 
ATOM     36  C   UNL     1      -5.453  15.394  -3.552  1.00  0.00    -0.014 A 
BRANCH  36  37
ATOM     37  C   UNL     1      -6.623  15.332  -4.463  1.00  0.00     0.031 A 
ATOM     38  C   UNL     1      -7.988  15.702  -3.951  1.00  0.00     0.074 A 
ATOM     39  C   UNL     1      -6.457  14.922  -5.736  1.00  0.00     0.049 A 
ATOM     40  N   UNL     1      -9.137  15.666  -4.573  1.00  0.00    -0.248 NA
ATOM     41  C   UNL     1      -8.077  16.152  -2.552  1.00  0.00     0.031 C 
ATOM     42  C   UNL     1      -5.181  14.522  -6.335  1.00  0.00     0.029 A 
ATOM     43  N   UNL     1      -7.360  14.779  -6.759  1.00  0.00    -0.354 N 
ATOM     44  C   UNL     1     -10.082  16.090  -3.647  1.00  0.00     0.074 A 
ATOM     45  C   UNL     1      -9.383  16.320  -2.402  1.00  0.00     0.031 C 
ATOM     46  C   UNL     1      -5.378  14.217  -7.628  1.00  0.00     0.029 A 
ATOM     47  C   UNL     1      -6.797  14.353  -7.940  1.00  0.00     0.049 A 
ATOM     48  H   UNL     1      -8.322  14.964  -6.657  1.00  0.00     0.167 HD
ATOM     49  C   UNL     1     -11.408  16.296  -3.827  1.00  0.00     0.034 A 
ATOM     50  C   UNL     1      -7.362  14.095  -9.136  1.00  0.00     0.034 A 
ATOM     51  C   UNL     1     -12.089  16.087  -5.078  1.00  0.00     0.049 A 
ATOM     52  C   UNL     1      -8.848  14.287  -9.295  1.00  0.00     0.074 A 
ATOM     53  C   UNL     1     -13.423  16.303  -5.374  1.00  0.00     0.029 A 
ATOM     54  N   UNL     1     -11.492  15.618  -6.239  1.00  0.00    -0.354 N 
ATOM     55  N   UNL     1      -9.725  14.699  -8.409  1.00  0.00    -0.248 NA
ATOM     56  C   UNL     1      -9.423  13.978 -10.612  1.00  0.00     0.031 C 
ATOM     57  C   UNL     1     -13.646  15.906  -6.695  1.00  0.00     0.029 A 
ATOM     58  C   UNL     1     -12.438  15.509  -7.245  1.00  0.00     0.049 A 
ATOM     59  H   UNL     1     -10.538  15.396  -6.335  1.00  0.00     0.167 HD
ATOM     60  C   UNL     1     -10.950  14.720  -9.068  1.00  0.00     0.074 A 
ATOM     61  C   UNL     1     -10.699  14.290 -10.428  1.00  0.00     0.031 C 
ATOM     62  C   UNL     1     -12.171  15.068  -8.592  1.00  0.00     0.034 A 
BRANCH  49  63
ATOM     63  C   UNL     1     -12.214  16.771  -2.648  1.00  0.00     0.023 A 
ATOM     64  C   UNL     1     -12.046  18.062  -2.119  1.00  0.00     0.031 A 
ATOM     65  C   UNL     1     -13.194  15.941  -2.076  1.00  0.00     0.131 A 
ATOM     66  C   UNL     1     -12.827  18.476  -1.030  1.00  0.00     0.055 A 
ATOM     67  C   UNL     1     -14.009  16.381  -1.032  1.00  0.00     0.041 A 
ATOM     68  F   UNL     1     -13.381  14.693  -2.533  1.00  0.00    -0.206 F 
ATOM     69  C   UNL     1     -13.825  17.654  -0.500  1.00  0.00     0.022 A 
BRANCH  66  70
ATOM     70  S   UNL     1     -12.480  20.087  -0.274  1.00  0.00     0.124 S 
ATOM     71  O   UNL     1     -11.138  19.876   0.263  1.00  0.00    -0.237 OA
ATOM     72  O   UNL     1     -12.578  20.998  -1.408  1.00  0.00    -0.237 OA
ATOM     73  O   UNL     1     -13.533  20.227   0.730  1.00  0.00    -0.744 OA
ENDBRANCH  66  70
ENDBRANCH  49  63
BRANCH  50  74
ATOM     74  C   UNL     1      -6.527  13.621 -10.276  1.00  0.00     0.023 A 
ATOM     75  C   UNL     1      -6.343  14.418 -11.416  1.00  0.00     0.031 A 
ATOM     76  C   UNL     1      -5.911  12.357 -10.246  1.00  0.00     0.131 A 
ATOM     77  C   UNL     1      -5.588  13.931 -12.495  1.00  0.00     0.055 A 
ATOM     78  C   UNL     1      -5.125  11.896 -11.303  1.00  0.00     0.041 A 
ATOM     79  F   UNL     1      -6.051  11.559  -9.176  1.00  0.00    -0.206 F 
ATOM     80  C   UNL     1      -4.967  12.681 -12.440  1.00  0.00     0.022 A 
BRANCH  77  81
ATOM     81  S   UNL     1      -5.469  14.938 -13.999  1.00  0.00     0.124 S 
ATOM     82  O   UNL     1      -6.862  15.004 -14.423  1.00  0.00    -0.237 OA
ATOM     83  O   UNL     1      -4.893  16.178 -13.489  1.00  0.00    -0.237 OA
ATOM     84  O   UNL     1      -4.588  14.155 -14.863  1.00  0.00    -0.744 OA
ENDBRANCH  77  81
ENDBRANCH  50  74
BRANCH  62  85
ATOM     85  C   UNL     1     -13.331  15.020  -9.550  1.00  0.00     0.023 A 
ATOM     86  C   UNL     1     -13.852  13.798 -10.006  1.00  0.00     0.031 A 
ATOM     87  C   UNL     1     -13.957  16.208  -9.965  1.00  0.00     0.131 A 
ATOM     88  C   UNL     1     -14.953  13.792 -10.874  1.00  0.00     0.055 A 
ATOM     89  C   UNL     1     -15.083  16.195 -10.788  1.00  0.00     0.041 A 
ATOM     90  F   UNL     1     -13.499  17.401  -9.552  1.00  0.00    -0.206 F 
ATOM     91  C   UNL     1     -15.584  14.981 -11.252  1.00  0.00     0.022 A 
BRANCH  88  92
ATOM     92  S   UNL     1     -15.534  12.206 -11.533  1.00  0.00     0.124 S 
ATOM     93  O   UNL     1     -14.384  11.766 -12.318  1.00  0.00    -0.237 OA
ATOM     94  O   UNL     1     -15.807  11.442 -10.320  1.00  0.00    -0.237 OA
ATOM     95  O   UNL     1     -16.715  12.570 -12.313  1.00  0.00    -0.744 OA
ENDBRANCH  88  92
ENDBRANCH  62  85
ENDBRANCH  36  37
ENDBRANCH  28  31
ENDBRANCH  26  27
ENDBRANCH  25  26
ENDBRANCH   1  25
TORSDOF 17
