REMARK SMILES C[C@]12C(=O)N(c3ccc(C(=O)NCCCCCCNC(=O)c4ccc(-c5c6nc(c(-c7cc(S(=O)(=O)[O-])ccc7F)c7ccc([nH]7)c(-c7cc(S(=O)(=O)[O-])ccc7F)c7nc(c(-c8cc(S(=O)(=O)[O-])ccc8F)c8ccc5[nH]8)C=C7)C=C6)cc4)cc3)C(=O)[C@H]1[C@H]1c3ccccc3[C@@H]2c2ccccc21
REMARK SMILES IDX 16 1 15 2 14 3 13 4 12 5 10 6 11 7 9 9 6 10 7 11 86 12 8 13
REMARK SMILES IDX 85 14 5 15 1 16 2 17 3 18 89 19 97 20 4 21 87 22 90 23 96 24
REMARK SMILES IDX 98 25 88 26 91 27 103 28 95 29 99 30 92 31 102 32 94 33
REMARK SMILES IDX 100 34 93 35 101 36 17 37 18 38 19 39 20 40 21 42 22 43
REMARK SMILES IDX 23 44 84 45 24 46 83 47 25 48 26 49 27 50 77 51 28 52 82 53
REMARK SMILES IDX 76 54 78 55 29 56 81 57 75 58 74 59 30 61 62 62 42 63 61 64
REMARK SMILES IDX 43 65 46 66 60 67 79 68 44 69 45 70 59 72 80 73 47 74 31 75
REMARK SMILES IDX 32 76 40 77 33 78 39 79 41 80 38 81 34 82 35 83 36 84 37 85
REMARK SMILES IDX 63 86 64 87 72 88 65 89 71 90 73 91 70 92 66 93 67 94 68 95
REMARK SMILES IDX 69 96 48 97 49 98 57 99 50 100 56 101 58 102 55 103 51 104
REMARK SMILES IDX 52 105 53 106 54 107
REMARK H PARENT 12 8 19 41 78 60 46 71
REMARK Flexibility Score: inf
ROOT
ATOM      1  C   UNL     1       3.126  12.488   3.239  1.00  0.00     0.002 C 
ENDROOT
BRANCH   1   2
ATOM      2  C   UNL     1       3.107  12.019   1.782  1.00  0.00     0.002 C 
BRANCH   2   3
ATOM      3  C   UNL     1       3.199  10.512   1.542  1.00  0.00     0.021 C 
BRANCH   3   4
ATOM      4  C   UNL     1       2.238   9.640   2.339  1.00  0.00     0.116 C 
BRANCH   4   5
ATOM      5  N   UNL     1       0.846   9.834   1.989  1.00  0.00    -0.352 N 
ATOM      6  C   UNL     1      -0.103   8.911   1.626  1.00  0.00     0.251 C 
ATOM      7  O   UNL     1      -1.236   9.288   1.333  1.00  0.00    -0.269 OA
ATOM      8  H   UNL     1       0.533  10.767   2.015  1.00  0.00     0.163 HD
BRANCH   6   9
ATOM      9  C   UNL     1       0.239   7.472   1.511  1.00  0.00     0.039 A 
ATOM     10  C   UNL     1       0.918   4.747   1.104  1.00  0.00     0.052 A 
ATOM     11  C   UNL     1       0.094   5.447   0.201  1.00  0.00     0.027 A 
ATOM     12  C   UNL     1       1.364   5.441   2.238  1.00  0.00     0.027 A 
ATOM     13  C   UNL     1      -0.242   6.789   0.399  1.00  0.00     0.016 A 
ATOM     14  C   UNL     1       0.995   6.777   2.458  1.00  0.00     0.016 A 
BRANCH  10  15
ATOM     15  N   UNL     1       1.101   3.334   0.989  1.00  0.00    -0.250 N 
ATOM     16  C   UNL     1       0.929   0.183   0.073  1.00  0.00     0.024 C 
ATOM     17  C   UNL     1       0.096   1.247   0.815  1.00  0.00     0.071 C 
ATOM     18  C   UNL     1       0.350   2.562   0.131  1.00  0.00     0.241 C 
ATOM     19  C   UNL     1       0.621   1.474   2.271  1.00  0.00     0.107 C 
ATOM     20  C   UNL     1      -1.437   0.955   0.846  1.00  0.00     0.066 C 
ATOM     21  O   UNL     1      -0.042   2.806  -1.001  1.00  0.00    -0.273 OA
ATOM     22  C   UNL     1       1.677   2.526   1.980  1.00  0.00     0.238 C 
ATOM     23  C   UNL     1      -0.418   0.873   3.295  1.00  0.00     0.063 C 
ATOM     24  C   UNL     1      -2.089   1.968   1.806  1.00  0.00    -0.036 A 
ATOM     25  C   UNL     1      -1.567  -0.407   1.514  1.00  0.00    -0.036 A 
ATOM     26  O   UNL     1       2.741   2.658   2.563  1.00  0.00    -0.274 OA
ATOM     27  C   UNL     1      -1.627   1.867   3.155  1.00  0.00    -0.036 A 
ATOM     28  C   UNL     1      -0.975  -0.466   2.805  1.00  0.00    -0.036 A 
ATOM     29  C   UNL     1      -2.899   3.027   1.423  1.00  0.00     0.005 A 
ATOM     30  C   UNL     1      -2.239  -1.494   0.974  1.00  0.00     0.005 A 
ATOM     31  C   UNL     1      -1.973   2.821   4.105  1.00  0.00     0.004 A 
ATOM     32  C   UNL     1      -1.081  -1.627   3.557  1.00  0.00     0.004 A 
ATOM     33  C   UNL     1      -3.240   3.987   2.381  1.00  0.00     0.000 A 
ATOM     34  C   UNL     1      -2.335  -2.657   1.734  1.00  0.00     0.000 A 
ATOM     35  C   UNL     1      -2.784   3.884   3.707  1.00  0.00     0.000 A 
ATOM     36  C   UNL     1      -1.763  -2.722   3.014  1.00  0.00     0.000 A 
ENDBRANCH  10  15
ENDBRANCH   6   9
ENDBRANCH   4   5
ENDBRANCH   3   4
ENDBRANCH   2   3
ENDBRANCH   1   2
BRANCH   1  37
ATOM     37  C   UNL     1       4.219  11.907   4.135  1.00  0.00     0.021 C 
BRANCH  37  38
ATOM     38  C   UNL     1       5.645  12.040   3.622  1.00  0.00     0.116 C 
BRANCH  38  39
ATOM     39  N   UNL     1       6.101  13.417   3.536  1.00  0.00    -0.352 N 
ATOM     40  C   UNL     1       7.255  13.983   4.033  1.00  0.00     0.251 C 
ATOM     41  H   UNL     1       5.502  14.032   3.055  1.00  0.00     0.163 HD
ATOM     42  O   UNL     1       7.419  15.197   3.963  1.00  0.00    -0.269 OA
BRANCH  40  43
ATOM     43  C   UNL     1       8.268  13.126   4.695  1.00  0.00     0.039 A 
ATOM     44  C   UNL     1       8.646  11.904   4.138  1.00  0.00     0.014 A 
ATOM     45  C   UNL     1       8.812  13.533   5.917  1.00  0.00     0.014 A 
ATOM     46  C   UNL     1       9.400  11.009   4.891  1.00  0.00     0.010 A 
ATOM     47  C   UNL     1       9.654  12.669   6.627  1.00  0.00     0.010 A 
ATOM     48  C   UNL     1       9.905  11.373   6.150  1.00  0.00    -0.014 A 
BRANCH  48  49
ATOM     49  C   UNL     1      10.684  10.378   6.941  1.00  0.00     0.031 A 
ATOM     50  C   UNL     1      10.183   9.879   8.272  1.00  0.00     0.074 A 
ATOM     51  C   UNL     1      11.819   9.872   6.420  1.00  0.00     0.049 A 
ATOM     52  N   UNL     1      10.697   8.961   9.051  1.00  0.00    -0.248 NA
ATOM     53  C   UNL     1       8.952  10.486   8.802  1.00  0.00     0.031 C 
ATOM     54  C   UNL     1      12.406  10.283   5.144  1.00  0.00     0.029 A 
ATOM     55  N   UNL     1      12.665   8.890   6.874  1.00  0.00    -0.354 N 
ATOM     56  C   UNL     1       9.865   8.890  10.164  1.00  0.00     0.074 A 
ATOM     57  C   UNL     1       8.836   9.888   9.980  1.00  0.00     0.031 C 
ATOM     58  C   UNL     1      13.474   9.518   4.886  1.00  0.00     0.029 A 
ATOM     59  C   UNL     1      13.698   8.609   6.008  1.00  0.00     0.049 A 
ATOM     60  H   UNL     1      12.545   8.430   7.736  1.00  0.00     0.167 HD
ATOM     61  C   UNL     1       9.943   8.057  11.230  1.00  0.00     0.034 A 
ATOM     62  C   UNL     1      14.714   7.726   6.099  1.00  0.00     0.034 A 
ATOM     63  C   UNL     1      10.966   7.053  11.393  1.00  0.00     0.049 A 
ATOM     64  C   UNL     1      14.785   6.820   7.300  1.00  0.00     0.074 A 
ATOM     65  C   UNL     1      11.113   6.145  12.427  1.00  0.00     0.029 A 
ATOM     66  N   UNL     1      12.008   6.817  10.506  1.00  0.00    -0.354 N 
ATOM     67  N   UNL     1      13.959   6.733   8.316  1.00  0.00    -0.248 NA
ATOM     68  C   UNL     1      15.916   5.885   7.368  1.00  0.00     0.031 C 
ATOM     69  C   UNL     1      12.276   5.408  12.201  1.00  0.00     0.029 A 
ATOM     70  C   UNL     1      12.812   5.794  10.983  1.00  0.00     0.049 A 
ATOM     71  H   UNL     1      12.153   7.304   9.663  1.00  0.00     0.167 HD
ATOM     72  C   UNL     1      14.457   5.719   9.130  1.00  0.00     0.074 A 
ATOM     73  C   UNL     1      15.639   5.204   8.472  1.00  0.00     0.031 C 
ATOM     74  C   UNL     1      13.980   5.265  10.317  1.00  0.00     0.034 A 
BRANCH  61  75
ATOM     75  C   UNL     1       8.896   8.162  12.315  1.00  0.00     0.023 A 
ATOM     76  C   UNL     1       9.276   8.488  13.632  1.00  0.00     0.031 A 
ATOM     77  C   UNL     1       7.557   7.802  12.082  1.00  0.00     0.131 A 
ATOM     78  C   UNL     1       8.338   8.407  14.669  1.00  0.00     0.055 A 
ATOM     79  C   UNL     1       6.615   7.768  13.112  1.00  0.00     0.041 A 
ATOM     80  F   UNL     1       7.142   7.479  10.846  1.00  0.00    -0.206 F 
ATOM     81  C   UNL     1       7.008   8.057  14.415  1.00  0.00     0.022 A 
BRANCH  78  82
ATOM     82  S   UNL     1       8.822   8.676  16.397  1.00  0.00     0.124 S 
ATOM     83  O   UNL     1       7.955   9.789  16.780  1.00  0.00    -0.237 OA
ATOM     84  O   UNL     1       8.493   7.391  17.009  1.00  0.00    -0.237 OA
ATOM     85  O   UNL     1      10.243   8.993  16.319  1.00  0.00    -0.744 OA
ENDBRANCH  78  82
ENDBRANCH  61  75
BRANCH  62  86
ATOM     86  C   UNL     1      15.700   7.639   4.981  1.00  0.00     0.023 A 
ATOM     87  C   UNL     1      16.471   8.756   4.611  1.00  0.00     0.031 A 
ATOM     88  C   UNL     1      15.798   6.480   4.193  1.00  0.00     0.131 A 
ATOM     89  C   UNL     1      17.239   8.717   3.440  1.00  0.00     0.055 A 
ATOM     90  C   UNL     1      16.629   6.419   3.072  1.00  0.00     0.041 A 
ATOM     91  F   UNL     1      15.072   5.392   4.495  1.00  0.00    -0.206 F 
ATOM     92  C   UNL     1      17.339   7.549   2.679  1.00  0.00     0.022 A 
BRANCH  89  93
ATOM     93  S   UNL     1      18.007  10.226   2.785  1.00  0.00     0.124 S 
ATOM     94  O   UNL     1      19.422   9.870   2.782  1.00  0.00    -0.237 OA
ATOM     95  O   UNL     1      17.379  10.331   1.470  1.00  0.00    -0.237 OA
ATOM     96  O   UNL     1      17.615  11.255   3.742  1.00  0.00    -0.744 OA
ENDBRANCH  89  93
ENDBRANCH  62  86
BRANCH  74  97
ATOM     97  C   UNL     1      14.708   4.135  11.008  1.00  0.00     0.023 A 
ATOM     98  C   UNL     1      14.040   2.920  11.259  1.00  0.00     0.031 A 
ATOM     99  C   UNL     1      15.995   4.306  11.546  1.00  0.00     0.131 A 
ATOM    100  C   UNL     1      14.643   1.943  12.061  1.00  0.00     0.055 A 
ATOM    101  C   UNL     1      16.613   3.308  12.300  1.00  0.00     0.041 A 
ATOM    102  F   UNL     1      16.669   5.450  11.349  1.00  0.00    -0.206 F 
ATOM    103  C   UNL     1      15.931   2.126  12.573  1.00  0.00     0.022 A 
BRANCH 100 104
ATOM    104  S   UNL     1      13.742   0.445  12.550  1.00  0.00     0.124 S 
ATOM    105  O   UNL     1      14.555  -0.606  11.943  1.00  0.00    -0.237 OA
ATOM    106  O   UNL     1      13.799   0.514  14.008  1.00  0.00    -0.237 OA
ATOM    107  O   UNL     1      12.417   0.623  11.965  1.00  0.00    -0.744 OA
ENDBRANCH 100 104
ENDBRANCH  74  97
ENDBRANCH  48  49
ENDBRANCH  40  43
ENDBRANCH  38  39
ENDBRANCH  37  38
ENDBRANCH   1  37
TORSDOF 17
