REMARK SMILES Cc1cc(C)c2c(OCCCC(=O)NCCCCCCNC(=O)c3ccc(-c4c5nc(c(-c6cc(S(=O)(=O)[O-])ccc6F)c6ccc([nH]6)c(-c6cc(S(=O)(=O)[O-])ccc6F)c6nc(c(-c7cc(S(=O)(=O)[O-])ccc7F)c7ccc4[nH]7)C=C6)C=C5)cc3)nsc2n1
REMARK SMILES IDX 17 1 16 2 15 3 14 4 12 5 13 6 11 8 10 9 9 10 8 11 7 12 1 13
REMARK SMILES IDX 2 14 3 15 90 16 4 17 89 18 5 19 6 20 88 21 87 22 18 23 19 24
REMARK SMILES IDX 20 25 21 26 22 27 23 29 24 30 25 31 86 32 26 33 85 34 27 35
REMARK SMILES IDX 28 36 29 37 79 38 30 39 84 40 78 41 80 42 31 43 83 44 77 45
REMARK SMILES IDX 76 46 32 48 64 49 44 50 63 51 45 52 48 53 62 54 81 55 46 56
REMARK SMILES IDX 47 57 61 59 82 60 49 61 33 62 34 63 42 64 35 65 41 66 43 67
REMARK SMILES IDX 40 68 36 69 37 70 38 71 39 72 65 73 66 74 74 75 67 76 73 77
REMARK SMILES IDX 75 78 72 79 68 80 69 81 70 82 71 83 50 84 51 85 59 86 52 87
REMARK SMILES IDX 58 88 60 89 57 90 53 91 54 92 55 93 56 94
REMARK H PARENT 14 7 21 28 80 47 48 58
REMARK Flexibility Score: inf
ROOT
ATOM      1  C   UNL     1       5.014  -4.829   3.222  1.00  0.00     0.002 C 
ENDROOT
BRANCH   1   2
ATOM      2  C   UNL     1       4.096  -5.257   2.051  1.00  0.00     0.021 C 
BRANCH   2   3
ATOM      3  C   UNL     1       3.513  -4.101   1.180  1.00  0.00     0.116 C 
BRANCH   3   4
ATOM      4  N   UNL     1       2.840  -4.538  -0.117  1.00  0.00    -0.356 N 
ATOM      5  C   UNL     1       1.735  -4.798  -0.877  1.00  0.00     0.220 C 
ATOM      6  O   UNL     1       2.099  -5.063  -2.045  1.00  0.00    -0.275 OA
ATOM      7  H   UNL     1       3.593  -4.734  -0.720  1.00  0.00     0.163 HD
BRANCH   5   8
ATOM      8  C   UNL     1       0.140  -4.687  -0.691  1.00  0.00     0.103 C 
BRANCH   8   9
ATOM      9  C   UNL     1      -0.975  -5.767  -0.327  1.00  0.00     0.051 C 
BRANCH   9  10
ATOM     10  C   UNL     1      -1.514  -6.291   1.065  1.00  0.00     0.232 C 
BRANCH  10  11
ATOM     11  O   UNL     1      -2.532  -5.614   1.818  1.00  0.00    -0.477 OA
BRANCH  11  12
ATOM     12  C   UNL     1      -2.259  -4.554   2.625  1.00  0.00     0.235 A 
ATOM     13  C   UNL     1       0.387  -0.109   0.962  1.00  0.00     0.067 C 
ATOM     14  C   UNL     1      -0.048  -1.311   1.757  1.00  0.00     0.039 A 
ATOM     15  C   UNL     1       0.609  -2.520   1.553  1.00  0.00     0.027 A 
ATOM     16  N   UNL     1      -1.111  -1.185   2.580  1.00  0.00    -0.240 NA
ATOM     17  C   UNL     1       0.120  -3.714   2.111  1.00  0.00    -0.034 A 
ATOM     18  C   UNL     1      -1.650  -2.376   2.918  1.00  0.00     0.147 A 
ATOM     19  C   UNL     1       0.825  -5.015   2.239  1.00  0.00     0.045 C 
ATOM     20  C   UNL     1      -1.185  -3.632   2.563  1.00  0.00     0.078 A 
ATOM     21  S   UNL     1      -3.030  -2.612   3.886  1.00  0.00    -0.012 S 
ATOM     22  N   UNL     1      -3.263  -4.209   3.433  1.00  0.00    -0.153 NA
ENDBRANCH  11  12
ENDBRANCH  10  11
ENDBRANCH   9  10
ENDBRANCH   8   9
ENDBRANCH   5   8
ENDBRANCH   3   4
ENDBRANCH   2   3
ENDBRANCH   1   2
BRANCH   1  23
ATOM     23  C   UNL     1       4.418  -4.046   4.410  1.00  0.00     0.002 C 
BRANCH  23  24
ATOM     24  C   UNL     1       3.567  -4.800   5.449  1.00  0.00     0.021 C 
BRANCH  24  25
ATOM     25  C   UNL     1       4.195  -6.051   6.061  1.00  0.00     0.116 C 
BRANCH  25  26
ATOM     26  N   UNL     1       5.496  -5.818   6.675  1.00  0.00    -0.352 N 
ATOM     27  C   UNL     1       6.322  -6.717   7.338  1.00  0.00     0.251 C 
ATOM     28  H   UNL     1       5.836  -4.896   6.611  1.00  0.00     0.163 HD
ATOM     29  O   UNL     1       7.218  -6.311   8.043  1.00  0.00    -0.269 OA
BRANCH  27  30
ATOM     30  C   UNL     1       6.072  -8.171   7.185  1.00  0.00     0.039 A 
ATOM     31  C   UNL     1       6.187  -9.023   8.288  1.00  0.00     0.014 A 
ATOM     32  C   UNL     1       5.727  -8.681   5.936  1.00  0.00     0.014 A 
ATOM     33  C   UNL     1       5.863 -10.371   8.139  1.00  0.00     0.010 A 
ATOM     34  C   UNL     1       5.302  -9.987   5.814  1.00  0.00     0.010 A 
ATOM     35  C   UNL     1       5.391 -10.846   6.905  1.00  0.00    -0.014 A 
BRANCH  35  36
ATOM     36  C   UNL     1       4.861 -12.206   6.797  1.00  0.00     0.031 A 
ATOM     37  C   UNL     1       3.816 -12.555   7.802  1.00  0.00     0.074 A 
ATOM     38  C   UNL     1       5.120 -13.046   5.771  1.00  0.00     0.049 A 
ATOM     39  N   UNL     1       3.897 -13.426   8.752  1.00  0.00    -0.248 NA
ATOM     40  C   UNL     1       2.578 -11.760   7.835  1.00  0.00     0.031 C 
ATOM     41  C   UNL     1       5.902 -12.793   4.558  1.00  0.00     0.029 A 
ATOM     42  N   UNL     1       4.634 -14.301   5.557  1.00  0.00    -0.354 N 
ATOM     43  C   UNL     1       2.654 -13.446   9.376  1.00  0.00     0.074 A 
ATOM     44  C   UNL     1       1.942 -12.297   8.879  1.00  0.00     0.031 C 
ATOM     45  C   UNL     1       5.653 -13.761   3.647  1.00  0.00     0.029 A 
ATOM     46  C   UNL     1       4.833 -14.786   4.268  1.00  0.00     0.049 A 
ATOM     47  H   UNL     1       4.180 -14.822   6.258  1.00  0.00     0.167 HD
ATOM     48  C   UNL     1       2.240 -14.521  10.105  1.00  0.00     0.034 A 
ATOM     49  C   UNL     1       4.354 -15.945   3.745  1.00  0.00     0.034 A 
ATOM     50  C   UNL     1       3.348 -15.384  10.440  1.00  0.00     0.049 A 
ATOM     51  C   UNL     1       4.115 -16.851   4.895  1.00  0.00     0.074 A 
ATOM     52  C   UNL     1       4.528 -15.215  11.140  1.00  0.00     0.029 A 
ATOM     53  N   UNL     1       3.527 -16.527   9.695  1.00  0.00    -0.354 N 
ATOM     54  N   UNL     1       5.070 -17.286   5.672  1.00  0.00    -0.248 NA
ATOM     55  C   UNL     1       2.780 -16.894   5.468  1.00  0.00     0.031 C 
ATOM     56  C   UNL     1       5.504 -15.932  10.385  1.00  0.00     0.029 A 
ATOM     57  C   UNL     1       4.849 -16.557   9.321  1.00  0.00     0.049 A 
ATOM     58  H   UNL     1       2.840 -17.195   9.472  1.00  0.00     0.167 HD
ATOM     59  C   UNL     1       4.536 -17.241   6.950  1.00  0.00     0.074 A 
ATOM     60  C   UNL     1       3.096 -17.087   6.752  1.00  0.00     0.031 C 
ATOM     61  C   UNL     1       5.329 -17.057   8.047  1.00  0.00     0.034 A 
BRANCH  48  62
ATOM     62  C   UNL     1       0.807 -14.973  10.246  1.00  0.00     0.023 A 
ATOM     63  C   UNL     1       0.530 -16.039  11.126  1.00  0.00     0.031 A 
ATOM     64  C   UNL     1      -0.239 -14.612   9.367  1.00  0.00     0.131 A 
ATOM     65  C   UNL     1      -0.692 -16.732  11.060  1.00  0.00     0.055 A 
ATOM     66  C   UNL     1      -1.476 -15.263   9.349  1.00  0.00     0.041 A 
ATOM     67  F   UNL     1      -0.088 -13.683   8.415  1.00  0.00    -0.206 F 
ATOM     68  C   UNL     1      -1.699 -16.348  10.179  1.00  0.00     0.022 A 
BRANCH  65  69
ATOM     69  S   UNL     1      -0.887 -18.243  12.041  1.00  0.00     0.124 S 
ATOM     70  O   UNL     1       0.236 -19.048  11.573  1.00  0.00    -0.237 OA
ATOM     71  O   UNL     1      -0.791 -17.733  13.405  1.00  0.00    -0.237 OA
ATOM     72  O   UNL     1      -2.209 -18.732  11.653  1.00  0.00    -0.744 OA
ENDBRANCH  65  69
ENDBRANCH  48  62
BRANCH  49  73
ATOM     73  C   UNL     1       3.811 -16.185   2.378  1.00  0.00     0.023 A 
ATOM     74  C   UNL     1       3.540 -17.485   1.896  1.00  0.00     0.031 A 
ATOM     75  C   UNL     1       3.297 -15.112   1.616  1.00  0.00     0.131 A 
ATOM     76  C   UNL     1       2.776 -17.669   0.720  1.00  0.00     0.055 A 
ATOM     77  C   UNL     1       2.545 -15.299   0.453  1.00  0.00     0.041 A 
ATOM     78  F   UNL     1       3.427 -13.840   2.026  1.00  0.00    -0.206 F 
ATOM     79  C   UNL     1       2.269 -16.581   0.006  1.00  0.00     0.022 A 
BRANCH  76  80
ATOM     80  S   UNL     1       2.314 -19.343   0.166  1.00  0.00     0.124 S 
ATOM     81  O   UNL     1       3.539 -19.799  -0.481  1.00  0.00    -0.237 OA
ATOM     82  O   UNL     1       1.956 -20.004   1.415  1.00  0.00    -0.237 OA
ATOM     83  O   UNL     1       1.191 -19.100  -0.740  1.00  0.00    -0.744 OA
ENDBRANCH  76  80
ENDBRANCH  49  73
BRANCH  61  84
ATOM     84  C   UNL     1       6.832 -17.176   7.887  1.00  0.00     0.023 A 
ATOM     85  C   UNL     1       7.631 -16.331   7.082  1.00  0.00     0.031 A 
ATOM     86  C   UNL     1       7.489 -18.099   8.718  1.00  0.00     0.131 A 
ATOM     87  C   UNL     1       9.037 -16.437   7.131  1.00  0.00     0.055 A 
ATOM     88  C   UNL     1       8.879 -18.186   8.779  1.00  0.00     0.041 A 
ATOM     89  F   UNL     1       6.783 -18.907   9.528  1.00  0.00    -0.206 F 
ATOM     90  C   UNL     1       9.659 -17.355   7.984  1.00  0.00     0.022 A 
BRANCH  87  91
ATOM     91  S   UNL     1      10.089 -15.357   6.104  1.00  0.00     0.124 S 
ATOM     92  O   UNL     1       9.641 -15.645   4.746  1.00  0.00    -0.237 OA
ATOM     93  O   UNL     1       9.779 -14.023   6.612  1.00  0.00    -0.237 OA
ATOM     94  O   UNL     1      11.448 -15.816   6.403  1.00  0.00    -0.744 OA
ENDBRANCH  87  91
ENDBRANCH  61  84
ENDBRANCH  35  36
ENDBRANCH  27  30
ENDBRANCH  25  26
ENDBRANCH  24  25
ENDBRANCH  23  24
ENDBRANCH   1  23
TORSDOF 20
