REMARK SMILES Cc1ccc(-c2cc(C(=O)NCCCCCCNC(=O)c3ccc(-c4c5nc(c(-c6cc(S(=O)(=O)[O-])ccc6F)c6ccc([nH]6)c(-c6cc(S(=O)(=O)[O-])ccc6F)c6nc(c(-c7cc(S(=O)(=O)[O-])ccc7F)c7ccc4[nH]7)C=C6)C=C5)cc3)c3c(-c4cccc([N+](=O)[O-])c4)[nH]nc3n2)cc1
REMARK SMILES IDX 15 1 14 2 13 3 12 4 11 5 9 6 10 7 8 9 6 10 7 11 98 12 97 13
REMARK SMILES IDX 84 14 96 15 85 16 95 17 5 19 1 20 2 21 3 22 100 23 4 24
REMARK SMILES IDX 99 25 86 26 87 27 94 28 88 29 90 30 89 31 91 32 92 33 93 34
REMARK SMILES IDX 16 35 17 36 18 37 19 38 20 40 21 41 22 42 83 43 23 44 82 45
REMARK SMILES IDX 24 46 25 47 26 48 76 49 27 50 81 51 75 52 77 53 28 54 80 55
REMARK SMILES IDX 74 56 73 57 29 59 61 60 41 61 60 62 42 63 45 64 59 65 78 66
REMARK SMILES IDX 43 67 44 68 58 70 79 71 46 72 30 73 31 74 39 75 32 76 38 77
REMARK SMILES IDX 40 78 37 79 33 80 34 81 35 82 36 83 62 84 63 85 71 86 64 87
REMARK SMILES IDX 70 88 72 89 69 90 65 91 66 92 67 93 68 94 47 95 48 96 56 97
REMARK SMILES IDX 49 98 55 99 57 100 54 101 50 102 51 103 52 104 53 105
REMARK H PARENT 11 8 95 18 18 39 77 58 45 69
REMARK Flexibility Score: inf
ROOT
ATOM      1  C   UNL     1      -3.638   3.687  -6.250  1.00  0.00     0.002 C 
ENDROOT
BRANCH   1   2
ATOM      2  C   UNL     1      -3.747   2.172  -6.004  1.00  0.00     0.002 C 
BRANCH   2   3
ATOM      3  C   UNL     1      -3.227   1.657  -4.652  1.00  0.00     0.021 C 
BRANCH   3   4
ATOM      4  C   UNL     1      -3.744   2.428  -3.438  1.00  0.00     0.116 C 
BRANCH   4   5
ATOM      5  N   UNL     1      -5.144   2.162  -3.185  1.00  0.00    -0.352 N 
ATOM      6  C   UNL     1      -5.874   1.513  -2.230  1.00  0.00     0.252 C 
ATOM      7  O   UNL     1      -7.073   1.779  -2.269  1.00  0.00    -0.269 OA
ATOM      8  H   UNL     1      -5.720   2.550  -3.883  1.00  0.00     0.163 HD
BRANCH   6   9
ATOM      9  C   UNL     1      -5.325   0.628  -1.169  1.00  0.00     0.055 A 
ATOM     10  C   UNL     1      -3.410  -0.284   0.133  1.00  0.00     0.074 A 
ATOM     11  C   UNL     1      -3.967   0.319  -1.027  1.00  0.00     0.043 A 
ATOM     12  N   UNL     1      -4.109  -0.773   1.188  1.00  0.00    -0.226 NA
ATOM     13  C   UNL     1      -5.449  -0.641   1.027  1.00  0.00     0.182 A 
ATOM     14  C   UNL     1      -6.043   0.031  -0.107  1.00  0.00     0.059 A 
ATOM     15  N   UNL     1      -6.368  -1.080   1.887  1.00  0.00    -0.154 NA
ATOM     16  C   UNL     1      -7.409  -0.100   0.099  1.00  0.00     0.076 A 
ATOM     17  N   UNL     1      -7.527  -0.758   1.300  1.00  0.00    -0.275 N 
ATOM     18  H   UNL     1      -8.399  -0.976   1.699  1.00  0.00     0.190 HD
BRANCH  10  19
ATOM     19  C   UNL     1      -1.944  -0.281   0.264  1.00  0.00     0.000 A 
ATOM     20  C   UNL     1       2.375  -0.154   0.082  1.00  0.00     0.044 C 
ATOM     21  C   UNL     1       0.880  -0.191   0.203  1.00  0.00    -0.051 A 
ATOM     22  C   UNL     1       0.203  -1.418   0.239  1.00  0.00     0.004 A 
ATOM     23  C   UNL     1       0.142   0.993   0.246  1.00  0.00     0.004 A 
ATOM     24  C   UNL     1      -1.196  -1.463   0.276  1.00  0.00     0.010 A 
ATOM     25  C   UNL     1      -1.252   0.946   0.281  1.00  0.00     0.010 A 
ENDBRANCH  10  19
BRANCH  16  26
ATOM     26  C   UNL     1      -8.596   0.231  -0.678  1.00  0.00     0.007 A 
ATOM     27  C   UNL     1      -9.447   1.263  -0.257  1.00  0.00     0.011 A 
ATOM     28  C   UNL     1      -8.832  -0.408  -1.903  1.00  0.00     0.096 A 
ATOM     29  C   UNL     1     -10.491   1.700  -1.077  1.00  0.00     0.008 A 
ATOM     30  C   UNL     1      -9.861   0.056  -2.732  1.00  0.00     0.270 A 
ATOM     31  C   UNL     1     -10.693   1.108  -2.324  1.00  0.00     0.085 A 
BRANCH  30  32
ATOM     32  N   UNL     1     -10.046  -0.540  -4.060  1.00  0.00     0.062 N 
ATOM     33  O   UNL     1     -10.937  -0.069  -4.783  1.00  0.00    -0.258 OA
ATOM     34  O   UNL     1      -9.331  -1.504  -4.365  1.00  0.00    -0.258 OA
ENDBRANCH  30  32
ENDBRANCH  16  26
ENDBRANCH   6   9
ENDBRANCH   4   5
ENDBRANCH   3   4
ENDBRANCH   2   3
ENDBRANCH   1   2
BRANCH   1  35
ATOM     35  C   UNL     1      -2.285   4.327  -5.937  1.00  0.00     0.021 C 
BRANCH  35  36
ATOM     36  C   UNL     1      -1.168   3.891  -6.877  1.00  0.00     0.116 C 
BRANCH  36  37
ATOM     37  N   UNL     1      -0.613   4.991  -7.659  1.00  0.00    -0.352 N 
ATOM     38  C   UNL     1       0.462   4.977  -8.533  1.00  0.00     0.251 C 
ATOM     39  H   UNL     1      -1.063   5.860  -7.551  1.00  0.00     0.163 HD
ATOM     40  O   UNL     1       0.859   5.988  -9.082  1.00  0.00    -0.269 OA
BRANCH  38  41
ATOM     41  C   UNL     1       1.051   3.663  -8.878  1.00  0.00     0.039 A 
ATOM     42  C   UNL     1       1.001   3.274 -10.222  1.00  0.00     0.014 A 
ATOM     43  C   UNL     1       1.386   2.753  -7.881  1.00  0.00     0.014 A 
ATOM     44  C   UNL     1       1.066   1.921 -10.539  1.00  0.00     0.010 A 
ATOM     45  C   UNL     1       1.349   1.407  -8.183  1.00  0.00     0.010 A 
ATOM     46  C   UNL     1       1.128   0.991  -9.503  1.00  0.00    -0.014 A 
BRANCH  46  47
ATOM     47  C   UNL     1       0.835  -0.426  -9.686  1.00  0.00     0.031 A 
ATOM     48  C   UNL     1       1.907  -1.436  -9.591  1.00  0.00     0.074 A 
ATOM     49  C   UNL     1      -0.443  -0.824  -9.872  1.00  0.00     0.049 A 
ATOM     50  N   UNL     1       1.837  -2.624 -10.086  1.00  0.00    -0.248 NA
ATOM     51  C   UNL     1       3.191  -1.155  -8.961  1.00  0.00     0.031 C 
ATOM     52  C   UNL     1      -0.975  -2.180  -9.779  1.00  0.00     0.029 A 
ATOM     53  N   UNL     1      -1.471  -0.086 -10.450  1.00  0.00    -0.354 N 
ATOM     54  C   UNL     1       2.901  -3.347  -9.600  1.00  0.00     0.074 A 
ATOM     55  C   UNL     1       3.751  -2.368  -8.964  1.00  0.00     0.031 C 
ATOM     56  C   UNL     1      -2.107  -2.252 -10.496  1.00  0.00     0.029 A 
ATOM     57  C   UNL     1      -2.257  -0.987 -11.190  1.00  0.00     0.049 A 
ATOM     58  H   UNL     1      -1.621   0.882 -10.358  1.00  0.00     0.167 HD
ATOM     59  C   UNL     1       2.869  -4.709  -9.670  1.00  0.00     0.034 A 
ATOM     60  C   UNL     1      -2.410  -0.844 -12.539  1.00  0.00     0.034 A 
ATOM     61  C   UNL     1       1.699  -5.183 -10.411  1.00  0.00     0.049 A 
ATOM     62  C   UNL     1      -1.937  -2.042 -13.329  1.00  0.00     0.074 A 
ATOM     63  C   UNL     1       0.479  -5.710 -10.019  1.00  0.00     0.029 A 
ATOM     64  N   UNL     1       1.580  -4.886 -11.765  1.00  0.00    -0.354 N 
ATOM     65  N   UNL     1      -1.128  -2.956 -12.867  1.00  0.00    -0.248 NA
ATOM     66  C   UNL     1      -2.338  -2.299 -14.707  1.00  0.00     0.031 C 
ATOM     67  C   UNL     1      -0.392  -5.685 -11.141  1.00  0.00     0.029 A 
ATOM     68  C   UNL     1       0.306  -5.171 -12.220  1.00  0.00     0.049 A 
ATOM     69  H   UNL     1       2.304  -4.523 -12.323  1.00  0.00     0.167 HD
ATOM     70  C   UNL     1      -0.890  -3.899 -13.838  1.00  0.00     0.074 A 
ATOM     71  C   UNL     1      -1.689  -3.448 -14.965  1.00  0.00     0.031 C 
ATOM     72  C   UNL     1      -0.051  -4.960 -13.619  1.00  0.00     0.034 A 
BRANCH  59  73
ATOM     73  C   UNL     1       3.725  -5.613  -8.804  1.00  0.00     0.023 A 
ATOM     74  C   UNL     1       3.218  -6.868  -8.405  1.00  0.00     0.031 A 
ATOM     75  C   UNL     1       4.996  -5.292  -8.292  1.00  0.00     0.131 A 
ATOM     76  C   UNL     1       3.891  -7.672  -7.465  1.00  0.00     0.055 A 
ATOM     77  C   UNL     1       5.639  -6.058  -7.309  1.00  0.00     0.041 A 
ATOM     78  F   UNL     1       5.702  -4.254  -8.759  1.00  0.00    -0.206 F 
ATOM     79  C   UNL     1       5.079  -7.250  -6.878  1.00  0.00     0.022 A 
BRANCH  76  80
ATOM     80  S   UNL     1       3.192  -9.285  -7.019  1.00  0.00     0.124 S 
ATOM     81  O   UNL     1       1.880  -8.921  -6.493  1.00  0.00    -0.237 OA
ATOM     82  O   UNL     1       3.205  -9.991  -8.295  1.00  0.00    -0.237 OA
ATOM     83  O   UNL     1       4.133  -9.798  -6.023  1.00  0.00    -0.744 OA
ENDBRANCH  76  80
ENDBRANCH  59  73
BRANCH  60  84
ATOM     84  C   UNL     1      -2.363   0.578 -12.989  1.00  0.00     0.023 A 
ATOM     85  C   UNL     1      -3.270   1.467 -12.373  1.00  0.00     0.031 A 
ATOM     86  C   UNL     1      -1.248   1.124 -13.636  1.00  0.00     0.131 A 
ATOM     87  C   UNL     1      -2.947   2.823 -12.236  1.00  0.00     0.055 A 
ATOM     88  C   UNL     1      -0.978   2.499 -13.579  1.00  0.00     0.041 A 
ATOM     89  F   UNL     1      -0.336   0.331 -14.217  1.00  0.00    -0.206 F 
ATOM     90  C   UNL     1      -1.802   3.348 -12.835  1.00  0.00     0.022 A 
BRANCH  87  91
ATOM     91  S   UNL     1      -3.867   3.792 -11.001  1.00  0.00     0.124 S 
ATOM     92  O   UNL     1      -5.065   4.170 -11.741  1.00  0.00    -0.237 OA
ATOM     93  O   UNL     1      -4.060   2.824  -9.921  1.00  0.00    -0.237 OA
ATOM     94  O   UNL     1      -2.957   4.886 -10.670  1.00  0.00    -0.744 OA
ENDBRANCH  87  91
ENDBRANCH  60  84
BRANCH  72  95
ATOM     95  C   UNL     1       0.453  -5.953 -14.657  1.00  0.00     0.023 A 
ATOM     96  C   UNL     1       0.266  -5.808 -16.039  1.00  0.00     0.031 A 
ATOM     97  C   UNL     1       1.219  -7.085 -14.272  1.00  0.00     0.131 A 
ATOM     98  C   UNL     1       0.745  -6.767 -16.954  1.00  0.00     0.055 A 
ATOM     99  C   UNL     1       1.755  -8.000 -15.186  1.00  0.00     0.041 A 
ATOM    100  F   UNL     1       1.500  -7.351 -12.988  1.00  0.00    -0.206 F 
ATOM    101  C   UNL     1       1.507  -7.854 -16.539  1.00  0.00     0.022 A 
BRANCH  98 102
ATOM    102  S   UNL     1       0.302  -6.582 -18.702  1.00  0.00     0.124 S 
ATOM    103  O   UNL     1      -1.152  -6.706 -18.658  1.00  0.00    -0.237 OA
ATOM    104  O   UNL     1       0.814  -5.252 -19.015  1.00  0.00    -0.237 OA
ATOM    105  O   UNL     1       1.000  -7.686 -19.355  1.00  0.00    -0.744 OA
ENDBRANCH  98 102
ENDBRANCH  72  95
ENDBRANCH  46  47
ENDBRANCH  38  41
ENDBRANCH  36  37
ENDBRANCH  35  36
ENDBRANCH   1  35
TORSDOF 19
