REMARK SMILES Cc1ccc(C(=O)N2C[C@H](C(=O)NCCCCCCNC(=O)c3ccc(-c4c5nc(c(-c6cc(S(=O)(=O)[O-])ccc6F)c6ccc([nH]6)c(-c6cc(S(=O)(=O)[O-])ccc6F)c6nc(c(-c7cc(S(=O)(=O)[O-])ccc7F)c7ccc4[nH]7)C=C6)C=C5)cc3)Oc3ccccc32)o1
REMARK SMILES IDX 17 1 16 2 15 3 14 4 13 5 11 6 12 7 10 9 8 10 9 11 92 12
REMARK SMILES IDX 87 13 91 14 86 15 88 16 90 17 89 18 6 19 7 20 5 21 1 22 2 23
REMARK SMILES IDX 3 24 93 25 4 26 18 27 19 28 20 29 21 30 22 32 23 33 24 34
REMARK SMILES IDX 85 35 25 36 84 37 26 38 27 39 28 40 78 41 29 42 83 43 77 44
REMARK SMILES IDX 79 45 30 46 82 47 76 48 75 49 31 51 63 52 43 53 62 54 44 55
REMARK SMILES IDX 47 56 61 57 80 58 45 59 46 60 60 62 81 63 48 64 32 65 33 66
REMARK SMILES IDX 41 67 34 68 40 69 42 70 39 71 35 72 36 73 37 74 38 75 64 76
REMARK SMILES IDX 65 77 73 78 66 79 72 80 74 81 71 82 67 83 68 84 69 85 70 86
REMARK SMILES IDX 49 87 50 88 58 89 51 90 57 91 59 92 56 93 52 94 53 95 54 96
REMARK SMILES IDX 55 97
REMARK H PARENT 13 8 20 31 79 50 47 61
REMARK Flexibility Score: inf
ROOT
ATOM      1  C   UNL     1      -7.682  -4.499   2.266  1.00  0.00     0.002 C 
ENDROOT
BRANCH   1   2
ATOM      2  C   UNL     1      -6.289  -3.943   2.581  1.00  0.00     0.002 C 
BRANCH   2   3
ATOM      3  C   UNL     1      -5.746  -2.922   1.575  1.00  0.00     0.021 C 
BRANCH   3   4
ATOM      4  C   UNL     1      -6.590  -1.656   1.440  1.00  0.00     0.116 C 
BRANCH   4   5
ATOM      5  N   UNL     1      -6.462  -0.812   2.619  1.00  0.00    -0.353 N 
ATOM      6  C   UNL     1      -6.007   0.471   2.737  1.00  0.00     0.262 C 
ATOM      7  O   UNL     1      -5.966   0.964   3.868  1.00  0.00    -0.271 OA
ATOM      8  H   UNL     1      -6.747  -1.231   3.462  1.00  0.00     0.163 HD
BRANCH   6   9
ATOM      9  C   UNL     1      -5.514   1.258   1.520  1.00  0.00     0.281 C 
ATOM     10  N   UNL     1      -3.692   1.419  -0.134  1.00  0.00    -0.298 N 
ATOM     11  C   UNL     1      -4.160   0.724   1.066  1.00  0.00     0.181 C 
ATOM     12  C   UNL     1      -4.708   1.794  -1.065  1.00  0.00     0.087 A 
ATOM     13  C   UNL     1      -6.063   1.629  -0.728  1.00  0.00     0.144 A 
ATOM     14  C   UNL     1      -4.397   2.226  -2.362  1.00  0.00     0.030 A 
ATOM     15  O   UNL     1      -6.508   1.203   0.497  1.00  0.00    -0.477 OA
ATOM     16  C   UNL     1      -7.069   1.861  -1.670  1.00  0.00     0.049 A 
ATOM     17  C   UNL     1      -5.405   2.462  -3.301  1.00  0.00     0.002 A 
ATOM     18  C   UNL     1      -6.740   2.274  -2.958  1.00  0.00     0.004 A 
BRANCH  10  19
ATOM     19  C   UNL     1      -2.340   1.710  -0.341  1.00  0.00     0.294 C 
ATOM     20  O   UNL     1      -1.983   2.808  -0.785  1.00  0.00    -0.265 OA
BRANCH  19  21
ATOM     21  C   UNL     1      -1.381   0.650  -0.065  1.00  0.00     0.192 A 
ATOM     22  C   UNL     1       2.132  -0.000   0.194  1.00  0.00     0.087 C 
ATOM     23  C   UNL     1       0.665  -0.154   0.152  1.00  0.00     0.101 A 
ATOM     24  C   UNL     1      -0.176  -1.242   0.174  1.00  0.00     0.046 A 
ATOM     25  O   UNL     1      -0.056   0.993   0.027  1.00  0.00    -0.456 OA
ATOM     26  C   UNL     1      -1.488  -0.730   0.025  1.00  0.00     0.056 A 
ENDBRANCH  19  21
ENDBRANCH  10  19
ENDBRANCH   6   9
ENDBRANCH   4   5
ENDBRANCH   3   4
ENDBRANCH   2   3
ENDBRANCH   1   2
BRANCH   1  27
ATOM     27  C   UNL     1      -7.854  -5.101   0.868  1.00  0.00     0.021 C 
BRANCH  27  28
ATOM     28  C   UNL     1      -6.888  -6.232   0.520  1.00  0.00     0.116 C 
BRANCH  28  29
ATOM     29  N   UNL     1      -7.067  -7.395   1.373  1.00  0.00    -0.352 N 
ATOM     30  C   UNL     1      -7.210  -8.715   1.020  1.00  0.00     0.251 C 
ATOM     31  H   UNL     1      -7.088  -7.211   2.340  1.00  0.00     0.163 HD
ATOM     32  O   UNL     1      -7.516  -9.544   1.873  1.00  0.00    -0.269 OA
BRANCH  30  33
ATOM     33  C   UNL     1      -7.025  -9.128  -0.389  1.00  0.00     0.039 A 
ATOM     34  C   UNL     1      -7.985  -9.951  -0.985  1.00  0.00     0.014 A 
ATOM     35  C   UNL     1      -5.908  -8.708  -1.118  1.00  0.00     0.014 A 
ATOM     36  C   UNL     1      -7.862 -10.297  -2.333  1.00  0.00     0.010 A 
ATOM     37  C   UNL     1      -5.812  -9.015  -2.475  1.00  0.00     0.010 A 
ATOM     38  C   UNL     1      -6.792  -9.805  -3.097  1.00  0.00    -0.014 A 
BRANCH  38  39
ATOM     39  C   UNL     1      -6.679 -10.093  -4.550  1.00  0.00     0.031 A 
ATOM     40  C   UNL     1      -5.556 -10.950  -5.062  1.00  0.00     0.074 A 
ATOM     41  C   UNL     1      -7.537  -9.513  -5.412  1.00  0.00     0.049 A 
ATOM     42  N   UNL     1      -5.209 -11.210  -6.296  1.00  0.00    -0.248 NA
ATOM     43  C   UNL     1      -4.695 -11.573  -4.048  1.00  0.00     0.031 C 
ATOM     44  C   UNL     1      -8.649  -8.637  -5.038  1.00  0.00     0.029 A 
ATOM     45  N   UNL     1      -7.594  -9.556  -6.782  1.00  0.00    -0.354 N 
ATOM     46  C   UNL     1      -4.077 -12.012  -6.210  1.00  0.00     0.074 A 
ATOM     47  C   UNL     1      -3.775 -12.158  -4.801  1.00  0.00     0.031 C 
ATOM     48  C   UNL     1      -9.278  -8.227  -6.152  1.00  0.00     0.029 A 
ATOM     49  C   UNL     1      -8.592  -8.776  -7.317  1.00  0.00     0.049 A 
ATOM     50  H   UNL     1      -6.978 -10.093  -7.330  1.00  0.00     0.167 HD
ATOM     51  C   UNL     1      -3.364 -12.585  -7.213  1.00  0.00     0.034 A 
ATOM     52  C   UNL     1      -8.907  -8.516  -8.601  1.00  0.00     0.034 A 
ATOM     53  C   UNL     1      -3.685 -12.444  -8.612  1.00  0.00     0.049 A 
ATOM     54  C   UNL     1      -8.092  -9.148  -9.698  1.00  0.00     0.074 A 
ATOM     55  C   UNL     1      -3.068 -13.030  -9.704  1.00  0.00     0.029 A 
ATOM     56  N   UNL     1      -4.712 -11.655  -9.115  1.00  0.00    -0.354 N 
ATOM     57  N   UNL     1      -7.043  -9.930  -9.600  1.00  0.00    -0.248 NA
ATOM     58  C   UNL     1      -8.508  -8.864 -11.078  1.00  0.00     0.031 C 
ATOM     59  C   UNL     1      -3.687 -12.556 -10.868  1.00  0.00     0.029 A 
ATOM     60  C   UNL     1      -4.727 -11.718 -10.500  1.00  0.00     0.049 A 
ATOM     61  H   UNL     1      -5.337 -11.127  -8.568  1.00  0.00     0.167 HD
ATOM     62  C   UNL     1      -6.686 -10.249 -10.906  1.00  0.00     0.074 A 
ATOM     63  C   UNL     1      -7.636  -9.581 -11.773  1.00  0.00     0.031 C 
ATOM     64  C   UNL     1      -5.670 -11.031 -11.349  1.00  0.00     0.034 A 
BRANCH  51  65
ATOM     65  C   UNL     1      -2.149 -13.388  -6.821  1.00  0.00     0.023 A 
ATOM     66  C   UNL     1      -2.259 -14.570  -6.069  1.00  0.00     0.031 A 
ATOM     67  C   UNL     1      -0.861 -12.945  -7.169  1.00  0.00     0.131 A 
ATOM     68  C   UNL     1      -1.102 -15.226  -5.623  1.00  0.00     0.055 A 
ATOM     69  C   UNL     1       0.286 -13.644  -6.787  1.00  0.00     0.041 A 
ATOM     70  F   UNL     1      -0.694 -11.812  -7.870  1.00  0.00    -0.206 F 
ATOM     71  C   UNL     1       0.170 -14.784  -5.995  1.00  0.00     0.022 A 
BRANCH  68  72
ATOM     72  S   UNL     1      -1.281 -16.582  -4.432  1.00  0.00     0.124 S 
ATOM     73  O   UNL     1      -1.948 -15.910  -3.320  1.00  0.00    -0.237 OA
ATOM     74  O   UNL     1      -2.085 -17.547  -5.172  1.00  0.00    -0.237 OA
ATOM     75  O   UNL     1       0.098 -16.990  -4.168  1.00  0.00    -0.744 OA
ENDBRANCH  68  72
ENDBRANCH  51  65
BRANCH  52  76
ATOM     76  C   UNL     1     -10.029  -7.594  -8.925  1.00  0.00     0.023 A 
ATOM     77  C   UNL     1     -11.210  -8.074  -9.511  1.00  0.00     0.031 A 
ATOM     78  C   UNL     1      -9.922  -6.214  -8.679  1.00  0.00     0.131 A 
ATOM     79  C   UNL     1     -12.228  -7.175  -9.864  1.00  0.00     0.055 A 
ATOM     80  C   UNL     1     -10.952  -5.328  -8.998  1.00  0.00     0.041 A 
ATOM     81  F   UNL     1      -8.814  -5.710  -8.112  1.00  0.00    -0.206 F 
ATOM     82  C   UNL     1     -12.110  -5.807  -9.604  1.00  0.00     0.022 A 
BRANCH  79  83
ATOM     83  S   UNL     1     -13.691  -7.814 -10.724  1.00  0.00     0.124 S 
ATOM     84  O   UNL     1     -13.099  -8.408 -11.917  1.00  0.00    -0.237 OA
ATOM     85  O   UNL     1     -14.233  -8.748  -9.742  1.00  0.00    -0.237 OA
ATOM     86  O   UNL     1     -14.499  -6.619 -10.955  1.00  0.00    -0.744 OA
ENDBRANCH  79  83
ENDBRANCH  52  76
BRANCH  64  87
ATOM     87  C   UNL     1      -5.567 -11.228 -12.838  1.00  0.00     0.023 A 
ATOM     88  C   UNL     1      -5.142 -10.194 -13.690  1.00  0.00     0.031 A 
ATOM     89  C   UNL     1      -5.915 -12.463 -13.411  1.00  0.00     0.131 A 
ATOM     90  C   UNL     1      -5.117 -10.401 -15.077  1.00  0.00     0.055 A 
ATOM     91  C   UNL     1      -5.846 -12.677 -14.788  1.00  0.00     0.041 A 
ATOM     92  F   UNL     1      -6.329 -13.481 -12.640  1.00  0.00    -0.206 F 
ATOM     93  C   UNL     1      -5.454 -11.640 -15.630  1.00  0.00     0.022 A 
BRANCH  90  94
ATOM     94  S   UNL     1      -4.695  -9.008 -16.160  1.00  0.00     0.124 S 
ATOM     95  O   UNL     1      -5.762  -8.058 -15.861  1.00  0.00    -0.237 OA
ATOM     96  O   UNL     1      -3.363  -8.639 -15.691  1.00  0.00    -0.237 OA
ATOM     97  O   UNL     1      -4.740  -9.589 -17.500  1.00  0.00    -0.744 OA
ENDBRANCH  90  94
ENDBRANCH  64  87
ENDBRANCH  38  39
ENDBRANCH  30  33
ENDBRANCH  28  29
ENDBRANCH  27  28
ENDBRANCH   1  27
TORSDOF 18
