REMARK SMILES Cc1ccc(O[C@H](C)C(=O)Nc2ccsc2C(=O)NCCCCCCNC(=O)c2ccc(-c3c4nc(c(-c5cc(S(=O)(=O)[O-])ccc5F)c5ccc([nH]5)c(-c5cc(S(=O)(=O)[O-])ccc5F)c5nc(c(-c6cc(S(=O)(=O)[O-])ccc6F)c6ccc3[nH]6)C=C5)C=C4)cc2)cc1
REMARK SMILES IDX 22 1 21 2 20 3 19 4 17 5 18 6 16 8 12 9 13 10 14 11 15 12
REMARK SMILES IDX 11 13 9 14 10 15 7 17 8 18 6 19 5 20 1 21 2 22 3 23 93 24
REMARK SMILES IDX 4 25 92 26 23 27 24 28 25 29 26 30 27 31 28 33 29 34 30 35
REMARK SMILES IDX 91 36 31 37 90 38 32 39 33 40 34 41 84 42 35 43 89 44 83 45
REMARK SMILES IDX 85 46 36 47 88 48 82 49 81 50 37 52 69 53 49 54 68 55 50 56
REMARK SMILES IDX 53 57 67 58 86 59 51 60 52 61 66 63 87 64 54 65 38 66 39 67
REMARK SMILES IDX 47 68 40 69 46 70 48 71 45 72 41 73 42 74 43 75 44 76 70 77
REMARK SMILES IDX 71 78 79 79 72 80 78 81 80 82 77 83 73 84 74 85 75 86 76 87
REMARK SMILES IDX 55 88 56 89 64 90 57 91 63 92 65 93 62 94 58 95 59 96 60 97
REMARK SMILES IDX 61 98
REMARK H PARENT 19 7 11 16 26 32 85 51 53 62
REMARK Flexibility Score: inf
ROOT
ATOM      1  C   UNL     1      -3.091   6.853  -2.623  1.00  0.00     0.002 C 
ENDROOT
BRANCH   1   2
ATOM      2  C   UNL     1      -3.402   5.731  -1.625  1.00  0.00     0.021 C 
BRANCH   2   3
ATOM      3  C   UNL     1      -2.388   4.604  -1.464  1.00  0.00     0.116 C 
BRANCH   3   4
ATOM      4  N   UNL     1      -1.039   5.004  -1.145  1.00  0.00    -0.351 N 
ATOM      5  C   UNL     1       0.028   4.303  -0.625  1.00  0.00     0.263 C 
ATOM      6  O   UNL     1       1.067   4.965  -0.522  1.00  0.00    -0.268 OA
ATOM      7  H   UNL     1      -0.845   5.951  -1.332  1.00  0.00     0.163 HD
BRANCH   5   8
ATOM      8  C   UNL     1      -0.042   2.900  -0.196  1.00  0.00     0.115 A 
ATOM      9  C   UNL     1      -0.798   1.782  -0.543  1.00  0.00     0.065 A 
ATOM     10  C   UNL     1      -0.411   0.617   0.195  1.00  0.00     0.038 A 
ATOM     11  C   UNL     1       0.566   0.864   1.125  1.00  0.00     0.068 A 
ATOM     12  S   UNL     1       1.063   2.485   1.088  1.00  0.00    -0.137 S 
BRANCH   9  13
ATOM     13  N   UNL     1      -1.733   1.743  -1.561  1.00  0.00    -0.321 N 
ATOM     14  C   UNL     1      -3.016   1.258  -1.541  1.00  0.00     0.265 C 
ATOM     15  O   UNL     1      -3.654   1.328  -2.601  1.00  0.00    -0.270 OA
ATOM     16  H   UNL     1      -1.435   2.115  -2.422  1.00  0.00     0.170 HD
BRANCH  14  17
ATOM     17  C   UNL     1      -3.688   0.668  -0.272  1.00  0.00     0.259 C 
ATOM     18  C   UNL     1      -3.684  -0.846  -0.430  1.00  0.00     0.064 C 
BRANCH  17  19
ATOM     19  O   UNL     1      -3.215   1.303   0.906  1.00  0.00    -0.481 OA
BRANCH  19  20
ATOM     20  C   UNL     1      -3.094   0.816   2.165  1.00  0.00     0.120 A 
ATOM     21  C   UNL     1      -2.113  -0.251   6.245  1.00  0.00     0.044 C 
ATOM     22  C   UNL     1      -2.507   0.139   4.853  1.00  0.00    -0.051 A 
ATOM     23  C   UNL     1      -2.887  -0.837   3.928  1.00  0.00     0.007 A 
ATOM     24  C   UNL     1      -2.444   1.466   4.430  1.00  0.00     0.007 A 
ATOM     25  C   UNL     1      -3.190  -0.497   2.600  1.00  0.00     0.047 A 
ATOM     26  C   UNL     1      -2.736   1.795   3.102  1.00  0.00     0.047 A 
ENDBRANCH  19  20
ENDBRANCH  17  19
ENDBRANCH  14  17
ENDBRANCH   9  13
ENDBRANCH   5   8
ENDBRANCH   3   4
ENDBRANCH   2   3
ENDBRANCH   1   2
BRANCH   1  27
ATOM     27  C   UNL     1      -2.556   6.495  -4.016  1.00  0.00     0.002 C 
BRANCH  27  28
ATOM     28  C   UNL     1      -3.309   5.438  -4.819  1.00  0.00     0.021 C 
BRANCH  28  29
ATOM     29  C   UNL     1      -4.781   5.734  -5.094  1.00  0.00     0.116 C 
BRANCH  29  30
ATOM     30  N   UNL     1      -5.049   6.238  -6.432  1.00  0.00    -0.352 N 
ATOM     31  C   UNL     1      -6.285   6.387  -7.060  1.00  0.00     0.251 C 
ATOM     32  H   UNL     1      -4.261   6.506  -6.958  1.00  0.00     0.163 HD
ATOM     33  O   UNL     1      -6.386   6.791  -8.210  1.00  0.00    -0.269 OA
BRANCH  31  34
ATOM     34  C   UNL     1      -7.498   6.158  -6.250  1.00  0.00     0.039 A 
ATOM     35  C   UNL     1      -8.325   7.262  -6.016  1.00  0.00     0.014 A 
ATOM     36  C   UNL     1      -7.654   4.982  -5.521  1.00  0.00     0.014 A 
ATOM     37  C   UNL     1      -9.141   7.273  -4.888  1.00  0.00     0.010 A 
ATOM     38  C   UNL     1      -8.392   5.026  -4.352  1.00  0.00     0.010 A 
ATOM     39  C   UNL     1      -9.073   6.198  -4.000  1.00  0.00    -0.014 A 
BRANCH  39  40
ATOM     40  C   UNL     1      -9.532   6.299  -2.617  1.00  0.00     0.031 A 
ATOM     41  C   UNL     1     -10.739   5.590  -2.154  1.00  0.00     0.074 A 
ATOM     42  C   UNL     1      -8.814   7.022  -1.730  1.00  0.00     0.049 A 
ATOM     43  N   UNL     1     -11.441   5.929  -1.125  1.00  0.00    -0.248 NA
ATOM     44  C   UNL     1     -11.293   4.457  -2.878  1.00  0.00     0.031 C 
ATOM     45  C   UNL     1      -8.946   7.037  -0.276  1.00  0.00     0.029 A 
ATOM     46  N   UNL     1      -7.989   8.107  -2.015  1.00  0.00    -0.354 N 
ATOM     47  C   UNL     1     -12.311   4.897  -0.857  1.00  0.00     0.074 A 
ATOM     48  C   UNL     1     -12.259   4.071  -2.041  1.00  0.00     0.031 C 
ATOM     49  C   UNL     1      -8.461   8.199   0.190  1.00  0.00     0.029 A 
ATOM     50  C   UNL     1      -8.133   9.022  -0.960  1.00  0.00     0.049 A 
ATOM     51  H   UNL     1      -7.414   8.213  -2.807  1.00  0.00     0.167 HD
ATOM     52  C   UNL     1     -12.836   4.778   0.399  1.00  0.00     0.034 A 
ATOM     53  C   UNL     1      -8.604  10.283  -1.184  1.00  0.00     0.034 A 
ATOM     54  C   UNL     1     -12.534   5.955   1.228  1.00  0.00     0.049 A 
ATOM     55  C   UNL     1      -9.869  10.604  -0.420  1.00  0.00     0.074 A 
ATOM     56  C   UNL     1     -11.665   6.179   2.284  1.00  0.00     0.029 A 
ATOM     57  N   UNL     1     -12.996   7.212   0.837  1.00  0.00    -0.354 N 
ATOM     58  N   UNL     1     -10.647   9.712   0.130  1.00  0.00    -0.248 NA
ATOM     59  C   UNL     1     -10.360  11.963  -0.229  1.00  0.00     0.031 C 
ATOM     60  C   UNL     1     -11.568   7.581   2.491  1.00  0.00     0.029 A 
ATOM     61  C   UNL     1     -12.395   8.213   1.578  1.00  0.00     0.049 A 
ATOM     62  H   UNL     1     -13.661   7.366   0.128  1.00  0.00     0.167 HD
ATOM     63  C   UNL     1     -11.720  10.333   0.722  1.00  0.00     0.074 A 
ATOM     64  C   UNL     1     -11.476  11.747   0.489  1.00  0.00     0.031 C 
ATOM     65  C   UNL     1     -12.713   9.621   1.343  1.00  0.00     0.034 A 
BRANCH  52  66
ATOM     66  C   UNL     1     -13.319   3.451   0.978  1.00  0.00     0.023 A 
ATOM     67  C   UNL     1     -13.243   3.233   2.372  1.00  0.00     0.031 A 
ATOM     68  C   UNL     1     -13.770   2.342   0.236  1.00  0.00     0.131 A 
ATOM     69  C   UNL     1     -13.470   1.961   2.939  1.00  0.00     0.055 A 
ATOM     70  C   UNL     1     -13.941   1.063   0.787  1.00  0.00     0.041 A 
ATOM     71  F   UNL     1     -14.137   2.446  -1.045  1.00  0.00    -0.206 F 
ATOM     72  C   UNL     1     -13.773   0.862   2.145  1.00  0.00     0.022 A 
BRANCH  69  73
ATOM     73  S   UNL     1     -13.363   1.755   4.739  1.00  0.00     0.124 S 
ATOM     74  O   UNL     1     -11.992   2.168   5.018  1.00  0.00    -0.237 OA
ATOM     75  O   UNL     1     -14.417   2.645   5.214  1.00  0.00    -0.237 OA
ATOM     76  O   UNL     1     -13.628   0.330   4.934  1.00  0.00    -0.744 OA
ENDBRANCH  69  73
ENDBRANCH  52  66
BRANCH  53  77
ATOM     77  C   UNL     1      -8.230  10.826  -2.522  1.00  0.00     0.023 A 
ATOM     78  C   UNL     1      -6.853  10.880  -2.832  1.00  0.00     0.031 A 
ATOM     79  C   UNL     1      -9.145  10.910  -3.579  1.00  0.00     0.131 A 
ATOM     80  C   UNL     1      -6.426  10.839  -4.165  1.00  0.00     0.055 A 
ATOM     81  C   UNL     1      -8.712  10.942  -4.912  1.00  0.00     0.041 A 
ATOM     82  F   UNL     1     -10.464  10.837  -3.350  1.00  0.00    -0.206 F 
ATOM     83  C   UNL     1      -7.351  10.860  -5.211  1.00  0.00     0.022 A 
BRANCH  80  84
ATOM     84  S   UNL     1      -4.677  10.502  -4.537  1.00  0.00     0.124 S 
ATOM     85  O   UNL     1      -4.212  11.798  -5.018  1.00  0.00    -0.237 OA
ATOM     86  O   UNL     1      -4.132  10.075  -3.251  1.00  0.00    -0.237 OA
ATOM     87  O   UNL     1      -4.755   9.442  -5.539  1.00  0.00    -0.744 OA
ENDBRANCH  80  84
ENDBRANCH  53  77
BRANCH  65  88
ATOM     88  C   UNL     1     -14.025  10.178   1.878  1.00  0.00     0.023 A 
ATOM     89  C   UNL     1     -14.498  11.472   1.612  1.00  0.00     0.031 A 
ATOM     90  C   UNL     1     -14.896   9.372   2.657  1.00  0.00     0.131 A 
ATOM     91  C   UNL     1     -15.705  11.947   2.163  1.00  0.00     0.055 A 
ATOM     92  C   UNL     1     -16.129   9.821   3.147  1.00  0.00     0.041 A 
ATOM     93  F   UNL     1     -14.598   8.103   2.970  1.00  0.00    -0.206 F 
ATOM     94  C   UNL     1     -16.535  11.124   2.916  1.00  0.00     0.022 A 
BRANCH  91  95
ATOM     95  S   UNL     1     -16.140  13.690   1.913  1.00  0.00     0.124 S 
ATOM     96  O   UNL     1     -15.049  14.374   2.602  1.00  0.00    -0.237 OA
ATOM     97  O   UNL     1     -16.141  13.807   0.458  1.00  0.00    -0.237 OA
ATOM     98  O   UNL     1     -17.450  13.815   2.547  1.00  0.00    -0.744 OA
ENDBRANCH  91  95
ENDBRANCH  65  88
ENDBRANCH  39  40
ENDBRANCH  31  34
ENDBRANCH  29  30
ENDBRANCH  28  29
ENDBRANCH  27  28
ENDBRANCH   1  27
TORSDOF 20
