REMARK SMILES CCc1ccc2c(c1)C=C(C(=O)NCCCCCCNC(=O)c1ccc(-c3c4nc(c(-c5cc(S(=O)(=O)[O-])ccc5F)c5ccc([nH]5)c(-c5cc(S(=O)(=O)[O-])ccc5F)c5nc(c(-c6cc(S(=O)(=O)[O-])ccc6F)c6ccc3[nH]6)C=C5)C=C4)cc1)[C@H](C(F)(F)F)O2
REMARK SMILES IDX 17 1 16 2 15 3 14 4 13 5 11 6 12 7 10 9 3 10 4 11 8 12 5 13
REMARK SMILES IDX 7 14 6 15 9 16 91 17 86 18 2 19 1 20 87 21 88 22 89 23 90 24
REMARK SMILES IDX 18 25 19 26 20 27 21 28 22 30 23 31 24 32 85 33 25 34 84 35
REMARK SMILES IDX 26 36 27 37 28 38 78 39 29 40 83 41 77 42 79 43 30 44 82 45
REMARK SMILES IDX 76 46 75 47 31 49 63 50 43 51 62 52 44 53 47 54 61 55 80 56
REMARK SMILES IDX 45 57 46 58 60 60 81 61 48 62 32 63 33 64 41 65 34 66 40 67
REMARK SMILES IDX 42 68 39 69 35 70 36 71 37 72 38 73 64 74 65 75 73 76 66 77
REMARK SMILES IDX 72 78 74 79 71 80 67 81 68 82 69 83 70 84 49 85 50 86 58 87
REMARK SMILES IDX 51 88 57 89 59 90 56 91 52 92 53 93 54 94 55 95
REMARK H PARENT 13 8 20 29 79 48 47 59
REMARK Flexibility Score: inf
ROOT
ATOM      1  C   UNL     1      -1.153  -7.965   2.893  1.00  0.00     0.002 C 
ENDROOT
BRANCH   1   2
ATOM      2  C   UNL     1      -1.839  -7.676   1.553  1.00  0.00     0.002 C 
BRANCH   2   3
ATOM      3  C   UNL     1      -1.273  -6.466   0.795  1.00  0.00     0.021 C 
BRANCH   3   4
ATOM      4  C   UNL     1       0.189  -6.653   0.371  1.00  0.00     0.116 C 
BRANCH   4   5
ATOM      5  N   UNL     1       0.246  -7.497  -0.812  1.00  0.00    -0.352 N 
ATOM      6  C   UNL     1       0.286  -7.222  -2.142  1.00  0.00     0.251 C 
ATOM      7  O   UNL     1       0.117  -8.152  -2.927  1.00  0.00    -0.270 OA
ATOM      8  H   UNL     1       0.257  -8.460  -0.608  1.00  0.00     0.163 HD
BRANCH   6   9
ATOM      9  C   UNL     1       0.614  -5.874  -2.673  1.00  0.00     0.067 C 
ATOM     10  C   UNL     1       0.922  -1.062  -2.287  1.00  0.00    -0.047 A 
ATOM     11  C   UNL     1       1.823  -1.043  -3.358  1.00  0.00     0.007 A 
ATOM     12  C   UNL     1       0.343  -2.282  -1.911  1.00  0.00     0.015 A 
ATOM     13  C   UNL     1       2.161  -2.227  -4.019  1.00  0.00     0.047 A 
ATOM     14  C   UNL     1       0.684  -3.469  -2.570  1.00  0.00     0.017 A 
ATOM     15  C   UNL     1       1.601  -3.438  -3.616  1.00  0.00     0.128 A 
ATOM     16  C   UNL     1       0.190  -4.747  -2.084  1.00  0.00     0.025 C 
ATOM     17  O   UNL     1       2.060  -4.561  -4.238  1.00  0.00    -0.475 OA
ATOM     18  C   UNL     1       1.335  -5.808  -4.018  1.00  0.00     0.314 C 
BRANCH  10  19
ATOM     19  C   UNL     1       0.596   0.201  -1.526  1.00  0.00     0.032 C 
ATOM     20  C   UNL     1       1.133   0.178  -0.099  1.00  0.00     0.009 C 
ENDBRANCH  10  19
BRANCH  18  21
ATOM     21  C   UNL     1       2.306  -6.959  -4.368  1.00  0.00     0.429 C 
ATOM     22  F   UNL     1       1.677  -8.049  -4.862  1.00  0.00    -0.167 F 
ATOM     23  F   UNL     1       3.170  -6.577  -5.350  1.00  0.00    -0.167 F 
ATOM     24  F   UNL     1       3.063  -7.342  -3.315  1.00  0.00    -0.167 F 
ENDBRANCH  18  21
ENDBRANCH   6   9
ENDBRANCH   4   5
ENDBRANCH   3   4
ENDBRANCH   2   3
ENDBRANCH   1   2
BRANCH   1  25
ATOM     25  C   UNL     1      -1.139  -6.790   3.874  1.00  0.00     0.021 C 
BRANCH  25  26
ATOM     26  C   UNL     1      -2.524  -6.316   4.300  1.00  0.00     0.116 C 
BRANCH  26  27
ATOM     27  N   UNL     1      -3.230  -7.343   5.048  1.00  0.00    -0.352 N 
ATOM     28  C   UNL     1      -3.778  -7.277   6.305  1.00  0.00     0.251 C 
ATOM     29  H   UNL     1      -3.329  -8.209   4.589  1.00  0.00     0.163 HD
ATOM     30  O   UNL     1      -4.101  -8.310   6.882  1.00  0.00    -0.269 OA
BRANCH  28  31
ATOM     31  C   UNL     1      -3.960  -5.963   6.958  1.00  0.00     0.039 A 
ATOM     32  C   UNL     1      -3.648  -5.830   8.312  1.00  0.00     0.014 A 
ATOM     33  C   UNL     1      -4.453  -4.869   6.239  1.00  0.00     0.014 A 
ATOM     34  C   UNL     1      -3.785  -4.587   8.933  1.00  0.00     0.010 A 
ATOM     35  C   UNL     1      -4.515  -3.614   6.840  1.00  0.00     0.010 A 
ATOM     36  C   UNL     1      -4.192  -3.461   8.196  1.00  0.00    -0.014 A 
BRANCH  36  37
ATOM     37  C   UNL     1      -4.290  -2.124   8.838  1.00  0.00     0.031 A 
ATOM     38  C   UNL     1      -5.621  -1.429   8.942  1.00  0.00     0.074 A 
ATOM     39  C   UNL     1      -3.173  -1.523   9.292  1.00  0.00     0.049 A 
ATOM     40  N   UNL     1      -5.904  -0.255   9.447  1.00  0.00    -0.248 NA
ATOM     41  C   UNL     1      -6.782  -2.133   8.376  1.00  0.00     0.031 C 
ATOM     42  C   UNL     1      -1.820  -2.079   9.203  1.00  0.00     0.029 A 
ATOM     43  N   UNL     1      -2.993  -0.316   9.920  1.00  0.00    -0.354 N 
ATOM     44  C   UNL     1      -7.271  -0.078   9.254  1.00  0.00     0.074 A 
ATOM     45  C   UNL     1      -7.742  -1.233   8.522  1.00  0.00     0.031 C 
ATOM     46  C   UNL     1      -0.958  -1.234   9.788  1.00  0.00     0.029 A 
ATOM     47  C   UNL     1      -1.683  -0.057  10.255  1.00  0.00     0.049 A 
ATOM     48  H   UNL     1      -3.731   0.305  10.114  1.00  0.00     0.167 HD
ATOM     49  C   UNL     1      -8.062   0.941   9.674  1.00  0.00     0.034 A 
ATOM     50  C   UNL     1      -1.129   1.010  10.865  1.00  0.00     0.034 A 
ATOM     51  C   UNL     1      -7.574   2.083  10.410  1.00  0.00     0.049 A 
ATOM     52  C   UNL     1      -2.027   2.137  11.310  1.00  0.00     0.074 A 
ATOM     53  C   UNL     1      -8.290   3.150  10.923  1.00  0.00     0.029 A 
ATOM     54  N   UNL     1      -6.241   2.311  10.733  1.00  0.00    -0.354 N 
ATOM     55  N   UNL     1      -3.327   2.265  11.167  1.00  0.00    -0.248 NA
ATOM     56  C   UNL     1      -1.386   3.253  12.015  1.00  0.00     0.031 C 
ATOM     57  C   UNL     1      -7.387   4.055  11.489  1.00  0.00     0.029 A 
ATOM     58  C   UNL     1      -6.114   3.514  11.412  1.00  0.00     0.049 A 
ATOM     59  H   UNL     1      -5.496   1.707  10.512  1.00  0.00     0.167 HD
ATOM     60  C   UNL     1      -3.662   3.458  11.802  1.00  0.00     0.074 A 
ATOM     61  C   UNL     1      -2.430   4.001  12.338  1.00  0.00     0.031 C 
ATOM     62  C   UNL     1      -4.878   4.048  11.936  1.00  0.00     0.034 A 
BRANCH  49  63
ATOM     63  C   UNL     1      -9.531   0.872   9.322  1.00  0.00     0.023 A 
ATOM     64  C   UNL     1     -10.354  -0.172   9.781  1.00  0.00     0.031 A 
ATOM     65  C   UNL     1     -10.114   1.849   8.494  1.00  0.00     0.131 A 
ATOM     66  C   UNL     1     -11.686  -0.259   9.348  1.00  0.00     0.055 A 
ATOM     67  C   UNL     1     -11.464   1.805   8.139  1.00  0.00     0.041 A 
ATOM     68  F   UNL     1      -9.377   2.858   8.004  1.00  0.00    -0.206 F 
ATOM     69  C   UNL     1     -12.255   0.737   8.553  1.00  0.00     0.022 A 
BRANCH  66  70
ATOM     70  S   UNL     1     -12.617  -1.773   9.712  1.00  0.00     0.124 S 
ATOM     71  O   UNL     1     -11.782  -2.791   9.080  1.00  0.00    -0.237 OA
ATOM     72  O   UNL     1     -12.645  -1.783  11.170  1.00  0.00    -0.237 OA
ATOM     73  O   UNL     1     -13.907  -1.546   9.063  1.00  0.00    -0.744 OA
ENDBRANCH  66  70
ENDBRANCH  49  63
BRANCH  50  74
ATOM     74  C   UNL     1       0.343   1.068  11.098  1.00  0.00     0.023 A 
ATOM     75  C   UNL     1       0.870   1.098  12.399  1.00  0.00     0.031 A 
ATOM     76  C   UNL     1       1.245   1.135  10.021  1.00  0.00     0.131 A 
ATOM     77  C   UNL     1       2.252   1.248  12.592  1.00  0.00     0.055 A 
ATOM     78  C   UNL     1       2.624   1.224  10.218  1.00  0.00     0.041 A 
ATOM     79  F   UNL     1       0.796   1.104   8.756  1.00  0.00    -0.206 F 
ATOM     80  C   UNL     1       3.134   1.296  11.510  1.00  0.00     0.022 A 
BRANCH  77  81
ATOM     81  S   UNL     1       2.875   1.475  14.280  1.00  0.00     0.124 S 
ATOM     82  O   UNL     1       2.136   2.656  14.712  1.00  0.00    -0.237 OA
ATOM     83  O   UNL     1       2.498   0.215  14.913  1.00  0.00    -0.237 OA
ATOM     84  O   UNL     1       4.310   1.670  14.090  1.00  0.00    -0.744 OA
ENDBRANCH  77  81
ENDBRANCH  50  74
BRANCH  62  85
ATOM     85  C   UNL     1      -4.937   5.322  12.747  1.00  0.00     0.023 A 
ATOM     86  C   UNL     1      -4.290   6.499  12.334  1.00  0.00     0.031 A 
ATOM     87  C   UNL     1      -5.636   5.347  13.967  1.00  0.00     0.131 A 
ATOM     88  C   UNL     1      -4.296   7.629  13.166  1.00  0.00     0.055 A 
ATOM     89  C   UNL     1      -5.698   6.496  14.757  1.00  0.00     0.041 A 
ATOM     90  F   UNL     1      -6.271   4.251  14.414  1.00  0.00    -0.206 F 
ATOM     91  C   UNL     1      -5.011   7.641  14.366  1.00  0.00     0.022 A 
BRANCH  88  92
ATOM     92  S   UNL     1      -3.258   9.047  12.715  1.00  0.00     0.124 S 
ATOM     93  O   UNL     1      -1.937   8.436  12.613  1.00  0.00    -0.237 OA
ATOM     94  O   UNL     1      -3.857   9.484  11.458  1.00  0.00    -0.237 OA
ATOM     95  O   UNL     1      -3.430   9.969  13.837  1.00  0.00    -0.744 OA
ENDBRANCH  88  92
ENDBRANCH  62  85
ENDBRANCH  36  37
ENDBRANCH  28  31
ENDBRANCH  26  27
ENDBRANCH  25  26
ENDBRANCH   1  25
TORSDOF 18
