REMARK SMILES CC1(C)C[C@@]([NH2+]CCN=[N+]=[N-])(C(=O)NCCCCCCNC(=O)c2ccc(-c3c4nc(c(-c5cc(S(=O)(=O)[O-])ccc5F)c5ccc([nH]5)c(-c5cc(S(=O)(=O)[O-])ccc5F)c5nc(c(-c6cc(S(=O)(=O)[O-])ccc6F)c6ccc3[nH]6)C=C5)C=C4)cc2)C(C)(C)O1
REMARK SMILES IDX 17 1 16 2 15 3 14 4 12 5 13 6 5 8 1 9 2 10 3 11 4 12 90 13
REMARK SMILES IDX 87 14 88 15 89 16 6 17 7 20 8 21 9 22 10 23 11 24 18 25
REMARK SMILES IDX 19 26 20 27 21 28 22 29 23 31 24 32 25 33 86 34 26 35 85 36
REMARK SMILES IDX 27 37 28 38 29 39 79 40 30 41 84 42 78 43 80 44 31 45 83 46
REMARK SMILES IDX 77 47 76 48 32 50 64 51 44 52 63 53 45 54 48 55 62 56 81 57
REMARK SMILES IDX 46 58 47 59 61 61 82 62 49 63 33 64 34 65 42 66 35 67 41 68
REMARK SMILES IDX 43 69 40 70 36 71 37 72 38 73 39 74 65 75 66 76 74 77 67 78
REMARK SMILES IDX 73 79 75 80 72 81 68 82 69 83 70 84 71 85 50 86 51 87 59 88
REMARK SMILES IDX 52 89 58 90 60 91 57 92 53 93 54 94 55 95 56 96
REMARK H PARENT 14 7 6 18 6 19 21 30 80 49 48 60
REMARK Flexibility Score: inf
ROOT
ATOM      1  C   UNL     1       0.799  -3.861   8.418  1.00  0.00     0.002 C 
ENDROOT
BRANCH   1   2
ATOM      2  C   UNL     1       0.180  -3.725   7.033  1.00  0.00     0.021 C 
BRANCH   2   3
ATOM      3  C   UNL     1       0.355  -2.383   6.343  1.00  0.00     0.116 C 
BRANCH   3   4
ATOM      4  N   UNL     1       1.586  -2.171   5.633  1.00  0.00    -0.351 N 
ATOM      5  C   UNL     1       1.908  -1.339   4.601  1.00  0.00     0.284 C 
ATOM      6  O   UNL     1       3.120  -1.374   4.333  1.00  0.00    -0.268 OA
ATOM      7  H   UNL     1       2.333  -2.728   5.950  1.00  0.00     0.163 HD
BRANCH   5   8
ATOM      8  C   UNL     1       0.906  -0.475   3.702  1.00  0.00     0.206 C 
ATOM      9  C   UNL     1       1.356   0.008  -0.016  1.00  0.00     0.042 C 
ATOM     10  C   UNL     1       0.649   0.094   1.337  1.00  0.00     0.070 C 
ATOM     11  C   UNL     1      -0.864   0.171   1.089  1.00  0.00     0.042 C 
ATOM     12  C   UNL     1       1.071  -1.045   2.264  1.00  0.00     0.117 C 
ATOM     13  O   UNL     1       1.062   1.300   1.996  1.00  0.00    -0.362 OA
ATOM     14  C   UNL     1       1.389   1.013   3.392  1.00  0.00     0.127 C 
ATOM     15  C   UNL     1       2.911   1.237   3.491  1.00  0.00     0.049 C 
ATOM     16  C   UNL     1       0.740   2.135   4.205  1.00  0.00     0.049 C 
BRANCH   8  17
ATOM     17  N   UNL     1      -0.546  -0.707   3.959  1.00  0.00    -0.331 N 
ATOM     18  H   UNL     1      -0.655  -1.707   4.130  1.00  0.00     0.347 HD
ATOM     19  H   UNL     1      -0.989  -0.310   3.131  1.00  0.00     0.347 HD
BRANCH  17  20
ATOM     20  C   UNL     1      -1.231  -0.024   5.049  1.00  0.00     0.267 C 
BRANCH  20  21
ATOM     21  C   UNL     1      -2.594  -0.630   5.487  1.00  0.00     0.152 C 
BRANCH  21  22
ATOM     22  N   UNL     1      -2.679  -2.091   5.323  1.00  0.00    -0.088 NA
ATOM     23  N   UNL     1      -3.043  -2.497   4.201  1.00  0.00     0.001 N 
ATOM     24  N   UNL     1      -3.321  -2.879   3.167  1.00  0.00    -0.003 NA
ENDBRANCH  21  22
ENDBRANCH  20  21
ENDBRANCH  17  20
ENDBRANCH   8  17
ENDBRANCH   5   8
ENDBRANCH   3   4
ENDBRANCH   2   3
ENDBRANCH   1   2
BRANCH   1  25
ATOM     25  C   UNL     1       0.526  -2.726   9.410  1.00  0.00     0.002 C 
BRANCH  25  26
ATOM     26  C   UNL     1      -0.930  -2.281   9.588  1.00  0.00     0.021 C 
BRANCH  26  27
ATOM     27  C   UNL     1      -1.944  -3.381   9.880  1.00  0.00     0.116 C 
BRANCH  27  28
ATOM     28  N   UNL     1      -1.556  -4.210  11.005  1.00  0.00    -0.352 N 
ATOM     29  C   UNL     1      -2.248  -4.528  12.145  1.00  0.00     0.251 C 
ATOM     30  H   UNL     1      -0.657  -4.607  10.940  1.00  0.00     0.163 HD
ATOM     31  O   UNL     1      -1.664  -5.098  13.063  1.00  0.00    -0.269 OA
BRANCH  29  32
ATOM     32  C   UNL     1      -3.677  -4.168  12.281  1.00  0.00     0.039 A 
ATOM     33  C   UNL     1      -4.130  -3.679  13.508  1.00  0.00     0.014 A 
ATOM     34  C   UNL     1      -4.574  -4.337  11.222  1.00  0.00     0.014 A 
ATOM     35  C   UNL     1      -5.471  -3.319  13.660  1.00  0.00     0.010 A 
ATOM     36  C   UNL     1      -5.891  -3.900  11.350  1.00  0.00     0.010 A 
ATOM     37  C   UNL     1      -6.358  -3.399  12.574  1.00  0.00    -0.014 A 
BRANCH  37  38
ATOM     38  C   UNL     1      -7.780  -2.989  12.716  1.00  0.00     0.031 A 
ATOM     39  C   UNL     1      -8.878  -4.005  12.540  1.00  0.00     0.074 A 
ATOM     40  C   UNL     1      -8.084  -1.701  12.971  1.00  0.00     0.049 A 
ATOM     41  N   UNL     1     -10.176  -3.836  12.576  1.00  0.00    -0.248 NA
ATOM     42  C   UNL     1      -8.461  -5.387  12.261  1.00  0.00     0.031 C 
ATOM     43  C   UNL     1      -7.107  -0.622  13.138  1.00  0.00     0.029 A 
ATOM     44  N   UNL     1      -9.295  -1.078  13.136  1.00  0.00    -0.354 N 
ATOM     45  C   UNL     1     -10.728  -5.087  12.319  1.00  0.00     0.074 A 
ATOM     46  C   UNL     1      -9.624  -5.985  12.057  1.00  0.00     0.031 C 
ATOM     47  C   UNL     1      -7.757   0.520  13.416  1.00  0.00     0.029 A 
ATOM     48  C   UNL     1      -9.195   0.271  13.393  1.00  0.00     0.049 A 
ATOM     49  H   UNL     1     -10.156  -1.551  13.077  1.00  0.00     0.167 HD
ATOM     50  C   UNL     1     -12.033  -5.458  12.328  1.00  0.00     0.034 A 
ATOM     51  C   UNL     1     -10.152   1.202  13.577  1.00  0.00     0.034 A 
ATOM     52  C   UNL     1     -13.121  -4.548  12.594  1.00  0.00     0.049 A 
ATOM     53  C   UNL     1     -11.599   0.776  13.529  1.00  0.00     0.074 A 
ATOM     54  C   UNL     1     -14.476  -4.821  12.660  1.00  0.00     0.029 A 
ATOM     55  N   UNL     1     -12.981  -3.185  12.828  1.00  0.00    -0.354 N 
ATOM     56  N   UNL     1     -12.103  -0.419  13.321  1.00  0.00    -0.248 NA
ATOM     57  C   UNL     1     -12.604   1.822  13.752  1.00  0.00     0.031 C 
ATOM     58  C   UNL     1     -15.159  -3.616  12.850  1.00  0.00     0.029 A 
ATOM     59  C   UNL     1     -14.227  -2.602  13.004  1.00  0.00     0.049 A 
ATOM     60  H   UNL     1     -12.123  -2.704  12.863  1.00  0.00     0.167 HD
ATOM     61  C   UNL     1     -13.483  -0.273  13.434  1.00  0.00     0.074 A 
ATOM     62  C   UNL     1     -13.728   1.121  13.740  1.00  0.00     0.031 C 
ATOM     63  C   UNL     1     -14.460  -1.208  13.305  1.00  0.00     0.034 A 
BRANCH  50  64
ATOM     64  C   UNL     1     -12.349  -6.902  12.015  1.00  0.00     0.023 A 
ATOM     65  C   UNL     1     -11.874  -7.955  12.818  1.00  0.00     0.031 A 
ATOM     66  C   UNL     1     -13.115  -7.237  10.884  1.00  0.00     0.131 A 
ATOM     67  C   UNL     1     -12.099  -9.286  12.437  1.00  0.00     0.055 A 
ATOM     68  C   UNL     1     -13.415  -8.562  10.561  1.00  0.00     0.041 A 
ATOM     69  F   UNL     1     -13.578  -6.280  10.063  1.00  0.00    -0.206 F 
ATOM     70  C   UNL     1     -12.891  -9.597  11.330  1.00  0.00     0.022 A 
BRANCH  67  71
ATOM     71  S   UNL     1     -11.207 -10.599  13.315  1.00  0.00     0.124 S 
ATOM     72  O   UNL     1      -9.817 -10.203  13.102  1.00  0.00    -0.237 OA
ATOM     73  O   UNL     1     -11.709 -10.466  14.677  1.00  0.00    -0.237 OA
ATOM     74  O   UNL     1     -11.613 -11.816  12.614  1.00  0.00    -0.744 OA
ENDBRANCH  67  71
ENDBRANCH  50  64
BRANCH  51  75
ATOM     75  C   UNL     1      -9.787   2.630  13.815  1.00  0.00     0.023 A 
ATOM     76  C   UNL     1     -10.143   3.280  15.008  1.00  0.00     0.031 A 
ATOM     77  C   UNL     1      -9.129   3.386  12.828  1.00  0.00     0.131 A 
ATOM     78  C   UNL     1      -9.896   4.653  15.159  1.00  0.00     0.055 A 
ATOM     79  C   UNL     1      -8.824   4.736  13.011  1.00  0.00     0.041 A 
ATOM     80  F   UNL     1      -8.764   2.818  11.667  1.00  0.00    -0.206 F 
ATOM     81  C   UNL     1      -9.224   5.382  14.176  1.00  0.00     0.022 A 
BRANCH  78  82
ATOM     82  S   UNL     1     -10.569   5.500  16.615  1.00  0.00     0.124 S 
ATOM     83  O   UNL     1     -11.993   5.208  16.494  1.00  0.00    -0.237 OA
ATOM     84  O   UNL     1      -9.867   4.832  17.706  1.00  0.00    -0.237 OA
ATOM     85  O   UNL     1     -10.196   6.896  16.398  1.00  0.00    -0.744 OA
ENDBRANCH  78  82
ENDBRANCH  51  75
BRANCH  63  86
ATOM     86  C   UNL     1     -15.881  -0.762  13.561  1.00  0.00     0.023 A 
ATOM     87  C   UNL     1     -16.526   0.184  12.746  1.00  0.00     0.031 A 
ATOM     88  C   UNL     1     -16.596  -1.287  14.653  1.00  0.00     0.131 A 
ATOM     89  C   UNL     1     -17.817   0.626  13.074  1.00  0.00     0.055 A 
ATOM     90  C   UNL     1     -17.908  -0.900  14.930  1.00  0.00     0.041 A 
ATOM     91  F   UNL     1     -16.031  -2.190  15.471  1.00  0.00    -0.206 F 
ATOM     92  C   UNL     1     -18.520   0.074  14.148  1.00  0.00     0.022 A 
BRANCH  89  93
ATOM     93  S   UNL     1     -18.522   2.017  12.149  1.00  0.00     0.124 S 
ATOM     94  O   UNL     1     -17.518   3.056  12.351  1.00  0.00    -0.237 OA
ATOM     95  O   UNL     1     -18.616   1.477  10.796  1.00  0.00    -0.237 OA
ATOM     96  O   UNL     1     -19.804   2.256  12.811  1.00  0.00    -0.744 OA
ENDBRANCH  89  93
ENDBRANCH  63  86
ENDBRANCH  37  38
ENDBRANCH  29  32
ENDBRANCH  27  28
ENDBRANCH  26  27
ENDBRANCH  25  26
ENDBRANCH   1  25
TORSDOF 20
