REMARK SMILES O=C(CCC(=O)N1N=C(c2ccc(F)cc2)C[C@@H]1c1ccc2nccnc2c1)NCCCCCCNC(=O)c1ccc(-c2c3nc(c(-c4cc(S(=O)(=O)[O-])ccc4F)c4ccc([nH]4)c(-c4cc(S(=O)(=O)[O-])ccc4F)c4nc(c(-c5cc(S(=O)(=O)[O-])ccc5F)c5ccc2[nH]5)C=C4)C=C3)cc1
REMARK SMILES IDX 32 1 31 2 30 3 29 4 1 5 2 6 3 8 4 9 5 10 6 11 7 12 8 13
REMARK SMILES IDX 18 14 9 15 17 16 19 17 20 18 28 19 21 20 27 21 22 22 26 23
REMARK SMILES IDX 23 24 25 25 24 26 10 27 11 28 16 29 12 30 15 31 13 32 14 33
REMARK SMILES IDX 33 34 34 35 35 36 36 37 37 38 38 40 39 41 40 42 101 43 41 44
REMARK SMILES IDX 100 45 42 46 43 47 44 48 94 49 45 50 99 51 93 52 95 53 46 54
REMARK SMILES IDX 98 55 92 56 91 57 47 59 79 60 59 61 78 62 60 63 63 64 77 65
REMARK SMILES IDX 96 66 61 67 62 68 76 70 97 71 64 72 48 73 49 74 57 75 50 76
REMARK SMILES IDX 56 77 58 78 55 79 51 80 52 81 53 82 54 83 80 84 81 85 89 86
REMARK SMILES IDX 82 87 88 88 90 89 87 90 83 91 84 92 85 93 86 94 65 95 66 96
REMARK SMILES IDX 74 97 67 98 73 99 75 100 72 101 68 102 69 103 70 104 71 105
REMARK H PARENT 29 7 36 39 95 58 63 69
REMARK Flexibility Score: inf
ROOT
ATOM      1  C   UNL     1       2.534   4.199  -1.803  1.00  0.00     0.002 C 
ENDROOT
BRANCH   1   2
ATOM      2  C   UNL     1       1.231   3.354  -1.981  1.00  0.00     0.021 C 
BRANCH   2   3
ATOM      3  C   UNL     1       0.946   1.811  -1.908  1.00  0.00     0.116 C 
BRANCH   3   4
ATOM      4  N   UNL     1       1.259   1.008  -0.710  1.00  0.00    -0.356 N 
ATOM      5  O   UNL     1       1.091  -1.039  -1.749  1.00  0.00    -0.275 OA
ATOM      6  C   UNL     1       1.440  -0.381  -0.773  1.00  0.00     0.220 C 
ATOM      7  H   UNL     1       1.342   1.461   0.160  1.00  0.00     0.163 HD
BRANCH   6   8
ATOM      8  C   UNL     1       2.259  -1.027   0.386  1.00  0.00     0.110 C 
BRANCH   8   9
ATOM      9  C   UNL     1       3.377  -1.991  -0.129  1.00  0.00     0.112 C 
BRANCH   9  10
ATOM     10  C   UNL     1       4.885  -1.639  -0.408  1.00  0.00     0.243 C 
ATOM     11  O   UNL     1       5.741  -2.499  -0.164  1.00  0.00    -0.273 OA
BRANCH  10  12
ATOM     12  N   UNL     1       5.202  -0.487  -1.123  1.00  0.00    -0.225 N 
ATOM     13  N   UNL     1       5.820  -0.622  -2.398  1.00  0.00    -0.174 NA
ATOM     14  C   UNL     1       4.401   0.708  -1.086  1.00  0.00     0.147 C 
ATOM     15  C   UNL     1       5.160   0.183  -3.184  1.00  0.00     0.071 C 
ATOM     16  C   UNL     1       3.971   0.792  -2.533  1.00  0.00     0.091 C 
BRANCH  14  17
ATOM     17  C   UNL     1       4.806   1.771  -0.067  1.00  0.00    -0.021 A 
ATOM     18  C   UNL     1       3.777   2.487   0.565  1.00  0.00     0.008 A 
ATOM     19  C   UNL     1       6.075   1.946   0.496  1.00  0.00     0.036 A 
ATOM     20  C   UNL     1       3.962   3.352   1.637  1.00  0.00     0.031 A 
ATOM     21  C   UNL     1       6.296   2.797   1.608  1.00  0.00     0.089 A 
ATOM     22  C   UNL     1       5.206   3.517   2.168  1.00  0.00     0.089 A 
ATOM     23  N   UNL     1       7.514   2.923   2.174  1.00  0.00    -0.253 NA
ATOM     24  N   UNL     1       5.312   4.343   3.221  1.00  0.00    -0.253 NA
ATOM     25  C   UNL     1       7.612   3.755   3.244  1.00  0.00     0.132 A 
ATOM     26  C   UNL     1       6.539   4.457   3.751  1.00  0.00     0.132 A 
ENDBRANCH  14  17
BRANCH  15  27
ATOM     27  C   UNL     1       5.284   0.376  -4.639  1.00  0.00    -0.002 A 
ATOM     28  C   UNL     1       5.862   1.546  -5.145  1.00  0.00     0.013 A 
ATOM     29  C   UNL     1       4.555  -0.470  -5.489  1.00  0.00     0.013 A 
ATOM     30  C   UNL     1       5.735   1.851  -6.507  1.00  0.00     0.040 A 
ATOM     31  C   UNL     1       4.431  -0.159  -6.848  1.00  0.00     0.040 A 
ATOM     32  C   UNL     1       5.023   0.997  -7.344  1.00  0.00     0.123 A 
ATOM     33  F   UNL     1       4.884   1.305  -8.640  1.00  0.00    -0.207 F 
ENDBRANCH  15  27
ENDBRANCH  10  12
ENDBRANCH   9  10
ENDBRANCH   8   9
ENDBRANCH   6   8
ENDBRANCH   3   4
ENDBRANCH   2   3
ENDBRANCH   1   2
BRANCH   1  34
ATOM     34  C   UNL     1       3.836   4.138  -2.626  1.00  0.00     0.002 C 
BRANCH  34  35
ATOM     35  C   UNL     1       3.720   4.607  -4.072  1.00  0.00     0.021 C 
BRANCH  35  36
ATOM     36  C   UNL     1       4.035   6.093  -4.183  1.00  0.00     0.116 C 
BRANCH  36  37
ATOM     37  N   UNL     1       5.466   6.377  -4.079  1.00  0.00    -0.352 N 
ATOM     38  C   UNL     1       6.179   7.359  -4.750  1.00  0.00     0.251 C 
ATOM     39  H   UNL     1       5.982   5.807  -3.464  1.00  0.00     0.163 HD
ATOM     40  O   UNL     1       7.381   7.438  -4.675  1.00  0.00    -0.269 OA
BRANCH  38  41
ATOM     41  C   UNL     1       5.390   8.277  -5.602  1.00  0.00     0.039 A 
ATOM     42  C   UNL     1       5.645   8.320  -6.972  1.00  0.00     0.014 A 
ATOM     43  C   UNL     1       4.284   8.927  -5.050  1.00  0.00     0.014 A 
ATOM     44  C   UNL     1       4.722   8.946  -7.811  1.00  0.00     0.010 A 
ATOM     45  C   UNL     1       3.322   9.457  -5.895  1.00  0.00     0.010 A 
ATOM     46  C   UNL     1       3.528   9.468  -7.284  1.00  0.00    -0.014 A 
BRANCH  46  47
ATOM     47  C   UNL     1       2.478  10.048  -8.156  1.00  0.00     0.031 A 
ATOM     48  C   UNL     1       2.092  11.491  -7.972  1.00  0.00     0.074 A 
ATOM     49  C   UNL     1       1.831   9.271  -9.050  1.00  0.00     0.049 A 
ATOM     50  N   UNL     1       1.112  12.159  -8.519  1.00  0.00    -0.248 NA
ATOM     51  C   UNL     1       2.891  12.274  -7.014  1.00  0.00     0.031 C 
ATOM     52  C   UNL     1       2.096   7.850  -9.290  1.00  0.00     0.029 A 
ATOM     53  N   UNL     1       0.816   9.567  -9.925  1.00  0.00    -0.354 N 
ATOM     54  C   UNL     1       1.166  13.430  -7.959  1.00  0.00     0.074 A 
ATOM     55  C   UNL     1       2.233  13.422  -6.984  1.00  0.00     0.031 C 
ATOM     56  C   UNL     1       1.299   7.413 -10.279  1.00  0.00     0.029 A 
ATOM     57  C   UNL     1       0.431   8.503 -10.710  1.00  0.00     0.049 A 
ATOM     58  H   UNL     1       0.402  10.458  -9.986  1.00  0.00     0.167 HD
ATOM     59  C   UNL     1       0.414  14.514  -8.256  1.00  0.00     0.034 A 
ATOM     60  C   UNL     1      -0.516   8.421 -11.666  1.00  0.00     0.034 A 
ATOM     61  C   UNL     1      -0.611  14.522  -9.264  1.00  0.00     0.049 A 
ATOM     62  C   UNL     1      -1.334   9.647 -11.982  1.00  0.00     0.074 A 
ATOM     63  C   UNL     1      -1.411  15.576  -9.668  1.00  0.00     0.029 A 
ATOM     64  N   UNL     1      -0.961  13.430 -10.044  1.00  0.00    -0.354 N 
ATOM     65  N   UNL     1      -1.280  10.836 -11.427  1.00  0.00    -0.248 NA
ATOM     66  C   UNL     1      -2.336   9.524 -13.049  1.00  0.00     0.031 C 
ATOM     67  C   UNL     1      -2.272  15.110 -10.665  1.00  0.00     0.029 A 
ATOM     68  C   UNL     1      -1.968  13.783 -10.924  1.00  0.00     0.049 A 
ATOM     69  H   UNL     1      -0.553  12.536  -9.981  1.00  0.00     0.167 HD
ATOM     70  C   UNL     1      -2.217  11.611 -12.102  1.00  0.00     0.074 A 
ATOM     71  C   UNL     1      -2.822  10.756 -13.104  1.00  0.00     0.031 C 
ATOM     72  C   UNL     1      -2.547  12.913 -11.916  1.00  0.00     0.034 A 
BRANCH  59  73
ATOM     73  C   UNL     1       0.679  15.780  -7.489  1.00  0.00     0.023 A 
ATOM     74  C   UNL     1       1.870  16.504  -7.666  1.00  0.00     0.031 A 
ATOM     75  C   UNL     1      -0.278  16.282  -6.591  1.00  0.00     0.131 A 
ATOM     76  C   UNL     1       2.090  17.675  -6.928  1.00  0.00     0.055 A 
ATOM     77  C   UNL     1      -0.080  17.481  -5.905  1.00  0.00     0.041 A 
ATOM     78  F   UNL     1      -1.422  15.616  -6.370  1.00  0.00    -0.206 F 
ATOM     79  C   UNL     1       1.112  18.183  -6.068  1.00  0.00     0.022 A 
BRANCH  76  80
ATOM     80  S   UNL     1       3.698  18.500  -7.061  1.00  0.00     0.124 S 
ATOM     81  O   UNL     1       4.574  17.539  -6.395  1.00  0.00    -0.237 OA
ATOM     82  O   UNL     1       3.873  18.629  -8.503  1.00  0.00    -0.237 OA
ATOM     83  O   UNL     1       3.498  19.757  -6.344  1.00  0.00    -0.744 OA
ENDBRANCH  76  80
ENDBRANCH  59  73
BRANCH  60  84
ATOM     84  C   UNL     1      -0.741   7.145 -12.403  1.00  0.00     0.023 A 
ATOM     85  C   UNL     1      -0.441   7.043 -13.771  1.00  0.00     0.031 A 
ATOM     86  C   UNL     1      -1.279   6.016 -11.760  1.00  0.00     0.131 A 
ATOM     87  C   UNL     1      -0.715   5.852 -14.461  1.00  0.00     0.055 A 
ATOM     88  C   UNL     1      -1.510   4.820 -12.441  1.00  0.00     0.041 A 
ATOM     89  F   UNL     1      -1.575   6.058 -10.451  1.00  0.00    -0.206 F 
ATOM     90  C   UNL     1      -1.236   4.736 -13.803  1.00  0.00     0.022 A 
BRANCH  87  91
ATOM     91  S   UNL     1      -0.430   5.799 -16.252  1.00  0.00     0.124 S 
ATOM     92  O   UNL     1      -1.350   6.825 -16.729  1.00  0.00    -0.237 OA
ATOM     93  O   UNL     1       0.991   6.117 -16.343  1.00  0.00    -0.237 OA
ATOM     94  O   UNL     1      -0.782   4.427 -16.612  1.00  0.00    -0.744 OA
ENDBRANCH  87  91
ENDBRANCH  60  84
BRANCH  72  95
ATOM     95  C   UNL     1      -3.568  13.508 -12.845  1.00  0.00     0.023 A 
ATOM     96  C   UNL     1      -4.928  13.175 -12.751  1.00  0.00     0.031 A 
ATOM     97  C   UNL     1      -3.174  14.457 -13.804  1.00  0.00     0.131 A 
ATOM     98  C   UNL     1      -5.848  13.767 -13.627  1.00  0.00     0.055 A 
ATOM     99  C   UNL     1      -4.101  15.078 -14.641  1.00  0.00     0.041 A 
ATOM    100  F   UNL     1      -1.885  14.810 -13.925  1.00  0.00    -0.206 F 
ATOM    101  C   UNL     1      -5.446  14.729 -14.559  1.00  0.00     0.022 A 
BRANCH  98 102
ATOM    102  S   UNL     1      -7.581  13.239 -13.554  1.00  0.00     0.124 S 
ATOM    103  O   UNL     1      -7.486  11.839 -13.953  1.00  0.00    -0.237 OA
ATOM    104  O   UNL     1      -7.927  13.482 -12.157  1.00  0.00    -0.237 OA
ATOM    105  O   UNL     1      -8.247  14.115 -14.516  1.00  0.00    -0.744 OA
ENDBRANCH  98 102
ENDBRANCH  72  95
ENDBRANCH  46  47
ENDBRANCH  38  41
ENDBRANCH  36  37
ENDBRANCH  35  36
ENDBRANCH  34  35
ENDBRANCH   1  34
TORSDOF 21
