REMARK SMILES C[C@H](CC(=O)N1CCC(C(=O)NCCCCCCNC(=O)c2ccc(-c3c4nc(c(-c5cc(S(=O)(=O)[O-])ccc5F)c5ccc([nH]5)c(-c5cc(S(=O)(=O)[O-])ccc5F)c5nc(c(-c6cc(S(=O)(=O)[O-])ccc6F)c6ccc3[nH]6)C=C5)C=C4)cc2)CC1)N1C(=O)c2ccccc2C1=O
REMARK SMILES IDX 15 1 14 2 13 3 12 4 10 5 11 6 9 8 4 9 5 10 6 11 7 12 86 13
REMARK SMILES IDX 8 14 85 15 3 16 2 17 1 18 87 19 88 20 96 21 89 22 90 23
REMARK SMILES IDX 95 24 97 25 91 26 94 27 92 28 93 29 16 30 17 31 18 32 19 33
REMARK SMILES IDX 20 34 21 36 22 37 23 38 84 39 24 40 83 41 25 42 26 43 27 44
REMARK SMILES IDX 77 45 28 46 82 47 76 48 78 49 29 50 81 51 75 52 74 53 30 55
REMARK SMILES IDX 62 56 42 57 61 58 43 59 46 60 60 61 79 62 44 63 45 64 59 66
REMARK SMILES IDX 80 67 47 68 31 69 32 70 40 71 33 72 39 73 41 74 38 75 34 76
REMARK SMILES IDX 35 77 36 78 37 79 63 80 64 81 72 82 65 83 71 84 73 85 70 86
REMARK SMILES IDX 66 87 67 88 68 89 69 90 48 91 49 92 57 93 50 94 56 95 58 96
REMARK SMILES IDX 55 97 51 98 52 99 53 100 54 101
REMARK H PARENT 12 7 19 35 78 54 46 65
REMARK Flexibility Score: inf
ROOT
ATOM      1  C   UNL     1       7.993   5.079   0.312  1.00  0.00     0.002 C 
ENDROOT
BRANCH   1   2
ATOM      2  C   UNL     1       7.089   3.853   0.169  1.00  0.00     0.021 C 
BRANCH   2   3
ATOM      3  C   UNL     1       5.967   4.046  -0.844  1.00  0.00     0.116 C 
BRANCH   3   4
ATOM      4  N   UNL     1       6.497   4.113  -2.199  1.00  0.00    -0.356 N 
ATOM      5  C   UNL     1       6.265   3.319  -3.280  1.00  0.00     0.223 C 
ATOM      6  O   UNL     1       6.879   3.549  -4.324  1.00  0.00    -0.275 OA
ATOM      7  H   UNL     1       7.126   4.853  -2.359  1.00  0.00     0.163 HD
BRANCH   5   8
ATOM      8  C   UNL     1       5.231   2.208  -3.218  1.00  0.00     0.082 C 
ATOM      9  C   UNL     1       2.571   0.617  -0.369  1.00  0.00     0.224 C 
ATOM     10  O   UNL     1       3.199   0.407   0.674  1.00  0.00    -0.275 OA
ATOM     11  N   UNL     1       3.257   0.928  -1.529  1.00  0.00    -0.343 N 
ATOM     12  C   UNL     1       4.480   0.199  -1.834  1.00  0.00     0.120 C 
ATOM     13  C   UNL     1       2.799   1.852  -2.538  1.00  0.00     0.120 C 
ATOM     14  C   UNL     1       5.635   1.097  -2.241  1.00  0.00     0.035 C 
ATOM     15  C   UNL     1       3.853   2.834  -2.995  1.00  0.00     0.035 C 
BRANCH   9  16
ATOM     16  C   UNL     1       1.089   0.214  -0.435  1.00  0.00     0.125 C 
BRANCH  16  17
ATOM     17  C   UNL     1       0.005   1.101  -1.063  1.00  0.00     0.100 C 
ATOM     18  C   UNL     1      -0.057   1.017  -2.606  1.00  0.00     0.032 C 
BRANCH  17  19
ATOM     19  N   UNL     1      -1.351   0.745  -0.617  1.00  0.00    -0.271 N 
ATOM     20  C   UNL     1      -1.863  -0.526  -0.742  1.00  0.00     0.261 C 
ATOM     21  C   UNL     1      -2.356   1.682  -0.580  1.00  0.00     0.261 C 
ATOM     22  O   UNL     1      -1.286  -1.573  -0.966  1.00  0.00    -0.269 OA
ATOM     23  C   UNL     1      -3.314  -0.393  -0.780  1.00  0.00     0.053 A 
ATOM     24  C   UNL     1      -3.618   0.951  -0.681  1.00  0.00     0.053 A 
ATOM     25  O   UNL     1      -2.272   2.896  -0.635  1.00  0.00    -0.269 OA
ATOM     26  C   UNL     1      -4.269  -1.342  -1.090  1.00  0.00     0.015 A 
ATOM     27  C   UNL     1      -4.900   1.424  -0.882  1.00  0.00     0.015 A 
ATOM     28  C   UNL     1      -5.574  -0.889  -1.297  1.00  0.00     0.001 A 
ATOM     29  C   UNL     1      -5.888   0.483  -1.193  1.00  0.00     0.001 A 
ENDBRANCH  17  19
ENDBRANCH  16  17
ENDBRANCH   9  16
ENDBRANCH   5   8
ENDBRANCH   3   4
ENDBRANCH   2   3
ENDBRANCH   1   2
BRANCH   1  30
ATOM     30  C   UNL     1       7.263   6.368   0.702  1.00  0.00     0.002 C 
BRANCH  30  31
ATOM     31  C   UNL     1       6.410   6.267   1.970  1.00  0.00     0.021 C 
BRANCH  31  32
ATOM     32  C   UNL     1       7.165   5.782   3.203  1.00  0.00     0.116 C 
BRANCH  32  33
ATOM     33  N   UNL     1       8.288   6.646   3.526  1.00  0.00    -0.352 N 
ATOM     34  C   UNL     1       8.613   7.233   4.722  1.00  0.00     0.251 C 
ATOM     35  H   UNL     1       8.902   6.838   2.781  1.00  0.00     0.163 HD
ATOM     36  O   UNL     1       9.483   8.097   4.762  1.00  0.00    -0.269 OA
BRANCH  34  37
ATOM     37  C   UNL     1       7.893   6.835   5.950  1.00  0.00     0.039 A 
ATOM     38  C   UNL     1       7.437   7.830   6.817  1.00  0.00     0.014 A 
ATOM     39  C   UNL     1       7.664   5.486   6.240  1.00  0.00     0.014 A 
ATOM     40  C   UNL     1       6.699   7.474   7.947  1.00  0.00     0.010 A 
ATOM     41  C   UNL     1       6.870   5.138   7.329  1.00  0.00     0.010 A 
ATOM     42  C   UNL     1       6.380   6.128   8.193  1.00  0.00    -0.014 A 
BRANCH  42  43
ATOM     43  C   UNL     1       5.529   5.741   9.348  1.00  0.00     0.031 A 
ATOM     44  C   UNL     1       6.096   4.893  10.453  1.00  0.00     0.074 A 
ATOM     45  C   UNL     1       4.232   6.106   9.368  1.00  0.00     0.049 A 
ATOM     46  N   UNL     1       5.498   4.395  11.505  1.00  0.00    -0.248 NA
ATOM     47  C   UNL     1       7.519   4.536  10.345  1.00  0.00     0.031 C 
ATOM     48  C   UNL     1       3.561   6.897   8.333  1.00  0.00     0.029 A 
ATOM     49  N   UNL     1       3.242   5.855  10.285  1.00  0.00    -0.354 N 
ATOM     50  C   UNL     1       6.466   3.659  12.179  1.00  0.00     0.074 A 
ATOM     51  C   UNL     1       7.674   3.728  11.384  1.00  0.00     0.031 C 
ATOM     52  C   UNL     1       2.279   7.084   8.684  1.00  0.00     0.029 A 
ATOM     53  C   UNL     1       2.021   6.389   9.941  1.00  0.00     0.049 A 
ATOM     54  H   UNL     1       3.391   5.341  11.111  1.00  0.00     0.167 HD
ATOM     55  C   UNL     1       6.362   3.005  13.363  1.00  0.00     0.034 A 
ATOM     56  C   UNL     1       0.826   6.314  10.560  1.00  0.00     0.034 A 
ATOM     57  C   UNL     1       5.150   2.952  14.145  1.00  0.00     0.049 A 
ATOM     58  C   UNL     1       0.728   5.555  11.859  1.00  0.00     0.074 A 
ATOM     59  C   UNL     1       4.946   2.362  15.380  1.00  0.00     0.029 A 
ATOM     60  N   UNL     1       3.932   3.503  13.764  1.00  0.00    -0.354 N 
ATOM     61  N   UNL     1       1.666   4.905  12.510  1.00  0.00    -0.248 NA
ATOM     62  C   UNL     1      -0.587   5.529  12.513  1.00  0.00     0.031 C 
ATOM     63  C   UNL     1       3.593   2.494  15.713  1.00  0.00     0.029 A 
ATOM     64  C   UNL     1       2.967   3.238  14.725  1.00  0.00     0.049 A 
ATOM     65  H   UNL     1       3.776   4.008  12.933  1.00  0.00     0.167 HD
ATOM     66  C   UNL     1       1.059   4.422  13.666  1.00  0.00     0.074 A 
ATOM     67  C   UNL     1      -0.318   4.869  13.629  1.00  0.00     0.031 C 
ATOM     68  C   UNL     1       1.593   3.681  14.671  1.00  0.00     0.034 A 
BRANCH  55  69
ATOM     69  C   UNL     1       7.585   2.274  13.865  1.00  0.00     0.023 A 
ATOM     70  C   UNL     1       8.773   2.955  14.185  1.00  0.00     0.031 A 
ATOM     71  C   UNL     1       7.571   0.875  14.009  1.00  0.00     0.131 A 
ATOM     72  C   UNL     1       9.916   2.233  14.562  1.00  0.00     0.055 A 
ATOM     73  C   UNL     1       8.687   0.170  14.463  1.00  0.00     0.041 A 
ATOM     74  F   UNL     1       6.473   0.167  13.699  1.00  0.00    -0.206 F 
ATOM     75  C   UNL     1       9.873   0.847  14.729  1.00  0.00     0.022 A 
BRANCH  72  76
ATOM     76  S   UNL     1      11.494   3.116  14.697  1.00  0.00     0.124 S 
ATOM     77  O   UNL     1      11.644   3.660  13.350  1.00  0.00    -0.237 OA
ATOM     78  O   UNL     1      11.223   4.087  15.752  1.00  0.00    -0.237 OA
ATOM     79  O   UNL     1      12.447   2.065  15.046  1.00  0.00    -0.744 OA
ENDBRANCH  72  76
ENDBRANCH  55  69
BRANCH  56  80
ATOM     80  C   UNL     1      -0.378   6.959   9.961  1.00  0.00     0.023 A 
ATOM     81  C   UNL     1      -1.039   8.008  10.618  1.00  0.00     0.031 A 
ATOM     82  C   UNL     1      -0.914   6.504   8.743  1.00  0.00     0.131 A 
ATOM     83  C   UNL     1      -2.225   8.534  10.081  1.00  0.00     0.055 A 
ATOM     84  C   UNL     1      -2.061   7.068   8.184  1.00  0.00     0.041 A 
ATOM     85  F   UNL     1      -0.319   5.505   8.070  1.00  0.00    -0.206 F 
ATOM     86  C   UNL     1      -2.733   8.081   8.862  1.00  0.00     0.022 A 
BRANCH  83  87
ATOM     87  S   UNL     1      -3.148   9.759  11.050  1.00  0.00     0.124 S 
ATOM     88  O   UNL     1      -3.389   9.034  12.293  1.00  0.00    -0.237 OA
ATOM     89  O   UNL     1      -2.199  10.864  11.124  1.00  0.00    -0.237 OA
ATOM     90  O   UNL     1      -4.335  10.012  10.235  1.00  0.00    -0.744 OA
ENDBRANCH  83  87
ENDBRANCH  56  80
BRANCH  68  91
ATOM     91  C   UNL     1       0.690   3.353  15.835  1.00  0.00     0.023 A 
ATOM     92  C   UNL     1      -0.424   2.507  15.694  1.00  0.00     0.031 A 
ATOM     93  C   UNL     1       0.945   3.907  17.102  1.00  0.00     0.131 A 
ATOM     94  C   UNL     1      -1.276   2.287  16.788  1.00  0.00     0.055 A 
ATOM     95  C   UNL     1       0.130   3.633  18.201  1.00  0.00     0.041 A 
ATOM     96  F   UNL     1       1.993   4.723  17.293  1.00  0.00    -0.206 F 
ATOM     97  C   UNL     1      -0.996   2.830  18.044  1.00  0.00     0.022 A 
BRANCH  94  98
ATOM     98  S   UNL     1      -2.810   1.355  16.524  1.00  0.00     0.124 S 
ATOM     99  O   UNL     1      -3.477   2.152  15.499  1.00  0.00    -0.237 OA
ATOM    100  O   UNL     1      -2.315   0.051  16.095  1.00  0.00    -0.237 OA
ATOM    101  O   UNL     1      -3.452   1.372  17.837  1.00  0.00    -0.744 OA
ENDBRANCH  94  98
ENDBRANCH  68  91
ENDBRANCH  42  43
ENDBRANCH  34  37
ENDBRANCH  32  33
ENDBRANCH  31  32
ENDBRANCH  30  31
ENDBRANCH   1  30
TORSDOF 19
