REMARK SMILES O=C(NCCCCCCNC(=O)c1ccc(-c2c3nc(c(-c4cc(S(=O)(=O)[O-])ccc4F)c4ccc([nH]4)c(-c4cc(S(=O)(=O)[O-])ccc4F)c4nc(c(-c5cc(S(=O)(=O)[O-])ccc5F)c5ccc2[nH]5)C=C4)C=C3)cc1)C1=C[C@H]2C(=N1)C=CC(Cl)=C2Cl
REMARK SMILES IDX 8 1 7 2 6 3 5 4 4 5 3 6 1 7 2 8 76 10 77 11 80 12 78 13
REMARK SMILES IDX 79 14 85 15 81 16 83 17 86 18 82 19 84 20 9 21 10 22 11 23
REMARK SMILES IDX 12 25 13 26 14 27 75 28 15 29 74 30 16 31 17 32 18 33 68 34
REMARK SMILES IDX 19 35 73 36 67 37 69 38 20 39 72 40 66 41 65 42 21 44 53 45
REMARK SMILES IDX 33 46 52 47 34 48 37 49 51 50 70 51 35 52 36 53 50 55 71 56
REMARK SMILES IDX 38 57 22 58 23 59 31 60 24 61 30 62 32 63 29 64 25 65 26 66
REMARK SMILES IDX 27 67 28 68 54 69 55 70 63 71 56 72 62 73 64 74 61 75 57 76
REMARK SMILES IDX 58 77 59 78 60 79 39 80 40 81 48 82 41 83 47 84 49 85 46 86
REMARK SMILES IDX 42 87 43 88 44 89 45 90
REMARK H PARENT 3 9 10 24 69 43 37 54
REMARK Flexibility Score: inf
ROOT
ATOM      1  C   UNL     1       6.363  -1.865  -3.832  1.00  0.00     0.021 C 
ENDROOT
BRANCH   1   2
ATOM      2  C   UNL     1       4.844  -1.896  -3.652  1.00  0.00     0.002 C 
BRANCH   2   3
ATOM      3  C   UNL     1       4.338  -2.516  -2.345  1.00  0.00     0.002 C 
BRANCH   3   4
ATOM      4  C   UNL     1       4.898  -1.923  -1.043  1.00  0.00     0.021 C 
BRANCH   4   5
ATOM      5  C   UNL     1       4.718  -0.413  -0.861  1.00  0.00     0.116 C 
BRANCH   5   6
ATOM      6  N   UNL     1       3.329  -0.007  -0.936  1.00  0.00    -0.351 N 
ATOM      7  O   UNL     1       1.421   1.006  -0.336  1.00  0.00    -0.268 OA
ATOM      8  C   UNL     1       2.568   0.674  -0.038  1.00  0.00     0.269 C 
ATOM      9  H   UNL     1       2.865  -0.264  -1.765  1.00  0.00     0.163 HD
BRANCH   8  10
ATOM     10  C   UNL     1       3.086   0.933   1.330  1.00  0.00     0.125 C 
ATOM     11  C   UNL     1       2.683   0.129   2.322  1.00  0.00     0.023 C 
ATOM     12  N   UNL     1       3.654   2.121   1.748  1.00  0.00    -0.247 NA
ATOM     13  C   UNL     1       3.030   0.768   3.609  1.00  0.00     0.106 C 
ATOM     14  C   UNL     1       3.550   2.075   3.041  1.00  0.00     0.054 C 
ATOM     15  C   UNL     1       1.976   1.115   4.607  1.00  0.00     0.050 C 
ATOM     16  C   UNL     1       3.853   3.171   3.994  1.00  0.00     0.026 C 
ATOM     17  C   UNL     1       2.267   2.072   5.506  1.00  0.00     0.056 C 
ATOM     18  Cl  UNL     1       0.310   0.795   4.239  1.00  0.00    -0.086 Cl
ATOM     19  C   UNL     1       3.257   3.093   5.199  1.00  0.00     0.023 C 
ATOM     20  Cl  UNL     1       1.788   1.875   7.155  1.00  0.00    -0.083 Cl
ENDBRANCH   8  10
ENDBRANCH   5   6
ENDBRANCH   4   5
ENDBRANCH   3   4
ENDBRANCH   2   3
ENDBRANCH   1   2
BRANCH   1  21
ATOM     21  C   UNL     1       7.058  -3.224  -3.804  1.00  0.00     0.116 C 
BRANCH  21  22
ATOM     22  N   UNL     1       6.711  -4.059  -4.944  1.00  0.00    -0.352 N 
ATOM     23  C   UNL     1       7.530  -4.678  -5.854  1.00  0.00     0.251 C 
ATOM     24  H   UNL     1       5.747  -4.201  -5.083  1.00  0.00     0.163 HD
ATOM     25  O   UNL     1       7.028  -5.213  -6.853  1.00  0.00    -0.269 OA
BRANCH  23  26
ATOM     26  C   UNL     1       8.999  -4.687  -5.676  1.00  0.00     0.039 A 
ATOM     27  C   UNL     1       9.819  -4.444  -6.782  1.00  0.00     0.014 A 
ATOM     28  C   UNL     1       9.577  -4.938  -4.428  1.00  0.00     0.014 A 
ATOM     29  C   UNL     1      11.207  -4.379  -6.623  1.00  0.00     0.010 A 
ATOM     30  C   UNL     1      10.954  -4.797  -4.256  1.00  0.00     0.010 A 
ATOM     31  C   UNL     1      11.786  -4.513  -5.350  1.00  0.00    -0.014 A 
BRANCH  31  32
ATOM     32  C   UNL     1      13.253  -4.348  -5.146  1.00  0.00     0.031 A 
ATOM     33  C   UNL     1      14.085  -5.496  -4.637  1.00  0.00     0.074 A 
ATOM     34  C   UNL     1      13.827  -3.147  -5.360  1.00  0.00     0.049 A 
ATOM     35  N   UNL     1      15.357  -5.527  -4.332  1.00  0.00    -0.248 NA
ATOM     36  C   UNL     1      13.385  -6.770  -4.416  1.00  0.00     0.031 C 
ATOM     37  C   UNL     1      13.127  -1.947  -5.824  1.00  0.00     0.029 A 
ATOM     38  N   UNL     1      15.128  -2.731  -5.213  1.00  0.00    -0.354 N 
ATOM     39  C   UNL     1      15.608  -6.815  -3.870  1.00  0.00     0.074 A 
ATOM     40  C   UNL     1      14.340  -7.514  -3.880  1.00  0.00     0.031 C 
ATOM     41  C   UNL     1      14.009  -0.944  -5.955  1.00  0.00     0.029 A 
ATOM     42  C   UNL     1      15.327  -1.407  -5.533  1.00  0.00     0.049 A 
ATOM     43  H   UNL     1      15.851  -3.325  -4.906  1.00  0.00     0.167 HD
ATOM     44  C   UNL     1      16.788  -7.368  -3.491  1.00  0.00     0.034 A 
ATOM     45  C   UNL     1      16.440  -0.647  -5.480  1.00  0.00     0.034 A 
ATOM     46  C   UNL     1      18.047  -6.659  -3.497  1.00  0.00     0.049 A 
ATOM     47  C   UNL     1      17.731  -1.273  -5.013  1.00  0.00     0.074 A 
ATOM     48  C   UNL     1      19.308  -7.143  -3.195  1.00  0.00     0.029 A 
ATOM     49  N   UNL     1      18.205  -5.314  -3.806  1.00  0.00    -0.354 N 
ATOM     50  N   UNL     1      17.961  -2.508  -4.631  1.00  0.00    -0.248 NA
ATOM     51  C   UNL     1      18.913  -0.402  -4.975  1.00  0.00     0.031 C 
ATOM     52  C   UNL     1      20.211  -6.076  -3.237  1.00  0.00     0.029 A 
ATOM     53  C   UNL     1      19.533  -4.943  -3.657  1.00  0.00     0.049 A 
ATOM     54  H   UNL     1      17.479  -4.711  -4.089  1.00  0.00     0.167 HD
ATOM     55  C   UNL     1      19.323  -2.569  -4.347  1.00  0.00     0.074 A 
ATOM     56  C   UNL     1      19.862  -1.252  -4.612  1.00  0.00     0.031 C 
ATOM     57  C   UNL     1      20.062  -3.622  -3.913  1.00  0.00     0.034 A 
BRANCH  44  58
ATOM     58  C   UNL     1      16.765  -8.800  -3.005  1.00  0.00     0.023 A 
ATOM     59  C   UNL     1      16.357  -9.860  -3.834  1.00  0.00     0.031 A 
ATOM     60  C   UNL     1      17.136  -9.108  -1.684  1.00  0.00     0.131 A 
ATOM     61  C   UNL     1      16.251 -11.158  -3.313  1.00  0.00     0.055 A 
ATOM     62  C   UNL     1      17.114 -10.417  -1.197  1.00  0.00     0.041 A 
ATOM     63  F   UNL     1      17.514  -8.139  -0.836  1.00  0.00    -0.206 F 
ATOM     64  C   UNL     1      16.653 -11.449  -2.008  1.00  0.00     0.022 A 
BRANCH  61  65
ATOM     65  S   UNL     1      15.429 -12.428  -4.314  1.00  0.00     0.124 S 
ATOM     66  O   UNL     1      14.123 -11.817  -4.550  1.00  0.00    -0.237 OA
ATOM     67  O   UNL     1      16.306 -12.532  -5.473  1.00  0.00    -0.237 OA
ATOM     68  O   UNL     1      15.410 -13.597  -3.436  1.00  0.00    -0.744 OA
ENDBRANCH  61  65
ENDBRANCH  44  58
BRANCH  45  69
ATOM     69  C   UNL     1      16.395   0.793  -5.871  1.00  0.00     0.023 A 
ATOM     70  C   UNL     1      17.143   1.268  -6.961  1.00  0.00     0.031 A 
ATOM     71  C   UNL     1      15.647   1.726  -5.131  1.00  0.00     0.131 A 
ATOM     72  C   UNL     1      17.168   2.641  -7.248  1.00  0.00     0.055 A 
ATOM     73  C   UNL     1      15.627   3.083  -5.459  1.00  0.00     0.041 A 
ATOM     74  F   UNL     1      14.914   1.328  -4.079  1.00  0.00    -0.206 F 
ATOM     75  C   UNL     1      16.403   3.550  -6.515  1.00  0.00     0.022 A 
BRANCH  72  76
ATOM     76  S   UNL     1      18.297   3.237  -8.538  1.00  0.00     0.124 S 
ATOM     77  O   UNL     1      19.587   2.777  -8.037  1.00  0.00    -0.237 OA
ATOM     78  O   UNL     1      17.788   2.556  -9.724  1.00  0.00    -0.237 OA
ATOM     79  O   UNL     1      18.099   4.685  -8.519  1.00  0.00    -0.744 OA
ENDBRANCH  72  76
ENDBRANCH  45  69
BRANCH  57  80
ATOM     80  C   UNL     1      21.548  -3.401  -3.748  1.00  0.00     0.023 A 
ATOM     81  C   UNL     1      22.068  -2.516  -2.788  1.00  0.00     0.031 A 
ATOM     82  C   UNL     1      22.458  -4.082  -4.578  1.00  0.00     0.131 A 
ATOM     83  C   UNL     1      23.451  -2.290  -2.720  1.00  0.00     0.055 A 
ATOM     84  C   UNL     1      23.837  -3.905  -4.459  1.00  0.00     0.041 A 
ATOM     85  F   UNL     1      22.021  -4.936  -5.517  1.00  0.00    -0.206 F 
ATOM     86  C   UNL     1      24.341  -2.994  -3.536  1.00  0.00     0.022 A 
BRANCH  83  87
ATOM     87  S   UNL     1      24.070  -0.987  -1.620  1.00  0.00     0.124 S 
ATOM     88  O   UNL     1      23.367   0.191  -2.120  1.00  0.00    -0.237 OA
ATOM     89  O   UNL     1      23.655  -1.466  -0.305  1.00  0.00    -0.237 OA
ATOM     90  O   UNL     1      25.512  -0.994  -1.855  1.00  0.00    -0.744 OA
ENDBRANCH  83  87
ENDBRANCH  57  80
ENDBRANCH  31  32
ENDBRANCH  23  26
ENDBRANCH  21  22
ENDBRANCH   1  21
TORSDOF 16
