REMARK SMILES C=CCOc1ccc(C(=O)N2CCC[C@H]2C(=O)NCCCCCCNC(=O)c2ccc(-c3c4nc(c(-c5cc(S(=O)(=O)[O-])ccc5F)c5ccc([nH]5)c(-c5cc(S(=O)(=O)[O-])ccc5F)c5nc(c(-c6cc(S(=O)(=O)[O-])ccc6F)c6ccc3[nH]6)C=C5)C=C4)cc2)cc1
REMARK SMILES IDX 20 1 19 2 18 3 16 4 17 5 15 7 11 8 12 9 13 10 14 11 9 12
REMARK SMILES IDX 10 13 8 14 5 15 6 16 92 17 7 18 91 19 4 20 3 21 2 22 1 23
REMARK SMILES IDX 21 24 22 25 23 26 24 27 25 28 26 29 27 31 28 32 29 33 90 34
REMARK SMILES IDX 30 35 89 36 31 37 32 38 33 39 83 40 34 41 88 42 82 43 84 44
REMARK SMILES IDX 35 45 87 46 81 47 80 48 36 50 68 51 48 52 67 53 49 54 52 55
REMARK SMILES IDX 66 56 85 57 50 58 51 59 65 61 86 62 53 63 37 64 38 65 46 66
REMARK SMILES IDX 39 67 45 68 47 69 44 70 40 71 41 72 42 73 43 74 69 75 70 76
REMARK SMILES IDX 78 77 71 78 77 79 79 80 76 81 72 82 73 83 74 84 75 85 54 86
REMARK SMILES IDX 55 87 63 88 56 89 62 90 64 91 61 92 57 93 58 94 59 95 60 96
REMARK H PARENT 18 6 25 30 84 49 52 60
REMARK Flexibility Score: inf
ROOT
ATOM      1  C   UNL     1       0.487  -5.665   8.033  1.00  0.00     0.021 C 
ENDROOT
BRANCH   1   2
ATOM      2  C   UNL     1       1.657  -6.153   7.191  1.00  0.00     0.116 C 
BRANCH   2   3
ATOM      3  N   UNL     1       1.304  -7.273   6.355  1.00  0.00    -0.354 N 
ATOM      4  C   UNL     1       1.201  -7.354   5.000  1.00  0.00     0.242 C 
ATOM      5  O   UNL     1       0.999  -8.480   4.527  1.00  0.00    -0.273 OA
ATOM      6  H   UNL     1       1.108  -8.108   6.838  1.00  0.00     0.163 HD
BRANCH   4   7
ATOM      7  C   UNL     1       1.573  -6.184   4.060  1.00  0.00     0.174 C 
ATOM      8  N   UNL     1       1.243  -4.798   4.409  1.00  0.00    -0.327 N 
ATOM      9  C   UNL     1       2.455  -3.973   4.479  1.00  0.00     0.121 C 
ATOM     10  C   UNL     1       3.420  -4.697   3.561  1.00  0.00     0.024 C 
ATOM     11  C   UNL     1       3.090  -6.165   3.817  1.00  0.00     0.037 C 
BRANCH   8  12
ATOM     12  C   UNL     1      -0.093  -4.426   4.314  1.00  0.00     0.254 C 
ATOM     13  O   UNL     1      -1.003  -5.221   4.546  1.00  0.00    -0.269 OA
BRANCH  12  14
ATOM     14  C   UNL     1      -0.461  -3.083   3.796  1.00  0.00     0.040 A 
ATOM     15  C   UNL     1      -1.200  -0.615   2.674  1.00  0.00     0.119 A 
ATOM     16  C   UNL     1      -2.064  -1.268   3.554  1.00  0.00     0.047 A 
ATOM     17  C   UNL     1       0.025  -1.195   2.372  1.00  0.00     0.047 A 
ATOM     18  C   UNL     1      -1.695  -2.501   4.119  1.00  0.00     0.017 A 
ATOM     19  C   UNL     1       0.353  -2.449   2.862  1.00  0.00     0.017 A 
BRANCH  15  20
ATOM     20  O   UNL     1      -1.571   0.606   2.179  1.00  0.00    -0.490 OA
BRANCH  20  21
ATOM     21  C   UNL     1      -1.405   0.752   0.757  1.00  0.00     0.257 C 
BRANCH  21  22
ATOM     22  C   UNL     1      -0.014   1.194   0.385  1.00  0.00     0.006 C 
ATOM     23  C   UNL     1       0.767   0.559  -0.504  1.00  0.00     0.007 C 
ENDBRANCH  21  22
ENDBRANCH  20  21
ENDBRANCH  15  20
ENDBRANCH  12  14
ENDBRANCH   8  12
ENDBRANCH   4   7
ENDBRANCH   2   3
ENDBRANCH   1   2
BRANCH   1  24
ATOM     24  C   UNL     1       0.264  -6.503   9.293  1.00  0.00     0.002 C 
BRANCH  24  25
ATOM     25  C   UNL     1       1.485  -6.611  10.216  1.00  0.00     0.002 C 
BRANCH  25  26
ATOM     26  C   UNL     1       2.111  -5.273  10.621  1.00  0.00     0.021 C 
BRANCH  26  27
ATOM     27  C   UNL     1       1.155  -4.325  11.338  1.00  0.00     0.116 C 
BRANCH  27  28
ATOM     28  N   UNL     1       0.625  -4.923  12.553  1.00  0.00    -0.352 N 
ATOM     29  C   UNL     1       0.700  -4.472  13.843  1.00  0.00     0.251 C 
ATOM     30  H   UNL     1       0.144  -5.773  12.430  1.00  0.00     0.163 HD
ATOM     31  O   UNL     1       0.428  -5.235  14.773  1.00  0.00    -0.269 OA
BRANCH  29  32
ATOM     32  C   UNL     1       1.115  -3.082  14.114  1.00  0.00     0.039 A 
ATOM     33  C   UNL     1       2.000  -2.828  15.163  1.00  0.00     0.014 A 
ATOM     34  C   UNL     1       0.617  -2.028  13.341  1.00  0.00     0.014 A 
ATOM     35  C   UNL     1       2.424  -1.520  15.406  1.00  0.00     0.010 A 
ATOM     36  C   UNL     1       1.099  -0.738  13.536  1.00  0.00     0.010 A 
ATOM     37  C   UNL     1       2.000  -0.468  14.577  1.00  0.00    -0.014 A 
BRANCH  37  38
ATOM     38  C   UNL     1       2.466   0.925  14.800  1.00  0.00     0.031 A 
ATOM     39  C   UNL     1       1.476   1.997  15.170  1.00  0.00     0.074 A 
ATOM     40  C   UNL     1       3.768   1.230  14.627  1.00  0.00     0.049 A 
ATOM     41  N   UNL     1       1.669   3.280  15.332  1.00  0.00    -0.248 NA
ATOM     42  C   UNL     1       0.080   1.571  15.354  1.00  0.00     0.031 C 
ATOM     43  C   UNL     1       4.815   0.280  14.245  1.00  0.00     0.029 A 
ATOM     44  N   UNL     1       4.433   2.425  14.744  1.00  0.00    -0.354 N 
ATOM     45  C   UNL     1       0.420   3.816  15.633  1.00  0.00     0.074 A 
ATOM     46  C   UNL     1      -0.531   2.727  15.558  1.00  0.00     0.031 C 
ATOM     47  C   UNL     1       5.993   0.922  14.190  1.00  0.00     0.029 A 
ATOM     48  C   UNL     1       5.780   2.337  14.478  1.00  0.00     0.049 A 
ATOM     49  H   UNL     1       3.988   3.266  14.994  1.00  0.00     0.167 HD
ATOM     50  C   UNL     1       0.101   5.090  15.967  1.00  0.00     0.034 A 
ATOM     51  C   UNL     1       6.733   3.291  14.457  1.00  0.00     0.034 A 
ATOM     52  C   UNL     1       1.064   6.162  16.043  1.00  0.00     0.049 A 
ATOM     53  C   UNL     1       6.342   4.713  14.781  1.00  0.00     0.074 A 
ATOM     54  C   UNL     1       0.856   7.483  16.400  1.00  0.00     0.029 A 
ATOM     55  N   UNL     1       2.417   6.038  15.754  1.00  0.00    -0.354 N 
ATOM     56  N   UNL     1       5.161   5.196  15.096  1.00  0.00    -0.248 NA
ATOM     57  C   UNL     1       7.414   5.716  14.757  1.00  0.00     0.031 C 
ATOM     58  C   UNL     1       2.065   8.171  16.258  1.00  0.00     0.029 A 
ATOM     59  C   UNL     1       3.048   7.264  15.897  1.00  0.00     0.049 A 
ATOM     60  H   UNL     1       2.863   5.202  15.486  1.00  0.00     0.167 HD
ATOM     61  C   UNL     1       5.361   6.550  15.350  1.00  0.00     0.074 A 
ATOM     62  C   UNL     1       6.775   6.803  15.164  1.00  0.00     0.031 C 
ATOM     63  C   UNL     1       4.460   7.500  15.708  1.00  0.00     0.034 A 
BRANCH  50  64
ATOM     64  C   UNL     1      -1.350   5.393  16.256  1.00  0.00     0.023 A 
ATOM     65  C   UNL     1      -2.029   4.787  17.328  1.00  0.00     0.031 A 
ATOM     66  C   UNL     1      -2.070   6.286  15.443  1.00  0.00     0.131 A 
ATOM     67  C   UNL     1      -3.399   5.025  17.515  1.00  0.00     0.055 A 
ATOM     68  C   UNL     1      -3.413   6.584  15.686  1.00  0.00     0.041 A 
ATOM     69  F   UNL     1      -1.483   6.878  14.391  1.00  0.00    -0.206 F 
ATOM     70  C   UNL     1      -4.089   5.941  16.718  1.00  0.00     0.022 A 
BRANCH  67  71
ATOM     71  S   UNL     1      -4.296   4.014  18.724  1.00  0.00     0.124 S 
ATOM     72  O   UNL     1      -4.075   2.667  18.203  1.00  0.00    -0.237 OA
ATOM     73  O   UNL     1      -3.615   4.336  19.972  1.00  0.00    -0.237 OA
ATOM     74  O   UNL     1      -5.672   4.497  18.621  1.00  0.00    -0.744 OA
ENDBRANCH  67  71
ENDBRANCH  50  64
BRANCH  51  75
ATOM     75  C   UNL     1       8.144   2.954  14.109  1.00  0.00     0.023 A 
ATOM     76  C   UNL     1       9.183   3.164  15.030  1.00  0.00     0.031 A 
ATOM     77  C   UNL     1       8.487   2.483  12.829  1.00  0.00     0.131 A 
ATOM     78  C   UNL     1      10.517   2.970  14.638  1.00  0.00     0.055 A 
ATOM     79  C   UNL     1       9.810   2.227  12.465  1.00  0.00     0.041 A 
ATOM     80  F   UNL     1       7.535   2.262  11.908  1.00  0.00    -0.206 F 
ATOM     81  C   UNL     1      10.837   2.489  13.367  1.00  0.00     0.022 A 
BRANCH  78  82
ATOM     82  S   UNL     1      11.836   3.474  15.777  1.00  0.00     0.124 S 
ATOM     83  O   UNL     1      11.512   4.878  16.000  1.00  0.00    -0.237 OA
ATOM     84  O   UNL     1      11.618   2.577  16.907  1.00  0.00    -0.237 OA
ATOM     85  O   UNL     1      13.056   3.228  15.013  1.00  0.00    -0.744 OA
ENDBRANCH  78  82
ENDBRANCH  51  75
BRANCH  63  86
ATOM     86  C   UNL     1       4.993   8.887  15.982  1.00  0.00     0.023 A 
ATOM     87  C   UNL     1       5.564   9.678  14.971  1.00  0.00     0.031 A 
ATOM     88  C   UNL     1       4.936   9.418  17.284  1.00  0.00     0.131 A 
ATOM     89  C   UNL     1       6.108  10.932  15.289  1.00  0.00     0.055 A 
ATOM     90  C   UNL     1       5.417  10.693  17.580  1.00  0.00     0.041 A 
ATOM     91  F   UNL     1       4.405   8.705  18.291  1.00  0.00    -0.206 F 
ATOM     92  C   UNL     1       6.021  11.452  16.582  1.00  0.00     0.022 A 
BRANCH  89  93
ATOM     93  S   UNL     1       7.023  11.833  14.008  1.00  0.00     0.124 S 
ATOM     94  O   UNL     1       8.067  10.879  13.652  1.00  0.00    -0.237 OA
ATOM     95  O   UNL     1       5.998  12.063  12.995  1.00  0.00    -0.237 OA
ATOM     96  O   UNL     1       7.489  13.034  14.700  1.00  0.00    -0.744 OA
ENDBRANCH  89  93
ENDBRANCH  63  86
ENDBRANCH  37  38
ENDBRANCH  29  32
ENDBRANCH  27  28
ENDBRANCH  26  27
ENDBRANCH  25  26
ENDBRANCH  24  25
ENDBRANCH   1  24
TORSDOF 21
