REMARK SMILES O=C(NCCCCCCNC(=O)[C@H]1CCCC[C@H]1C(=O)N1CCN(S(=O)(=O)c2ccc(F)cc2)CC1)c1ccc(-c2c3nc(c(-c4cc(S(=O)(=O)[O-])ccc4F)c4ccc([nH]4)c(-c4cc(S(=O)(=O)[O-])ccc4F)c4nc(c(-c5cc(S(=O)(=O)[O-])ccc5F)c5ccc2[nH]5)C=C4)C=C3)cc1
REMARK SMILES IDX 6 1 5 2 4 3 3 4 1 5 2 6 37 8 38 9 99 10 39 11 98 12 40 13
REMARK SMILES IDX 41 14 42 15 92 16 43 17 97 18 91 19 93 20 44 21 96 22 90 23
REMARK SMILES IDX 89 24 45 26 77 27 57 28 76 29 58 30 61 31 75 32 94 33 59 34
REMARK SMILES IDX 60 35 74 37 95 38 62 39 46 40 47 41 55 42 48 43 54 44 56 45
REMARK SMILES IDX 53 46 49 47 50 48 51 49 52 50 78 51 79 52 87 53 80 54 86 55
REMARK SMILES IDX 88 56 85 57 81 58 82 59 83 60 84 61 63 62 64 63 72 64 65 65
REMARK SMILES IDX 71 66 73 67 70 68 66 69 67 70 68 71 69 72 7 73 8 74 9 75
REMARK SMILES IDX 10 76 11 77 12 79 13 80 14 81 18 82 15 83 17 84 16 85 19 86
REMARK SMILES IDX 20 87 21 88 22 89 36 90 23 91 35 92 24 93 25 94 26 95 27 96
REMARK SMILES IDX 28 97 29 98 34 99 30 100 33 101 31 102 32 103
REMARK H PARENT 3 7 93 25 61 36 10 78
REMARK Flexibility Score: inf
ROOT
ATOM      1  C   UNL     1      12.015 -11.170  -4.670  1.00  0.00     0.002 C 
ENDROOT
BRANCH   1   2
ATOM      2  C   UNL     1      12.450 -12.269  -3.706  1.00  0.00     0.021 C 
BRANCH   2   3
ATOM      3  C   UNL     1      11.900 -13.656  -3.995  1.00  0.00     0.116 C 
BRANCH   3   4
ATOM      4  N   UNL     1      12.338 -14.199  -5.270  1.00  0.00    -0.352 N 
ATOM      5  O   UNL     1      13.246 -15.738  -6.655  1.00  0.00    -0.269 OA
ATOM      6  C   UNL     1      12.824 -15.459  -5.537  1.00  0.00     0.251 C 
ATOM      7  H   UNL     1      12.280 -13.589  -6.040  1.00  0.00     0.163 HD
BRANCH   6   8
ATOM      8  C   UNL     1      12.864 -16.462  -4.449  1.00  0.00     0.039 A 
ATOM      9  C   UNL     1      11.749 -16.666  -3.633  1.00  0.00     0.014 A 
ATOM     10  C   UNL     1      14.048 -17.166  -4.213  1.00  0.00     0.014 A 
ATOM     11  C   UNL     1      11.866 -17.453  -2.493  1.00  0.00     0.010 A 
ATOM     12  C   UNL     1      14.133 -18.029  -3.115  1.00  0.00     0.010 A 
ATOM     13  C   UNL     1      13.055 -18.152  -2.225  1.00  0.00    -0.014 A 
BRANCH  13  14
ATOM     14  C   UNL     1      13.129 -19.030  -1.027  1.00  0.00     0.031 A 
ATOM     15  C   UNL     1      14.091 -18.735   0.093  1.00  0.00     0.074 A 
ATOM     16  C   UNL     1      12.282 -20.075  -0.936  1.00  0.00     0.049 A 
ATOM     17  N   UNL     1      14.290 -19.404   1.200  1.00  0.00    -0.248 NA
ATOM     18  C   UNL     1      14.942 -17.542  -0.044  1.00  0.00     0.031 C 
ATOM     19  C   UNL     1      11.298 -20.450  -1.956  1.00  0.00     0.029 A 
ATOM     20  N   UNL     1      12.090 -20.999   0.059  1.00  0.00    -0.354 N 
ATOM     21  C   UNL     1      15.294 -18.727   1.884  1.00  0.00     0.074 A 
ATOM     22  C   UNL     1      15.683 -17.606   1.056  1.00  0.00     0.031 C 
ATOM     23  C   UNL     1      10.572 -21.485  -1.511  1.00  0.00     0.029 A 
ATOM     24  C   UNL     1      11.087 -21.901  -0.211  1.00  0.00     0.049 A 
ATOM     25  H   UNL     1      12.620 -21.015   0.889  1.00  0.00     0.167 HD
ATOM     26  C   UNL     1      15.831 -19.012   3.094  1.00  0.00     0.034 A 
ATOM     27  C   UNL     1      10.645 -22.963   0.491  1.00  0.00     0.034 A 
ATOM     28  C   UNL     1      15.417 -20.118   3.921  1.00  0.00     0.049 A 
ATOM     29  C   UNL     1      11.302 -23.288   1.803  1.00  0.00     0.074 A 
ATOM     30  C   UNL     1      15.877 -20.467   5.179  1.00  0.00     0.029 A 
ATOM     31  N   UNL     1      14.451 -21.052   3.576  1.00  0.00    -0.354 N 
ATOM     32  N   UNL     1      12.260 -22.640   2.423  1.00  0.00    -0.248 NA
ATOM     33  C   UNL     1      10.833 -24.491   2.503  1.00  0.00     0.031 C 
ATOM     34  C   UNL     1      15.233 -21.645   5.569  1.00  0.00     0.029 A 
ATOM     35  C   UNL     1      14.325 -21.995   4.583  1.00  0.00     0.049 A 
ATOM     36  H   UNL     1      13.931 -21.045   2.740  1.00  0.00     0.167 HD
ATOM     37  C   UNL     1      12.507 -23.357   3.588  1.00  0.00     0.074 A 
ATOM     38  C   UNL     1      11.585 -24.475   3.595  1.00  0.00     0.031 C 
ATOM     39  C   UNL     1      13.416 -23.113   4.563  1.00  0.00     0.034 A 
BRANCH  26  40
ATOM     40  C   UNL     1      16.944 -18.135   3.604  1.00  0.00     0.023 A 
ATOM     41  C   UNL     1      16.703 -16.827   4.051  1.00  0.00     0.031 A 
ATOM     42  C   UNL     1      18.251 -18.644   3.709  1.00  0.00     0.131 A 
ATOM     43  C   UNL     1      17.761 -16.060   4.564  1.00  0.00     0.055 A 
ATOM     44  C   UNL     1      19.288 -17.896   4.269  1.00  0.00     0.041 A 
ATOM     45  F   UNL     1      18.536 -19.886   3.284  1.00  0.00    -0.206 F 
ATOM     46  C   UNL     1      19.046 -16.594   4.698  1.00  0.00     0.022 A 
BRANCH  43  47
ATOM     47  S   UNL     1      17.445 -14.333   5.016  1.00  0.00     0.124 S 
ATOM     48  O   UNL     1      17.154 -13.736   3.715  1.00  0.00    -0.237 OA
ATOM     49  O   UNL     1      16.316 -14.444   5.933  1.00  0.00    -0.237 OA
ATOM     50  O   UNL     1      18.702 -13.903   5.626  1.00  0.00    -0.744 OA
ENDBRANCH  43  47
ENDBRANCH  26  40
BRANCH  27  51
ATOM     51  C   UNL     1       9.561 -23.821  -0.061  1.00  0.00     0.023 A 
ATOM     52  C   UNL     1       8.306 -23.891   0.561  1.00  0.00     0.031 A 
ATOM     53  C   UNL     1       9.770 -24.586  -1.223  1.00  0.00     0.131 A 
ATOM     54  C   UNL     1       7.312 -24.728   0.029  1.00  0.00     0.055 A 
ATOM     55  C   UNL     1       8.764 -25.381  -1.773  1.00  0.00     0.041 A 
ATOM     56  F   UNL     1      10.953 -24.548  -1.857  1.00  0.00    -0.206 F 
ATOM     57  C   UNL     1       7.528 -25.461  -1.141  1.00  0.00     0.022 A 
BRANCH  54  58
ATOM     58  S   UNL     1       5.738 -24.879   0.916  1.00  0.00     0.124 S 
ATOM     59  O   UNL     1       6.167 -25.451   2.187  1.00  0.00    -0.237 OA
ATOM     60  O   UNL     1       5.277 -23.495   0.956  1.00  0.00    -0.237 OA
ATOM     61  O   UNL     1       4.952 -25.769   0.064  1.00  0.00    -0.744 OA
ENDBRANCH  54  58
ENDBRANCH  27  51
BRANCH  39  62
ATOM     62  C   UNL     1      13.456 -24.067   5.724  1.00  0.00     0.023 A 
ATOM     63  C   UNL     1      13.999 -25.354   5.588  1.00  0.00     0.031 A 
ATOM     64  C   UNL     1      12.998 -23.663   6.990  1.00  0.00     0.131 A 
ATOM     65  C   UNL     1      14.053 -26.206   6.700  1.00  0.00     0.055 A 
ATOM     66  C   UNL     1      13.094 -24.499   8.102  1.00  0.00     0.041 A 
ATOM     67  F   UNL     1      12.474 -22.440   7.169  1.00  0.00    -0.206 F 
ATOM     68  C   UNL     1      13.621 -25.780   7.959  1.00  0.00     0.022 A 
BRANCH  65  69
ATOM     69  S   UNL     1      14.684 -27.891   6.477  1.00  0.00     0.124 S 
ATOM     70  O   UNL     1      13.657 -28.486   5.627  1.00  0.00    -0.237 OA
ATOM     71  O   UNL     1      15.980 -27.665   5.846  1.00  0.00    -0.237 OA
ATOM     72  O   UNL     1      14.744 -28.417   7.839  1.00  0.00    -0.744 OA
ENDBRANCH  65  69
ENDBRANCH  39  62
ENDBRANCH  13  14
ENDBRANCH   6   8
ENDBRANCH   3   4
ENDBRANCH   2   3
ENDBRANCH   1   2
BRANCH   1  73
ATOM     73  C   UNL     1      10.514 -11.054  -4.946  1.00  0.00     0.002 C 
BRANCH  73  74
ATOM     74  C   UNL     1       9.567 -10.979  -3.740  1.00  0.00     0.021 C 
BRANCH  74  75
ATOM     75  C   UNL     1       9.890  -9.958  -2.654  1.00  0.00     0.116 C 
BRANCH  75  76
ATOM     76  N   UNL     1      10.266  -8.661  -3.169  1.00  0.00    -0.356 N 
ATOM     77  C   UNL     1      10.451  -7.540  -2.416  1.00  0.00     0.223 C 
ATOM     78  H   UNL     1      10.399  -8.581  -4.142  1.00  0.00     0.163 HD
ATOM     79  O   UNL     1      11.470  -6.895  -2.651  1.00  0.00    -0.275 OA
BRANCH  77  80
ATOM     80  C   UNL     1       9.381  -7.089  -1.422  1.00  0.00     0.091 C 
ATOM     81  C   UNL     1       9.576  -7.826  -0.084  1.00  0.00     0.014 C 
ATOM     82  C   UNL     1       9.422  -5.571  -1.115  1.00  0.00     0.091 C 
ATOM     83  C   UNL     1      10.948  -7.524   0.513  1.00  0.00     0.001 C 
ATOM     84  C   UNL     1      10.747  -5.136  -0.457  1.00  0.00     0.014 C 
ATOM     85  C   UNL     1      11.178  -6.028   0.712  1.00  0.00     0.001 C 
BRANCH  82  86
ATOM     86  C   UNL     1       8.999  -4.509  -2.156  1.00  0.00     0.226 C 
ATOM     87  O   UNL     1       8.290  -3.565  -1.785  1.00  0.00    -0.275 OA
ATOM     88  N   UNL     1       9.603  -4.468  -3.394  1.00  0.00    -0.340 N 
ATOM     89  C   UNL     1       9.973  -3.167  -3.963  1.00  0.00     0.136 C 
ATOM     90  C   UNL     1       9.380  -5.482  -4.414  1.00  0.00     0.136 C 
ATOM     91  C   UNL     1      11.191  -3.284  -4.905  1.00  0.00     0.124 C 
ATOM     92  C   UNL     1      10.635  -5.645  -5.281  1.00  0.00     0.124 C 
ATOM     93  N   UNL     1      11.021  -4.364  -5.949  1.00  0.00    -0.194 NA
BRANCH  93  94
ATOM     94  S   UNL     1      10.180  -3.890  -7.345  1.00  0.00     0.243 S 
ATOM     95  O   UNL     1       8.771  -3.781  -7.021  1.00  0.00    -0.207 OA
ATOM     96  O   UNL     1      10.888  -2.773  -7.925  1.00  0.00    -0.207 OA
BRANCH  94  97
ATOM     97  C   UNL     1      10.359  -5.282  -8.449  1.00  0.00     0.082 A 
ATOM     98  C   UNL     1       9.495  -6.380  -8.318  1.00  0.00     0.025 A 
ATOM     99  C   UNL     1      11.309  -5.248  -9.475  1.00  0.00     0.025 A 
ATOM    100  C   UNL     1       9.639  -7.481  -9.161  1.00  0.00     0.040 A 
ATOM    101  C   UNL     1      11.422  -6.339 -10.341  1.00  0.00     0.040 A 
ATOM    102  C   UNL     1      10.598  -7.449 -10.167  1.00  0.00     0.123 A 
ATOM    103  F   UNL     1      10.723  -8.499 -10.988  1.00  0.00    -0.207 F 
ENDBRANCH  94  97
ENDBRANCH  93  94
ENDBRANCH  82  86
ENDBRANCH  77  80
ENDBRANCH  75  76
ENDBRANCH  74  75
ENDBRANCH  73  74
ENDBRANCH   1  73
TORSDOF 19
