REMARK SMILES COc1ccc(C(F)(F)F)cc1-c1cccnc1C(=O)NCCCCCCNC(=O)c1ccc(-c2c3nc(c(-c4cc(S(=O)(=O)[O-])ccc4F)c4ccc([nH]4)c(-c4cc(S(=O)(=O)[O-])ccc4F)c4nc(c(-c5cc(S(=O)(=O)[O-])ccc5F)c5ccc2[nH]5)C=C4)C=C3)cc1
REMARK SMILES IDX 25 1 24 2 23 3 22 4 21 5 19 6 20 7 18 9 13 10 14 11 15 12
REMARK SMILES IDX 17 13 16 14 12 15 3 16 4 17 5 18 11 19 6 20 2 21 1 22 7 23
REMARK SMILES IDX 8 24 9 25 10 26 26 27 27 28 28 29 29 30 30 32 31 33 32 34
REMARK SMILES IDX 93 35 33 36 92 37 34 38 35 39 36 40 86 41 37 42 91 43 85 44
REMARK SMILES IDX 87 45 38 46 90 47 84 48 83 49 39 51 71 52 51 53 70 54 52 55
REMARK SMILES IDX 55 56 69 57 88 58 53 59 54 60 68 62 89 63 56 64 40 65 41 66
REMARK SMILES IDX 49 67 42 68 48 69 50 70 47 71 43 72 44 73 45 74 46 75 72 76
REMARK SMILES IDX 73 77 81 78 74 79 80 80 82 81 79 82 75 83 76 84 77 85 78 86
REMARK SMILES IDX 57 87 58 88 66 89 59 90 65 91 67 92 64 93 60 94 61 95 62 96
REMARK SMILES IDX 63 97
REMARK H PARENT 21 8 28 31 87 50 55 61
REMARK Flexibility Score: inf
ROOT
ATOM      1  C   UNL     1      -0.581  -4.536  -4.208  1.00  0.00     0.002 C 
ENDROOT
BRANCH   1   2
ATOM      2  C   UNL     1      -0.689  -3.035  -4.504  1.00  0.00     0.002 C 
BRANCH   2   3
ATOM      3  C   UNL     1      -0.241  -2.049  -3.420  1.00  0.00     0.021 C 
BRANCH   3   4
ATOM      4  C   UNL     1       1.092  -2.312  -2.730  1.00  0.00     0.116 C 
BRANCH   4   5
ATOM      5  N   UNL     1       2.297  -2.019  -3.454  1.00  0.00    -0.351 N 
ATOM      6  C   UNL     1       3.552  -1.655  -2.995  1.00  0.00     0.270 C 
ATOM      7  O   UNL     1       4.441  -1.644  -3.855  1.00  0.00    -0.267 OA
ATOM      8  H   UNL     1       2.218  -2.089  -4.433  1.00  0.00     0.163 HD
BRANCH   6   9
ATOM      9  C   UNL     1       3.916  -1.211  -1.578  1.00  0.00     0.136 A 
ATOM     10  C   UNL     1       3.539  -1.787  -0.350  1.00  0.00     0.017 A 
ATOM     11  C   UNL     1       4.135  -1.253   0.819  1.00  0.00     0.013 A 
ATOM     12  C   UNL     1       5.039  -0.204   0.762  1.00  0.00     0.021 A 
ATOM     13  N   UNL     1       4.806  -0.165  -1.626  1.00  0.00    -0.250 NA
ATOM     14  C   UNL     1       5.340   0.304  -0.479  1.00  0.00     0.112 A 
BRANCH  10  15
ATOM     15  C   UNL     1       2.596  -2.892  -0.144  1.00  0.00     0.027 A 
ATOM     16  C   UNL     1       1.406  -2.736   0.608  1.00  0.00     0.126 A 
ATOM     17  C   UNL     1       0.541  -3.815   0.800  1.00  0.00     0.048 A 
ATOM     18  C   UNL     1       0.831  -5.058   0.235  1.00  0.00     0.017 A 
ATOM     19  C   UNL     1       2.888  -4.164  -0.673  1.00  0.00     0.025 A 
ATOM     20  C   UNL     1       2.006  -5.247  -0.508  1.00  0.00     0.056 A 
BRANCH  16  21
ATOM     21  O   UNL     1       1.080  -1.589   1.293  1.00  0.00    -0.496 OA
ATOM     22  C   UNL     1       0.710  -0.481   0.472  1.00  0.00     0.278 C 
ENDBRANCH  16  21
BRANCH  20  23
ATOM     23  C   UNL     1       2.278  -6.568  -1.188  1.00  0.00     0.416 C 
ATOM     24  F   UNL     1       1.975  -7.642  -0.412  1.00  0.00    -0.166 F 
ATOM     25  F   UNL     1       1.549  -6.707  -2.330  1.00  0.00    -0.166 F 
ATOM     26  F   UNL     1       3.579  -6.724  -1.558  1.00  0.00    -0.166 F 
ENDBRANCH  20  23
ENDBRANCH  10  15
ENDBRANCH   6   9
ENDBRANCH   4   5
ENDBRANCH   3   4
ENDBRANCH   2   3
ENDBRANCH   1   2
BRANCH   1  27
ATOM     27  C   UNL     1      -1.159  -5.045  -2.885  1.00  0.00     0.021 C 
BRANCH  27  28
ATOM     28  C   UNL     1      -2.653  -4.851  -2.648  1.00  0.00     0.116 C 
BRANCH  28  29
ATOM     29  N   UNL     1      -3.474  -5.583  -3.591  1.00  0.00    -0.352 N 
ATOM     30  C   UNL     1      -4.465  -6.517  -3.404  1.00  0.00     0.251 C 
ATOM     31  H   UNL     1      -3.289  -5.375  -4.535  1.00  0.00     0.163 HD
ATOM     32  O   UNL     1      -4.901  -7.101  -4.396  1.00  0.00    -0.269 OA
BRANCH  30  33
ATOM     33  C   UNL     1      -5.008  -6.857  -2.060  1.00  0.00     0.039 A 
ATOM     34  C   UNL     1      -5.452  -8.168  -1.843  1.00  0.00     0.014 A 
ATOM     35  C   UNL     1      -5.171  -5.914  -1.042  1.00  0.00     0.014 A 
ATOM     36  C   UNL     1      -6.018  -8.536  -0.616  1.00  0.00     0.010 A 
ATOM     37  C   UNL     1      -5.665  -6.300   0.210  1.00  0.00     0.010 A 
ATOM     38  C   UNL     1      -6.111  -7.611   0.434  1.00  0.00    -0.014 A 
BRANCH  38  39
ATOM     39  C   UNL     1      -6.708  -7.998   1.746  1.00  0.00     0.031 A 
ATOM     40  C   UNL     1      -7.979  -7.344   2.228  1.00  0.00     0.074 A 
ATOM     41  C   UNL     1      -6.100  -8.921   2.518  1.00  0.00     0.049 A 
ATOM     42  N   UNL     1      -8.630  -7.518   3.352  1.00  0.00    -0.248 NA
ATOM     43  C   UNL     1      -8.583  -6.341   1.338  1.00  0.00     0.031 C 
ATOM     44  C   UNL     1      -4.852  -9.610   2.184  1.00  0.00     0.029 A 
ATOM     45  N   UNL     1      -6.445  -9.440   3.743  1.00  0.00    -0.354 N 
ATOM     46  C   UNL     1      -9.710  -6.641   3.309  1.00  0.00     0.074 A 
ATOM     47  C   UNL     1      -9.587  -5.892   2.076  1.00  0.00     0.031 C 
ATOM     48  C   UNL     1      -4.553 -10.480   3.163  1.00  0.00     0.029 A 
ATOM     49  C   UNL     1      -5.560 -10.383   4.215  1.00  0.00     0.049 A 
ATOM     50  H   UNL     1      -7.251  -9.164   4.236  1.00  0.00     0.167 HD
ATOM     51  C   UNL     1     -10.724  -6.490   4.199  1.00  0.00     0.034 A 
ATOM     52  C   UNL     1      -5.554 -11.085   5.367  1.00  0.00     0.034 A 
ATOM     53  C   UNL     1     -10.845  -7.253   5.419  1.00  0.00     0.049 A 
ATOM     54  C   UNL     1      -6.680 -10.887   6.351  1.00  0.00     0.074 A 
ATOM     55  C   UNL     1     -11.853  -7.210   6.368  1.00  0.00     0.029 A 
ATOM     56  N   UNL     1      -9.927  -8.196   5.864  1.00  0.00    -0.354 N 
ATOM     57  N   UNL     1      -7.714 -10.082   6.274  1.00  0.00    -0.248 NA
ATOM     58  C   UNL     1      -6.644 -11.705   7.571  1.00  0.00     0.031 C 
ATOM     59  C   UNL     1     -11.511  -8.074   7.415  1.00  0.00     0.029 A 
ATOM     60  C   UNL     1     -10.330  -8.719   7.084  1.00  0.00     0.049 A 
ATOM     61  H   UNL     1      -9.108  -8.456   5.383  1.00  0.00     0.167 HD
ATOM     62  C   UNL     1      -8.469 -10.324   7.419  1.00  0.00     0.074 A 
ATOM     63  C   UNL     1      -7.779 -11.361   8.159  1.00  0.00     0.031 C 
ATOM     64  C   UNL     1      -9.630  -9.745   7.821  1.00  0.00     0.034 A 
BRANCH  51  65
ATOM     65  C   UNL     1     -11.768  -5.439   3.893  1.00  0.00     0.023 A 
ATOM     66  C   UNL     1     -12.582  -5.515   2.749  1.00  0.00     0.031 A 
ATOM     67  C   UNL     1     -11.936  -4.330   4.742  1.00  0.00     0.131 A 
ATOM     68  C   UNL     1     -13.463  -4.467   2.442  1.00  0.00     0.055 A 
ATOM     69  C   UNL     1     -12.877  -3.333   4.477  1.00  0.00     0.041 A 
ATOM     70  F   UNL     1     -11.176  -4.189   5.840  1.00  0.00    -0.206 F 
ATOM     71  C   UNL     1     -13.636  -3.388   3.312  1.00  0.00     0.022 A 
BRANCH  68  72
ATOM     72  S   UNL     1     -14.264  -4.458   0.814  1.00  0.00     0.124 S 
ATOM     73  O   UNL     1     -13.110  -4.461  -0.081  1.00  0.00    -0.237 OA
ATOM     74  O   UNL     1     -15.055  -5.682   0.844  1.00  0.00    -0.237 OA
ATOM     75  O   UNL     1     -15.035  -3.215   0.819  1.00  0.00    -0.744 OA
ENDBRANCH  68  72
ENDBRANCH  51  65
BRANCH  52  76
ATOM     76  C   UNL     1      -4.447 -12.041   5.664  1.00  0.00     0.023 A 
ATOM     77  C   UNL     1      -4.693 -13.418   5.793  1.00  0.00     0.031 A 
ATOM     78  C   UNL     1      -3.133 -11.585   5.872  1.00  0.00     0.131 A 
ATOM     79  C   UNL     1      -3.653 -14.283   6.169  1.00  0.00     0.055 A 
ATOM     80  C   UNL     1      -2.091 -12.456   6.191  1.00  0.00     0.041 A 
ATOM     81  F   UNL     1      -2.842 -10.279   5.758  1.00  0.00    -0.206 F 
ATOM     82  C   UNL     1      -2.351 -13.813   6.355  1.00  0.00     0.022 A 
BRANCH  79  83
ATOM     83  S   UNL     1      -4.046 -16.022   6.502  1.00  0.00     0.124 S 
ATOM     84  O   UNL     1      -5.050 -15.904   7.553  1.00  0.00    -0.237 OA
ATOM     85  O   UNL     1      -4.529 -16.476   5.202  1.00  0.00    -0.237 OA
ATOM     86  O   UNL     1      -2.765 -16.587   6.920  1.00  0.00    -0.744 OA
ENDBRANCH  79  83
ENDBRANCH  52  76
BRANCH  64  87
ATOM     87  C   UNL     1     -10.250 -10.264   9.098  1.00  0.00     0.023 A 
ATOM     88  C   UNL     1      -9.623 -10.104  10.346  1.00  0.00     0.031 A 
ATOM     89  C   UNL     1     -11.476 -10.952   9.059  1.00  0.00     0.131 A 
ATOM     90  C   UNL     1     -10.189 -10.681  11.493  1.00  0.00     0.055 A 
ATOM     91  C   UNL     1     -12.067 -11.468  10.213  1.00  0.00     0.041 A 
ATOM     92  F   UNL     1     -12.120 -11.137   7.896  1.00  0.00    -0.206 F 
ATOM     93  C   UNL     1     -11.415 -11.348  11.437  1.00  0.00     0.022 A 
BRANCH  90  94
ATOM     94  S   UNL     1      -9.246 -10.644  13.043  1.00  0.00     0.124 S 
ATOM     95  O   UNL     1      -8.000 -11.298  12.656  1.00  0.00    -0.237 OA
ATOM     96  O   UNL     1      -9.156  -9.214  13.319  1.00  0.00    -0.237 OA
ATOM     97  O   UNL     1     -10.083 -11.402  13.972  1.00  0.00    -0.744 OA
ENDBRANCH  90  94
ENDBRANCH  64  87
ENDBRANCH  38  39
ENDBRANCH  30  33
ENDBRANCH  28  29
ENDBRANCH  27  28
ENDBRANCH   1  27
TORSDOF 19
