REMARK SMILES CCOc1ccc(N2C[C@H](C(=O)NCCCCCCNC(=O)c3ccc(-c4c5nc(c(-c6cc(S(=O)(=O)[O-])ccc6F)c6ccc([nH]6)c(-c6cc(S(=O)(=O)[O-])ccc6F)c6nc(c(-c7cc(S(=O)(=O)[O-])ccc7F)c7ccc4[nH]7)C=C6)C=C5)cc3)CC2=O)cc1C(F)(F)F
REMARK SMILES IDX 16 1 15 2 14 3 13 4 11 5 12 6 10 8 8 9 9 10 87 11 86 12
REMARK SMILES IDX 88 13 7 14 4 15 5 16 90 17 6 18 89 19 3 20 2 21 1 22 91 23
REMARK SMILES IDX 92 24 93 25 94 26 17 27 18 28 19 29 20 30 21 31 22 33 23 34
REMARK SMILES IDX 24 35 85 36 25 37 84 38 26 39 27 40 28 41 78 42 29 43 83 44
REMARK SMILES IDX 77 45 79 46 30 47 82 48 76 49 75 50 31 52 63 53 43 54 62 55
REMARK SMILES IDX 44 56 47 57 61 58 80 59 45 60 46 61 60 63 81 64 48 65 32 66
REMARK SMILES IDX 33 67 41 68 34 69 40 70 42 71 39 72 35 73 36 74 37 75 38 76
REMARK SMILES IDX 64 77 65 78 73 79 66 80 72 81 74 82 71 83 67 84 68 85 69 86
REMARK SMILES IDX 70 87 49 88 50 89 58 90 51 91 57 92 59 93 56 94 52 95 53 96
REMARK SMILES IDX 54 97 55 98
REMARK H PARENT 13 7 20 32 79 51 47 62
REMARK Flexibility Score: inf
ROOT
ATOM      1  C   UNL     1       5.447   4.484   6.663  1.00  0.00     0.002 C 
ENDROOT
BRANCH   1   2
ATOM      2  C   UNL     1       5.673   3.525   5.490  1.00  0.00     0.021 C 
BRANCH   2   3
ATOM      3  C   UNL     1       7.076   3.597   4.893  1.00  0.00     0.116 C 
BRANCH   3   4
ATOM      4  N   UNL     1       8.048   2.878   5.697  1.00  0.00    -0.356 N 
ATOM      5  C   UNL     1       8.776   1.758   5.464  1.00  0.00     0.225 C 
ATOM      6  O   UNL     1       9.542   1.391   6.362  1.00  0.00    -0.275 OA
ATOM      7  H   UNL     1       8.210   3.281   6.580  1.00  0.00     0.163 HD
BRANCH   5   8
ATOM      8  C   UNL     1       8.662   0.918   4.201  1.00  0.00     0.107 C 
ATOM      9  N   UNL     1       6.675   0.881   2.925  1.00  0.00    -0.312 N 
ATOM     10  C   UNL     1       7.306   0.260   4.065  1.00  0.00     0.139 C 
ATOM     11  C   UNL     1       7.597   1.628   2.175  1.00  0.00     0.227 C 
ATOM     12  C   UNL     1       8.922   1.636   2.894  1.00  0.00     0.116 C 
ATOM     13  O   UNL     1       7.423   2.255   1.143  1.00  0.00    -0.274 OA
BRANCH   9  14
ATOM     14  C   UNL     1       5.284   0.756   2.645  1.00  0.00     0.044 A 
ATOM     15  C   UNL     1       2.507   0.639   2.114  1.00  0.00     0.131 A 
ATOM     16  C   UNL     1       3.009   0.217   3.345  1.00  0.00     0.049 A 
ATOM     17  C   UNL     1       3.368   1.146   1.144  1.00  0.00     0.100 A 
ATOM     18  C   UNL     1       4.386   0.259   3.600  1.00  0.00     0.030 A 
ATOM     19  C   UNL     1       4.751   1.172   1.419  1.00  0.00     0.043 A 
BRANCH  15  20
ATOM     20  O   UNL     1       1.156   0.673   1.925  1.00  0.00    -0.493 OA
BRANCH  20  21
ATOM     21  C   UNL     1       0.589  -0.610   1.637  1.00  0.00     0.226 C 
ATOM     22  C   UNL     1       0.306  -0.724   0.149  1.00  0.00     0.049 C 
ENDBRANCH  20  21
ENDBRANCH  15  20
BRANCH  17  23
ATOM     23  C   UNL     1       2.898   1.625  -0.205  1.00  0.00     0.420 C 
ATOM     24  F   UNL     1       3.661   2.647  -0.691  1.00  0.00    -0.166 F 
ATOM     25  F   UNL     1       2.980   0.637  -1.143  1.00  0.00    -0.166 F 
ATOM     26  F   UNL     1       1.618   2.078  -0.245  1.00  0.00    -0.166 F 
ENDBRANCH  17  23
ENDBRANCH   9  14
ENDBRANCH   5   8
ENDBRANCH   3   4
ENDBRANCH   2   3
ENDBRANCH   1   2
BRANCH   1  27
ATOM     27  C   UNL     1       5.692   5.966   6.350  1.00  0.00     0.002 C 
BRANCH  27  28
ATOM     28  C   UNL     1       4.936   6.513   5.135  1.00  0.00     0.021 C 
BRANCH  28  29
ATOM     29  C   UNL     1       3.417   6.387   5.220  1.00  0.00     0.116 C 
BRANCH  29  30
ATOM     30  N   UNL     1       2.881   7.102   6.367  1.00  0.00    -0.352 N 
ATOM     31  C   UNL     1       1.967   8.125   6.410  1.00  0.00     0.251 C 
ATOM     32  H   UNL     1       3.224   6.809   7.242  1.00  0.00     0.163 HD
ATOM     33  O   UNL     1       1.821   8.764   7.448  1.00  0.00    -0.269 OA
BRANCH  31  34
ATOM     34  C   UNL     1       1.176   8.462   5.207  1.00  0.00     0.039 A 
ATOM     35  C   UNL     1       0.993   9.805   4.871  1.00  0.00     0.014 A 
ATOM     36  C   UNL     1       0.600   7.457   4.423  1.00  0.00     0.014 A 
ATOM     37  C   UNL     1       0.280  10.139   3.716  1.00  0.00     0.010 A 
ATOM     38  C   UNL     1      -0.048   7.789   3.236  1.00  0.00     0.010 A 
ATOM     39  C   UNL     1      -0.218   9.133   2.871  1.00  0.00    -0.014 A 
BRANCH  39  40
ATOM     40  C   UNL     1      -0.918   9.470   1.603  1.00  0.00     0.031 A 
ATOM     41  C   UNL     1      -2.365   9.095   1.417  1.00  0.00     0.074 A 
ATOM     42  C   UNL     1      -0.233  10.055   0.600  1.00  0.00     0.049 A 
ATOM     43  N   UNL     1      -3.125   9.231   0.362  1.00  0.00    -0.248 NA
ATOM     44  C   UNL     1      -3.036   8.458   2.561  1.00  0.00     0.031 C 
ATOM     45  C   UNL     1       1.183  10.427   0.651  1.00  0.00     0.029 A 
ATOM     46  N   UNL     1      -0.625  10.427  -0.662  1.00  0.00    -0.354 N 
ATOM     47  C   UNL     1      -4.356   8.681   0.705  1.00  0.00     0.074 A 
ATOM     48  C   UNL     1      -4.224   8.167   2.051  1.00  0.00     0.031 C 
ATOM     49  C   UNL     1       1.535  10.985  -0.518  1.00  0.00     0.029 A 
ATOM     50  C   UNL     1       0.389  10.966  -1.421  1.00  0.00     0.049 A 
ATOM     51  H   UNL     1      -1.546  10.318  -0.993  1.00  0.00     0.167 HD
ATOM     52  C   UNL     1      -5.493   8.626  -0.032  1.00  0.00     0.034 A 
ATOM     53  C   UNL     1       0.401  11.378  -2.705  1.00  0.00     0.034 A 
ATOM     54  C   UNL     1      -5.609   9.160  -1.367  1.00  0.00     0.049 A 
ATOM     55  C   UNL     1      -0.875  11.290  -3.507  1.00  0.00     0.074 A 
ATOM     56  C   UNL     1      -6.733   9.225  -2.172  1.00  0.00     0.029 A 
ATOM     57  N   UNL     1      -4.564   9.709  -2.100  1.00  0.00    -0.354 N 
ATOM     58  N   UNL     1      -2.050  10.831  -3.141  1.00  0.00    -0.248 NA
ATOM     59  C   UNL     1      -0.827  11.787  -4.888  1.00  0.00     0.031 C 
ATOM     60  C   UNL     1      -6.352   9.736  -3.417  1.00  0.00     0.029 A 
ATOM     61  C   UNL     1      -5.010  10.076  -3.361  1.00  0.00     0.049 A 
ATOM     62  H   UNL     1      -3.642   9.820  -1.773  1.00  0.00     0.167 HD
ATOM     63  C   UNL     1      -2.887  11.015  -4.239  1.00  0.00     0.074 A 
ATOM     64  C   UNL     1      -2.087  11.644  -5.269  1.00  0.00     0.031 C 
ATOM     65  C   UNL     1      -4.199  10.697  -4.382  1.00  0.00     0.034 A 
BRANCH  52  66
ATOM     66  C   UNL     1      -6.693   7.938   0.575  1.00  0.00     0.023 A 
ATOM     67  C   UNL     1      -7.330   8.430   1.728  1.00  0.00     0.031 A 
ATOM     68  C   UNL     1      -7.213   6.772  -0.016  1.00  0.00     0.131 A 
ATOM     69  C   UNL     1      -8.411   7.729   2.284  1.00  0.00     0.055 A 
ATOM     70  C   UNL     1      -8.336   6.122   0.497  1.00  0.00     0.041 A 
ATOM     71  F   UNL     1      -6.634   6.242  -1.106  1.00  0.00    -0.206 F 
ATOM     72  C   UNL     1      -8.936   6.594   1.661  1.00  0.00     0.022 A 
BRANCH  69  73
ATOM     73  S   UNL     1      -9.048   8.252   3.900  1.00  0.00     0.124 S 
ATOM     74  O   UNL     1      -7.863   8.114   4.743  1.00  0.00    -0.237 OA
ATOM     75  O   UNL     1      -9.491   9.616   3.639  1.00  0.00    -0.237 OA
ATOM     76  O   UNL     1     -10.114   7.291   4.176  1.00  0.00    -0.744 OA
ENDBRANCH  69  73
ENDBRANCH  52  66
BRANCH  53  77
ATOM     77  C   UNL     1       1.660  11.881  -3.331  1.00  0.00     0.023 A 
ATOM     78  C   UNL     1       1.757  13.196  -3.814  1.00  0.00     0.031 A 
ATOM     79  C   UNL     1       2.767  11.032  -3.510  1.00  0.00     0.131 A 
ATOM     80  C   UNL     1       2.909  13.605  -4.505  1.00  0.00     0.055 A 
ATOM     81  C   UNL     1       3.935  11.463  -4.141  1.00  0.00     0.041 A 
ATOM     82  F   UNL     1       2.731   9.765  -3.067  1.00  0.00    -0.206 F 
ATOM     83  C   UNL     1       4.004  12.752  -4.659  1.00  0.00     0.022 A 
BRANCH  80  84
ATOM     84  S   UNL     1       2.911  15.235  -5.301  1.00  0.00     0.124 S 
ATOM     85  O   UNL     1       1.734  15.148  -6.157  1.00  0.00    -0.237 OA
ATOM     86  O   UNL     1       2.806  16.131  -4.154  1.00  0.00    -0.237 OA
ATOM     87  O   UNL     1       4.192  15.270  -6.002  1.00  0.00    -0.744 OA
ENDBRANCH  80  84
ENDBRANCH  53  77
BRANCH  65  88
ATOM     88  C   UNL     1      -4.861  11.074  -5.686  1.00  0.00     0.023 A 
ATOM     89  C   UNL     1      -4.494  10.480  -6.906  1.00  0.00     0.031 A 
ATOM     90  C   UNL     1      -5.873  12.051  -5.705  1.00  0.00     0.131 A 
ATOM     91  C   UNL     1      -5.095  10.907  -8.100  1.00  0.00     0.055 A 
ATOM     92  C   UNL     1      -6.514  12.424  -6.887  1.00  0.00     0.041 A 
ATOM     93  F   UNL     1      -6.262  12.655  -4.571  1.00  0.00    -0.206 F 
ATOM     94  C   UNL     1      -6.116  11.861  -8.096  1.00  0.00     0.022 A 
BRANCH  91  95
ATOM     95  S   UNL     1      -4.458  10.268  -9.674  1.00  0.00     0.124 S 
ATOM     96  O   UNL     1      -3.058  10.676  -9.622  1.00  0.00    -0.237 OA
ATOM     97  O   UNL     1      -4.710   8.836  -9.555  1.00  0.00    -0.237 OA
ATOM     98  O   UNL     1      -5.268  10.958 -10.677  1.00  0.00    -0.744 OA
ENDBRANCH  91  95
ENDBRANCH  65  88
ENDBRANCH  39  40
ENDBRANCH  31  34
ENDBRANCH  29  30
ENDBRANCH  28  29
ENDBRANCH  27  28
ENDBRANCH   1  27
TORSDOF 20
