REMARK SMILES CC(C)(C)n1ccnc(N(CC(=O)NCCCCCCNC(=O)c2ccc(-c3c4nc(c(-c5cc(S(=O)(=O)[O-])ccc5F)c5ccc([nH]5)c(-c5cc(S(=O)(=O)[O-])ccc5F)c5nc(c(-c6cc(S(=O)(=O)[O-])ccc6F)c6ccc3[nH]6)C=C5)C=C4)cc2)CC(F)(F)F)c1=O
REMARK SMILES IDX 17 1 16 2 15 3 14 4 12 5 13 6 11 8 10 9 9 10 5 11 6 12 92 13
REMARK SMILES IDX 7 14 93 15 8 16 2 17 1 18 3 19 4 20 87 21 88 22 89 23 90 24
REMARK SMILES IDX 91 25 18 26 19 27 20 28 21 29 22 30 23 32 24 33 25 34 86 35
REMARK SMILES IDX 26 36 85 37 27 38 28 39 29 40 79 41 30 42 84 43 78 44 80 45
REMARK SMILES IDX 31 46 83 47 77 48 76 49 32 51 64 52 44 53 63 54 45 55 48 56
REMARK SMILES IDX 62 57 81 58 46 59 47 60 61 62 82 63 49 64 33 65 34 66 42 67
REMARK SMILES IDX 35 68 41 69 43 70 40 71 36 72 37 73 38 74 39 75 65 76 66 77
REMARK SMILES IDX 74 78 67 79 73 80 75 81 72 82 68 83 69 84 70 85 71 86 50 87
REMARK SMILES IDX 51 88 59 89 52 90 58 91 60 92 57 93 53 94 54 95 55 96 56 97
REMARK H PARENT 14 7 21 31 80 50 48 61
REMARK Flexibility Score: inf
ROOT
ATOM      1  C   UNL     1      -2.577  -1.235   6.679  1.00  0.00     0.002 C 
ENDROOT
BRANCH   1   2
ATOM      2  C   UNL     1      -1.482  -0.468   5.927  1.00  0.00     0.021 C 
BRANCH   2   3
ATOM      3  C   UNL     1      -0.399   0.107   6.837  1.00  0.00     0.116 C 
BRANCH   3   4
ATOM      4  N   UNL     1       0.383  -0.952   7.449  1.00  0.00    -0.355 N 
ATOM      5  C   UNL     1       1.660  -1.341   7.170  1.00  0.00     0.239 C 
ATOM      6  O   UNL     1       2.103  -2.354   7.720  1.00  0.00    -0.273 OA
ATOM      7  H   UNL     1      -0.069  -1.456   8.163  1.00  0.00     0.163 HD
BRANCH   5   8
ATOM      8  C   UNL     1       2.524  -0.527   6.205  1.00  0.00     0.218 C 
BRANCH   8   9
ATOM      9  N   UNL     1       2.142  -0.700   4.790  1.00  0.00    -0.334 N 
BRANCH   9  10
ATOM     10  C   UNL     1       1.867   0.428   3.993  1.00  0.00     0.196 A 
ATOM     11  N   UNL     1       1.064   1.449   1.827  1.00  0.00    -0.306 N 
ATOM     12  C   UNL     1       1.021   2.622   2.563  1.00  0.00     0.110 A 
ATOM     13  C   UNL     1       1.576   0.302   2.453  1.00  0.00     0.294 A 
ATOM     14  C   UNL     1       1.439   2.677   3.828  1.00  0.00     0.131 A 
ATOM     15  O   UNL     1       1.830  -0.765   1.905  1.00  0.00    -0.265 OA
ATOM     16  N   UNL     1       1.846   1.607   4.565  1.00  0.00    -0.233 NA
BRANCH  11  17
ATOM     17  C   UNL     1       0.471   1.431   0.441  1.00  0.00     0.039 C 
ATOM     18  C   UNL     1       0.851   0.192  -0.401  1.00  0.00     0.034 C 
ATOM     19  C   UNL     1       0.925   2.657  -0.389  1.00  0.00     0.034 C 
ATOM     20  C   UNL     1      -1.067   1.444   0.569  1.00  0.00     0.034 C 
ENDBRANCH  11  17
ENDBRANCH   9  10
BRANCH   9  21
ATOM     21  C   UNL     1       2.214  -2.088   4.264  1.00  0.00     0.234 C 
BRANCH  21  22
ATOM     22  C   UNL     1       0.871  -2.765   3.937  1.00  0.00     0.405 C 
ATOM     23  F   UNL     1      -0.000  -1.969   3.284  1.00  0.00    -0.169 F 
ATOM     24  F   UNL     1       1.067  -3.869   3.175  1.00  0.00    -0.169 F 
ATOM     25  F   UNL     1       0.254  -3.183   5.070  1.00  0.00    -0.169 F 
ENDBRANCH  21  22
ENDBRANCH   9  21
ENDBRANCH   8   9
ENDBRANCH   5   8
ENDBRANCH   3   4
ENDBRANCH   2   3
ENDBRANCH   1   2
BRANCH   1  26
ATOM     26  C   UNL     1      -3.402  -0.380   7.646  1.00  0.00     0.002 C 
BRANCH  26  27
ATOM     27  C   UNL     1      -4.058   0.844   7.008  1.00  0.00     0.021 C 
BRANCH  27  28
ATOM     28  C   UNL     1      -4.980   0.515   5.841  1.00  0.00     0.116 C 
BRANCH  28  29
ATOM     29  N   UNL     1      -6.168  -0.215   6.265  1.00  0.00    -0.352 N 
ATOM     30  C   UNL     1      -7.490   0.134   6.101  1.00  0.00     0.251 C 
ATOM     31  H   UNL     1      -6.005  -1.069   6.728  1.00  0.00     0.163 HD
ATOM     32  O   UNL     1      -8.381  -0.487   6.669  1.00  0.00    -0.269 OA
BRANCH  30  33
ATOM     33  C   UNL     1      -7.798   1.305   5.256  1.00  0.00     0.039 A 
ATOM     34  C   UNL     1      -7.224   1.404   3.987  1.00  0.00     0.014 A 
ATOM     35  C   UNL     1      -8.546   2.356   5.787  1.00  0.00     0.014 A 
ATOM     36  C   UNL     1      -7.220   2.632   3.340  1.00  0.00     0.010 A 
ATOM     37  C   UNL     1      -8.626   3.560   5.082  1.00  0.00     0.010 A 
ATOM     38  C   UNL     1      -7.906   3.730   3.888  1.00  0.00    -0.014 A 
BRANCH  38  39
ATOM     39  C   UNL     1      -7.840   5.051   3.209  1.00  0.00     0.031 A 
ATOM     40  C   UNL     1      -7.226   6.243   3.894  1.00  0.00     0.074 A 
ATOM     41  C   UNL     1      -8.306   5.166   1.951  1.00  0.00     0.049 A 
ATOM     42  N   UNL     1      -7.098   7.469   3.455  1.00  0.00    -0.248 NA
ATOM     43  C   UNL     1      -6.690   6.037   5.249  1.00  0.00     0.031 C 
ATOM     44  C   UNL     1      -8.907   4.075   1.185  1.00  0.00     0.029 A 
ATOM     45  N   UNL     1      -8.341   6.237   1.095  1.00  0.00    -0.354 N 
ATOM     46  C   UNL     1      -6.501   8.187   4.486  1.00  0.00     0.074 A 
ATOM     47  C   UNL     1      -6.317   7.265   5.585  1.00  0.00     0.031 C 
ATOM     48  C   UNL     1      -9.213   4.519  -0.040  1.00  0.00     0.029 A 
ATOM     49  C   UNL     1      -8.915   5.946  -0.120  1.00  0.00     0.049 A 
ATOM     50  H   UNL     1      -7.990   7.127   1.327  1.00  0.00     0.167 HD
ATOM     51  C   UNL     1      -6.133   9.490   4.505  1.00  0.00     0.034 A 
ATOM     52  C   UNL     1      -9.201   6.737  -1.174  1.00  0.00     0.034 A 
ATOM     53  C   UNL     1      -6.303  10.386   3.387  1.00  0.00     0.049 A 
ATOM     54  C   UNL     1      -8.815   8.190  -1.120  1.00  0.00     0.074 A 
ATOM     55  C   UNL     1      -5.908  11.708   3.288  1.00  0.00     0.029 A 
ATOM     56  N   UNL     1      -6.918  10.064   2.184  1.00  0.00    -0.354 N 
ATOM     57  N   UNL     1      -8.198   8.840  -0.161  1.00  0.00    -0.248 NA
ATOM     58  C   UNL     1      -9.157   9.019  -2.282  1.00  0.00     0.031 C 
ATOM     59  C   UNL     1      -6.359  12.209   2.067  1.00  0.00     0.029 A 
ATOM     60  C   UNL     1      -6.952  11.176   1.357  1.00  0.00     0.049 A 
ATOM     61  H   UNL     1      -7.277   9.177   1.953  1.00  0.00     0.167 HD
ATOM     62  C   UNL     1      -8.066  10.151  -0.609  1.00  0.00     0.074 A 
ATOM     63  C   UNL     1      -8.641  10.193  -1.938  1.00  0.00     0.031 C 
ATOM     64  C   UNL     1      -7.523  11.219   0.030  1.00  0.00     0.034 A 
BRANCH  51  65
ATOM     65  C   UNL     1      -5.512  10.056   5.762  1.00  0.00     0.023 A 
ATOM     66  C   UNL     1      -6.141  11.125   6.431  1.00  0.00     0.031 A 
ATOM     67  C   UNL     1      -4.250   9.640   6.223  1.00  0.00     0.131 A 
ATOM     68  C   UNL     1      -5.492  11.763   7.496  1.00  0.00     0.055 A 
ATOM     69  C   UNL     1      -3.631  10.246   7.317  1.00  0.00     0.041 A 
ATOM     70  F   UNL     1      -3.602   8.630   5.618  1.00  0.00    -0.206 F 
ATOM     71  C   UNL     1      -4.246  11.322   7.950  1.00  0.00     0.022 A 
BRANCH  68  72
ATOM     72  S   UNL     1      -6.200  13.238   8.279  1.00  0.00     0.124 S 
ATOM     73  O   UNL     1      -6.372  12.790   9.659  1.00  0.00    -0.237 OA
ATOM     74  O   UNL     1      -5.146  14.228   8.072  1.00  0.00    -0.237 OA
ATOM     75  O   UNL     1      -7.437  13.469   7.541  1.00  0.00    -0.744 OA
ENDBRANCH  68  72
ENDBRANCH  51  65
BRANCH  52  76
ATOM     76  C   UNL     1      -9.860   6.124  -2.364  1.00  0.00     0.023 A 
ATOM     77  C   UNL     1     -11.120   5.506  -2.243  1.00  0.00     0.031 A 
ATOM     78  C   UNL     1      -9.174   5.997  -3.582  1.00  0.00     0.131 A 
ATOM     79  C   UNL     1     -11.602   4.702  -3.283  1.00  0.00     0.055 A 
ATOM     80  C   UNL     1      -9.701   5.266  -4.648  1.00  0.00     0.041 A 
ATOM     81  F   UNL     1      -7.966   6.559  -3.739  1.00  0.00    -0.206 F 
ATOM     82  C   UNL     1     -10.909   4.592  -4.492  1.00  0.00     0.022 A 
BRANCH  79  83
ATOM     83  S   UNL     1     -13.053   3.640  -3.034  1.00  0.00     0.124 S 
ATOM     84  O   UNL     1     -13.932   4.065  -4.118  1.00  0.00    -0.237 OA
ATOM     85  O   UNL     1     -12.469   2.308  -3.179  1.00  0.00    -0.237 OA
ATOM     86  O   UNL     1     -13.501   3.977  -1.688  1.00  0.00    -0.744 OA
ENDBRANCH  79  83
ENDBRANCH  52  76
BRANCH  64  87
ATOM     87  C   UNL     1      -7.511  12.556  -0.675  1.00  0.00     0.023 A 
ATOM     88  C   UNL     1      -6.285  13.197  -0.945  1.00  0.00     0.031 A 
ATOM     89  C   UNL     1      -8.698  13.267  -0.923  1.00  0.00     0.131 A 
ATOM     90  C   UNL     1      -6.273  14.524  -1.390  1.00  0.00     0.055 A 
ATOM     91  C   UNL     1      -8.682  14.570  -1.423  1.00  0.00     0.041 A 
ATOM     92  F   UNL     1      -9.892  12.706  -0.674  1.00  0.00    -0.206 F 
ATOM     93  C   UNL     1      -7.465  15.211  -1.641  1.00  0.00     0.022 A 
BRANCH  90  94
ATOM     94  S   UNL     1      -4.716  15.441  -1.558  1.00  0.00     0.124 S 
ATOM     95  O   UNL     1      -4.729  15.801  -2.974  1.00  0.00    -0.237 OA
ATOM     96  O   UNL     1      -4.912  16.551  -0.630  1.00  0.00    -0.237 OA
ATOM     97  O   UNL     1      -3.694  14.473  -1.173  1.00  0.00    -0.744 OA
ENDBRANCH  90  94
ENDBRANCH  64  87
ENDBRANCH  38  39
ENDBRANCH  30  33
ENDBRANCH  28  29
ENDBRANCH  27  28
ENDBRANCH  26  27
ENDBRANCH   1  26
TORSDOF 21
