REMARK SMILES O=C(/C=C/C(=O)Nc1ccc2[nH]ncc2c1)NCCCCCCNC(=O)c1ccc(-c2c3nc(c(-c4cc(S(=O)(=O)[O-])ccc4F)c4ccc([nH]4)c(-c4cc(S(=O)(=O)[O-])ccc4F)c4nc(c(-c5cc(S(=O)(=O)[O-])ccc5F)c5ccc2[nH]5)C=C4)C=C3)cc1
REMARK SMILES IDX 21 1 20 2 19 3 18 4 17 5 1 6 2 7 3 9 4 10 5 11 6 12 7 13
REMARK SMILES IDX 8 15 9 16 16 17 10 18 15 19 11 20 14 21 12 22 13 23 22 25
REMARK SMILES IDX 23 26 24 27 25 28 26 30 27 31 28 32 89 33 29 34 88 35 30 36
REMARK SMILES IDX 31 37 32 38 82 39 33 40 87 41 81 42 83 43 34 44 86 45 80 46
REMARK SMILES IDX 79 47 35 49 67 50 47 51 66 52 48 53 51 54 65 55 84 56 49 57
REMARK SMILES IDX 50 58 64 60 85 61 52 62 36 63 37 64 45 65 38 66 44 67 46 68
REMARK SMILES IDX 43 69 39 70 40 71 41 72 42 73 68 74 69 75 77 76 70 77 76 78
REMARK SMILES IDX 78 79 75 80 71 81 72 82 73 83 74 84 53 85 54 86 62 87 55 88
REMARK SMILES IDX 61 89 63 90 60 91 56 92 57 93 58 94 59 95
REMARK H PARENT 17 8 7 14 12 24 24 29 83 48 51 59
REMARK Flexibility Score: inf
ROOT
ATOM      1  C   UNL     1       4.685   4.222  -1.141  1.00  0.00     0.002 C 
ENDROOT
BRANCH   1   2
ATOM      2  C   UNL     1       4.184   3.761   0.231  1.00  0.00     0.002 C 
BRANCH   2   3
ATOM      3  C   UNL     1       2.678   3.471   0.301  1.00  0.00     0.021 C 
BRANCH   3   4
ATOM      4  C   UNL     1       2.209   2.420  -0.705  1.00  0.00     0.116 C 
BRANCH   4   5
ATOM      5  N   UNL     1       2.899   1.167  -0.474  1.00  0.00    -0.353 N 
ATOM      6  O   UNL     1       1.168   0.176   0.660  1.00  0.00    -0.270 OA
ATOM      7  C   UNL     1       2.334   0.181   0.279  1.00  0.00     0.244 C 
ATOM      8  H   UNL     1       3.790   1.026  -0.868  1.00  0.00     0.163 HD
BRANCH   7   9
ATOM      9  C   UNL     1       3.235  -0.907   0.703  1.00  0.00     0.077 C 
ATOM     10  C   UNL     1       4.290  -1.372   0.016  1.00  0.00     0.077 C 
BRANCH  10  11
ATOM     11  C   UNL     1       5.009  -2.588   0.475  1.00  0.00     0.248 C 
ATOM     12  O   UNL     1       6.235  -2.563   0.549  1.00  0.00    -0.270 OA
ATOM     13  N   UNL     1       4.303  -3.700   0.863  1.00  0.00    -0.322 N 
ATOM     14  H   UNL     1       4.828  -4.401   1.313  1.00  0.00     0.170 HD
BRANCH  13  15
ATOM     15  C   UNL     1       2.931  -3.976   0.705  1.00  0.00     0.042 A 
ATOM     16  C   UNL     1       2.210  -3.548  -0.416  1.00  0.00     0.028 A 
ATOM     17  C   UNL     1       2.277  -4.606   1.772  1.00  0.00     0.038 A 
ATOM     18  C   UNL     1       0.813  -3.574  -0.439  1.00  0.00     0.030 A 
ATOM     19  C   UNL     1       0.871  -4.609   1.779  1.00  0.00     0.022 A 
ATOM     20  C   UNL     1       0.179  -4.073   0.699  1.00  0.00     0.065 A 
ATOM     21  C   UNL     1      -0.142  -5.002   2.682  1.00  0.00     0.143 A 
ATOM     22  N   UNL     1      -1.144  -4.137   1.047  1.00  0.00    -0.278 N 
ATOM     23  N   UNL     1      -1.370  -4.732   2.233  1.00  0.00    -0.183 NA
ATOM     24  H   UNL     1      -1.865  -3.780   0.480  1.00  0.00     0.190 HD
ENDBRANCH  13  15
ENDBRANCH  10  11
ENDBRANCH   7   9
ENDBRANCH   4   5
ENDBRANCH   3   4
ENDBRANCH   2   3
ENDBRANCH   1   2
BRANCH   1  25
ATOM     25  C   UNL     1       3.998   5.477  -1.681  1.00  0.00     0.021 C 
BRANCH  25  26
ATOM     26  C   UNL     1       4.115   6.697  -0.774  1.00  0.00     0.116 C 
BRANCH  26  27
ATOM     27  N   UNL     1       5.497   7.114  -0.596  1.00  0.00    -0.352 N 
ATOM     28  C   UNL     1       6.059   8.351  -0.786  1.00  0.00     0.251 C 
ATOM     29  H   UNL     1       6.116   6.409  -0.297  1.00  0.00     0.163 HD
ATOM     30  O   UNL     1       7.282   8.472  -0.790  1.00  0.00    -0.269 OA
BRANCH  28  31
ATOM     31  C   UNL     1       5.189   9.524  -1.015  1.00  0.00     0.039 A 
ATOM     32  C   UNL     1       5.516  10.422  -2.033  1.00  0.00     0.014 A 
ATOM     33  C   UNL     1       4.044   9.727  -0.238  1.00  0.00     0.014 A 
ATOM     34  C   UNL     1       4.658  11.487  -2.315  1.00  0.00     0.010 A 
ATOM     35  C   UNL     1       3.151  10.741  -0.574  1.00  0.00     0.010 A 
ATOM     36  C   UNL     1       3.448  11.632  -1.616  1.00  0.00    -0.014 A 
BRANCH  36  37
ATOM     37  C   UNL     1       2.480  12.703  -1.972  1.00  0.00     0.031 A 
ATOM     38  C   UNL     1       2.127  13.770  -0.973  1.00  0.00     0.074 A 
ATOM     39  C   UNL     1       1.874  12.677  -3.175  1.00  0.00     0.049 A 
ATOM     40  N   UNL     1       1.264  14.749  -1.077  1.00  0.00    -0.248 NA
ATOM     41  C   UNL     1       2.813  13.706   0.325  1.00  0.00     0.031 C 
ATOM     42  C   UNL     1       2.099  11.665  -4.210  1.00  0.00     0.029 A 
ATOM     43  N   UNL     1       0.941  13.516  -3.730  1.00  0.00    -0.354 N 
ATOM     44  C   UNL     1       1.299  15.415   0.143  1.00  0.00     0.074 A 
ATOM     45  C   UNL     1       2.211  14.678   0.993  1.00  0.00     0.031 C 
ATOM     46  C   UNL     1       1.345  11.957  -5.281  1.00  0.00     0.029 A 
ATOM     47  C   UNL     1       0.545  13.143  -4.993  1.00  0.00     0.049 A 
ATOM     48  H   UNL     1       0.588  14.310  -3.267  1.00  0.00     0.167 HD
ATOM     49  C   UNL     1       0.652  16.550   0.511  1.00  0.00     0.034 A 
ATOM     50  C   UNL     1      -0.372  13.682  -5.822  1.00  0.00     0.034 A 
ATOM     51  C   UNL     1      -0.262  17.264  -0.350  1.00  0.00     0.049 A 
ATOM     52  C   UNL     1      -1.115  14.916  -5.380  1.00  0.00     0.074 A 
ATOM     53  C   UNL     1      -0.934  18.448  -0.102  1.00  0.00     0.029 A 
ATOM     54  N   UNL     1      -0.649  16.850  -1.620  1.00  0.00    -0.354 N 
ATOM     55  N   UNL     1      -1.026  15.572  -4.246  1.00  0.00    -0.248 NA
ATOM     56  C   UNL     1      -2.071  15.488  -6.335  1.00  0.00     0.031 C 
ATOM     57  C   UNL     1      -1.787  18.704  -1.181  1.00  0.00     0.029 A 
ATOM     58  C   UNL     1      -1.582  17.732  -2.147  1.00  0.00     0.049 A 
ATOM     59  H   UNL     1      -0.310  16.047  -2.079  1.00  0.00     0.167 HD
ATOM     60  C   UNL     1      -1.901  16.649  -4.360  1.00  0.00     0.074 A 
ATOM     61  C   UNL     1      -2.491  16.562  -5.681  1.00  0.00     0.031 C 
ATOM     62  C   UNL     1      -2.186  17.623  -3.457  1.00  0.00     0.034 A 
BRANCH  49  63
ATOM     63  C   UNL     1       0.892  17.057   1.917  1.00  0.00     0.023 A 
ATOM     64  C   UNL     1       2.179  17.404   2.366  1.00  0.00     0.031 A 
ATOM     65  C   UNL     1      -0.166  17.142   2.839  1.00  0.00     0.131 A 
ATOM     66  C   UNL     1       2.392  17.715   3.717  1.00  0.00     0.055 A 
ATOM     67  C   UNL     1       0.037  17.550   4.159  1.00  0.00     0.041 A 
ATOM     68  F   UNL     1      -1.415  16.806   2.481  1.00  0.00    -0.206 F 
ATOM     69  C   UNL     1       1.326  17.818   4.612  1.00  0.00     0.022 A 
BRANCH  66  70
ATOM     70  S   UNL     1       4.100  17.790   4.325  1.00  0.00     0.124 S 
ATOM     71  O   UNL     1       4.606  16.473   3.945  1.00  0.00    -0.237 OA
ATOM     72  O   UNL     1       4.648  18.923   3.588  1.00  0.00    -0.237 OA
ATOM     73  O   UNL     1       3.943  17.996   5.764  1.00  0.00    -0.744 OA
ENDBRANCH  66  70
ENDBRANCH  49  63
BRANCH  50  74
ATOM     74  C   UNL     1      -0.650  13.044  -7.140  1.00  0.00     0.023 A 
ATOM     75  C   UNL     1      -0.349  13.698  -8.345  1.00  0.00     0.031 A 
ATOM     76  C   UNL     1      -1.230  11.764  -7.211  1.00  0.00     0.131 A 
ATOM     77  C   UNL     1      -0.658  13.083  -9.569  1.00  0.00     0.055 A 
ATOM     78  C   UNL     1      -1.486  11.136  -8.430  1.00  0.00     0.041 A 
ATOM     79  F   UNL     1      -1.533  11.093  -6.088  1.00  0.00    -0.206 F 
ATOM     80  C   UNL     1      -1.209  11.800  -9.619  1.00  0.00     0.022 A 
BRANCH  77  81
ATOM     81  S   UNL     1      -0.388  14.012 -11.104  1.00  0.00     0.124 S 
ATOM     82  O   UNL     1      -1.247  15.174 -10.903  1.00  0.00    -0.237 OA
ATOM     83  O   UNL     1       1.049  14.261 -11.059  1.00  0.00    -0.237 OA
ATOM     84  O   UNL     1      -0.825  13.084 -12.144  1.00  0.00    -0.744 OA
ENDBRANCH  77  81
ENDBRANCH  50  74
BRANCH  62  85
ATOM     85  C   UNL     1      -3.161  18.695  -3.887  1.00  0.00     0.023 A 
ATOM     86  C   UNL     1      -4.511  18.406  -4.157  1.00  0.00     0.031 A 
ATOM     87  C   UNL     1      -2.730  20.025  -4.038  1.00  0.00     0.131 A 
ATOM     88  C   UNL     1      -5.364  19.419  -4.620  1.00  0.00     0.055 A 
ATOM     89  C   UNL     1      -3.600  21.042  -4.432  1.00  0.00     0.041 A 
ATOM     90  F   UNL     1      -1.451  20.360  -3.802  1.00  0.00    -0.206 F 
ATOM     91  C   UNL     1      -4.923  20.739  -4.740  1.00  0.00     0.022 A 
BRANCH  88  92
ATOM     92  S   UNL     1      -7.034  18.968  -5.168  1.00  0.00     0.124 S 
ATOM     93  O   UNL     1      -6.755  17.991  -6.215  1.00  0.00    -0.237 OA
ATOM     94  O   UNL     1      -7.633  18.441  -3.946  1.00  0.00    -0.237 OA
ATOM     95  O   UNL     1      -7.595  20.235  -5.636  1.00  0.00    -0.744 OA
ENDBRANCH  88  92
ENDBRANCH  62  85
ENDBRANCH  36  37
ENDBRANCH  28  31
ENDBRANCH  26  27
ENDBRANCH  25  26
ENDBRANCH   1  25
TORSDOF 18
