REMARK SMILES [NH3+][C@H](C(=O)NCCCCCCNC(=O)c1ccc(-c2c3nc(c(-c4cc(S(=O)(=O)[O-])ccc4F)c4ccc([nH]4)c(-c4cc(S(=O)(=O)[O-])ccc4F)c4nc(c(-c5cc(S(=O)(=O)[O-])ccc5F)c5ccc2[nH]5)C=C4)C=C3)cc1)[C@H](O)c1ccc(F)cc1
REMARK SMILES IDX 9 1 8 2 7 3 6 4 5 5 3 6 4 7 2 9 1 10 78 14 80 15 81 16 86 17
REMARK SMILES IDX 82 18 85 19 83 20 84 21 79 22 10 24 11 25 12 26 13 27 14 29
REMARK SMILES IDX 15 30 16 31 77 32 17 33 76 34 18 35 19 36 20 37 70 38 21 39
REMARK SMILES IDX 75 40 69 41 71 42 22 43 74 44 68 45 67 46 23 48 55 49 35 50
REMARK SMILES IDX 54 51 36 52 39 53 53 54 72 55 37 56 38 57 52 59 73 60 40 61
REMARK SMILES IDX 24 62 25 63 33 64 26 65 32 66 34 67 31 68 27 69 28 70 29 71
REMARK SMILES IDX 30 72 56 73 57 74 65 75 58 76 64 77 66 78 63 79 59 80 60 81
REMARK SMILES IDX 61 82 62 83 41 84 42 85 50 86 43 87 49 88 51 89 48 90 44 91
REMARK SMILES IDX 45 92 46 93 47 94
REMARK H PARENT 5 8 1 11 1 12 1 13 79 23 12 28 71 47 39 58
REMARK Flexibility Score: inf
ROOT
ATOM      1  C   UNL     1       3.287   5.324  -1.434  1.00  0.00     0.002 C 
ENDROOT
BRANCH   1   2
ATOM      2  C   UNL     1       1.922   5.645  -0.818  1.00  0.00     0.002 C 
BRANCH   2   3
ATOM      3  C   UNL     1       0.781   4.712  -1.233  1.00  0.00     0.021 C 
BRANCH   3   4
ATOM      4  C   UNL     1       0.949   3.262  -0.775  1.00  0.00     0.116 C 
BRANCH   4   5
ATOM      5  N   UNL     1       0.486   3.114   0.591  1.00  0.00    -0.351 N 
ATOM      6  C   UNL     1      -0.578   2.508   1.155  1.00  0.00     0.281 C 
ATOM      7  O   UNL     1      -0.783   2.830   2.341  1.00  0.00    -0.268 OA
ATOM      8  H   UNL     1       1.075   3.550   1.248  1.00  0.00     0.163 HD
BRANCH   6   9
ATOM      9  C   UNL     1      -1.499   1.413   0.540  1.00  0.00     0.304 C 
BRANCH   9  10
ATOM     10  N   UNL     1      -2.866   1.587   1.135  1.00  0.00    -0.345 N 
ATOM     11  H   UNL     1      -2.779   1.816   2.125  1.00  0.00     0.345 HD
ATOM     12  H   UNL     1      -3.394   0.720   1.031  1.00  0.00     0.345 HD
ATOM     13  H   UNL     1      -3.353   2.341   0.652  1.00  0.00     0.345 HD
ENDBRANCH   9  10
BRANCH   9  14
ATOM     14  C   UNL     1      -1.596   1.064  -0.964  1.00  0.00     0.212 C 
BRANCH  14  15
ATOM     15  C   UNL     1      -2.107   2.072  -1.982  1.00  0.00    -0.013 A 
ATOM     16  C   UNL     1      -2.352   3.424  -1.698  1.00  0.00     0.009 A 
ATOM     17  C   UNL     1      -2.347   1.620  -3.297  1.00  0.00     0.009 A 
ATOM     18  C   UNL     1      -2.782   4.299  -2.700  1.00  0.00     0.039 A 
ATOM     19  C   UNL     1      -2.795   2.490  -4.293  1.00  0.00     0.039 A 
ATOM     20  C   UNL     1      -3.000   3.825  -3.986  1.00  0.00     0.123 A 
ATOM     21  F   UNL     1      -3.411   4.670  -4.940  1.00  0.00    -0.207 F 
ENDBRANCH  14  15
BRANCH  14  22
ATOM     22  O   UNL     1      -0.365   0.496  -1.436  1.00  0.00    -0.382 OA
ATOM     23  H   UNL     1       0.325   1.178  -1.441  1.00  0.00     0.211 HD
ENDBRANCH  14  22
ENDBRANCH   9  14
ENDBRANCH   6   9
ENDBRANCH   4   5
ENDBRANCH   3   4
ENDBRANCH   2   3
ENDBRANCH   1   2
BRANCH   1  24
ATOM     24  C   UNL     1       3.300   5.132  -2.954  1.00  0.00     0.021 C 
BRANCH  24  25
ATOM     25  C   UNL     1       2.687   6.272  -3.764  1.00  0.00     0.116 C 
BRANCH  25  26
ATOM     26  N   UNL     1       3.369   7.535  -3.539  1.00  0.00    -0.352 N 
ATOM     27  C   UNL     1       4.030   8.343  -4.426  1.00  0.00     0.251 C 
ATOM     28  H   UNL     1       3.353   7.858  -2.609  1.00  0.00     0.163 HD
ATOM     29  O   UNL     1       4.717   9.273  -3.998  1.00  0.00    -0.269 OA
BRANCH  27  30
ATOM     30  C   UNL     1       3.942   8.095  -5.881  1.00  0.00     0.039 A 
ATOM     31  C   UNL     1       5.108   8.178  -6.649  1.00  0.00     0.014 A 
ATOM     32  C   UNL     1       2.718   7.817  -6.498  1.00  0.00     0.014 A 
ATOM     33  C   UNL     1       5.055   7.933  -8.023  1.00  0.00     0.010 A 
ATOM     34  C   UNL     1       2.677   7.510  -7.857  1.00  0.00     0.010 A 
ATOM     35  C   UNL     1       3.844   7.573  -8.636  1.00  0.00    -0.014 A 
BRANCH  35  36
ATOM     36  C   UNL     1       3.779   7.280 -10.092  1.00  0.00     0.031 A 
ATOM     37  C   UNL     1       2.996   8.182 -11.008  1.00  0.00     0.074 A 
ATOM     38  C   UNL     1       4.381   6.178 -10.579  1.00  0.00     0.049 A 
ATOM     39  N   UNL     1       2.768   8.064 -12.291  1.00  0.00    -0.248 NA
ATOM     40  C   UNL     1       2.364   9.357 -10.390  1.00  0.00     0.031 C 
ATOM     41  C   UNL     1       5.138   5.208  -9.785  1.00  0.00     0.029 A 
ATOM     42  N   UNL     1       4.446   5.682 -11.857  1.00  0.00    -0.354 N 
ATOM     43  C   UNL     1       1.955   9.141 -12.633  1.00  0.00     0.074 A 
ATOM     44  C   UNL     1       1.686   9.865 -11.408  1.00  0.00     0.031 C 
ATOM     45  C   UNL     1       5.606   4.245 -10.596  1.00  0.00     0.029 A 
ATOM     46  C   UNL     1       5.152   4.505 -11.958  1.00  0.00     0.049 A 
ATOM     47  H   UNL     1       4.027   6.126 -12.629  1.00  0.00     0.167 HD
ATOM     48  C   UNL     1       1.494   9.503 -13.856  1.00  0.00     0.034 A 
ATOM     49  C   UNL     1       5.398   3.721 -13.026  1.00  0.00     0.034 A 
ATOM     50  C   UNL     1       1.782   8.777 -15.069  1.00  0.00     0.049 A 
ATOM     51  C   UNL     1       4.866   4.136 -14.374  1.00  0.00     0.074 A 
ATOM     52  C   UNL     1       1.409   9.081 -16.368  1.00  0.00     0.029 A 
ATOM     53  N   UNL     1       2.508   7.594 -15.135  1.00  0.00    -0.354 N 
ATOM     54  N   UNL     1       4.138   5.183 -14.688  1.00  0.00    -0.248 NA
ATOM     55  C   UNL     1       5.202   3.272 -15.512  1.00  0.00     0.031 C 
ATOM     56  C   UNL     1       1.858   8.055 -17.207  1.00  0.00     0.029 A 
ATOM     57  C   UNL     1       2.572   7.144 -16.445  1.00  0.00     0.049 A 
ATOM     58  H   UNL     1       2.917   7.141 -14.363  1.00  0.00     0.167 HD
ATOM     59  C   UNL     1       3.954   5.116 -16.066  1.00  0.00     0.074 A 
ATOM     60  C   UNL     1       4.660   3.936 -16.522  1.00  0.00     0.031 C 
ATOM     61  C   UNL     1       3.269   5.957 -16.883  1.00  0.00     0.034 A 
BRANCH  48  62
ATOM     62  C   UNL     1       0.609  10.726 -13.928  1.00  0.00     0.023 A 
ATOM     63  C   UNL     1       1.080  12.001 -13.569  1.00  0.00     0.031 A 
ATOM     64  C   UNL     1      -0.735  10.611 -14.327  1.00  0.00     0.131 A 
ATOM     65  C   UNL     1       0.198  13.092 -13.537  1.00  0.00     0.055 A 
ATOM     66  C   UNL     1      -1.587  11.717 -14.372  1.00  0.00     0.041 A 
ATOM     67  F   UNL     1      -1.249   9.417 -14.663  1.00  0.00    -0.206 F 
ATOM     68  C   UNL     1      -1.126  12.964 -13.960  1.00  0.00     0.022 A 
BRANCH  65  69
ATOM     69  S   UNL     1       0.769  14.646 -12.796  1.00  0.00     0.124 S 
ATOM     70  O   UNL     1       1.114  14.217 -11.442  1.00  0.00    -0.237 OA
ATOM     71  O   UNL     1       1.889  15.013 -13.655  1.00  0.00    -0.237 OA
ATOM     72  O   UNL     1      -0.400  15.518 -12.886  1.00  0.00    -0.744 OA
ENDBRANCH  65  69
ENDBRANCH  48  62
BRANCH  49  73
ATOM     73  C   UNL     1       6.179   2.461 -12.873  1.00  0.00     0.023 A 
ATOM     74  C   UNL     1       7.439   2.314 -13.473  1.00  0.00     0.031 A 
ATOM     75  C   UNL     1       5.659   1.371 -12.153  1.00  0.00     0.131 A 
ATOM     76  C   UNL     1       8.118   1.089 -13.383  1.00  0.00     0.055 A 
ATOM     77  C   UNL     1       6.360   0.171 -12.024  1.00  0.00     0.041 A 
ATOM     78  F   UNL     1       4.461   1.463 -11.553  1.00  0.00    -0.206 F 
ATOM     79  C   UNL     1       7.593   0.021 -12.652  1.00  0.00     0.022 A 
BRANCH  76  80
ATOM     80  S   UNL     1       9.670   0.887 -14.299  1.00  0.00     0.124 S 
ATOM     81  O   UNL     1       9.244   1.153 -15.668  1.00  0.00    -0.237 OA
ATOM     82  O   UNL     1      10.520   1.901 -13.682  1.00  0.00    -0.237 OA
ATOM     83  O   UNL     1      10.052  -0.496 -14.021  1.00  0.00    -0.744 OA
ENDBRANCH  76  80
ENDBRANCH  49  73
BRANCH  61  84
ATOM     84  C   UNL     1       3.295   5.646 -18.359  1.00  0.00     0.023 A 
ATOM     85  C   UNL     1       2.659   4.508 -18.887  1.00  0.00     0.031 A 
ATOM     86  C   UNL     1       3.985   6.491 -19.246  1.00  0.00     0.131 A 
ATOM     87  C   UNL     1       2.775   4.216 -20.254  1.00  0.00     0.055 A 
ATOM     88  C   UNL     1       4.048   6.225 -20.614  1.00  0.00     0.041 A 
ATOM     89  F   UNL     1       4.612   7.589 -18.795  1.00  0.00    -0.206 F 
ATOM     90  C   UNL     1       3.452   5.075 -21.123  1.00  0.00     0.022 A 
BRANCH  87  91
ATOM     91  S   UNL     1       2.103   2.646 -20.869  1.00  0.00     0.124 S 
ATOM     92  O   UNL     1       2.829   1.669 -20.063  1.00  0.00    -0.237 OA
ATOM     93  O   UNL     1       0.680   2.781 -20.579  1.00  0.00    -0.237 OA
ATOM     94  O   UNL     1       2.450   2.658 -22.289  1.00  0.00    -0.744 OA
ENDBRANCH  87  91
ENDBRANCH  61  84
ENDBRANCH  35  36
ENDBRANCH  27  30
ENDBRANCH  25  26
ENDBRANCH  24  25
ENDBRANCH   1  24
TORSDOF 20
