REMARK SMILES O=C(CCCNS(=O)(=O)c1ccc2c3c(cccc13)C(=O)N2)NCCCCCCNC(=O)c1ccc(-c2c3nc(c(-c4cc(S(=O)(=O)[O-])ccc4F)c4ccc([nH]4)c(-c4cc(S(=O)(=O)[O-])ccc4F)c4nc(c(-c5cc(S(=O)(=O)[O-])ccc5F)c5ccc2[nH]5)C=C4)C=C3)cc1
REMARK SMILES IDX 25 1 24 2 23 3 1 4 2 5 3 7 4 8 5 9 6 10 7 12 8 13 9 14 10 15
REMARK SMILES IDX 11 16 19 17 12 18 14 19 18 20 13 21 15 22 17 23 22 24 16 25
REMARK SMILES IDX 20 26 21 28 26 29 27 30 28 31 29 32 30 33 31 34 32 36 33 37
REMARK SMILES IDX 34 38 95 39 35 40 94 41 36 42 37 43 38 44 88 45 39 46 93 47
REMARK SMILES IDX 87 48 89 49 40 50 92 51 86 52 85 53 41 55 73 56 53 57 72 58
REMARK SMILES IDX 54 59 57 60 71 61 90 62 55 63 56 64 70 66 91 67 58 68 42 69
REMARK SMILES IDX 43 70 51 71 44 72 50 73 52 74 49 75 45 76 46 77 47 78 48 79
REMARK SMILES IDX 74 80 75 81 83 82 76 83 82 84 84 85 81 86 77 87 78 88 79 89
REMARK SMILES IDX 80 90 59 91 60 92 68 93 61 94 67 95 69 96 66 97 62 98 63 99
REMARK SMILES IDX 64 100 65 101
REMARK H PARENT 23 6 6 11 22 27 30 35 89 54 57 65
REMARK Flexibility Score: inf
ROOT
ATOM      1  C   UNL     1       2.336   3.464   1.029  1.00  0.00     0.021 C 
ENDROOT
BRANCH   1   2
ATOM      2  C   UNL     1       1.904   2.421  -0.002  1.00  0.00     0.116 C 
BRANCH   2   3
ATOM      3  N   UNL     1       2.614   1.169   0.177  1.00  0.00    -0.356 N 
ATOM      4  O   UNL     1       0.865  -0.219  -0.374  1.00  0.00    -0.275 OA
ATOM      5  C   UNL     1       2.027  -0.055  -0.023  1.00  0.00     0.220 C 
ATOM      6  H   UNL     1       3.558   1.199   0.454  1.00  0.00     0.163 HD
BRANCH   5   7
ATOM      7  C   UNL     1       2.958  -1.224   0.212  1.00  0.00     0.101 C 
BRANCH   7   8
ATOM      8  C   UNL     1       3.768  -1.583  -1.034  1.00  0.00     0.026 C 
BRANCH   8   9
ATOM      9  C   UNL     1       4.872  -0.589  -1.387  1.00  0.00     0.099 C 
BRANCH   9  10
ATOM     10  N   UNL     1       5.904  -0.581  -0.348  1.00  0.00    -0.211 NA
ATOM     11  H   UNL     1       6.483  -1.406  -0.504  1.00  0.00     0.141 HD
BRANCH  10  12
ATOM     12  S   UNL     1       6.953   0.721  -0.200  1.00  0.00     0.241 S 
ATOM     13  O   UNL     1       6.127   1.896  -0.319  1.00  0.00    -0.207 OA
ATOM     14  O   UNL     1       7.748   0.457   0.978  1.00  0.00    -0.207 OA
BRANCH  12  15
ATOM     15  C   UNL     1       8.022   0.598  -1.605  1.00  0.00     0.090 A 
ATOM     16  C   UNL     1       8.322  -0.700  -2.099  1.00  0.00     0.024 A 
ATOM     17  C   UNL     1       8.527   1.769  -2.243  1.00  0.00     0.005 A 
ATOM     18  C   UNL     1       9.095  -0.890  -3.256  1.00  0.00     0.028 A 
ATOM     19  C   UNL     1       9.270   1.516  -3.360  1.00  0.00     0.019 A 
ATOM     20  C   UNL     1       8.410   3.151  -1.929  1.00  0.00     0.010 A 
ATOM     21  C   UNL     1       9.547   0.264  -3.864  1.00  0.00     0.050 A 
ATOM     22  C   UNL     1       9.873   2.457  -4.182  1.00  0.00     0.050 A 
ATOM     23  C   UNL     1       9.011   4.140  -2.738  1.00  0.00     0.002 A 
ATOM     24  N   UNL     1      10.312   0.437  -5.002  1.00  0.00    -0.321 N 
ATOM     25  C   UNL     1       9.753   3.811  -3.885  1.00  0.00     0.014 A 
ATOM     26  C   UNL     1      10.561   1.790  -5.268  1.00  0.00     0.256 C 
ATOM     27  H   UNL     1      10.642  -0.303  -5.560  1.00  0.00     0.170 HD
ATOM     28  O   UNL     1      11.219   2.198  -6.215  1.00  0.00    -0.269 OA
ENDBRANCH  12  15
ENDBRANCH  10  12
ENDBRANCH   9  10
ENDBRANCH   8   9
ENDBRANCH   7   8
ENDBRANCH   5   7
ENDBRANCH   2   3
ENDBRANCH   1   2
BRANCH   1  29
ATOM     29  C   UNL     1       3.831   3.804   1.013  1.00  0.00     0.002 C 
BRANCH  29  30
ATOM     30  C   UNL     1       4.362   4.328  -0.326  1.00  0.00     0.002 C 
BRANCH  30  31
ATOM     31  C   UNL     1       3.744   5.642  -0.792  1.00  0.00     0.021 C 
BRANCH  31  32
ATOM     32  C   UNL     1       3.917   6.792   0.190  1.00  0.00     0.116 C 
BRANCH  32  33
ATOM     33  N   UNL     1       5.318   7.138   0.396  1.00  0.00    -0.352 N 
ATOM     34  C   UNL     1       5.899   8.380   0.331  1.00  0.00     0.251 C 
ATOM     35  H   UNL     1       5.922   6.389   0.607  1.00  0.00     0.163 HD
ATOM     36  O   UNL     1       7.117   8.513   0.362  1.00  0.00    -0.269 OA
BRANCH  34  37
ATOM     37  C   UNL     1       5.016   9.554   0.199  1.00  0.00     0.039 A 
ATOM     38  C   UNL     1       5.201  10.431  -0.870  1.00  0.00     0.014 A 
ATOM     39  C   UNL     1       3.958   9.728   1.098  1.00  0.00     0.014 A 
ATOM     40  C   UNL     1       4.284  11.463  -1.072  1.00  0.00     0.010 A 
ATOM     41  C   UNL     1       3.013  10.717   0.858  1.00  0.00     0.010 A 
ATOM     42  C   UNL     1       3.173  11.597  -0.222  1.00  0.00    -0.014 A 
BRANCH  42  43
ATOM     43  C   UNL     1       2.176  12.671  -0.431  1.00  0.00     0.031 A 
ATOM     44  C   UNL     1       2.069  13.788   0.565  1.00  0.00     0.074 A 
ATOM     45  C   UNL     1       1.325  12.604  -1.472  1.00  0.00     0.049 A 
ATOM     46  N   UNL     1       1.254  14.808   0.570  1.00  0.00    -0.248 NA
ATOM     47  C   UNL     1       2.982  13.739   1.718  1.00  0.00     0.031 C 
ATOM     48  C   UNL     1       1.299  11.532  -2.468  1.00  0.00     0.029 A 
ATOM     49  N   UNL     1       0.310  13.444  -1.856  1.00  0.00    -0.354 N 
ATOM     50  C   UNL     1       1.546  15.515   1.729  1.00  0.00     0.074 A 
ATOM     51  C   UNL     1       2.575  14.780   2.429  1.00  0.00     0.031 C 
ATOM     52  C   UNL     1       0.327  11.787  -3.357  1.00  0.00     0.029 A 
ATOM     53  C   UNL     1      -0.357  13.024  -2.982  1.00  0.00     0.049 A 
ATOM     54  H   UNL     1       0.082  14.269  -1.371  1.00  0.00     0.167 HD
ATOM     55  C   UNL     1       1.020  16.685   2.156  1.00  0.00     0.034 A 
ATOM     56  C   UNL     1      -1.398  13.574  -3.640  1.00  0.00     0.034 A 
ATOM     57  C   UNL     1       0.013  17.418   1.436  1.00  0.00     0.049 A 
ATOM     58  C   UNL     1      -1.960  14.887  -3.160  1.00  0.00     0.074 A 
ATOM     59  C   UNL     1      -0.518  18.658   1.740  1.00  0.00     0.029 A 
ATOM     60  N   UNL     1      -0.618  16.982   0.281  1.00  0.00    -0.354 N 
ATOM     61  N   UNL     1      -1.591  15.609  -2.128  1.00  0.00    -0.248 NA
ATOM     62  C   UNL     1      -3.065  15.470  -3.933  1.00  0.00     0.031 C 
ATOM     63  C   UNL     1      -1.511  18.945   0.803  1.00  0.00     0.029 A 
ATOM     64  C   UNL     1      -1.557  17.914  -0.123  1.00  0.00     0.049 A 
ATOM     65  H   UNL     1      -0.426  16.134  -0.182  1.00  0.00     0.167 HD
ATOM     66  C   UNL     1      -2.398  16.743  -2.143  1.00  0.00     0.074 A 
ATOM     67  C   UNL     1      -3.269  16.616  -3.293  1.00  0.00     0.031 C 
ATOM     68  C   UNL     1      -2.412  17.790  -1.280  1.00  0.00     0.034 A 
BRANCH  55  69
ATOM     69  C   UNL     1       1.528  17.266   3.447  1.00  0.00     0.023 A 
ATOM     70  C   UNL     1       0.659  17.403   4.544  1.00  0.00     0.031 A 
ATOM     71  C   UNL     1       2.836  17.769   3.562  1.00  0.00     0.131 A 
ATOM     72  C   UNL     1       1.104  18.047   5.704  1.00  0.00     0.055 A 
ATOM     73  C   UNL     1       3.286  18.378   4.734  1.00  0.00     0.041 A 
ATOM     74  F   UNL     1       3.702  17.658   2.541  1.00  0.00    -0.206 F 
ATOM     75  C   UNL     1       2.414  18.528   5.808  1.00  0.00     0.022 A 
BRANCH  72  76
ATOM     76  S   UNL     1      -0.010  18.321   7.108  1.00  0.00     0.124 S 
ATOM     77  O   UNL     1       0.723  17.685   8.201  1.00  0.00    -0.237 OA
ATOM     78  O   UNL     1      -0.074  19.778   7.165  1.00  0.00    -0.237 OA
ATOM     79  O   UNL     1      -1.243  17.648   6.715  1.00  0.00    -0.744 OA
ENDBRANCH  72  76
ENDBRANCH  55  69
BRANCH  56  80
ATOM     80  C   UNL     1      -1.900  12.902  -4.872  1.00  0.00     0.023 A 
ATOM     81  C   UNL     1      -2.514  11.639  -4.808  1.00  0.00     0.031 A 
ATOM     82  C   UNL     1      -1.647  13.456  -6.137  1.00  0.00     0.131 A 
ATOM     83  C   UNL     1      -2.791  10.941  -5.991  1.00  0.00     0.055 A 
ATOM     84  C   UNL     1      -1.980  12.783  -7.314  1.00  0.00     0.041 A 
ATOM     85  F   UNL     1      -1.050  14.653  -6.244  1.00  0.00    -0.206 F 
ATOM     86  C   UNL     1      -2.542  11.511  -7.244  1.00  0.00     0.022 A 
BRANCH  83  87
ATOM     87  S   UNL     1      -3.389   9.230  -5.940  1.00  0.00     0.124 S 
ATOM     88  O   UNL     1      -4.531   9.273  -6.849  1.00  0.00    -0.237 OA
ATOM     89  O   UNL     1      -2.223   8.498  -6.427  1.00  0.00    -0.237 OA
ATOM     90  O   UNL     1      -3.716   9.021  -4.534  1.00  0.00    -0.744 OA
ENDBRANCH  83  87
ENDBRANCH  56  80
BRANCH  68  91
ATOM     91  C   UNL     1      -3.385  18.917  -1.519  1.00  0.00     0.023 A 
ATOM     92  C   UNL     1      -2.903  20.208  -1.807  1.00  0.00     0.031 A 
ATOM     93  C   UNL     1      -4.761  18.755  -1.283  1.00  0.00     0.131 A 
ATOM     94  C   UNL     1      -3.783  21.297  -1.802  1.00  0.00     0.055 A 
ATOM     95  C   UNL     1      -5.641  19.837  -1.323  1.00  0.00     0.041 A 
ATOM     96  F   UNL     1      -5.264  17.544  -0.994  1.00  0.00    -0.206 F 
ATOM     97  C   UNL     1      -5.150  21.117  -1.569  1.00  0.00     0.022 A 
BRANCH  94  98
ATOM     98  S   UNL     1      -3.174  22.991  -2.019  1.00  0.00     0.124 S 
ATOM     99  O   UNL     1      -3.973  23.460  -3.148  1.00  0.00    -0.237 OA
ATOM    100  O   UNL     1      -3.497  23.600  -0.731  1.00  0.00    -0.237 OA
ATOM    101  O   UNL     1      -1.751  22.822  -2.295  1.00  0.00    -0.744 OA
ENDBRANCH  94  98
ENDBRANCH  68  91
ENDBRANCH  42  43
ENDBRANCH  34  37
ENDBRANCH  32  33
ENDBRANCH  31  32
ENDBRANCH  30  31
ENDBRANCH  29  30
ENDBRANCH   1  29
TORSDOF 21
