REMARK SMILES CN(C)C(=O)CC[NH2+]Cc1cc(C(=O)NCCCCCCNC(=O)c2ccc(-c3c4nc(c(-c5cc(S(=O)(=O)[O-])ccc5F)c5ccc([nH]5)c(-c5cc(S(=O)(=O)[O-])ccc5F)c5nc(c(-c6cc(S(=O)(=O)[O-])ccc6F)c6ccc3[nH]6)C=C5)C=C4)cc2)cs1
REMARK SMILES IDX 17 1 16 2 15 3 13 4 14 5 12 7 10 8 11 9 89 10 88 11 9 12
REMARK SMILES IDX 8 13 7 16 6 17 4 18 1 19 2 20 3 21 5 22 18 23 19 24 20 25
REMARK SMILES IDX 21 26 22 27 23 28 24 30 25 31 26 32 87 33 27 34 86 35 28 36
REMARK SMILES IDX 29 37 30 38 80 39 31 40 85 41 79 42 81 43 32 44 84 45 78 46
REMARK SMILES IDX 77 47 33 49 65 50 45 51 64 52 46 53 49 54 63 55 82 56 47 57
REMARK SMILES IDX 48 58 62 60 83 61 50 62 34 63 35 64 43 65 36 66 42 67 44 68
REMARK SMILES IDX 41 69 37 70 38 71 39 72 40 73 66 74 67 75 75 76 68 77 74 78
REMARK SMILES IDX 76 79 73 80 69 81 70 82 71 83 72 84 51 85 52 86 60 87 53 88
REMARK SMILES IDX 59 89 61 90 58 91 54 92 55 93 56 94 57 95
REMARK H PARENT 15 6 8 14 8 15 22 29 81 48 49 59
REMARK Flexibility Score: inf
ROOT
ATOM      1  C   UNL     1       3.841   1.628   5.344  1.00  0.00     0.021 C 
ENDROOT
BRANCH   1   2
ATOM      2  C   UNL     1       4.101   0.848   4.054  1.00  0.00     0.116 C 
BRANCH   2   3
ATOM      3  N   UNL     1       5.346   0.116   4.151  1.00  0.00    -0.352 N 
ATOM      4  C   UNL     1       5.651  -1.200   4.366  1.00  0.00     0.252 C 
ATOM      5  O   UNL     1       6.855  -1.473   4.415  1.00  0.00    -0.269 OA
ATOM      6  H   UNL     1       6.141   0.685   4.038  1.00  0.00     0.163 HD
BRANCH   4   7
ATOM      7  C   UNL     1       4.636  -2.253   4.479  1.00  0.00     0.051 A 
ATOM      8  C   UNL     1       2.592  -3.428   4.547  1.00  0.00     0.059 A 
ATOM      9  C   UNL     1       3.217  -2.201   4.688  1.00  0.00     0.035 A 
ATOM     10  S   UNL     1       3.733  -4.692   4.440  1.00  0.00    -0.142 S 
ATOM     11  C   UNL     1       5.027  -3.584   4.395  1.00  0.00     0.079 A 
BRANCH   8  12
ATOM     12  C   UNL     1       1.120  -3.713   4.484  1.00  0.00     0.308 C 
BRANCH  12  13
ATOM     13  N   UNL     1       0.535  -3.271   3.210  1.00  0.00    -0.341 N 
ATOM     14  H   UNL     1      -0.480  -3.252   3.307  1.00  0.00     0.346 HD
ATOM     15  H   UNL     1       0.915  -2.347   3.004  1.00  0.00     0.346 HD
BRANCH  13  16
ATOM     16  C   UNL     1       0.882  -4.150   2.087  1.00  0.00     0.270 C 
BRANCH  16  17
ATOM     17  C   UNL     1       0.206  -3.720   0.784  1.00  0.00     0.161 C 
BRANCH  17  18
ATOM     18  C   UNL     1       0.867  -2.488   0.193  1.00  0.00     0.227 C 
ATOM     19  C   UNL     1       1.118  -0.070   0.036  1.00  0.00     0.146 C 
ATOM     20  N   UNL     1       0.407  -1.229   0.551  1.00  0.00    -0.349 N 
ATOM     21  C   UNL     1      -0.793  -0.942   1.328  1.00  0.00     0.146 C 
ATOM     22  O   UNL     1       1.833  -2.636  -0.562  1.00  0.00    -0.275 OA
ENDBRANCH  17  18
ENDBRANCH  16  17
ENDBRANCH  13  16
ENDBRANCH  12  13
ENDBRANCH   8  12
ENDBRANCH   4   7
ENDBRANCH   2   3
ENDBRANCH   1   2
BRANCH   1  23
ATOM     23  C   UNL     1       4.690   2.903   5.461  1.00  0.00     0.002 C 
BRANCH  23  24
ATOM     24  C   UNL     1       4.469   3.932   4.345  1.00  0.00     0.002 C 
BRANCH  24  25
ATOM     25  C   UNL     1       3.014   4.363   4.143  1.00  0.00     0.021 C 
BRANCH  25  26
ATOM     26  C   UNL     1       2.386   5.037   5.358  1.00  0.00     0.116 C 
BRANCH  26  27
ATOM     27  N   UNL     1       3.055   6.287   5.683  1.00  0.00    -0.352 N 
ATOM     28  C   UNL     1       2.534   7.553   5.781  1.00  0.00     0.251 C 
ATOM     29  H   UNL     1       4.021   6.214   5.858  1.00  0.00     0.163 HD
ATOM     30  O   UNL     1       3.288   8.520   5.817  1.00  0.00    -0.269 OA
BRANCH  28  31
ATOM     31  C   UNL     1       1.068   7.744   5.825  1.00  0.00     0.039 A 
ATOM     32  C   UNL     1       0.495   8.773   5.074  1.00  0.00     0.014 A 
ATOM     33  C   UNL     1       0.263   6.917   6.615  1.00  0.00     0.014 A 
ATOM     34  C   UNL     1      -0.892   8.937   5.073  1.00  0.00     0.010 A 
ATOM     35  C   UNL     1      -1.123   7.035   6.553  1.00  0.00     0.010 A 
ATOM     36  C   UNL     1      -1.716   8.049   5.785  1.00  0.00    -0.014 A 
BRANCH  36  37
ATOM     37  C   UNL     1      -3.196   8.170   5.744  1.00  0.00     0.031 A 
ATOM     38  C   UNL     1      -3.964   8.478   7.001  1.00  0.00     0.074 A 
ATOM     39  C   UNL     1      -3.851   7.946   4.587  1.00  0.00     0.049 A 
ATOM     40  N   UNL     1      -5.257   8.552   7.184  1.00  0.00    -0.248 NA
ATOM     41  C   UNL     1      -3.171   8.703   8.219  1.00  0.00     0.031 C 
ATOM     42  C   UNL     1      -3.217   7.607   3.311  1.00  0.00     0.029 A 
ATOM     43  N   UNL     1      -5.192   7.964   4.294  1.00  0.00    -0.354 N 
ATOM     44  C   UNL     1      -5.434   8.822   8.537  1.00  0.00     0.074 A 
ATOM     45  C   UNL     1      -4.117   8.832   9.137  1.00  0.00     0.031 C 
ATOM     46  C   UNL     1      -4.165   7.476   2.369  1.00  0.00     0.029 A 
ATOM     47  C   UNL     1      -5.476   7.670   2.980  1.00  0.00     0.049 A 
ATOM     48  H   UNL     1      -5.885   8.168   4.962  1.00  0.00     0.167 HD
ATOM     49  C   UNL     1      -6.587   9.063   9.211  1.00  0.00     0.034 A 
ATOM     50  C   UNL     1      -6.658   7.555   2.343  1.00  0.00     0.034 A 
ATOM     51  C   UNL     1      -7.891   9.057   8.593  1.00  0.00     0.049 A 
ATOM     52  C   UNL     1      -7.929   7.791   3.122  1.00  0.00     0.074 A 
ATOM     53  C   UNL     1      -9.118   9.337   9.169  1.00  0.00     0.029 A 
ATOM     54  N   UNL     1      -8.141   8.746   7.262  1.00  0.00    -0.354 N 
ATOM     55  N   UNL     1      -8.076   8.093   4.391  1.00  0.00    -0.248 NA
ATOM     56  C   UNL     1      -9.190   7.681   2.379  1.00  0.00     0.031 C 
ATOM     57  C   UNL     1     -10.113   9.121   8.210  1.00  0.00     0.029 A 
ATOM     58  C   UNL     1      -9.504   8.792   7.009  1.00  0.00     0.049 A 
ATOM     59  H   UNL     1      -7.451   8.526   6.595  1.00  0.00     0.167 HD
ATOM     60  C   UNL     1      -9.446   8.243   4.589  1.00  0.00     0.074 A 
ATOM     61  C   UNL     1     -10.077   8.013   3.305  1.00  0.00     0.031 C 
ATOM     62  C   UNL     1     -10.122   8.549   5.726  1.00  0.00     0.034 A 
BRANCH  49  63
ATOM     63  C   UNL     1      -6.484   9.325  10.696  1.00  0.00     0.023 A 
ATOM     64  C   UNL     1      -5.774  10.426  11.206  1.00  0.00     0.031 A 
ATOM     65  C   UNL     1      -7.085   8.449  11.617  1.00  0.00     0.131 A 
ATOM     66  C   UNL     1      -5.616  10.579  12.592  1.00  0.00     0.055 A 
ATOM     67  C   UNL     1      -6.998   8.656  12.996  1.00  0.00     0.041 A 
ATOM     68  F   UNL     1      -7.758   7.367  11.194  1.00  0.00    -0.206 F 
ATOM     69  C   UNL     1      -6.247   9.717  13.491  1.00  0.00     0.022 A 
BRANCH  66  70
ATOM     70  S   UNL     1      -4.449  11.828  13.197  1.00  0.00     0.124 S 
ATOM     71  O   UNL     1      -3.205  11.403  12.558  1.00  0.00    -0.237 OA
ATOM     72  O   UNL     1      -5.030  13.070  12.701  1.00  0.00    -0.237 OA
ATOM     73  O   UNL     1      -4.484  11.657  14.648  1.00  0.00    -0.744 OA
ENDBRANCH  66  70
ENDBRANCH  49  63
BRANCH  50  74
ATOM     74  C   UNL     1      -6.707   7.188   0.898  1.00  0.00     0.023 A 
ATOM     75  C   UNL     1      -7.234   8.073  -0.055  1.00  0.00     0.031 A 
ATOM     76  C   UNL     1      -6.268   5.928   0.454  1.00  0.00     0.131 A 
ATOM     77  C   UNL     1      -7.358   7.668  -1.394  1.00  0.00     0.055 A 
ATOM     78  C   UNL     1      -6.338   5.552  -0.889  1.00  0.00     0.041 A 
ATOM     79  F   UNL     1      -5.751   5.043   1.322  1.00  0.00    -0.206 F 
ATOM     80  C   UNL     1      -6.900   6.420  -1.820  1.00  0.00     0.022 A 
BRANCH  77  81
ATOM     81  S   UNL     1      -8.217   8.765  -2.556  1.00  0.00     0.124 S 
ATOM     82  O   UNL     1      -9.519   8.912  -1.915  1.00  0.00    -0.237 OA
ATOM     83  O   UNL     1      -7.359   9.945  -2.548  1.00  0.00    -0.237 OA
ATOM     84  O   UNL     1      -8.217   8.004  -3.803  1.00  0.00    -0.744 OA
ENDBRANCH  77  81
ENDBRANCH  50  74
BRANCH  62  85
ATOM     85  C   UNL     1     -11.621   8.699   5.616  1.00  0.00     0.023 A 
ATOM     86  C   UNL     1     -12.455   7.612   5.303  1.00  0.00     0.031 A 
ATOM     87  C   UNL     1     -12.221   9.955   5.820  1.00  0.00     0.131 A 
ATOM     88  C   UNL     1     -13.835   7.813   5.144  1.00  0.00     0.055 A 
ATOM     89  C   UNL     1     -13.602  10.134   5.727  1.00  0.00     0.041 A 
ATOM     90  F   UNL     1     -11.474  11.030   6.118  1.00  0.00    -0.206 F 
ATOM     91  C   UNL     1     -14.416   9.062   5.373  1.00  0.00     0.022 A 
BRANCH  88  92
ATOM     92  S   UNL     1     -14.850   6.438   4.535  1.00  0.00     0.124 S 
ATOM     93  O   UNL     1     -14.212   6.133   3.259  1.00  0.00    -0.237 OA
ATOM     94  O   UNL     1     -14.684   5.439   5.585  1.00  0.00    -0.237 OA
ATOM     95  O   UNL     1     -16.188   7.018   4.437  1.00  0.00    -0.744 OA
ENDBRANCH  88  92
ENDBRANCH  62  85
ENDBRANCH  36  37
ENDBRANCH  28  31
ENDBRANCH  26  27
ENDBRANCH  25  26
ENDBRANCH  24  25
ENDBRANCH  23  24
ENDBRANCH   1  23
TORSDOF 21
