REMARK SMILES O=C(/C=C/c1ccccc1Oc1cccc(Cl)c1)NCCCCCCNC(=O)c1ccc(-c2c3nc(c(-c4cc(S(=O)(=O)[O-])ccc4F)c4ccc([nH]4)c(-c4cc(S(=O)(=O)[O-])ccc4F)c4nc(c(-c5cc(S(=O)(=O)[O-])ccc5F)c5ccc2[nH]5)C=C4)C=C3)cc1
REMARK SMILES IDX 22 1 21 2 20 3 19 4 1 5 2 6 3 8 4 9 5 10 6 11 10 12 7 13
REMARK SMILES IDX 9 14 8 15 11 16 12 17 13 18 18 19 14 20 16 21 15 22 17 23
REMARK SMILES IDX 23 24 24 25 25 26 26 27 27 28 28 30 29 31 30 32 91 33 31 34
REMARK SMILES IDX 90 35 32 36 33 37 34 38 84 39 35 40 89 41 83 42 85 43 36 44
REMARK SMILES IDX 88 45 82 46 81 47 37 49 69 50 49 51 68 52 50 53 53 54 67 55
REMARK SMILES IDX 86 56 51 57 52 58 66 60 87 61 54 62 38 63 39 64 47 65 40 66
REMARK SMILES IDX 46 67 48 68 45 69 41 70 42 71 43 72 44 73 70 74 71 75 79 76
REMARK SMILES IDX 72 77 78 78 80 79 77 80 73 81 74 82 75 83 76 84 55 85 56 86
REMARK SMILES IDX 64 87 57 88 63 89 65 90 62 91 58 92 59 93 60 94 61 95
REMARK H PARENT 19 7 26 29 85 48 53 59
REMARK Flexibility Score: inf
ROOT
ATOM      1  C   UNL     1       4.270  -0.412   3.704  1.00  0.00     0.002 C 
ENDROOT
BRANCH   1   2
ATOM      2  C   UNL     1       2.767  -0.618   3.475  1.00  0.00     0.021 C 
BRANCH   2   3
ATOM      3  C   UNL     1       2.186   0.233   2.349  1.00  0.00     0.116 C 
BRANCH   3   4
ATOM      4  N   UNL     1       2.846  -0.029   1.089  1.00  0.00    -0.353 N 
ATOM      5  O   UNL     1       1.496  -1.773   0.447  1.00  0.00    -0.270 OA
ATOM      6  C   UNL     1       2.457  -1.039   0.248  1.00  0.00     0.244 C 
ATOM      7  H   UNL     1       3.605   0.540   0.826  1.00  0.00     0.163 HD
BRANCH   6   8
ATOM      8  C   UNL     1       3.230  -1.166  -1.014  1.00  0.00     0.072 C 
ATOM      9  C   UNL     1       4.451  -0.653  -1.224  1.00  0.00     0.017 C 
BRANCH   9  10
ATOM     10  C   UNL     1       5.126  -0.690  -2.526  1.00  0.00     0.017 A 
ATOM     11  C   UNL     1       6.300  -1.468  -2.560  1.00  0.00     0.012 A 
ATOM     12  C   UNL     1       4.731  -0.006  -3.694  1.00  0.00     0.134 A 
ATOM     13  C   UNL     1       7.059  -1.590  -3.724  1.00  0.00     0.001 A 
ATOM     14  C   UNL     1       5.505  -0.149  -4.861  1.00  0.00     0.048 A 
ATOM     15  C   UNL     1       6.660  -0.931  -4.878  1.00  0.00     0.004 A 
BRANCH  12  16
ATOM     16  O   UNL     1       3.620   0.784  -3.922  1.00  0.00    -0.457 OA
BRANCH  16  17
ATOM     17  C   UNL     1       2.909   1.346  -2.897  1.00  0.00     0.128 A 
ATOM     18  C   UNL     1       1.544   1.045  -2.841  1.00  0.00     0.047 A 
ATOM     19  C   UNL     1       3.475   2.232  -1.982  1.00  0.00     0.067 A 
ATOM     20  C   UNL     1       0.758   1.555  -1.810  1.00  0.00     0.005 A 
ATOM     21  C   UNL     1       2.683   2.729  -0.947  1.00  0.00     0.044 A 
ATOM     22  C   UNL     1       1.332   2.390  -0.852  1.00  0.00     0.021 A 
ATOM     23  Cl  UNL     1       3.397   3.717   0.268  1.00  0.00    -0.084 Cl
ENDBRANCH  16  17
ENDBRANCH  12  16
ENDBRANCH   9  10
ENDBRANCH   6   8
ENDBRANCH   3   4
ENDBRANCH   2   3
ENDBRANCH   1   2
BRANCH   1  24
ATOM     24  C   UNL     1       4.683   1.006   4.112  1.00  0.00     0.002 C 
BRANCH  24  25
ATOM     25  C   UNL     1       4.010   1.542   5.377  1.00  0.00     0.021 C 
BRANCH  25  26
ATOM     26  C   UNL     1       4.164   0.662   6.613  1.00  0.00     0.116 C 
BRANCH  26  27
ATOM     27  N   UNL     1       5.553   0.508   7.018  1.00  0.00    -0.352 N 
ATOM     28  C   UNL     1       6.114   0.660   8.262  1.00  0.00     0.251 C 
ATOM     29  H   UNL     1       6.178   0.261   6.298  1.00  0.00     0.163 HD
ATOM     30  O   UNL     1       7.338   0.663   8.382  1.00  0.00    -0.269 OA
BRANCH  28  31
ATOM     31  C   UNL     1       5.246   0.851   9.445  1.00  0.00     0.039 A 
ATOM     32  C   UNL     1       5.578   1.837  10.377  1.00  0.00     0.014 A 
ATOM     33  C   UNL     1       4.102   0.069   9.631  1.00  0.00     0.014 A 
ATOM     34  C   UNL     1       4.729   2.081  11.459  1.00  0.00     0.010 A 
ATOM     35  C   UNL     1       3.218   0.367  10.665  1.00  0.00     0.010 A 
ATOM     36  C   UNL     1       3.522   1.374  11.592  1.00  0.00    -0.014 A 
BRANCH  36  37
ATOM     37  C   UNL     1       2.570   1.678  12.695  1.00  0.00     0.031 A 
ATOM     38  C   UNL     1       2.248   0.632  13.728  1.00  0.00     0.074 A 
ATOM     39  C   UNL     1       1.957   2.877  12.734  1.00  0.00     0.049 A 
ATOM     40  N   UNL     1       1.417   0.693  14.738  1.00  0.00    -0.248 NA
ATOM     41  C   UNL     1       2.929  -0.662  13.588  1.00  0.00     0.031 C 
ATOM     42  C   UNL     1       2.159   3.962  11.771  1.00  0.00     0.029 A 
ATOM     43  N   UNL     1       1.039   3.389  13.618  1.00  0.00    -0.354 N 
ATOM     44  C   UNL     1       1.465  -0.558  15.345  1.00  0.00     0.074 A 
ATOM     45  C   UNL     1       2.355  -1.373  14.546  1.00  0.00     0.031 C 
ATOM     46  C   UNL     1       1.425   5.022  12.141  1.00  0.00     0.029 A 
ATOM     47  C   UNL     1       0.657   4.680  13.334  1.00  0.00     0.049 A 
ATOM     48  H   UNL     1       0.688   2.880  14.384  1.00  0.00     0.167 HD
ATOM     49  C   UNL     1       0.843  -0.979  16.475  1.00  0.00     0.034 A 
ATOM     50  C   UNL     1      -0.216   5.494  13.960  1.00  0.00     0.034 A 
ATOM     51  C   UNL     1      -0.040  -0.149  17.260  1.00  0.00     0.049 A 
ATOM     52  C   UNL     1      -0.935   4.986  15.185  1.00  0.00     0.074 A 
ATOM     53  C   UNL     1      -0.673  -0.451  18.453  1.00  0.00     0.029 A 
ATOM     54  N   UNL     1      -0.430   1.142  16.923  1.00  0.00    -0.354 N 
ATOM     55  N   UNL     1      -0.832   3.822  15.783  1.00  0.00    -0.248 NA
ATOM     56  C   UNL     1      -1.882   5.909  15.822  1.00  0.00     0.031 C 
ATOM     57  C   UNL     1      -1.511   0.618  18.789  1.00  0.00     0.029 A 
ATOM     58  C   UNL     1      -1.331   1.629  17.860  1.00  0.00     0.049 A 
ATOM     59  H   UNL     1      -0.114   1.638  16.134  1.00  0.00     0.167 HD
ATOM     60  C   UNL     1      -1.674   3.889  16.891  1.00  0.00     0.074 A 
ATOM     61  C   UNL     1      -2.264   5.212  16.881  1.00  0.00     0.031 C 
ATOM     62  C   UNL     1      -1.929   2.945  17.834  1.00  0.00     0.034 A 
BRANCH  49  63
ATOM     63  C   UNL     1       1.071  -2.414  16.899  1.00  0.00     0.023 A 
ATOM     64  C   UNL     1       2.354  -2.904  17.202  1.00  0.00     0.031 A 
ATOM     65  C   UNL     1      -0.004  -3.319  16.957  1.00  0.00     0.131 A 
ATOM     66  C   UNL     1       2.544  -4.271  17.450  1.00  0.00     0.055 A 
ATOM     67  C   UNL     1       0.178  -4.660  17.301  1.00  0.00     0.041 A 
ATOM     68  F   UNL     1      -1.251  -2.921  16.659  1.00  0.00    -0.206 F 
ATOM     69  C   UNL     1       1.461  -5.149  17.530  1.00  0.00     0.022 A 
BRANCH  66  70
ATOM     70  S   UNL     1       4.239  -4.916  17.485  1.00  0.00     0.124 S 
ATOM     71  O   UNL     1       4.743  -4.493  16.180  1.00  0.00    -0.237 OA
ATOM     72  O   UNL     1       4.811  -4.238  18.642  1.00  0.00    -0.237 OA
ATOM     73  O   UNL     1       4.054  -6.359  17.633  1.00  0.00    -0.744 OA
ENDBRANCH  66  70
ENDBRANCH  49  63
BRANCH  50  74
ATOM     74  C   UNL     1      -0.462   6.875  13.453  1.00  0.00     0.023 A 
ATOM     75  C   UNL     1      -0.135   7.995  14.235  1.00  0.00     0.031 A 
ATOM     76  C   UNL     1      -1.064   7.098  12.202  1.00  0.00     0.131 A 
ATOM     77  C   UNL     1      -0.454   9.284  13.781  1.00  0.00     0.055 A 
ATOM     78  C   UNL     1      -1.327   8.386  11.729  1.00  0.00     0.041 A 
ATOM     79  F   UNL     1      -1.396   6.064  11.413  1.00  0.00    -0.206 F 
ATOM     80  C   UNL     1      -1.034   9.487  12.527  1.00  0.00     0.022 A 
BRANCH  77  81
ATOM     81  S   UNL     1      -0.181  10.688  14.896  1.00  0.00     0.124 S 
ATOM     82  O   UNL     1      -1.011  10.325  16.038  1.00  0.00    -0.237 OA
ATOM     83  O   UNL     1       1.262  10.633  15.105  1.00  0.00    -0.237 OA
ATOM     84  O   UNL     1      -0.652  11.834  14.120  1.00  0.00    -0.744 OA
ENDBRANCH  77  81
ENDBRANCH  50  74
BRANCH  62  85
ATOM     85  C   UNL     1      -2.855   3.335  18.963  1.00  0.00     0.023 A 
ATOM     86  C   UNL     1      -4.210   3.641  18.743  1.00  0.00     0.031 A 
ATOM     87  C   UNL     1      -2.366   3.422  20.279  1.00  0.00     0.131 A 
ATOM     88  C   UNL     1      -5.010   4.081  19.809  1.00  0.00     0.055 A 
ATOM     89  C   UNL     1      -3.185   3.790  21.347  1.00  0.00     0.041 A 
ATOM     90  F   UNL     1      -1.080   3.148  20.551  1.00  0.00    -0.206 F 
ATOM     91  C   UNL     1      -4.512   4.138  21.113  1.00  0.00     0.022 A 
BRANCH  88  92
ATOM     92  S   UNL     1      -6.683   4.686  19.451  1.00  0.00     0.124 S 
ATOM     93  O   UNL     1      -6.418   5.760  18.498  1.00  0.00    -0.237 OA
ATOM     94  O   UNL     1      -7.335   3.499  18.908  1.00  0.00    -0.237 OA
ATOM     95  O   UNL     1      -7.177   5.122  20.755  1.00  0.00    -0.744 OA
ENDBRANCH  88  92
ENDBRANCH  62  85
ENDBRANCH  36  37
ENDBRANCH  28  31
ENDBRANCH  26  27
ENDBRANCH  25  26
ENDBRANCH  24  25
ENDBRANCH   1  24
TORSDOF 19
