REMARK SMILES C=CCN1C(=O)/C(=C/c2ccccn2)S/C1=[NH+]\c1ccc(C(=O)NCCCCCCNC(=O)c2ccc(-c3c4nc(c(-c5cc(S(=O)(=O)[O-])ccc5F)c5ccc([nH]5)c(-c5cc(S(=O)(=O)[O-])ccc5F)c5nc(c(-c6cc(S(=O)(=O)[O-])ccc6F)c6ccc3[nH]6)C=C5)C=C4)cc2)cc1
REMARK SMILES IDX 27 1 26 2 25 3 24 4 22 5 23 6 21 8 18 9 19 10 98 11 20 12
REMARK SMILES IDX 97 13 17 14 4 15 5 16 16 17 6 18 7 19 15 20 8 21 3 23 2 24
REMARK SMILES IDX 1 25 9 26 10 27 14 28 11 29 13 30 12 31 28 32 29 33 30 34
REMARK SMILES IDX 31 35 32 36 33 38 34 39 35 40 96 41 36 42 95 43 37 44 38 45
REMARK SMILES IDX 39 46 89 47 40 48 94 49 88 50 90 51 41 52 93 53 87 54 86 55
REMARK SMILES IDX 42 57 74 58 54 59 73 60 55 61 58 62 72 63 91 64 56 65 57 66
REMARK SMILES IDX 71 68 92 69 59 70 43 71 44 72 52 73 45 74 51 75 53 76 50 77
REMARK SMILES IDX 46 78 47 79 48 80 49 81 75 82 76 83 84 84 77 85 83 86 85 87
REMARK SMILES IDX 82 88 78 89 79 90 80 91 81 92 60 93 61 94 69 95 62 96 68 97
REMARK SMILES IDX 70 98 67 99 63 100 64 101 65 102 66 103
REMARK H PARENT 24 7 17 22 31 37 90 56 58 67
REMARK Flexibility Score: inf
ROOT
ATOM      1  C   UNL     1      -5.409 -10.115  -0.697  1.00  0.00     0.002 C 
ENDROOT
BRANCH   1   2
ATOM      2  C   UNL     1      -5.007  -8.659  -0.427  1.00  0.00     0.021 C 
BRANCH   2   3
ATOM      3  C   UNL     1      -3.717  -8.537   0.387  1.00  0.00     0.116 C 
BRANCH   3   4
ATOM      4  N   UNL     1      -2.571  -8.773  -0.474  1.00  0.00    -0.352 N 
ATOM      5  C   UNL     1      -1.653  -7.923  -1.032  1.00  0.00     0.251 C 
ATOM      6  O   UNL     1      -0.770  -8.405  -1.742  1.00  0.00    -0.269 OA
ATOM      7  H   UNL     1      -2.428  -9.721  -0.698  1.00  0.00     0.163 HD
BRANCH   5   8
ATOM      8  C   UNL     1      -1.637  -6.464  -0.746  1.00  0.00     0.040 A 
ATOM      9  C   UNL     1      -1.417  -3.765   0.002  1.00  0.00     0.125 A 
ATOM     10  C   UNL     1      -0.274  -4.495  -0.324  1.00  0.00     0.052 A 
ATOM     11  C   UNL     1      -2.672  -4.358  -0.154  1.00  0.00     0.052 A 
ATOM     12  C   UNL     1      -0.383  -5.839  -0.689  1.00  0.00     0.018 A 
ATOM     13  C   UNL     1      -2.784  -5.693  -0.546  1.00  0.00     0.018 A 
BRANCH   9  14
ATOM     14  N   UNL     1      -1.312  -2.439   0.430  1.00  0.00    -0.234 N 
ATOM     15  N   UNL     1      -1.468  -0.855   2.139  1.00  0.00    -0.182 N 
ATOM     16  C   UNL     1      -1.804  -0.659   3.460  1.00  0.00     0.349 C 
ATOM     17  C   UNL     1      -1.490  -2.146   1.678  1.00  0.00     0.324 C 
ATOM     18  O   UNL     1      -1.881   0.421   4.035  1.00  0.00    -0.240 OA
ATOM     19  C   UNL     1      -2.038  -1.968   4.126  1.00  0.00     0.111 C 
ATOM     20  S   UNL     1      -1.789  -3.249   3.005  1.00  0.00     0.007 SA
ATOM     21  C   UNL     1      -2.391  -2.061   5.415  1.00  0.00     0.052 C 
ATOM     22  H   UNL     1      -1.103  -1.728  -0.218  1.00  0.00     0.313 HD
BRANCH  15  23
ATOM     23  C   UNL     1      -1.135   0.260   1.277  1.00  0.00     0.275 C 
BRANCH  23  24
ATOM     24  C   UNL     1       0.365   0.365   1.195  1.00  0.00     0.011 C 
ATOM     25  C   UNL     1       1.082   0.082   0.099  1.00  0.00     0.008 C 
ENDBRANCH  23  24
ENDBRANCH  15  23
BRANCH  21  26
ATOM     26  C   UNL     1      -2.555  -3.303   6.168  1.00  0.00     0.064 A 
ATOM     27  C   UNL     1      -1.492  -4.183   6.354  1.00  0.00     0.028 A 
ATOM     28  N   UNL     1      -3.771  -3.496   6.719  1.00  0.00    -0.257 NA
ATOM     29  C   UNL     1      -1.700  -5.336   7.106  1.00  0.00     0.004 A 
ATOM     30  C   UNL     1      -3.948  -4.627   7.440  1.00  0.00     0.111 A 
ATOM     31  C   UNL     1      -2.954  -5.568   7.656  1.00  0.00     0.020 A 
ENDBRANCH  21  26
ENDBRANCH   9  14
ENDBRANCH   5   8
ENDBRANCH   3   4
ENDBRANCH   2   3
ENDBRANCH   1   2
BRANCH   1  32
ATOM     32  C   UNL     1      -5.728 -10.930   0.561  1.00  0.00     0.002 C 
BRANCH  32  33
ATOM     33  C   UNL     1      -6.813 -10.325   1.457  1.00  0.00     0.021 C 
BRANCH  33  34
ATOM     34  C   UNL     1      -8.170 -10.179   0.776  1.00  0.00     0.116 C 
BRANCH  34  35
ATOM     35  N   UNL     1      -8.717 -11.473   0.403  1.00  0.00    -0.352 N 
ATOM     36  C   UNL     1      -9.902 -12.055   0.776  1.00  0.00     0.251 C 
ATOM     37  H   UNL     1      -8.158 -12.009  -0.204  1.00  0.00     0.163 HD
ATOM     38  O   UNL     1     -10.072 -13.257   0.594  1.00  0.00    -0.269 OA
BRANCH  36  39
ATOM     39  C   UNL     1     -10.959 -11.235   1.407  1.00  0.00     0.039 A 
ATOM     40  C   UNL     1     -11.675 -11.764   2.482  1.00  0.00     0.014 A 
ATOM     41  C   UNL     1     -11.256  -9.956   0.926  1.00  0.00     0.014 A 
ATOM     42  C   UNL     1     -12.655 -10.990   3.106  1.00  0.00     0.010 A 
ATOM     43  C   UNL     1     -12.177  -9.157   1.599  1.00  0.00     0.010 A 
ATOM     44  C   UNL     1     -12.893  -9.668   2.691  1.00  0.00    -0.014 A 
BRANCH  44  45
ATOM     45  C   UNL     1     -13.895  -8.818   3.385  1.00  0.00     0.031 A 
ATOM     46  C   UNL     1     -15.110  -8.322   2.647  1.00  0.00     0.074 A 
ATOM     47  C   UNL     1     -13.692  -8.468   4.671  1.00  0.00     0.049 A 
ATOM     48  N   UNL     1     -16.074  -7.544   3.070  1.00  0.00    -0.248 NA
ATOM     49  C   UNL     1     -15.246  -8.735   1.242  1.00  0.00     0.031 C 
ATOM     50  C   UNL     1     -12.536  -8.862   5.480  1.00  0.00     0.029 A 
ATOM     51  N   UNL     1     -14.449  -7.708   5.527  1.00  0.00    -0.354 N 
ATOM     52  C   UNL     1     -16.929  -7.376   1.986  1.00  0.00     0.074 A 
ATOM     53  C   UNL     1     -16.331  -8.072   0.868  1.00  0.00     0.031 C 
ATOM     54  C   UNL     1     -12.680  -8.373   6.722  1.00  0.00     0.029 A 
ATOM     55  C   UNL     1     -13.908  -7.588   6.787  1.00  0.00     0.049 A 
ATOM     56  H   UNL     1     -15.299  -7.287   5.265  1.00  0.00     0.167 HD
ATOM     57  C   UNL     1     -18.119  -6.725   1.936  1.00  0.00     0.034 A 
ATOM     58  C   UNL     1     -14.346  -6.913   7.869  1.00  0.00     0.034 A 
ATOM     59  C   UNL     1     -18.703  -6.037   3.062  1.00  0.00     0.049 A 
ATOM     60  C   UNL     1     -15.647  -6.153   7.770  1.00  0.00     0.074 A 
ATOM     61  C   UNL     1     -19.916  -5.373   3.130  1.00  0.00     0.029 A 
ATOM     62  N   UNL     1     -18.116  -5.917   4.315  1.00  0.00    -0.354 N 
ATOM     63  N   UNL     1     -16.465  -6.042   6.748  1.00  0.00    -0.248 NA
ATOM     64  C   UNL     1     -16.088  -5.438   8.974  1.00  0.00     0.031 C 
ATOM     65  C   UNL     1     -20.027  -4.790   4.396  1.00  0.00     0.029 A 
ATOM     66  C   UNL     1     -18.927  -5.164   5.151  1.00  0.00     0.049 A 
ATOM     67  H   UNL     1     -17.250  -6.309   4.572  1.00  0.00     0.167 HD
ATOM     68  C   UNL     1     -17.537  -5.278   7.204  1.00  0.00     0.074 A 
ATOM     69  C   UNL     1     -17.268  -4.974   8.594  1.00  0.00     0.031 C 
ATOM     70  C   UNL     1     -18.645  -4.865   6.535  1.00  0.00     0.034 A 
BRANCH  57  71
ATOM     71  C   UNL     1     -18.853  -6.715   0.617  1.00  0.00     0.023 A 
ATOM     72  C   UNL     1     -19.314  -7.902   0.020  1.00  0.00     0.031 A 
ATOM     73  C   UNL     1     -19.092  -5.505  -0.060  1.00  0.00     0.131 A 
ATOM     74  C   UNL     1     -19.927  -7.862  -1.242  1.00  0.00     0.055 A 
ATOM     75  C   UNL     1     -19.778  -5.463  -1.276  1.00  0.00     0.041 A 
ATOM     76  F   UNL     1     -18.656  -4.341   0.447  1.00  0.00    -0.206 F 
ATOM     77  C   UNL     1     -20.188  -6.648  -1.881  1.00  0.00     0.022 A 
BRANCH  74  78
ATOM     78  S   UNL     1     -20.252  -9.428  -2.096  1.00  0.00     0.124 S 
ATOM     79  O   UNL     1     -18.910  -9.996  -2.190  1.00  0.00    -0.237 OA
ATOM     80  O   UNL     1     -21.169 -10.101  -1.185  1.00  0.00    -0.237 OA
ATOM     81  O   UNL     1     -20.833  -9.008  -3.370  1.00  0.00    -0.744 OA
ENDBRANCH  74  78
ENDBRANCH  57  71
BRANCH  58  82
ATOM     82  C   UNL     1     -13.559  -6.906   9.137  1.00  0.00     0.023 A 
ATOM     83  C   UNL     1     -14.104  -7.414  10.328  1.00  0.00     0.031 A 
ATOM     84  C   UNL     1     -12.280  -6.326   9.197  1.00  0.00     0.131 A 
ATOM     85  C   UNL     1     -13.405  -7.271  11.536  1.00  0.00     0.055 A 
ATOM     86  C   UNL     1     -11.558  -6.248  10.390  1.00  0.00     0.041 A 
ATOM     87  F   UNL     1     -11.707  -5.825   8.090  1.00  0.00    -0.206 F 
ATOM     88  C   UNL     1     -12.129  -6.705  11.573  1.00  0.00     0.022 A 
BRANCH  85  89
ATOM     89  S   UNL     1     -14.243  -7.723  13.080  1.00  0.00     0.124 S 
ATOM     90  O   UNL     1     -15.442  -6.895  13.018  1.00  0.00    -0.237 OA
ATOM     91  O   UNL     1     -14.442  -9.158  12.907  1.00  0.00    -0.237 OA
ATOM     92  O   UNL     1     -13.278  -7.348  14.111  1.00  0.00    -0.744 OA
ENDBRANCH  85  89
ENDBRANCH  58  82
BRANCH  70  93
ATOM     93  C   UNL     1     -19.673  -4.087   7.324  1.00  0.00     0.023 A 
ATOM     94  C   UNL     1     -19.390  -2.822   7.868  1.00  0.00     0.031 A 
ATOM     95  C   UNL     1     -20.949  -4.633   7.551  1.00  0.00     0.131 A 
ATOM     96  C   UNL     1     -20.345  -2.177   8.669  1.00  0.00     0.055 A 
ATOM     97  C   UNL     1     -21.920  -3.954   8.287  1.00  0.00     0.041 A 
ATOM     98  F   UNL     1     -21.275  -5.840   7.059  1.00  0.00    -0.206 F 
ATOM     99  C   UNL     1     -21.614  -2.725   8.865  1.00  0.00     0.022 A 
BRANCH  96 100
ATOM    100  S   UNL     1     -19.863  -0.664   9.546  1.00  0.00     0.124 S 
ATOM    101  O   UNL     1     -18.718  -1.119  10.328  1.00  0.00    -0.237 OA
ATOM    102  O   UNL     1     -19.563   0.250   8.450  1.00  0.00    -0.237 OA
ATOM    103  O   UNL     1     -21.053  -0.327  10.326  1.00  0.00    -0.744 OA
ENDBRANCH  96 100
ENDBRANCH  70  93
ENDBRANCH  44  45
ENDBRANCH  36  39
ENDBRANCH  34  35
ENDBRANCH  33  34
ENDBRANCH  32  33
ENDBRANCH   1  32
TORSDOF 20
