REMARK SMILES C[C@@H](c1cccc(F)c1)[C@@](C)(O)C(=O)NCCCCCCNC(=O)c1ccc(-c2c3nc(c(-c4cc(S(=O)(=O)[O-])ccc4F)c4ccc([nH]4)c(-c4cc(S(=O)(=O)[O-])ccc4F)c4nc(c(-c5cc(S(=O)(=O)[O-])ccc5F)c5ccc2[nH]5)C=C4)C=C3)cc1
REMARK SMILES IDX 19 1 18 2 17 3 16 4 15 5 13 6 14 7 10 9 11 10 2 11 1 12 3 13
REMARK SMILES IDX 4 14 9 15 5 16 7 17 6 18 8 19 12 20 20 22 21 23 22 24 23 25
REMARK SMILES IDX 24 27 25 28 26 29 87 30 27 31 86 32 28 33 29 34 30 35 80 36
REMARK SMILES IDX 31 37 85 38 79 39 81 40 32 41 84 42 78 43 77 44 33 46 65 47
REMARK SMILES IDX 45 48 64 49 46 50 49 51 63 52 82 53 47 54 48 55 62 57 83 58
REMARK SMILES IDX 50 59 34 60 35 61 43 62 36 63 42 64 44 65 41 66 37 67 38 68
REMARK SMILES IDX 39 69 40 70 66 71 67 72 75 73 68 74 74 75 76 76 73 77 69 78
REMARK SMILES IDX 70 79 71 80 72 81 51 82 52 83 60 84 53 85 59 86 61 87 58 88
REMARK SMILES IDX 54 89 55 90 56 91 57 92
REMARK H PARENT 15 8 12 21 22 26 81 45 49 56
REMARK Flexibility Score: inf
ROOT
ATOM      1  C   UNL     1      -6.376  -1.598  -1.361  1.00  0.00     0.002 C 
ENDROOT
BRANCH   1   2
ATOM      2  C   UNL     1      -5.496  -1.391  -2.598  1.00  0.00     0.002 C 
BRANCH   2   3
ATOM      3  C   UNL     1      -4.744  -0.055  -2.660  1.00  0.00     0.021 C 
BRANCH   3   4
ATOM      4  C   UNL     1      -3.940   0.288  -1.408  1.00  0.00     0.116 C 
BRANCH   4   5
ATOM      5  N   UNL     1      -2.958  -0.732  -1.098  1.00  0.00    -0.354 N 
ATOM      6  C   UNL     1      -1.611  -0.651  -0.909  1.00  0.00     0.252 C 
ATOM      7  O   UNL     1      -1.056  -1.694  -0.551  1.00  0.00    -0.272 OA
ATOM      8  H   UNL     1      -3.328  -1.640  -1.008  1.00  0.00     0.163 HD
BRANCH   6   9
ATOM      9  C   UNL     1      -0.860   0.712  -1.014  1.00  0.00     0.146 C 
ATOM     10  C   UNL     1      -1.205   1.507   0.260  1.00  0.00     0.053 C 
BRANCH   9  11
ATOM     11  C   UNL     1       0.697   0.560  -1.166  1.00  0.00     0.057 C 
ATOM     12  C   UNL     1       1.425  -0.083   0.026  1.00  0.00     0.016 C 
BRANCH  11  13
ATOM     13  C   UNL     1       1.121  -0.053  -2.503  1.00  0.00    -0.039 A 
ATOM     14  C   UNL     1       1.479   0.792  -3.570  1.00  0.00     0.004 A 
ATOM     15  C   UNL     1       1.145  -1.438  -2.723  1.00  0.00     0.043 A 
ATOM     16  C   UNL     1       1.835   0.272  -4.818  1.00  0.00     0.003 A 
ATOM     17  C   UNL     1       1.494  -1.946  -3.972  1.00  0.00     0.123 A 
ATOM     18  C   UNL     1       1.837  -1.104  -5.021  1.00  0.00     0.039 A 
ATOM     19  F   UNL     1       1.497  -3.272  -4.168  1.00  0.00    -0.207 F 
ENDBRANCH  11  13
ENDBRANCH   9  11
BRANCH   9  20
ATOM     20  O   UNL     1      -1.321   1.492  -2.130  1.00  0.00    -0.380 OA
ATOM     21  H   UNL     1      -0.834   2.330  -2.162  1.00  0.00     0.212 HD
ENDBRANCH   9  20
ENDBRANCH   6   9
ENDBRANCH   4   5
ENDBRANCH   3   4
ENDBRANCH   2   3
ENDBRANCH   1   2
BRANCH   1  22
ATOM     22  C   UNL     1      -7.406  -0.498  -1.099  1.00  0.00     0.021 C 
BRANCH  22  23
ATOM     23  C   UNL     1      -8.360  -0.224  -2.255  1.00  0.00     0.116 C 
BRANCH  23  24
ATOM     24  N   UNL     1      -9.180  -1.379  -2.578  1.00  0.00    -0.352 N 
ATOM     25  C   UNL     1     -10.544  -1.457  -2.720  1.00  0.00     0.251 C 
ATOM     26  H   UNL     1      -8.691  -2.222  -2.715  1.00  0.00     0.163 HD
ATOM     27  O   UNL     1     -11.087  -2.555  -2.813  1.00  0.00    -0.269 OA
BRANCH  25  28
ATOM     28  C   UNL     1     -11.352  -0.218  -2.729  1.00  0.00     0.039 A 
ATOM     29  C   UNL     1     -12.519  -0.166  -1.964  1.00  0.00     0.014 A 
ATOM     30  C   UNL     1     -10.955   0.891  -3.482  1.00  0.00     0.014 A 
ATOM     31  C   UNL     1     -13.252   1.021  -1.903  1.00  0.00     0.010 A 
ATOM     32  C   UNL     1     -11.645   2.095  -3.360  1.00  0.00     0.010 A 
ATOM     33  C   UNL     1     -12.801   2.172  -2.569  1.00  0.00    -0.014 A 
BRANCH  33  34
ATOM     34  C   UNL     1     -13.525   3.465  -2.448  1.00  0.00     0.031 A 
ATOM     35  C   UNL     1     -14.150   4.097  -3.662  1.00  0.00     0.074 A 
ATOM     36  C   UNL     1     -13.583   4.089  -1.254  1.00  0.00     0.049 A 
ATOM     37  N   UNL     1     -14.759   5.250  -3.769  1.00  0.00    -0.248 NA
ATOM     38  C   UNL     1     -14.061   3.347  -4.925  1.00  0.00     0.031 C 
ATOM     39  C   UNL     1     -12.995   3.586  -0.010  1.00  0.00     0.029 A 
ATOM     40  N   UNL     1     -14.163   5.277  -0.888  1.00  0.00    -0.354 N 
ATOM     41  C   UNL     1     -15.120   5.366  -5.107  1.00  0.00     0.074 A 
ATOM     42  C   UNL     1     -14.612   4.192  -5.784  1.00  0.00     0.031 C 
ATOM     43  C   UNL     1     -13.279   4.439   0.987  1.00  0.00     0.029 A 
ATOM     44  C   UNL     1     -14.022   5.574   0.448  1.00  0.00     0.049 A 
ATOM     45  H   UNL     1     -14.637   5.863  -1.522  1.00  0.00     0.167 HD
ATOM     46  C   UNL     1     -15.829   6.350  -5.709  1.00  0.00     0.034 A 
ATOM     47  C   UNL     1     -14.433   6.643   1.160  1.00  0.00     0.034 A 
ATOM     48  C   UNL     1     -16.349   7.504  -5.021  1.00  0.00     0.049 A 
ATOM     49  C   UNL     1     -15.185   7.744   0.460  1.00  0.00     0.074 A 
ATOM     50  C   UNL     1     -17.118   8.534  -5.534  1.00  0.00     0.029 A 
ATOM     51  N   UNL     1     -16.154   7.784  -3.676  1.00  0.00    -0.354 N 
ATOM     52  N   UNL     1     -15.521   7.833  -0.806  1.00  0.00    -0.248 NA
ATOM     53  C   UNL     1     -15.610   8.887   1.279  1.00  0.00     0.031 C 
ATOM     54  C   UNL     1     -17.332   9.468  -4.517  1.00  0.00     0.029 A 
ATOM     55  C   UNL     1     -16.762   8.986  -3.350  1.00  0.00     0.049 A 
ATOM     56  H   UNL     1     -15.657   7.214  -3.046  1.00  0.00     0.167 HD
ATOM     57  C   UNL     1     -16.218   9.031  -0.929  1.00  0.00     0.074 A 
ATOM     58  C   UNL     1     -16.256   9.629   0.389  1.00  0.00     0.031 C 
ATOM     59  C   UNL     1     -16.781   9.579  -2.034  1.00  0.00     0.034 A 
BRANCH  46  60
ATOM     60  C   UNL     1     -16.080   6.230  -7.190  1.00  0.00     0.023 A 
ATOM     61  C   UNL     1     -16.913   5.228  -7.716  1.00  0.00     0.031 A 
ATOM     62  C   UNL     1     -15.507   7.152  -8.084  1.00  0.00     0.131 A 
ATOM     63  C   UNL     1     -17.119   5.147  -9.101  1.00  0.00     0.055 A 
ATOM     64  C   UNL     1     -15.768   7.106  -9.454  1.00  0.00     0.041 A 
ATOM     65  F   UNL     1     -14.689   8.118  -7.637  1.00  0.00    -0.206 F 
ATOM     66  C   UNL     1     -16.573   6.095  -9.971  1.00  0.00     0.022 A 
BRANCH  63  67
ATOM     67  S   UNL     1     -18.053   3.740  -9.760  1.00  0.00     0.124 S 
ATOM     68  O   UNL     1     -17.186   2.620  -9.404  1.00  0.00    -0.237 OA
ATOM     69  O   UNL     1     -19.314   3.828  -9.034  1.00  0.00    -0.237 OA
ATOM     70  O   UNL     1     -18.137   4.026 -11.191  1.00  0.00    -0.744 OA
ENDBRANCH  63  67
ENDBRANCH  46  60
BRANCH  47  71
ATOM     71  C   UNL     1     -14.135   6.723   2.617  1.00  0.00     0.023 A 
ATOM     72  C   UNL     1     -15.160   6.625   3.570  1.00  0.00     0.031 A 
ATOM     73  C   UNL     1     -12.816   6.888   3.076  1.00  0.00     0.131 A 
ATOM     74  C   UNL     1     -14.852   6.709   4.937  1.00  0.00     0.055 A 
ATOM     75  C   UNL     1     -12.510   6.931   4.437  1.00  0.00     0.041 A 
ATOM     76  F   UNL     1     -11.800   6.978   2.204  1.00  0.00    -0.206 F 
ATOM     77  C   UNL     1     -13.533   6.847   5.377  1.00  0.00     0.022 A 
BRANCH  74  78
ATOM     78  S   UNL     1     -16.207   6.661   6.142  1.00  0.00     0.124 S 
ATOM     79  O   UNL     1     -16.936   7.881   5.816  1.00  0.00    -0.237 OA
ATOM     80  O   UNL     1     -16.871   5.406   5.805  1.00  0.00    -0.237 OA
ATOM     81  O   UNL     1     -15.517   6.670   7.430  1.00  0.00    -0.744 OA
ENDBRANCH  74  78
ENDBRANCH  47  71
BRANCH  59  82
ATOM     82  C   UNL     1     -17.519  10.882  -1.869  1.00  0.00     0.023 A 
ATOM     83  C   UNL     1     -16.839  12.088  -1.633  1.00  0.00     0.031 A 
ATOM     84  C   UNL     1     -18.917  10.922  -2.013  1.00  0.00     0.131 A 
ATOM     85  C   UNL     1     -17.563  13.284  -1.525  1.00  0.00     0.055 A 
ATOM     86  C   UNL     1     -19.627  12.121  -1.952  1.00  0.00     0.041 A 
ATOM     87  F   UNL     1     -19.612   9.796  -2.243  1.00  0.00    -0.206 F 
ATOM     88  C   UNL     1     -18.949  13.311  -1.702  1.00  0.00     0.022 A 
BRANCH  85  89
ATOM     89  S   UNL     1     -16.671  14.810  -1.120  1.00  0.00     0.124 S 
ATOM     90  O   UNL     1     -16.171  14.520   0.221  1.00  0.00    -0.237 OA
ATOM     91  O   UNL     1     -15.664  14.878  -2.174  1.00  0.00    -0.237 OA
ATOM     92  O   UNL     1     -17.705  15.841  -1.187  1.00  0.00    -0.744 OA
ENDBRANCH  85  89
ENDBRANCH  59  82
ENDBRANCH  33  34
ENDBRANCH  25  28
ENDBRANCH  23  24
ENDBRANCH  22  23
ENDBRANCH   1  22
TORSDOF 19
