REMARK SMILES CC[C@@](O)(C(=O)NCCCCCCNC(=O)c1ccc(-c2c3nc(c(-c4cc(S(=O)(=O)[O-])ccc4F)c4ccc([nH]4)c(-c4cc(S(=O)(=O)[O-])ccc4F)c4nc(c(-c5cc(S(=O)(=O)[O-])ccc5F)c5ccc2[nH]5)C=C4)C=C3)cc1)[C@H]1CCc2ccc(OC)cc21
REMARK SMILES IDX 11 1 10 2 9 3 8 4 7 5 5 6 6 7 3 9 2 10 1 11 4 12 80 14 81 15
REMARK SMILES IDX 90 16 82 17 83 18 89 19 84 20 86 21 85 22 87 23 88 24 12 25
REMARK SMILES IDX 13 26 14 27 15 28 16 30 17 31 18 32 79 33 19 34 78 35 20 36
REMARK SMILES IDX 21 37 22 38 72 39 23 40 77 41 71 42 73 43 24 44 76 45 70 46
REMARK SMILES IDX 69 47 25 49 57 50 37 51 56 52 38 53 41 54 55 55 74 56 39 57
REMARK SMILES IDX 40 58 54 60 75 61 42 62 26 63 27 64 35 65 28 66 34 67 36 68
REMARK SMILES IDX 33 69 29 70 30 71 31 72 32 73 58 74 59 75 67 76 60 77 66 78
REMARK SMILES IDX 68 79 65 80 61 81 62 82 63 83 64 84 43 85 44 86 52 87 45 88
REMARK SMILES IDX 51 89 53 90 50 91 46 92 47 93 48 94 49 95
REMARK H PARENT 7 8 4 13 14 29 73 48 41 59
REMARK Flexibility Score: inf
ROOT
ATOM      1  C   UNL     1       4.834   3.237  -8.149  1.00  0.00     0.002 C 
ENDROOT
BRANCH   1   2
ATOM      2  C   UNL     1       5.647   3.205  -6.851  1.00  0.00     0.002 C 
BRANCH   2   3
ATOM      3  C   UNL     1       5.063   4.046  -5.705  1.00  0.00     0.021 C 
BRANCH   3   4
ATOM      4  C   UNL     1       3.596   3.736  -5.396  1.00  0.00     0.116 C 
BRANCH   4   5
ATOM      5  N   UNL     1       3.462   2.350  -5.013  1.00  0.00    -0.354 N 
ATOM      6  C   UNL     1       3.074   1.764  -3.853  1.00  0.00     0.252 C 
ATOM      7  O   UNL     1       3.066   0.530  -3.893  1.00  0.00    -0.272 OA
ATOM      8  H   UNL     1       3.694   1.713  -5.726  1.00  0.00     0.163 HD
BRANCH   6   9
ATOM      9  C   UNL     1       2.641   2.598  -2.595  1.00  0.00     0.149 C 
BRANCH   9  10
ATOM     10  C   UNL     1       3.765   3.540  -2.081  1.00  0.00     0.043 C 
ATOM     11  C   UNL     1       3.314   4.596  -1.073  1.00  0.00     0.007 C 
ENDBRANCH   9  10
BRANCH   9  12
ATOM     12  O   UNL     1       1.553   3.441  -3.038  1.00  0.00    -0.379 OA
ATOM     13  H   UNL     1       1.867   4.031  -3.741  1.00  0.00     0.212 HD
ENDBRANCH   9  12
BRANCH   9  14
ATOM     14  C   UNL     1       2.118   1.650  -1.458  1.00  0.00     0.061 C 
ATOM     15  C   UNL     1       0.755   0.983  -1.810  1.00  0.00     0.017 C 
ATOM     16  C   UNL     1       2.933   0.426  -1.090  1.00  0.00    -0.035 A 
ATOM     17  C   UNL     1       0.655  -0.273  -0.938  1.00  0.00     0.036 C 
ATOM     18  C   UNL     1       2.094  -0.672  -0.864  1.00  0.00    -0.044 A 
ATOM     19  C   UNL     1       4.313   0.265  -1.058  1.00  0.00     0.050 A 
ATOM     20  C   UNL     1       2.611  -1.939  -0.649  1.00  0.00     0.008 A 
ATOM     21  C   UNL     1       4.851  -1.014  -0.901  1.00  0.00     0.119 A 
ATOM     22  C   UNL     1       3.998  -2.107  -0.690  1.00  0.00     0.047 A 
BRANCH  21  23
ATOM     23  O   UNL     1       6.188  -1.314  -0.960  1.00  0.00    -0.497 OA
ATOM     24  C   UNL     1       7.042  -0.284  -1.454  1.00  0.00     0.278 C 
ENDBRANCH  21  23
ENDBRANCH   9  14
ENDBRANCH   6   9
ENDBRANCH   4   5
ENDBRANCH   3   4
ENDBRANCH   2   3
ENDBRANCH   1   2
BRANCH   1  25
ATOM     25  C   UNL     1       4.555   4.641  -8.687  1.00  0.00     0.021 C 
BRANCH  25  26
ATOM     26  C   UNL     1       5.810   5.452  -8.982  1.00  0.00     0.116 C 
BRANCH  26  27
ATOM     27  N   UNL     1       6.603   4.848 -10.040  1.00  0.00    -0.352 N 
ATOM     28  C   UNL     1       7.035   5.409 -11.214  1.00  0.00     0.251 C 
ATOM     29  H   UNL     1       6.864   3.910  -9.894  1.00  0.00     0.163 HD
ATOM     30  O   UNL     1       7.490   4.693 -12.105  1.00  0.00    -0.269 OA
BRANCH  28  31
ATOM     31  C   UNL     1       6.927   6.870 -11.405  1.00  0.00     0.039 A 
ATOM     32  C   UNL     1       6.438   7.362 -12.615  1.00  0.00     0.014 A 
ATOM     33  C   UNL     1       7.296   7.749 -10.382  1.00  0.00     0.014 A 
ATOM     34  C   UNL     1       6.266   8.738 -12.779  1.00  0.00     0.010 A 
ATOM     35  C   UNL     1       7.048   9.111 -10.518  1.00  0.00     0.010 A 
ATOM     36  C   UNL     1       6.537   9.621 -11.721  1.00  0.00    -0.014 A 
BRANCH  36  37
ATOM     37  C   UNL     1       6.299  11.082 -11.858  1.00  0.00     0.031 A 
ATOM     38  C   UNL     1       7.451  12.045 -11.767  1.00  0.00     0.074 A 
ATOM     39  C   UNL     1       5.042  11.540 -12.014  1.00  0.00     0.049 A 
ATOM     40  N   UNL     1       7.442  13.353 -11.802  1.00  0.00    -0.248 NA
ATOM     41  C   UNL     1       8.787  11.459 -11.581  1.00  0.00     0.031 C 
ATOM     42  C   UNL     1       3.841  10.704 -12.080  1.00  0.00     0.029 A 
ATOM     43  N   UNL     1       4.561  12.819 -12.140  1.00  0.00    -0.354 N 
ATOM     44  C   UNL     1       8.765  13.746 -11.634  1.00  0.00     0.074 A 
ATOM     45  C   UNL     1       9.537  12.539 -11.426  1.00  0.00     0.031 C 
ATOM     46  C   UNL     1       2.768  11.489 -12.267  1.00  0.00     0.029 A 
ATOM     47  C   UNL     1       3.194  12.885 -12.281  1.00  0.00     0.049 A 
ATOM     48  H   UNL     1       5.140  13.615 -12.132  1.00  0.00     0.167 HD
ATOM     49  C   UNL     1       9.291  14.996 -11.675  1.00  0.00     0.034 A 
ATOM     50  C   UNL     1       2.374  13.950 -12.394  1.00  0.00     0.034 A 
ATOM     51  C   UNL     1       8.505  16.187 -11.888  1.00  0.00     0.049 A 
ATOM     52  C   UNL     1       2.976  15.332 -12.393  1.00  0.00     0.074 A 
ATOM     53  C   UNL     1       8.938  17.497 -11.999  1.00  0.00     0.029 A 
ATOM     54  N   UNL     1       7.120  16.217 -12.008  1.00  0.00    -0.354 N 
ATOM     55  N   UNL     1       4.237  15.686 -12.286  1.00  0.00    -0.248 NA
ATOM     56  C   UNL     1       2.045  16.459 -12.537  1.00  0.00     0.031 C 
ATOM     57  C   UNL     1       7.814  18.323 -12.103  1.00  0.00     0.029 A 
ATOM     58  C   UNL     1       6.682  17.526 -12.151  1.00  0.00     0.049 A 
ATOM     59  H   UNL     1       6.535  15.425 -11.994  1.00  0.00     0.167 HD
ATOM     60  C   UNL     1       4.251  17.075 -12.382  1.00  0.00     0.074 A 
ATOM     61  C   UNL     1       2.876  17.490 -12.573  1.00  0.00     0.031 C 
ATOM     62  C   UNL     1       5.305  17.929 -12.325  1.00  0.00     0.034 A 
BRANCH  49  63
ATOM     63  C   UNL     1      10.780  15.131 -11.455  1.00  0.00     0.023 A 
ATOM     64  C   UNL     1      11.714  14.527 -12.317  1.00  0.00     0.031 A 
ATOM     65  C   UNL     1      11.277  15.846 -10.351  1.00  0.00     0.131 A 
ATOM     66  C   UNL     1      13.083  14.576 -12.014  1.00  0.00     0.055 A 
ATOM     67  C   UNL     1      12.646  15.969 -10.106  1.00  0.00     0.041 A 
ATOM     68  F   UNL     1      10.437  16.426  -9.478  1.00  0.00    -0.206 F 
ATOM     69  C   UNL     1      13.558  15.316 -10.930  1.00  0.00     0.022 A 
BRANCH  66  70
ATOM     70  S   UNL     1      14.216  13.522 -12.961  1.00  0.00     0.124 S 
ATOM     71  O   UNL     1      13.647  12.196 -12.729  1.00  0.00    -0.237 OA
ATOM     72  O   UNL     1      14.080  14.049 -14.313  1.00  0.00    -0.237 OA
ATOM     73  O   UNL     1      15.511  13.755 -12.326  1.00  0.00    -0.744 OA
ENDBRANCH  66  70
ENDBRANCH  49  63
BRANCH  50  74
ATOM     74  C   UNL     1       0.899  13.758 -12.505  1.00  0.00     0.023 A 
ATOM     75  C   UNL     1       0.203  14.155 -13.658  1.00  0.00     0.031 A 
ATOM     76  C   UNL     1       0.157  13.210 -11.444  1.00  0.00     0.131 A 
ATOM     77  C   UNL     1      -1.196  14.043 -13.704  1.00  0.00     0.055 A 
ATOM     78  C   UNL     1      -1.227  13.046 -11.518  1.00  0.00     0.041 A 
ATOM     79  F   UNL     1       0.772  12.813 -10.319  1.00  0.00    -0.206 F 
ATOM     80  C   UNL     1      -1.914  13.476 -12.649  1.00  0.00     0.022 A 
BRANCH  77  81
ATOM     81  S   UNL     1      -2.076  14.733 -15.132  1.00  0.00     0.124 S 
ATOM     82  O   UNL     1      -1.662  16.131 -15.088  1.00  0.00    -0.237 OA
ATOM     83  O   UNL     1      -1.539  13.938 -16.232  1.00  0.00    -0.237 OA
ATOM     84  O   UNL     1      -3.481  14.487 -14.816  1.00  0.00    -0.744 OA
ENDBRANCH  77  81
ENDBRANCH  50  74
BRANCH  62  85
ATOM     85  C   UNL     1       5.010  19.399 -12.514  1.00  0.00     0.023 A 
ATOM     86  C   UNL     1       4.241  20.127 -11.589  1.00  0.00     0.031 A 
ATOM     87  C   UNL     1       5.500  20.078 -13.644  1.00  0.00     0.131 A 
ATOM     88  C   UNL     1       3.934  21.473 -11.841  1.00  0.00     0.055 A 
ATOM     89  C   UNL     1       5.249  21.434 -13.854  1.00  0.00     0.041 A 
ATOM     90  F   UNL     1       6.236  19.433 -14.564  1.00  0.00    -0.206 F 
ATOM     91  C   UNL     1       4.450  22.136 -12.957  1.00  0.00     0.022 A 
BRANCH  88  92
ATOM     92  S   UNL     1       2.764  22.319 -10.743  1.00  0.00     0.124 S 
ATOM     93  O   UNL     1       1.578  21.477 -10.858  1.00  0.00    -0.237 OA
ATOM     94  O   UNL     1       3.454  22.277  -9.458  1.00  0.00    -0.237 OA
ATOM     95  O   UNL     1       2.639  23.650 -11.335  1.00  0.00    -0.744 OA
ENDBRANCH  88  92
ENDBRANCH  62  85
ENDBRANCH  36  37
ENDBRANCH  28  31
ENDBRANCH  26  27
ENDBRANCH  25  26
ENDBRANCH   1  25
TORSDOF 20
