REMARK SMILES C[C@H](Cc1ccco1)[NH2+]Cc1cc(C(=O)NCCCCCCNC(=O)c2ccc(-c3c4nc(c(-c5cc(S(=O)(=O)[O-])ccc5F)c5ccc([nH]5)c(-c5cc(S(=O)(=O)[O-])ccc5F)c5nc(c(-c6cc(S(=O)(=O)[O-])ccc6F)c6ccc3[nH]6)C=C5)C=C4)cc2)cs1
REMARK SMILES IDX 18 1 17 2 16 3 14 4 15 5 13 7 11 8 12 9 90 10 89 11 10 12
REMARK SMILES IDX 9 13 2 16 1 17 3 18 4 19 5 20 8 21 6 22 7 23 19 24 20 25
REMARK SMILES IDX 21 26 22 27 23 28 24 29 25 31 26 32 27 33 88 34 28 35 87 36
REMARK SMILES IDX 29 37 30 38 31 39 81 40 32 41 86 42 80 43 82 44 33 45 85 46
REMARK SMILES IDX 79 47 78 48 34 50 66 51 46 52 65 53 47 54 50 55 64 56 83 57
REMARK SMILES IDX 48 58 49 59 63 61 84 62 51 63 35 64 36 65 44 66 37 67 43 68
REMARK SMILES IDX 45 69 42 70 38 71 39 72 40 73 41 74 67 75 68 76 76 77 69 78
REMARK SMILES IDX 75 79 77 80 74 81 70 82 71 83 72 84 73 85 52 86 53 87 61 88
REMARK SMILES IDX 54 89 60 90 62 91 59 92 55 93 56 94 57 95 58 96
REMARK H PARENT 16 6 9 14 9 15 23 30 82 49 50 60
REMARK Flexibility Score: inf
ROOT
ATOM      1  C   UNL     1      -1.478   8.204   1.456  1.00  0.00     0.021 C 
ENDROOT
BRANCH   1   2
ATOM      2  C   UNL     1      -2.262   7.640   0.273  1.00  0.00     0.116 C 
BRANCH   2   3
ATOM      3  N   UNL     1      -1.557   7.922  -0.963  1.00  0.00    -0.352 N 
ATOM      4  C   UNL     1      -1.021   7.094  -1.914  1.00  0.00     0.252 C 
ATOM      5  O   UNL     1      -0.526   7.609  -2.913  1.00  0.00    -0.269 OA
ATOM      6  H   UNL     1      -1.442   8.882  -1.152  1.00  0.00     0.163 HD
BRANCH   4   7
ATOM      7  C   UNL     1      -1.131   5.646  -1.768  1.00  0.00     0.051 A 
ATOM      8  C   UNL     1      -1.407   3.518  -0.810  1.00  0.00     0.059 A 
ATOM      9  C   UNL     1      -1.081   4.840  -0.584  1.00  0.00     0.035 A 
ATOM     10  S   UNL     1      -1.593   3.208  -2.485  1.00  0.00    -0.142 S 
ATOM     11  C   UNL     1      -1.265   4.834  -2.880  1.00  0.00     0.079 A 
BRANCH   8  12
ATOM     12  C   UNL     1      -1.589   2.430   0.209  1.00  0.00     0.308 C 
BRANCH  12  13
ATOM     13  N   UNL     1      -0.823   1.230  -0.109  1.00  0.00    -0.339 N 
ATOM     14  H   UNL     1      -1.311   0.431   0.294  1.00  0.00     0.346 HD
ATOM     15  H   UNL     1      -0.757   1.206  -1.127  1.00  0.00     0.346 HD
BRANCH  13  16
ATOM     16  C   UNL     1       0.565   1.207   0.383  1.00  0.00     0.187 C 
ATOM     17  C   UNL     1       1.414   2.440   0.034  1.00  0.00     0.075 C 
BRANCH  16  18
ATOM     18  C   UNL     1       1.237  -0.110  -0.085  1.00  0.00     0.140 C 
BRANCH  18  19
ATOM     19  C   UNL     1       1.876  -0.007  -1.427  1.00  0.00     0.109 A 
ATOM     20  C   UNL     1       1.404   0.197  -2.708  1.00  0.00     0.046 A 
ATOM     21  O   UNL     1       3.240  -0.042  -1.436  1.00  0.00    -0.469 OA
ATOM     22  C   UNL     1       2.545   0.343  -3.534  1.00  0.00     0.042 A 
ATOM     23  C   UNL     1       3.636   0.178  -2.714  1.00  0.00     0.195 A 
ENDBRANCH  18  19
ENDBRANCH  16  18
ENDBRANCH  13  16
ENDBRANCH  12  13
ENDBRANCH   8  12
ENDBRANCH   4   7
ENDBRANCH   2   3
ENDBRANCH   1   2
BRANCH   1  24
ATOM     24  C   UNL     1      -1.681   9.715   1.624  1.00  0.00     0.002 C 
BRANCH  24  25
ATOM     25  C   UNL     1      -3.134  10.127   1.893  1.00  0.00     0.002 C 
BRANCH  25  26
ATOM     26  C   UNL     1      -3.778   9.436   3.099  1.00  0.00     0.021 C 
BRANCH  26  27
ATOM     27  C   UNL     1      -3.058   9.698   4.417  1.00  0.00     0.116 C 
BRANCH  27  28
ATOM     28  N   UNL     1      -3.045  11.116   4.732  1.00  0.00    -0.352 N 
ATOM     29  C   UNL     1      -3.510  11.763   5.846  1.00  0.00     0.251 C 
ATOM     30  H   UNL     1      -2.642  11.696   4.046  1.00  0.00     0.163 HD
ATOM     31  O   UNL     1      -3.685  12.978   5.807  1.00  0.00    -0.269 OA
BRANCH  29  32
ATOM     32  C   UNL     1      -3.800  11.002   7.079  1.00  0.00     0.039 A 
ATOM     33  C   UNL     1      -4.894  11.378   7.859  1.00  0.00     0.014 A 
ATOM     34  C   UNL     1      -2.970   9.954   7.493  1.00  0.00     0.014 A 
ATOM     35  C   UNL     1      -5.166  10.693   9.043  1.00  0.00     0.010 A 
ATOM     36  C   UNL     1      -3.294   9.215   8.627  1.00  0.00     0.010 A 
ATOM     37  C   UNL     1      -4.379   9.595   9.430  1.00  0.00    -0.014 A 
BRANCH  37  38
ATOM     38  C   UNL     1      -4.663   8.870  10.695  1.00  0.00     0.031 A 
ATOM     39  C   UNL     1      -3.653   8.874  11.812  1.00  0.00     0.074 A 
ATOM     40  C   UNL     1      -5.825   8.203  10.830  1.00  0.00     0.049 A 
ATOM     41  N   UNL     1      -3.722   8.314  12.993  1.00  0.00    -0.248 NA
ATOM     42  C   UNL     1      -2.385   9.576  11.557  1.00  0.00     0.031 C 
ATOM     43  C   UNL     1      -6.858   8.092   9.797  1.00  0.00     0.029 A 
ATOM     44  N   UNL     1      -6.339   7.500  11.889  1.00  0.00    -0.354 N 
ATOM     45  C   UNL     1      -2.510   8.591  13.617  1.00  0.00     0.074 A 
ATOM     46  C   UNL     1      -1.697   9.301  12.655  1.00  0.00     0.031 C 
ATOM     47  C   UNL     1      -7.899   7.404  10.290  1.00  0.00     0.029 A 
ATOM     48  C   UNL     1      -7.592   6.983  11.653  1.00  0.00     0.049 A 
ATOM     49  H   UNL     1      -5.857   7.377  12.739  1.00  0.00     0.167 HD
ATOM     50  C   UNL     1      -2.123   8.305  14.885  1.00  0.00     0.034 A 
ATOM     51  C   UNL     1      -8.401   6.253  12.445  1.00  0.00     0.034 A 
ATOM     52  C   UNL     1      -2.953   7.599  15.832  1.00  0.00     0.049 A 
ATOM     53  C   UNL     1      -7.941   5.932  13.845  1.00  0.00     0.074 A 
ATOM     54  C   UNL     1      -2.684   7.292  17.154  1.00  0.00     0.029 A 
ATOM     55  N   UNL     1      -4.213   7.080  15.555  1.00  0.00    -0.354 N 
ATOM     56  N   UNL     1      -6.814   6.250  14.441  1.00  0.00    -0.248 NA
ATOM     57  C   UNL     1      -8.873   5.171  14.684  1.00  0.00     0.031 C 
ATOM     58  C   UNL     1      -3.741   6.522  17.651  1.00  0.00     0.029 A 
ATOM     59  C   UNL     1      -4.716   6.428  16.671  1.00  0.00     0.049 A 
ATOM     60  H   UNL     1      -4.680   7.164  14.693  1.00  0.00     0.167 HD
ATOM     61  C   UNL     1      -6.919   5.756  15.739  1.00  0.00     0.074 A 
ATOM     62  C   UNL     1      -8.228   5.143  15.840  1.00  0.00     0.031 C 
ATOM     63  C   UNL     1      -6.018   5.804  16.755  1.00  0.00     0.034 A 
BRANCH  50  64
ATOM     64  C   UNL     1      -0.733   8.731  15.302  1.00  0.00     0.023 A 
ATOM     65  C   UNL     1      -0.342  10.082  15.309  1.00  0.00     0.031 A 
ATOM     66  C   UNL     1       0.227   7.771  15.670  1.00  0.00     0.131 A 
ATOM     67  C   UNL     1       0.989  10.428  15.592  1.00  0.00     0.055 A 
ATOM     68  C   UNL     1       1.525   8.130  16.040  1.00  0.00     0.041 A 
ATOM     69  F   UNL     1      -0.075   6.463  15.661  1.00  0.00    -0.206 F 
ATOM     70  C   UNL     1       1.918   9.463  15.987  1.00  0.00     0.022 A 
BRANCH  67  71
ATOM     71  S   UNL     1       1.526  12.133  15.282  1.00  0.00     0.124 S 
ATOM     72  O   UNL     1       1.220  12.284  13.861  1.00  0.00    -0.237 OA
ATOM     73  O   UNL     1       0.694  12.899  16.201  1.00  0.00    -0.237 OA
ATOM     74  O   UNL     1       2.952  12.107  15.604  1.00  0.00    -0.744 OA
ENDBRANCH  67  71
ENDBRANCH  50  64
BRANCH  51  75
ATOM     75  C   UNL     1      -9.722   5.775  11.944  1.00  0.00     0.023 A 
ATOM     76  C   UNL     1     -10.922   6.195  12.540  1.00  0.00     0.031 A 
ATOM     77  C   UNL     1      -9.802   4.853  10.885  1.00  0.00     0.131 A 
ATOM     78  C   UNL     1     -12.144   5.654  12.111  1.00  0.00     0.055 A 
ATOM     79  C   UNL     1     -11.024   4.364  10.421  1.00  0.00     0.041 A 
ATOM     80  F   UNL     1      -8.686   4.421  10.275  1.00  0.00    -0.206 F 
ATOM     81  C   UNL     1     -12.204   4.753  11.045  1.00  0.00     0.022 A 
BRANCH  78  82
ATOM     82  S   UNL     1     -13.650   6.071  13.031  1.00  0.00     0.124 S 
ATOM     83  O   UNL     1     -13.308   5.626  14.377  1.00  0.00    -0.237 OA
ATOM     84  O   UNL     1     -13.736   7.514  12.834  1.00  0.00    -0.237 OA
ATOM     85  O   UNL     1     -14.686   5.289  12.359  1.00  0.00    -0.744 OA
ENDBRANCH  78  82
ENDBRANCH  51  75
BRANCH  63  86
ATOM     86  C   UNL     1      -6.449   5.213  18.078  1.00  0.00     0.023 A 
ATOM     87  C   UNL     1      -6.756   3.848  18.216  1.00  0.00     0.031 A 
ATOM     88  C   UNL     1      -6.599   6.038  19.207  1.00  0.00     0.131 A 
ATOM     89  C   UNL     1      -7.279   3.367  19.425  1.00  0.00     0.055 A 
ATOM     90  C   UNL     1      -7.042   5.537  20.432  1.00  0.00     0.041 A 
ATOM     91  F   UNL     1      -6.326   7.351  19.137  1.00  0.00    -0.206 F 
ATOM     92  C   UNL     1      -7.406   4.199  20.540  1.00  0.00     0.022 A 
BRANCH  89  93
ATOM     93  S   UNL     1      -7.931   1.675  19.476  1.00  0.00     0.124 S 
ATOM     94  O   UNL     1      -8.901   1.692  18.385  1.00  0.00    -0.237 OA
ATOM     95  O   UNL     1      -6.733   0.873  19.250  1.00  0.00    -0.237 OA
ATOM     96  O   UNL     1      -8.506   1.569  20.816  1.00  0.00    -0.744 OA
ENDBRANCH  89  93
ENDBRANCH  63  86
ENDBRANCH  37  38
ENDBRANCH  29  32
ENDBRANCH  27  28
ENDBRANCH  26  27
ENDBRANCH  25  26
ENDBRANCH  24  25
ENDBRANCH   1  24
TORSDOF 21
