REMARK SMILES CC(C)C[C@H](CNC(=O)N[C@@H](C)c1ccsc1)C(=O)NCCCCCCNC(=O)c1ccc(-c2c3nc(c(-c4cc(S(=O)(=O)[O-])ccc4F)c4ccc([nH]4)c(-c4cc(S(=O)(=O)[O-])ccc4F)c4nc(c(-c5cc(S(=O)(=O)[O-])ccc5F)c5ccc2[nH]5)C=C4)C=C3)cc1
REMARK SMILES IDX 23 1 22 2 21 3 20 4 18 5 19 6 5 8 4 9 2 10 1 11 3 12 6 13
REMARK SMILES IDX 7 14 8 15 9 17 10 18 11 20 12 21 13 22 14 23 17 24 15 25
REMARK SMILES IDX 16 26 24 27 25 28 26 29 27 30 28 31 29 33 30 34 31 35 92 36
REMARK SMILES IDX 32 37 91 38 33 39 34 40 35 41 85 42 36 43 90 44 84 45 86 46
REMARK SMILES IDX 37 47 89 48 83 49 82 50 38 52 70 53 50 54 69 55 51 56 54 57
REMARK SMILES IDX 68 58 87 59 52 60 53 61 67 63 88 64 55 65 39 66 40 67 48 68
REMARK SMILES IDX 41 69 47 70 49 71 46 72 42 73 43 74 44 75 45 76 71 77 72 78
REMARK SMILES IDX 80 79 73 80 79 81 81 82 78 83 74 84 75 85 76 86 77 87 56 88
REMARK SMILES IDX 57 89 65 90 58 91 64 92 66 93 63 94 59 95 60 96 61 97 62 98
REMARK H PARENT 20 7 7 16 10 19 27 32 86 51 54 62
REMARK Flexibility Score: inf
ROOT
ATOM      1  C   UNL     1      -5.823   2.841  -3.207  1.00  0.00     0.002 C 
ENDROOT
BRANCH   1   2
ATOM      2  C   UNL     1      -4.381   2.339  -3.086  1.00  0.00     0.021 C 
BRANCH   2   3
ATOM      3  C   UNL     1      -3.727   2.727  -1.773  1.00  0.00     0.116 C 
BRANCH   3   4
ATOM      4  N   UNL     1      -4.035   1.827  -0.691  1.00  0.00    -0.356 N 
ATOM      5  C   UNL     1      -3.228   1.370   0.296  1.00  0.00     0.224 C 
ATOM      6  O   UNL     1      -3.774   0.792   1.243  1.00  0.00    -0.275 OA
ATOM      7  H   UNL     1      -4.963   1.498  -0.665  1.00  0.00     0.163 HD
BRANCH   5   8
ATOM      8  C   UNL     1      -1.705   1.488   0.253  1.00  0.00     0.098 C 
BRANCH   8   9
ATOM      9  C   UNL     1      -1.049   2.815   0.718  1.00  0.00     0.018 C 
BRANCH   9  10
ATOM     10  C   UNL     1      -1.044   4.093  -0.144  1.00  0.00    -0.017 C 
ATOM     11  C   UNL     1      -2.320   4.931  -0.009  1.00  0.00     0.007 C 
ATOM     12  C   UNL     1       0.127   5.004   0.256  1.00  0.00     0.007 C 
ENDBRANCH   9  10
ENDBRANCH   8   9
BRANCH   8  13
ATOM     13  C   UNL     1      -1.033   0.614  -0.830  1.00  0.00     0.131 C 
BRANCH  13  14
ATOM     14  N   UNL     1      -1.190   0.955  -2.231  1.00  0.00    -0.337 N 
ATOM     15  C   UNL     1      -0.590   1.791  -3.086  1.00  0.00     0.315 C 
ATOM     16  H   UNL     1      -1.917   0.446  -2.658  1.00  0.00     0.165 HD
ATOM     17  O   UNL     1      -1.191   2.076  -4.123  1.00  0.00    -0.249 OA
ATOM     18  N   UNL     1       0.589   2.373  -2.851  1.00  0.00    -0.332 N 
ATOM     19  H   UNL     1       0.659   3.309  -3.150  1.00  0.00     0.165 HD
BRANCH  18  20
ATOM     20  C   UNL     1       1.778   1.837  -2.223  1.00  0.00     0.112 C 
ATOM     21  C   UNL     1       2.597   1.043  -3.236  1.00  0.00     0.036 C 
BRANCH  20  22
ATOM     22  C   UNL     1       2.575   2.954  -1.600  1.00  0.00    -0.015 A 
ATOM     23  C   UNL     1       2.859   4.237  -2.186  1.00  0.00     0.017 A 
ATOM     24  C   UNL     1       3.159   2.863  -0.347  1.00  0.00     0.070 A 
ATOM     25  C   UNL     1       3.616   5.045  -1.364  1.00  0.00     0.065 A 
ATOM     26  S   UNL     1       4.034   4.264   0.096  1.00  0.00    -0.152 S 
ENDBRANCH  20  22
ENDBRANCH  18  20
ENDBRANCH  13  14
ENDBRANCH   8  13
ENDBRANCH   5   8
ENDBRANCH   3   4
ENDBRANCH   2   3
ENDBRANCH   1   2
BRANCH   1  27
ATOM     27  C   UNL     1      -6.016   4.348  -2.973  1.00  0.00     0.002 C 
BRANCH  27  28
ATOM     28  C   UNL     1      -5.068   5.263  -3.755  1.00  0.00     0.021 C 
BRANCH  28  29
ATOM     29  C   UNL     1      -5.078   5.042  -5.263  1.00  0.00     0.116 C 
BRANCH  29  30
ATOM     30  N   UNL     1      -6.418   5.161  -5.813  1.00  0.00    -0.352 N 
ATOM     31  C   UNL     1      -6.873   5.984  -6.808  1.00  0.00     0.251 C 
ATOM     32  H   UNL     1      -7.094   4.567  -5.414  1.00  0.00     0.163 HD
ATOM     33  O   UNL     1      -8.083   6.123  -6.986  1.00  0.00    -0.269 OA
BRANCH  31  34
ATOM     34  C   UNL     1      -5.902   6.710  -7.648  1.00  0.00     0.039 A 
ATOM     35  C   UNL     1      -6.111   8.064  -7.915  1.00  0.00     0.014 A 
ATOM     36  C   UNL     1      -4.783   6.050  -8.165  1.00  0.00     0.014 A 
ATOM     37  C   UNL     1      -5.168   8.771  -8.663  1.00  0.00     0.010 A 
ATOM     38  C   UNL     1      -3.809   6.773  -8.845  1.00  0.00     0.010 A 
ATOM     39  C   UNL     1      -3.996   8.139  -9.108  1.00  0.00    -0.014 A 
BRANCH  39  40
ATOM     40  C   UNL     1      -2.957   8.876  -9.873  1.00  0.00     0.031 A 
ATOM     41  C   UNL     1      -2.649   8.467 -11.289  1.00  0.00     0.074 A 
ATOM     42  C   UNL     1      -2.251   9.856  -9.274  1.00  0.00     0.049 A 
ATOM     43  N   UNL     1      -1.708   8.898 -12.087  1.00  0.00    -0.248 NA
ATOM     44  C   UNL     1      -3.496   7.415 -11.875  1.00  0.00     0.031 C 
ATOM     45  C   UNL     1      -2.449  10.322  -7.899  1.00  0.00     0.029 A 
ATOM     46  N   UNL     1      -1.214  10.627  -9.735  1.00  0.00    -0.354 N 
ATOM     47  C   UNL     1      -1.831   8.154 -13.255  1.00  0.00     0.074 A 
ATOM     48  C   UNL     1      -2.911   7.215 -13.047  1.00  0.00     0.031 C 
ATOM     49  C   UNL     1      -1.576  11.308  -7.638  1.00  0.00     0.029 A 
ATOM     50  C   UNL     1      -0.716  11.507  -8.800  1.00  0.00     0.049 A 
ATOM     51  H   UNL     1      -0.858  10.558 -10.651  1.00  0.00     0.167 HD
ATOM     52  C   UNL     1      -1.115   8.257 -14.401  1.00  0.00     0.034 A 
ATOM     53  C   UNL     1       0.328  12.358  -8.866  1.00  0.00     0.034 A 
ATOM     54  C   UNL     1      -0.060   9.219 -14.600  1.00  0.00     0.049 A 
ATOM     55  C   UNL     1       1.128  12.426 -10.147  1.00  0.00     0.074 A 
ATOM     56  C   UNL     1       0.679   9.456 -15.745  1.00  0.00     0.029 A 
ATOM     57  N   UNL     1       0.412  10.095 -13.632  1.00  0.00    -0.354 N 
ATOM     58  N   UNL     1       0.960  11.754 -11.263  1.00  0.00    -0.248 NA
ATOM     59  C   UNL     1       2.252  13.372 -10.182  1.00  0.00     0.031 C 
ATOM     60  C   UNL     1       1.652  10.414 -15.447  1.00  0.00     0.029 A 
ATOM     61  C   UNL     1       1.459  10.845 -14.144  1.00  0.00     0.049 A 
ATOM     62  H   UNL     1       0.057  10.172 -12.717  1.00  0.00     0.167 HD
ATOM     63  C   UNL     1       1.925  12.235 -12.144  1.00  0.00     0.074 A 
ATOM     64  C   UNL     1       2.664  13.257 -11.435  1.00  0.00     0.031 C 
ATOM     65  C   UNL     1       2.176  11.871 -13.427  1.00  0.00     0.034 A 
BRANCH  52  66
ATOM     66  C   UNL     1      -1.419   7.289 -15.518  1.00  0.00     0.023 A 
ATOM     67  C   UNL     1      -2.651   7.291 -16.191  1.00  0.00     0.031 A 
ATOM     68  C   UNL     1      -0.441   6.367 -15.933  1.00  0.00     0.131 A 
ATOM     69  C   UNL     1      -2.890   6.361 -17.214  1.00  0.00     0.055 A 
ATOM     70  C   UNL     1      -0.658   5.494 -17.000  1.00  0.00     0.041 A 
ATOM     71  F   UNL     1       0.747   6.303 -15.310  1.00  0.00    -0.206 F 
ATOM     72  C   UNL     1      -1.892   5.482 -17.642  1.00  0.00     0.022 A 
BRANCH  69  73
ATOM     73  S   UNL     1      -4.560   6.244 -17.912  1.00  0.00     0.124 S 
ATOM     74  O   UNL     1      -5.347   5.885 -16.734  1.00  0.00    -0.237 OA
ATOM     75  O   UNL     1      -4.777   7.586 -18.440  1.00  0.00    -0.237 OA
ATOM     76  O   UNL     1      -4.439   5.190 -18.917  1.00  0.00    -0.744 OA
ENDBRANCH  69  73
ENDBRANCH  52  66
BRANCH  53  77
ATOM     77  C   UNL     1       0.713  13.200  -7.692  1.00  0.00     0.023 A 
ATOM     78  C   UNL     1       0.731  14.600  -7.787  1.00  0.00     0.031 A 
ATOM     79  C   UNL     1       1.160  12.619  -6.492  1.00  0.00     0.131 A 
ATOM     80  C   UNL     1       1.263  15.368  -6.739  1.00  0.00     0.055 A 
ATOM     81  C   UNL     1       1.617  13.391  -5.422  1.00  0.00     0.041 A 
ATOM     82  F   UNL     1       1.167  11.285  -6.342  1.00  0.00    -0.206 F 
ATOM     83  C   UNL     1       1.692  14.774  -5.551  1.00  0.00     0.022 A 
BRANCH  80  84
ATOM     84  S   UNL     1       1.528  17.141  -7.016  1.00  0.00     0.124 S 
ATOM     85  O   UNL     1       2.345  17.131  -8.225  1.00  0.00    -0.237 OA
ATOM     86  O   UNL     1       0.163  17.631  -7.167  1.00  0.00    -0.237 OA
ATOM     87  O   UNL     1       2.216  17.575  -5.802  1.00  0.00    -0.744 OA
ENDBRANCH  80  84
ENDBRANCH  53  77
BRANCH  65  88
ATOM     88  C   UNL     1       3.242  12.637 -14.171  1.00  0.00     0.023 A 
ATOM     89  C   UNL     1       4.600  12.564 -13.818  1.00  0.00     0.031 A 
ATOM     90  C   UNL     1       2.886  13.445 -15.267  1.00  0.00     0.131 A 
ATOM     91  C   UNL     1       5.546  13.323 -14.523  1.00  0.00     0.055 A 
ATOM     92  C   UNL     1       3.839  14.146 -16.005  1.00  0.00     0.041 A 
ATOM     93  F   UNL     1       1.602  13.554 -15.647  1.00  0.00    -0.206 F 
ATOM     94  C   UNL     1       5.177  14.097 -15.627  1.00  0.00     0.022 A 
BRANCH  91  95
ATOM     95  S   UNL     1       7.259  13.352 -13.928  1.00  0.00     0.124 S 
ATOM     96  O   UNL     1       7.102  13.871 -12.574  1.00  0.00    -0.237 OA
ATOM     97  O   UNL     1       7.650  11.950 -14.032  1.00  0.00    -0.237 OA
ATOM     98  O   UNL     1       7.932  14.253 -14.863  1.00  0.00    -0.744 OA
ENDBRANCH  91  95
ENDBRANCH  65  88
ENDBRANCH  39  40
ENDBRANCH  31  34
ENDBRANCH  29  30
ENDBRANCH  28  29
ENDBRANCH  27  28
ENDBRANCH   1  27
TORSDOF 22
