REMARK SMILES Cc1ccc(NC(=O)C[C@H]2C(=O)NCCN2C(=O)CCC(=O)NCCCCCCNC(=O)c2ccc(-c3c4nc(c(-c5cc(S(=O)(=O)[O-])ccc5F)c5ccc([nH]5)c(-c5cc(S(=O)(=O)[O-])ccc5F)c5nc(c(-c6cc(S(=O)(=O)[O-])ccc6F)c6ccc3[nH]6)C=C5)C=C4)cc2)c(C)c1
REMARK SMILES IDX 25 1 24 2 23 3 21 4 22 5 20 7 19 8 17 9 18 10 16 11 10 12
REMARK SMILES IDX 11 13 12 14 13 15 15 16 14 17 9 19 7 20 6 21 8 23 5 24 1 25
REMARK SMILES IDX 2 26 3 27 98 28 4 29 96 30 97 31 26 32 27 33 28 34 29 35
REMARK SMILES IDX 30 36 31 37 32 39 33 40 34 41 95 42 35 43 94 44 36 45 37 46
REMARK SMILES IDX 38 47 88 48 39 49 93 50 87 51 89 52 40 53 92 54 86 55 85 56
REMARK SMILES IDX 41 58 73 59 53 60 72 61 54 62 57 63 71 64 90 65 55 66 56 67
REMARK SMILES IDX 70 69 91 70 58 71 42 72 43 73 51 74 44 75 50 76 52 77 49 78
REMARK SMILES IDX 45 79 46 80 47 81 48 82 74 83 75 84 83 85 76 86 82 87 84 88
REMARK SMILES IDX 81 89 77 90 78 91 79 92 80 93 59 94 60 95 68 96 61 97 67 98
REMARK SMILES IDX 69 99 66 100 62 101 63 102 64 103 65 104
REMARK H PARENT 23 6 13 18 6 22 30 38 89 57 57 68
REMARK Flexibility Score: inf
ROOT
ATOM      1  C   UNL     1      -2.998   3.584   2.200  1.00  0.00     0.021 C 
ENDROOT
BRANCH   1   2
ATOM      2  C   UNL     1      -3.426   3.213   0.712  1.00  0.00     0.116 C 
BRANCH   2   3
ATOM      3  N   UNL     1      -2.741   2.177  -0.072  1.00  0.00    -0.356 N 
ATOM      4  C   UNL     1      -2.977   1.444  -1.197  1.00  0.00     0.220 C 
ATOM      5  O   UNL     1      -2.073   0.756  -1.681  1.00  0.00    -0.275 OA
ATOM      6  H   UNL     1      -1.870   1.948   0.325  1.00  0.00     0.163 HD
BRANCH   4   7
ATOM      7  C   UNL     1      -4.336   1.308  -1.765  1.00  0.00     0.110 C 
BRANCH   7   8
ATOM      8  C   UNL     1      -5.043   0.262  -0.930  1.00  0.00     0.110 C 
BRANCH   8   9
ATOM      9  C   UNL     1      -5.436   0.912   0.353  1.00  0.00     0.223 C 
ATOM     10  O   UNL     1      -6.432   1.653   0.301  1.00  0.00    -0.275 OA
BRANCH   9  11
ATOM     11  N   UNL     1      -4.677   0.781   1.529  1.00  0.00    -0.328 N 
ATOM     12  C   UNL     1      -3.393  -0.057   1.799  1.00  0.00     0.183 C 
ATOM     13  C   UNL     1      -3.498  -0.796   3.170  1.00  0.00     0.243 C 
ATOM     14  O   UNL     1      -2.778  -1.752   3.458  1.00  0.00    -0.273 OA
ATOM     15  N   UNL     1      -4.423  -0.402   4.095  1.00  0.00    -0.353 N 
ATOM     16  C   UNL     1      -5.473   1.319   2.655  1.00  0.00     0.141 C 
ATOM     17  C   UNL     1      -5.251   0.767   4.041  1.00  0.00     0.137 C 
ATOM     18  H   UNL     1      -4.532  -0.982   4.882  1.00  0.00     0.163 HD
BRANCH  12  19
ATOM     19  C   UNL     1      -1.745   0.174   1.333  1.00  0.00     0.135 C 
BRANCH  19  20
ATOM     20  C   UNL     1      -0.455   1.194   1.637  1.00  0.00     0.227 C 
ATOM     21  N   UNL     1       0.016   2.421   1.170  1.00  0.00    -0.326 N 
ATOM     22  H   UNL     1       0.842   2.624   1.666  1.00  0.00     0.169 HD
ATOM     23  O   UNL     1       0.318   0.772   2.530  1.00  0.00    -0.275 OA
BRANCH  21  24
ATOM     24  C   UNL     1      -0.213   3.515   0.258  1.00  0.00     0.044 A 
ATOM     25  C   UNL     1      -2.777   6.316  -1.714  1.00  0.00     0.044 C 
ATOM     26  C   UNL     1      -1.609   5.545  -1.153  1.00  0.00    -0.051 A 
ATOM     27  C   UNL     1      -1.143   5.783   0.139  1.00  0.00     0.005 A 
ATOM     28  C   UNL     1      -1.103   4.425  -1.819  1.00  0.00     0.009 A 
ATOM     29  C   UNL     1      -0.399   4.793   0.819  1.00  0.00     0.026 A 
ATOM     30  C   UNL     1      -0.366   3.426  -1.130  1.00  0.00    -0.027 A 
ATOM     31  C   UNL     1       0.300   2.354  -1.936  1.00  0.00     0.046 C 
ENDBRANCH  21  24
ENDBRANCH  19  20
ENDBRANCH  12  19
ENDBRANCH   9  11
ENDBRANCH   8   9
ENDBRANCH   7   8
ENDBRANCH   4   7
ENDBRANCH   2   3
ENDBRANCH   1   2
BRANCH   1  32
ATOM     32  C   UNL     1      -2.488   2.651   3.324  1.00  0.00     0.002 C 
BRANCH  32  33
ATOM     33  C   UNL     1      -1.268   3.093   4.163  1.00  0.00     0.002 C 
BRANCH  33  34
ATOM     34  C   UNL     1      -1.443   4.385   4.940  1.00  0.00     0.021 C 
BRANCH  34  35
ATOM     35  C   UNL     1      -2.682   4.415   5.815  1.00  0.00     0.116 C 
BRANCH  35  36
ATOM     36  N   UNL     1      -2.648   3.438   6.895  1.00  0.00    -0.352 N 
ATOM     37  C   UNL     1      -2.756   3.657   8.258  1.00  0.00     0.251 C 
ATOM     38  H   UNL     1      -2.534   2.500   6.621  1.00  0.00     0.163 HD
ATOM     39  O   UNL     1      -2.596   2.761   9.053  1.00  0.00    -0.269 OA
BRANCH  37  40
ATOM     40  C   UNL     1      -3.028   5.043   8.706  1.00  0.00     0.039 A 
ATOM     41  C   UNL     1      -2.152   5.648   9.607  1.00  0.00     0.014 A 
ATOM     42  C   UNL     1      -4.068   5.769   8.121  1.00  0.00     0.014 A 
ATOM     43  C   UNL     1      -2.266   7.018   9.851  1.00  0.00     0.010 A 
ATOM     44  C   UNL     1      -4.107   7.147   8.279  1.00  0.00     0.010 A 
ATOM     45  C   UNL     1      -3.209   7.787   9.148  1.00  0.00    -0.014 A 
BRANCH  45  46
ATOM     46  C   UNL     1      -3.292   9.261   9.313  1.00  0.00     0.031 A 
ATOM     47  C   UNL     1      -4.568   9.877   9.821  1.00  0.00     0.074 A 
ATOM     48  C   UNL     1      -2.262  10.042   8.931  1.00  0.00     0.049 A 
ATOM     49  N   UNL     1      -4.889  11.138   9.944  1.00  0.00    -0.248 NA
ATOM     50  C   UNL     1      -5.644   8.945  10.193  1.00  0.00     0.031 C 
ATOM     51  C   UNL     1      -0.999   9.564   8.361  1.00  0.00     0.029 A 
ATOM     52  N   UNL     1      -2.115  11.406   8.956  1.00  0.00    -0.354 N 
ATOM     53  C   UNL     1      -6.209  11.149  10.381  1.00  0.00     0.074 A 
ATOM     54  C   UNL     1      -6.649   9.772  10.424  1.00  0.00     0.031 C 
ATOM     55  C   UNL     1      -0.197  10.615   8.123  1.00  0.00     0.029 A 
ATOM     56  C   UNL     1      -0.898  11.843   8.483  1.00  0.00     0.049 A 
ATOM     57  H   UNL     1      -2.815  12.017   9.281  1.00  0.00     0.167 HD
ATOM     58  C   UNL     1      -6.974  12.208  10.746  1.00  0.00     0.034 A 
ATOM     59  C   UNL     1      -0.407  13.091   8.355  1.00  0.00     0.034 A 
ATOM     60  C   UNL     1      -6.504  13.570  10.730  1.00  0.00     0.049 A 
ATOM     61  C   UNL     1      -1.263  14.253   8.793  1.00  0.00     0.074 A 
ATOM     62  C   UNL     1      -7.163  14.716  11.139  1.00  0.00     0.029 A 
ATOM     63  N   UNL     1      -5.251  13.971  10.283  1.00  0.00    -0.354 N 
ATOM     64  N   UNL     1      -2.491  14.244   9.259  1.00  0.00    -0.248 NA
ATOM     65  C   UNL     1      -0.662  15.589   8.701  1.00  0.00     0.031 C 
ATOM     66  C   UNL     1      -6.330  15.813  10.888  1.00  0.00     0.029 A 
ATOM     67  C   UNL     1      -5.125  15.347  10.386  1.00  0.00     0.049 A 
ATOM     68  H   UNL     1      -4.553  13.365   9.942  1.00  0.00     0.167 HD
ATOM     69  C   UNL     1      -2.797  15.571   9.545  1.00  0.00     0.074 A 
ATOM     70  C   UNL     1      -1.620  16.348   9.212  1.00  0.00     0.031 C 
ATOM     71  C   UNL     1      -3.944  16.102  10.041  1.00  0.00     0.034 A 
BRANCH  58  72
ATOM     72  C   UNL     1      -8.393  11.919  11.176  1.00  0.00     0.023 A 
ATOM     73  C   UNL     1      -8.675  11.114  12.294  1.00  0.00     0.031 A 
ATOM     74  C   UNL     1      -9.479  12.411  10.431  1.00  0.00     0.131 A 
ATOM     75  C   UNL     1      -9.999  10.747  12.578  1.00  0.00     0.055 A 
ATOM     76  C   UNL     1     -10.800  12.117  10.774  1.00  0.00     0.041 A 
ATOM     77  F   UNL     1      -9.274  13.168   9.341  1.00  0.00    -0.206 F 
ATOM     78  C   UNL     1     -11.066  11.264  11.842  1.00  0.00     0.022 A 
BRANCH  75  79
ATOM     79  S   UNL     1     -10.289   9.458  13.820  1.00  0.00     0.124 S 
ATOM     80  O   UNL     1      -9.563   8.328  13.245  1.00  0.00    -0.237 OA
ATOM     81  O   UNL     1      -9.712  10.043  15.024  1.00  0.00    -0.237 OA
ATOM     82  O   UNL     1     -11.743   9.313  13.831  1.00  0.00    -0.744 OA
ENDBRANCH  75  79
ENDBRANCH  58  72
BRANCH  59  83
ATOM     83  C   UNL     1       0.960  13.316   7.804  1.00  0.00     0.023 A 
ATOM     84  C   UNL     1       1.984  13.842   8.608  1.00  0.00     0.031 A 
ATOM     85  C   UNL     1       1.254  13.041   6.457  1.00  0.00     0.131 A 
ATOM     86  C   UNL     1       3.241  14.120   8.048  1.00  0.00     0.055 A 
ATOM     87  C   UNL     1       2.520  13.276   5.916  1.00  0.00     0.041 A 
ATOM     88  F   UNL     1       0.314  12.528   5.648  1.00  0.00    -0.206 F 
ATOM     89  C   UNL     1       3.519  13.831   6.711  1.00  0.00     0.022 A 
BRANCH  86  90
ATOM     90  S   UNL     1       4.489  14.940   9.079  1.00  0.00     0.124 S 
ATOM     91  O   UNL     1       3.796  16.163   9.468  1.00  0.00    -0.237 OA
ATOM     92  O   UNL     1       4.699  13.957  10.136  1.00  0.00    -0.237 OA
ATOM     93  O   UNL     1       5.616  15.123   8.167  1.00  0.00    -0.744 OA
ENDBRANCH  86  90
ENDBRANCH  59  83
BRANCH  71  94
ATOM     94  C   UNL     1      -3.954  17.588  10.292  1.00  0.00     0.023 A 
ATOM     95  C   UNL     1      -3.908  18.515   9.237  1.00  0.00     0.031 A 
ATOM     96  C   UNL     1      -3.997  18.081  11.608  1.00  0.00     0.131 A 
ATOM     97  C   UNL     1      -3.850  19.888   9.518  1.00  0.00     0.055 A 
ATOM     98  C   UNL     1      -3.997  19.449  11.879  1.00  0.00     0.041 A 
ATOM     99  F   UNL     1      -4.041  17.237  12.652  1.00  0.00    -0.206 F 
ATOM    100  C   UNL     1      -3.910  20.361  10.831  1.00  0.00     0.022 A 
BRANCH  97 101
ATOM    101  S   UNL     1      -3.606  21.046   8.144  1.00  0.00     0.124 S 
ATOM    102  O   UNL     1      -2.348  20.578   7.572  1.00  0.00    -0.237 OA
ATOM    103  O   UNL     1      -4.797  20.823   7.332  1.00  0.00    -0.237 OA
ATOM    104  O   UNL     1      -3.541  22.350   8.802  1.00  0.00    -0.744 OA
ENDBRANCH  97 101
ENDBRANCH  71  94
ENDBRANCH  45  46
ENDBRANCH  37  40
ENDBRANCH  35  36
ENDBRANCH  34  35
ENDBRANCH  33  34
ENDBRANCH  32  33
ENDBRANCH   1  32
TORSDOF 22
