REMARK SMILES C[NH+]1CCC(NC(=O)N[C@@H]2C=C[C@H](C(=O)NCCCCCCNC(=O)c3ccc(-c4c5nc(c(-c6cc(S(=O)(=O)[O-])ccc6F)c6ccc([nH]6)c(-c6cc(S(=O)(=O)[O-])ccc6F)c6nc(c(-c7cc(S(=O)(=O)[O-])ccc7F)c7ccc4[nH]7)C=C6)C=C5)cc3)C2)CC1
REMARK SMILES IDX 20 1 19 2 18 3 17 4 16 5 14 6 15 7 13 9 10 10 11 11 89 12
REMARK SMILES IDX 12 13 9 14 6 15 7 16 8 18 5 20 1 21 2 22 3 23 91 24 4 26
REMARK SMILES IDX 90 27 21 28 22 29 23 30 24 31 25 33 26 34 27 35 88 36 28 37
REMARK SMILES IDX 87 38 29 39 30 40 31 41 81 42 32 43 86 44 80 45 82 46 33 47
REMARK SMILES IDX 85 48 79 49 78 50 34 52 66 53 46 54 65 55 47 56 50 57 64 58
REMARK SMILES IDX 83 59 48 60 49 61 63 63 84 64 51 65 35 66 36 67 44 68 37 69
REMARK SMILES IDX 43 70 45 71 42 72 38 73 39 74 40 75 41 76 67 77 68 78 76 79
REMARK SMILES IDX 69 80 75 81 77 82 74 83 70 84 71 85 72 86 73 87 52 88 53 89
REMARK SMILES IDX 61 90 54 91 60 92 62 93 59 94 55 95 56 96 57 97 58 98
REMARK H PARENT 16 8 6 17 9 19 2 25 23 32 82 51 50 62
REMARK Flexibility Score: inf
ROOT
ATOM      1  C   UNL     1      -5.205   1.901  -0.543  1.00  0.00     0.002 C 
ENDROOT
BRANCH   1   2
ATOM      2  C   UNL     1      -4.032   2.858  -0.782  1.00  0.00     0.002 C 
BRANCH   2   3
ATOM      3  C   UNL     1      -2.715   2.431  -0.120  1.00  0.00     0.021 C 
BRANCH   3   4
ATOM      4  C   UNL     1      -2.299   1.003  -0.469  1.00  0.00     0.116 C 
BRANCH   4   5
ATOM      5  N   UNL     1      -2.071   0.875  -1.895  1.00  0.00    -0.356 N 
ATOM      6  C   UNL     1      -0.890   0.904  -2.575  1.00  0.00     0.227 C 
ATOM      7  O   UNL     1      -0.913   0.902  -3.806  1.00  0.00    -0.274 OA
ATOM      8  H   UNL     1      -2.878   0.750  -2.446  1.00  0.00     0.163 HD
BRANCH   6   9
ATOM      9  C   UNL     1       0.400   0.859  -1.770  1.00  0.00     0.103 C 
ATOM     10  C   UNL     1       2.632   0.454  -2.714  1.00  0.00     0.107 C 
ATOM     11  C   UNL     1       2.001  -0.800  -2.202  1.00  0.00    -0.006 C 
ATOM     12  C   UNL     1       1.565   1.530  -2.505  1.00  0.00     0.047 C 
ATOM     13  C   UNL     1       0.804  -0.579  -1.659  1.00  0.00    -0.016 C 
BRANCH  10  14
ATOM     14  N   UNL     1       3.016   0.252  -4.089  1.00  0.00    -0.332 N 
ATOM     15  N   UNL     1       5.208  -0.648  -3.981  1.00  0.00    -0.335 N 
ATOM     16  C   UNL     1       4.138  -0.205  -4.672  1.00  0.00     0.315 C 
ATOM     17  H   UNL     1       5.956  -0.946  -4.548  1.00  0.00     0.165 HD
ATOM     18  O   UNL     1       4.194  -0.229  -5.903  1.00  0.00    -0.249 OA
ATOM     19  H   UNL     1       2.313   0.500  -4.732  1.00  0.00     0.165 HD
BRANCH  15  20
ATOM     20  C   UNL     1       5.461  -0.766  -2.559  1.00  0.00     0.095 C 
ATOM     21  C   UNL     1       6.621  -0.978   1.470  1.00  0.00     0.332 C 
ATOM     22  N   UNL     1       6.767  -0.916   0.011  1.00  0.00    -0.337 N 
ATOM     23  C   UNL     1       6.211   0.357  -0.478  1.00  0.00     0.264 C 
ATOM     24  C   UNL     1       6.146  -2.100  -0.607  1.00  0.00     0.264 C 
ATOM     25  H   UNL     1       7.752  -0.935  -0.255  1.00  0.00     0.347 HD
ATOM     26  C   UNL     1       6.205   0.442  -2.003  1.00  0.00     0.086 C 
ATOM     27  C   UNL     1       6.182  -2.040  -2.141  1.00  0.00     0.086 C 
ENDBRANCH  15  20
ENDBRANCH  10  14
ENDBRANCH   6   9
ENDBRANCH   4   5
ENDBRANCH   3   4
ENDBRANCH   2   3
ENDBRANCH   1   2
BRANCH   1  28
ATOM     28  C   UNL     1      -5.508   1.621   0.930  1.00  0.00     0.021 C 
BRANCH  28  29
ATOM     29  C   UNL     1      -5.855   2.864   1.741  1.00  0.00     0.116 C 
BRANCH  29  30
ATOM     30  N   UNL     1      -7.064   3.504   1.249  1.00  0.00    -0.352 N 
ATOM     31  C   UNL     1      -8.218   3.811   1.926  1.00  0.00     0.251 C 
ATOM     32  H   UNL     1      -7.053   3.752   0.297  1.00  0.00     0.163 HD
ATOM     33  O   UNL     1      -9.224   4.131   1.304  1.00  0.00    -0.269 OA
BRANCH  31  34
ATOM     34  C   UNL     1      -8.240   3.727   3.403  1.00  0.00     0.039 A 
ATOM     35  C   UNL     1      -9.330   3.123   4.030  1.00  0.00     0.014 A 
ATOM     36  C   UNL     1      -7.182   4.236   4.163  1.00  0.00     0.014 A 
ATOM     37  C   UNL     1      -9.330   2.973   5.418  1.00  0.00     0.010 A 
ATOM     38  C   UNL     1      -7.148   4.015   5.537  1.00  0.00     0.010 A 
ATOM     39  C   UNL     1      -8.222   3.382   6.179  1.00  0.00    -0.014 A 
BRANCH  39  40
ATOM     40  C   UNL     1      -8.168   3.146   7.646  1.00  0.00     0.031 A 
ATOM     41  C   UNL     1      -8.107   4.308   8.598  1.00  0.00     0.074 A 
ATOM     42  C   UNL     1      -8.122   1.882   8.114  1.00  0.00     0.049 A 
ATOM     43  N   UNL     1      -7.992   4.304   9.901  1.00  0.00    -0.248 NA
ATOM     44  C   UNL     1      -8.152   5.652   8.003  1.00  0.00     0.031 C 
ATOM     45  C   UNL     1      -8.142   0.674   7.285  1.00  0.00     0.029 A 
ATOM     46  N   UNL     1      -8.046   1.401   9.396  1.00  0.00    -0.354 N 
ATOM     47  C   UNL     1      -7.947   5.641  10.283  1.00  0.00     0.074 A 
ATOM     48  C   UNL     1      -7.977   6.424   9.065  1.00  0.00     0.031 C 
ATOM     49  C   UNL     1      -8.112  -0.406   8.081  1.00  0.00     0.029 A 
ATOM     50  C   UNL     1      -8.014   0.027   9.471  1.00  0.00     0.049 A 
ATOM     51  H   UNL     1      -8.016   1.983  10.189  1.00  0.00     0.167 HD
ATOM     52  C   UNL     1      -7.909   6.166  11.533  1.00  0.00     0.034 A 
ATOM     53  C   UNL     1      -7.903  -0.792  10.536  1.00  0.00     0.034 A 
ATOM     54  C   UNL     1      -7.881   5.369  12.736  1.00  0.00     0.049 A 
ATOM     55  C   UNL     1      -7.810  -0.184  11.913  1.00  0.00     0.074 A 
ATOM     56  C   UNL     1      -7.889   5.796  14.052  1.00  0.00     0.029 A 
ATOM     57  N   UNL     1      -7.828   3.981  12.772  1.00  0.00    -0.354 N 
ATOM     58  N   UNL     1      -7.818   1.083  12.259  1.00  0.00    -0.248 NA
ATOM     59  C   UNL     1      -7.702  -1.115  13.043  1.00  0.00     0.031 C 
ATOM     60  C   UNL     1      -7.758   4.676  14.879  1.00  0.00     0.029 A 
ATOM     61  C   UNL     1      -7.762   3.540  14.085  1.00  0.00     0.049 A 
ATOM     62  H   UNL     1      -7.837   3.395  11.980  1.00  0.00     0.167 HD
ATOM     63  C   UNL     1      -7.748   1.097  13.650  1.00  0.00     0.074 A 
ATOM     64  C   UNL     1      -7.718  -0.287  14.076  1.00  0.00     0.031 C 
ATOM     65  C   UNL     1      -7.717   2.156  14.498  1.00  0.00     0.034 A 
BRANCH  52  66
ATOM     66  C   UNL     1      -7.866   7.672  11.656  1.00  0.00     0.023 A 
ATOM     67  C   UNL     1      -8.912   8.482  11.180  1.00  0.00     0.031 A 
ATOM     68  C   UNL     1      -6.756   8.309  12.239  1.00  0.00     0.131 A 
ATOM     69  C   UNL     1      -8.793   9.879  11.225  1.00  0.00     0.055 A 
ATOM     70  C   UNL     1      -6.684   9.698  12.362  1.00  0.00     0.041 A 
ATOM     71  F   UNL     1      -5.715   7.592  12.692  1.00  0.00    -0.206 F 
ATOM     72  C   UNL     1      -7.699  10.493  11.839  1.00  0.00     0.022 A 
BRANCH  69  73
ATOM     73  S   UNL     1     -10.015  10.880  10.334  1.00  0.00     0.124 S 
ATOM     74  O   UNL     1      -9.877  10.369   8.972  1.00  0.00    -0.237 OA
ATOM     75  O   UNL     1     -11.257  10.546  11.019  1.00  0.00    -0.237 OA
ATOM     76  O   UNL     1      -9.542  12.250  10.527  1.00  0.00    -0.744 OA
ENDBRANCH  69  73
ENDBRANCH  52  66
BRANCH  53  77
ATOM     77  C   UNL     1      -7.857  -2.272  10.352  1.00  0.00     0.023 A 
ATOM     78  C   UNL     1      -8.853  -3.100  10.894  1.00  0.00     0.031 A 
ATOM     79  C   UNL     1      -6.789  -2.886   9.673  1.00  0.00     0.131 A 
ATOM     80  C   UNL     1      -8.735  -4.495  10.794  1.00  0.00     0.055 A 
ATOM     81  C   UNL     1      -6.708  -4.272   9.523  1.00  0.00     0.041 A 
ATOM     82  F   UNL     1      -5.809  -2.143   9.134  1.00  0.00    -0.206 F 
ATOM     83  C   UNL     1      -7.678  -5.086  10.098  1.00  0.00     0.022 A 
BRANCH  80  84
ATOM     84  S   UNL     1      -9.933  -5.532  11.677  1.00  0.00     0.124 S 
ATOM     85  O   UNL     1      -9.764  -5.074  13.051  1.00  0.00    -0.237 OA
ATOM     86  O   UNL     1     -11.187  -5.166  11.027  1.00  0.00    -0.237 OA
ATOM     87  O   UNL     1      -9.467  -6.891  11.409  1.00  0.00    -0.744 OA
ENDBRANCH  80  84
ENDBRANCH  53  77
BRANCH  65  88
ATOM     88  C   UNL     1      -7.689   1.852  15.978  1.00  0.00     0.023 A 
ATOM     89  C   UNL     1      -6.596   1.207  16.582  1.00  0.00     0.031 A 
ATOM     90  C   UNL     1      -8.780   2.206  16.793  1.00  0.00     0.131 A 
ATOM     91  C   UNL     1      -6.643   0.882  17.946  1.00  0.00     0.055 A 
ATOM     92  C   UNL     1      -8.790   1.942  18.163  1.00  0.00     0.041 A 
ATOM     93  F   UNL     1      -9.853   2.820  16.270  1.00  0.00    -0.206 F 
ATOM     94  C   UNL     1      -7.724   1.263  18.745  1.00  0.00     0.022 A 
BRANCH  91  95
ATOM     95  S   UNL     1      -5.315  -0.139  18.643  1.00  0.00     0.124 S 
ATOM     96  O   UNL     1      -5.389  -1.338  17.814  1.00  0.00    -0.237 OA
ATOM     97  O   UNL     1      -4.138   0.701  18.446  1.00  0.00    -0.237 OA
ATOM     98  O   UNL     1      -5.719  -0.323  20.036  1.00  0.00    -0.744 OA
ENDBRANCH  91  95
ENDBRANCH  65  88
ENDBRANCH  39  40
ENDBRANCH  31  34
ENDBRANCH  29  30
ENDBRANCH  28  29
ENDBRANCH   1  28
TORSDOF 18
