REMARK SMILES Cc1ccnc(C(=O)c2[nH]c3ccc(F)cc3c2CC(=O)NCCCCCCNC(=O)c2ccc(-c3c4nc(c(-c5cc(S(=O)(=O)[O-])ccc5F)c5ccc([nH]5)c(-c5cc(S(=O)(=O)[O-])ccc5F)c5nc(c(-c6cc(S(=O)(=O)[O-])ccc6F)c6ccc3[nH]6)C=C5)C=C4)cc2)c1
REMARK SMILES IDX 25 1 24 2 23 3 22 4 20 5 21 6 19 8 18 9 9 10 10 11 11 12
REMARK SMILES IDX 17 14 12 15 16 16 13 17 14 18 15 19 7 20 8 21 6 22 1 23 2 24
REMARK SMILES IDX 3 25 95 26 4 27 5 28 26 29 27 30 28 31 29 32 30 33 31 35
REMARK SMILES IDX 32 36 33 37 94 38 34 39 93 40 35 41 36 42 37 43 87 44 38 45
REMARK SMILES IDX 92 46 86 47 88 48 39 49 91 50 85 51 84 52 40 54 72 55 52 56
REMARK SMILES IDX 71 57 53 58 56 59 70 60 89 61 54 62 55 63 69 65 90 66 57 67
REMARK SMILES IDX 41 68 42 69 50 70 43 71 49 72 51 73 48 74 44 75 45 76 46 77
REMARK SMILES IDX 47 78 73 79 74 80 82 81 75 82 81 83 83 84 80 85 76 86 77 87
REMARK SMILES IDX 78 88 79 89 58 90 59 91 67 92 60 93 66 94 68 95 65 96 61 97
REMARK SMILES IDX 62 98 63 99 64 100
REMARK H PARENT 22 7 10 13 29 34 88 53 56 64
REMARK Flexibility Score: inf
ROOT
ATOM      1  C   UNL     1      -3.417  -2.513   1.472  1.00  0.00     0.002 C 
ENDROOT
BRANCH   1   2
ATOM      2  C   UNL     1      -2.784  -3.672   0.697  1.00  0.00     0.021 C 
BRANCH   2   3
ATOM      3  C   UNL     1      -2.987  -3.670  -0.824  1.00  0.00     0.116 C 
BRANCH   3   4
ATOM      4  N   UNL     1      -2.394  -2.539  -1.511  1.00  0.00    -0.356 N 
ATOM      5  C   UNL     1      -1.217  -2.418  -2.187  1.00  0.00     0.224 C 
ATOM      6  O   UNL     1      -1.032  -1.364  -2.806  1.00  0.00    -0.275 OA
ATOM      7  H   UNL     1      -2.936  -1.718  -1.486  1.00  0.00     0.163 HD
BRANCH   5   8
ATOM      8  C   UNL     1      -0.187  -3.529  -2.253  1.00  0.00     0.138 C 
BRANCH   8   9
ATOM      9  C   UNL     1       0.250  -4.129  -0.947  1.00  0.00    -0.002 A 
ATOM     10  C   UNL     1       1.087  -3.603   0.041  1.00  0.00     0.093 A 
ATOM     11  N   UNL     1       1.272  -4.609   0.973  1.00  0.00    -0.352 N 
ATOM     12  C   UNL     1       0.514  -5.714   0.689  1.00  0.00     0.046 A 
ATOM     13  H   UNL     1       1.876  -4.538   1.748  1.00  0.00     0.167 HD
ATOM     14  C   UNL     1      -0.081  -5.480  -0.545  1.00  0.00     0.007 A 
ATOM     15  C   UNL     1       0.333  -6.900   1.415  1.00  0.00     0.030 A 
ATOM     16  C   UNL     1      -0.858  -6.515  -1.113  1.00  0.00     0.049 A 
ATOM     17  C   UNL     1      -0.495  -7.879   0.860  1.00  0.00     0.041 A 
ATOM     18  C   UNL     1      -1.070  -7.686  -0.387  1.00  0.00     0.123 A 
ATOM     19  F   UNL     1      -1.862  -8.635  -0.902  1.00  0.00    -0.207 F 
BRANCH  10  20
ATOM     20  C   UNL     1       1.840  -2.359   0.204  1.00  0.00     0.227 C 
ATOM     21  O   UNL     1       3.018  -2.418   0.560  1.00  0.00    -0.285 OA
BRANCH  20  22
ATOM     22  C   UNL     1       1.204  -0.997   0.085  1.00  0.00     0.113 A 
ATOM     23  C   UNL     1      -2.163   0.777   0.148  1.00  0.00     0.044 C 
ATOM     24  C   UNL     1      -0.689   0.501   0.104  1.00  0.00    -0.047 A 
ATOM     25  C   UNL     1       0.198   1.560  -0.065  1.00  0.00     0.023 A 
ATOM     26  C   UNL     1      -0.162  -0.791   0.243  1.00  0.00     0.036 A 
ATOM     27  C   UNL     1       1.550   1.282  -0.146  1.00  0.00     0.112 A 
ATOM     28  N   UNL     1       2.069   0.037  -0.089  1.00  0.00    -0.253 NA
ENDBRANCH  20  22
ENDBRANCH  10  20
ENDBRANCH   8   9
ENDBRANCH   5   8
ENDBRANCH   3   4
ENDBRANCH   2   3
ENDBRANCH   1   2
BRANCH   1  29
ATOM     29  C   UNL     1      -4.874  -2.214   1.130  1.00  0.00     0.002 C 
BRANCH  29  30
ATOM     30  C   UNL     1      -5.818  -3.382   1.401  1.00  0.00     0.021 C 
BRANCH  30  31
ATOM     31  C   UNL     1      -5.899  -3.779   2.869  1.00  0.00     0.116 C 
BRANCH  31  32
ATOM     32  N   UNL     1      -6.487  -2.727   3.682  1.00  0.00    -0.352 N 
ATOM     33  C   UNL     1      -7.479  -2.837   4.628  1.00  0.00     0.251 C 
ATOM     34  H   UNL     1      -6.130  -1.821   3.537  1.00  0.00     0.163 HD
ATOM     35  O   UNL     1      -8.019  -1.835   5.073  1.00  0.00    -0.269 OA
BRANCH  33  36
ATOM     36  C   UNL     1      -7.892  -4.186   5.070  1.00  0.00     0.039 A 
ATOM     37  C   UNL     1      -9.252  -4.489   5.145  1.00  0.00     0.014 A 
ATOM     38  C   UNL     1      -6.931  -5.152   5.382  1.00  0.00     0.014 A 
ATOM     39  C   UNL     1      -9.648  -5.781   5.494  1.00  0.00     0.010 A 
ATOM     40  C   UNL     1      -7.326  -6.458   5.646  1.00  0.00     0.010 A 
ATOM     41  C   UNL     1      -8.689  -6.782   5.724  1.00  0.00    -0.014 A 
BRANCH  41  42
ATOM     42  C   UNL     1      -9.095  -8.163   6.091  1.00  0.00     0.031 A 
ATOM     43  C   UNL     1      -8.708  -8.721   7.435  1.00  0.00     0.074 A 
ATOM     44  C   UNL     1      -9.770  -8.924   5.207  1.00  0.00     0.049 A 
ATOM     45  N   UNL     1      -8.917  -9.914   7.929  1.00  0.00    -0.248 NA
ATOM     46  C   UNL     1      -7.955  -7.827   8.328  1.00  0.00     0.031 C 
ATOM     47  C   UNL     1     -10.165  -8.504   3.861  1.00  0.00     0.029 A 
ATOM     48  N   UNL     1     -10.242 -10.208   5.305  1.00  0.00    -0.354 N 
ATOM     49  C   UNL     1      -8.314  -9.916   9.182  1.00  0.00     0.074 A 
ATOM     50  C   UNL     1      -7.666  -8.632   9.337  1.00  0.00     0.031 C 
ATOM     51  C   UNL     1     -10.848  -9.500   3.273  1.00  0.00     0.029 A 
ATOM     52  C   UNL     1     -10.899 -10.644   4.178  1.00  0.00     0.049 A 
ATOM     53  H   UNL     1     -10.121 -10.766   6.108  1.00  0.00     0.167 HD
ATOM     54  C   UNL     1      -8.325 -10.888  10.129  1.00  0.00     0.034 A 
ATOM     55  C   UNL     1     -11.470 -11.834   3.903  1.00  0.00     0.034 A 
ATOM     56  C   UNL     1      -8.985 -12.159   9.958  1.00  0.00     0.049 A 
ATOM     57  C   UNL     1     -11.447 -12.910   4.961  1.00  0.00     0.074 A 
ATOM     58  C   UNL     1      -9.098 -13.200  10.862  1.00  0.00     0.029 A 
ATOM     59  N   UNL     1      -9.640 -12.567   8.802  1.00  0.00    -0.354 N 
ATOM     60  N   UNL     1     -10.913 -12.881   6.161  1.00  0.00    -0.248 NA
ATOM     61  C   UNL     1     -12.120 -14.172   4.632  1.00  0.00     0.031 C 
ATOM     62  C   UNL     1      -9.750 -14.263  10.229  1.00  0.00     0.029 A 
ATOM     63  C   UNL     1     -10.131 -13.854   8.960  1.00  0.00     0.049 A 
ATOM     64  H   UNL     1      -9.741 -12.021   7.989  1.00  0.00     0.167 HD
ATOM     65  C   UNL     1     -11.223 -14.107   6.744  1.00  0.00     0.074 A 
ATOM     66  C   UNL     1     -12.001 -14.843   5.768  1.00  0.00     0.031 C 
ATOM     67  C   UNL     1     -10.900 -14.580   7.976  1.00  0.00     0.034 A 
BRANCH  54  68
ATOM     68  C   UNL     1      -7.576 -10.614  11.413  1.00  0.00     0.023 A 
ATOM     69  C   UNL     1      -7.921  -9.543  12.258  1.00  0.00     0.031 A 
ATOM     70  C   UNL     1      -6.476 -11.409  11.781  1.00  0.00     0.131 A 
ATOM     71  C   UNL     1      -7.125  -9.243  13.373  1.00  0.00     0.055 A 
ATOM     72  C   UNL     1      -5.744 -11.162  12.945  1.00  0.00     0.041 A 
ATOM     73  F   UNL     1      -6.080 -12.430  11.005  1.00  0.00    -0.206 F 
ATOM     74  C   UNL     1      -6.055 -10.063  13.739  1.00  0.00     0.022 A 
BRANCH  71  75
ATOM     75  S   UNL     1      -7.404  -7.673  14.239  1.00  0.00     0.124 S 
ATOM     76  O   UNL     1      -7.213  -6.706  13.161  1.00  0.00    -0.237 OA
ATOM     77  O   UNL     1      -8.769  -7.822  14.730  1.00  0.00    -0.237 OA
ATOM     78  O   UNL     1      -6.367  -7.660  15.268  1.00  0.00    -0.744 OA
ENDBRANCH  71  75
ENDBRANCH  54  68
BRANCH  55  79
ATOM     79  C   UNL     1     -12.109 -12.079   2.578  1.00  0.00     0.023 A 
ATOM     80  C   UNL     1     -13.485 -12.340   2.473  1.00  0.00     0.031 A 
ATOM     81  C   UNL     1     -11.344 -12.100   1.398  1.00  0.00     0.131 A 
ATOM     82  C   UNL     1     -14.044 -12.663   1.226  1.00  0.00     0.055 A 
ATOM     83  C   UNL     1     -11.916 -12.364   0.151  1.00  0.00     0.041 A 
ATOM     84  F   UNL     1     -10.025 -11.853   1.439  1.00  0.00    -0.206 F 
ATOM     85  C   UNL     1     -13.271 -12.662   0.063  1.00  0.00     0.022 A 
BRANCH  82  86
ATOM     86  S   UNL     1     -15.782 -13.179   1.161  1.00  0.00     0.124 S 
ATOM     87  O   UNL     1     -15.784 -14.328   2.058  1.00  0.00    -0.237 OA
ATOM     88  O   UNL     1     -16.470 -11.986   1.644  1.00  0.00    -0.237 OA
ATOM     89  O   UNL     1     -15.992 -13.487  -0.252  1.00  0.00    -0.744 OA
ENDBRANCH  82  86
ENDBRANCH  55  79
BRANCH  67  90
ATOM     90  C   UNL     1     -11.446 -15.937   8.356  1.00  0.00     0.023 A 
ATOM     91  C   UNL     1     -11.068 -17.110   7.679  1.00  0.00     0.031 A 
ATOM     92  C   UNL     1     -12.380 -16.052   9.402  1.00  0.00     0.131 A 
ATOM     93  C   UNL     1     -11.673 -18.333   8.008  1.00  0.00     0.055 A 
ATOM     94  C   UNL     1     -12.923 -17.283   9.773  1.00  0.00     0.041 A 
ATOM     95  F   UNL     1     -12.783 -14.966  10.082  1.00  0.00    -0.206 F 
ATOM     96  C   UNL     1     -12.583 -18.430   9.063  1.00  0.00     0.022 A 
BRANCH  93  97
ATOM     97  S   UNL     1     -11.348 -19.774   6.955  1.00  0.00     0.124 S 
ATOM     98  O   UNL     1     -11.744 -19.284   5.639  1.00  0.00    -0.237 OA
ATOM     99  O   UNL     1      -9.918 -19.988   7.152  1.00  0.00    -0.237 OA
ATOM    100  O   UNL     1     -12.213 -20.811   7.517  1.00  0.00    -0.744 OA
ENDBRANCH  93  97
ENDBRANCH  67  90
ENDBRANCH  41  42
ENDBRANCH  33  36
ENDBRANCH  31  32
ENDBRANCH  30  31
ENDBRANCH  29  30
ENDBRANCH   1  29
TORSDOF 19
