REMARK SMILES [NH3+][C@H](Cc1ccc(O)c(F)c1)C(=O)NCCCCCCNC(=O)c1ccc(-c2c3nc(c(-c4cc(S(=O)(=O)[O-])ccc4F)c4ccc([nH]4)c(-c4cc(S(=O)(=O)[O-])ccc4F)c4nc(c(-c5cc(S(=O)(=O)[O-])ccc5F)c5ccc2[nH]5)C=C4)C=C3)cc1
REMARK SMILES IDX 17 1 16 2 15 3 14 4 12 5 13 6 2 8 1 9 3 13 4 14 5 15 11 16
REMARK SMILES IDX 6 17 9 18 7 19 10 20 8 21 18 23 19 24 20 25 21 26 22 27
REMARK SMILES IDX 23 29 24 30 25 31 86 32 26 33 85 34 27 35 28 36 29 37 79 38
REMARK SMILES IDX 30 39 84 40 78 41 80 42 31 43 83 44 77 45 76 46 32 48 64 49
REMARK SMILES IDX 44 50 63 51 45 52 48 53 62 54 81 55 46 56 47 57 61 59 82 60
REMARK SMILES IDX 49 61 33 62 34 63 42 64 35 65 41 66 43 67 40 68 36 69 37 70
REMARK SMILES IDX 38 71 39 72 65 73 66 74 74 75 67 76 73 77 75 78 72 79 68 80
REMARK SMILES IDX 69 81 70 82 71 83 50 84 51 85 59 86 52 87 58 88 60 89 57 90
REMARK SMILES IDX 53 91 54 92 55 93 56 94
REMARK H PARENT 14 7 1 10 1 11 1 12 8 22 21 28 80 47 48 58
REMARK Flexibility Score: inf
ROOT
ATOM      1  C   UNL     1      -3.416  -1.213  -2.673  1.00  0.00     0.002 C 
ENDROOT
BRANCH   1   2
ATOM      2  C   UNL     1      -1.948  -1.172  -2.250  1.00  0.00     0.021 C 
BRANCH   2   3
ATOM      3  C   UNL     1      -1.432   0.239  -1.989  1.00  0.00     0.116 C 
BRANCH   3   4
ATOM      4  N   UNL     1      -1.816   0.716  -0.681  1.00  0.00    -0.351 N 
ATOM      5  C   UNL     1      -1.053   1.187   0.347  1.00  0.00     0.278 C 
ATOM      6  O   UNL     1      -1.633   1.423   1.412  1.00  0.00    -0.268 OA
ATOM      7  H   UNL     1      -2.784   0.698  -0.503  1.00  0.00     0.163 HD
BRANCH   5   8
ATOM      8  C   UNL     1       0.460   1.496   0.179  1.00  0.00     0.275 C 
BRANCH   8   9
ATOM      9  N   UNL     1       0.600   2.730  -0.625  1.00  0.00    -0.347 N 
ATOM     10  H   UNL     1      -0.031   3.445  -0.263  1.00  0.00     0.345 HD
ATOM     11  H   UNL     1       0.367   2.531  -1.597  1.00  0.00     0.345 HD
ATOM     12  H   UNL     1       1.562   3.066  -0.567  1.00  0.00     0.345 HD
ENDBRANCH   8   9
BRANCH   8  13
ATOM     13  C   UNL     1       1.345   0.279  -0.216  1.00  0.00     0.111 C 
BRANCH  13  14
ATOM     14  C   UNL     1       2.461   0.548  -1.217  1.00  0.00    -0.038 A 
ATOM     15  C   UNL     1       3.801   0.536  -0.801  1.00  0.00     0.008 A 
ATOM     16  C   UNL     1       2.197   0.840  -2.566  1.00  0.00     0.047 A 
ATOM     17  C   UNL     1       4.836   0.852  -1.693  1.00  0.00     0.049 A 
ATOM     18  C   UNL     1       3.224   1.166  -3.445  1.00  0.00     0.165 A 
ATOM     19  C   UNL     1       4.540   1.184  -3.011  1.00  0.00     0.151 A 
ATOM     20  F   UNL     1       2.910   1.487  -4.708  1.00  0.00    -0.203 F 
BRANCH  19  21
ATOM     21  O   UNL     1       5.516   1.545  -3.891  1.00  0.00    -0.505 OA
ATOM     22  H   UNL     1       6.412   1.563  -3.615  1.00  0.00     0.293 HD
ENDBRANCH  19  21
ENDBRANCH  13  14
ENDBRANCH   8  13
ENDBRANCH   5   8
ENDBRANCH   3   4
ENDBRANCH   2   3
ENDBRANCH   1   2
BRANCH   1  23
ATOM     23  C   UNL     1      -3.729  -0.440  -3.959  1.00  0.00     0.002 C 
BRANCH  23  24
ATOM     24  C   UNL     1      -2.891  -0.837  -5.178  1.00  0.00     0.021 C 
BRANCH  24  25
ATOM     25  C   UNL     1      -2.958  -2.318  -5.542  1.00  0.00     0.116 C 
BRANCH  25  26
ATOM     26  N   UNL     1      -4.322  -2.751  -5.800  1.00  0.00    -0.352 N 
ATOM     27  C   UNL     1      -4.850  -3.346  -6.917  1.00  0.00     0.251 C 
ATOM     28  H   UNL     1      -4.960  -2.595  -5.066  1.00  0.00     0.163 HD
ATOM     29  O   UNL     1      -6.070  -3.439  -7.039  1.00  0.00    -0.269 OA
BRANCH  27  30
ATOM     30  C   UNL     1      -3.951  -3.851  -7.974  1.00  0.00     0.039 A 
ATOM     31  C   UNL     1      -4.254  -3.576  -9.309  1.00  0.00     0.014 A 
ATOM     32  C   UNL     1      -2.809  -4.589  -7.648  1.00  0.00     0.014 A 
ATOM     33  C   UNL     1      -3.374  -3.983 -10.314  1.00  0.00     0.010 A 
ATOM     34  C   UNL     1      -1.897  -4.927  -8.643  1.00  0.00     0.010 A 
ATOM     35  C   UNL     1      -2.168  -4.625  -9.987  1.00  0.00    -0.014 A 
BRANCH  35  36
ATOM     36  C   UNL     1      -1.175  -4.976 -11.035  1.00  0.00     0.031 A 
ATOM     37  C   UNL     1      -0.816  -6.415 -11.286  1.00  0.00     0.074 A 
ATOM     38  C   UNL     1      -0.549  -3.994 -11.713  1.00  0.00     0.049 A 
ATOM     39  N   UNL     1       0.082  -6.915 -12.096  1.00  0.00    -0.248 NA
ATOM     40  C   UNL     1      -1.544  -7.422 -10.500  1.00  0.00     0.031 C 
ATOM     41  C   UNL     1      -0.785  -2.560 -11.528  1.00  0.00     0.029 A 
ATOM     42  N   UNL     1       0.419  -4.046 -12.684  1.00  0.00    -0.354 N 
ATOM     43  C   UNL     1       0.033  -8.293 -11.912  1.00  0.00     0.074 A 
ATOM     44  C   UNL     1      -0.936  -8.540 -10.865  1.00  0.00     0.031 C 
ATOM     45  C   UNL     1       0.001  -1.872 -12.371  1.00  0.00     0.029 A 
ATOM     46  C   UNL     1       0.836  -2.808 -13.117  1.00  0.00     0.049 A 
ATOM     47  H   UNL     1       0.782  -4.890 -13.038  1.00  0.00     0.167 HD
ATOM     48  C   UNL     1       0.718  -9.261 -12.571  1.00  0.00     0.034 A 
ATOM     49  C   UNL     1       1.798  -2.462 -13.996  1.00  0.00     0.034 A 
ATOM     50  C   UNL     1       1.681  -8.992 -13.612  1.00  0.00     0.049 A 
ATOM     51  C   UNL     1       2.579  -3.553 -14.684  1.00  0.00     0.074 A 
ATOM     52  C   UNL     1       2.391  -9.896 -14.383  1.00  0.00     0.029 A 
ATOM     53  N   UNL     1       2.084  -7.725 -14.018  1.00  0.00    -0.354 N 
ATOM     54  N   UNL     1       2.481  -4.855 -14.541  1.00  0.00    -0.248 NA
ATOM     55  C   UNL     1       3.594  -3.129 -15.657  1.00  0.00     0.031 C 
ATOM     56  C   UNL     1       3.281  -9.181 -15.191  1.00  0.00     0.029 A 
ATOM     57  C   UNL     1       3.063  -7.826 -14.996  1.00  0.00     0.049 A 
ATOM     58  H   UNL     1       1.727  -6.879 -13.664  1.00  0.00     0.167 HD
ATOM     59  C   UNL     1       3.402  -5.405 -15.429  1.00  0.00     0.074 A 
ATOM     60  C   UNL     1       4.032  -4.294 -16.112  1.00  0.00     0.031 C 
ATOM     61  C   UNL     1       3.697  -6.710 -15.661  1.00  0.00     0.034 A 
BRANCH  48  62
ATOM     62  C   UNL     1       0.469 -10.694 -12.158  1.00  0.00     0.023 A 
ATOM     63  C   UNL     1      -0.803 -11.284 -12.264  1.00  0.00     0.031 A 
ATOM     64  C   UNL     1       1.509 -11.473 -11.621  1.00  0.00     0.131 A 
ATOM     65  C   UNL     1      -1.022 -12.575 -11.762  1.00  0.00     0.055 A 
ATOM     66  C   UNL     1       1.305 -12.791 -11.208  1.00  0.00     0.041 A 
ATOM     67  F   UNL     1       2.741 -10.961 -11.472  1.00  0.00    -0.206 F 
ATOM     68  C   UNL     1       0.029 -13.345 -11.261  1.00  0.00     0.022 A 
BRANCH  65  69
ATOM     69  S   UNL     1      -2.730 -13.170 -11.621  1.00  0.00     0.124 S 
ATOM     70  O   UNL     1      -3.334 -12.136 -10.784  1.00  0.00    -0.237 OA
ATOM     71  O   UNL     1      -3.168 -13.203 -13.012  1.00  0.00    -0.237 OA
ATOM     72  O   UNL     1      -2.587 -14.475 -10.979  1.00  0.00    -0.744 OA
ENDBRANCH  65  69
ENDBRANCH  48  62
BRANCH  49  73
ATOM     73  C   UNL     1       2.099  -1.024 -14.256  1.00  0.00     0.023 A 
ATOM     74  C   UNL     1       1.908  -0.458 -15.526  1.00  0.00     0.031 A 
ATOM     75  C   UNL     1       2.617  -0.200 -13.239  1.00  0.00     0.131 A 
ATOM     76  C   UNL     1       2.276   0.877 -15.759  1.00  0.00     0.055 A 
ATOM     77  C   UNL     1       2.925   1.143 -13.460  1.00  0.00     0.041 A 
ATOM     78  F   UNL     1       2.818  -0.690 -12.005  1.00  0.00    -0.206 F 
ATOM     79  C   UNL     1       2.767   1.686 -14.731  1.00  0.00     0.022 A 
BRANCH  76  80
ATOM     80  S   UNL     1       2.190   1.519 -17.454  1.00  0.00     0.124 S 
ATOM     81  O   UNL     1       3.063   0.593 -18.166  1.00  0.00    -0.237 OA
ATOM     82  O   UNL     1       0.764   1.411 -17.746  1.00  0.00    -0.237 OA
ATOM     83  O   UNL     1       2.697   2.884 -17.327  1.00  0.00    -0.744 OA
ENDBRANCH  76  80
ENDBRANCH  49  73
BRANCH  61  84
ATOM     84  C   UNL     1       4.721  -7.005 -16.731  1.00  0.00     0.023 A 
ATOM     85  C   UNL     1       6.070  -6.632 -16.593  1.00  0.00     0.031 A 
ATOM     86  C   UNL     1       4.338  -7.671 -17.910  1.00  0.00     0.131 A 
ATOM     87  C   UNL     1       6.974  -6.879 -17.637  1.00  0.00     0.055 A 
ATOM     88  C   UNL     1       5.256  -7.974 -18.916  1.00  0.00     0.041 A 
ATOM     89  F   UNL     1       3.063  -8.046 -18.100  1.00  0.00    -0.206 F 
ATOM     90  C   UNL     1       6.580  -7.566 -18.789  1.00  0.00     0.022 A 
BRANCH  87  91
ATOM     91  S   UNL     1       8.654  -6.207 -17.513  1.00  0.00     0.124 S 
ATOM     92  O   UNL     1       8.399  -4.776 -17.381  1.00  0.00    -0.237 OA
ATOM     93  O   UNL     1       9.172  -6.875 -16.324  1.00  0.00    -0.237 OA
ATOM     94  O   UNL     1       9.279  -6.611 -18.771  1.00  0.00    -0.744 OA
ENDBRANCH  87  91
ENDBRANCH  61  84
ENDBRANCH  35  36
ENDBRANCH  27  30
ENDBRANCH  25  26
ENDBRANCH  24  25
ENDBRANCH  23  24
ENDBRANCH   1  23
TORSDOF 20
