REMARK SMILES CC(C)C[C@@H](NC(=O)Cn1nc(O)ccc1=O)C(=O)NCCCCCCNC(=O)c1ccc(-c2c3nc(c(-c4cc(S(=O)(=O)[O-])ccc4F)c4ccc([nH]4)c(-c4cc(S(=O)(=O)[O-])ccc4F)c4nc(c(-c5cc(S(=O)(=O)[O-])ccc5F)c5ccc2[nH]5)C=C4)C=C3)cc1
REMARK SMILES IDX 23 1 22 2 21 3 20 4 18 5 19 6 5 8 4 9 2 10 1 11 3 12 6 13
REMARK SMILES IDX 7 14 8 16 9 17 10 18 11 19 16 20 12 21 15 22 17 23 14 24
REMARK SMILES IDX 13 25 24 27 25 28 26 29 27 30 28 31 29 33 30 34 31 35 92 36
REMARK SMILES IDX 32 37 91 38 33 39 34 40 35 41 85 42 36 43 90 44 84 45 86 46
REMARK SMILES IDX 37 47 89 48 83 49 82 50 38 52 70 53 50 54 69 55 51 56 54 57
REMARK SMILES IDX 68 58 87 59 52 60 53 61 67 63 88 64 55 65 39 66 40 67 48 68
REMARK SMILES IDX 41 69 47 70 49 71 46 72 42 73 43 74 44 75 45 76 71 77 72 78
REMARK SMILES IDX 80 79 73 80 79 81 81 82 78 83 74 84 75 85 76 86 77 87 56 88
REMARK SMILES IDX 57 89 65 90 58 91 64 92 66 93 63 94 59 95 60 96 61 97 62 98
REMARK H PARENT 20 7 6 15 13 26 27 32 86 51 54 62
REMARK Flexibility Score: inf
ROOT
ATOM      1  C   UNL     1      -4.436   5.112   0.947  1.00  0.00     0.002 C 
ENDROOT
BRANCH   1   2
ATOM      2  C   UNL     1      -2.932   4.830   0.995  1.00  0.00     0.021 C 
BRANCH   2   3
ATOM      3  C   UNL     1      -2.590   3.426   1.483  1.00  0.00     0.116 C 
BRANCH   3   4
ATOM      4  N   UNL     1      -3.028   2.414   0.530  1.00  0.00    -0.354 N 
ATOM      5  C   UNL     1      -2.522   1.168   0.284  1.00  0.00     0.242 C 
ATOM      6  O   UNL     1      -2.973   0.540  -0.682  1.00  0.00    -0.273 OA
ATOM      7  H   UNL     1      -3.804   2.666  -0.021  1.00  0.00     0.163 HD
BRANCH   5   8
ATOM      8  C   UNL     1      -1.251   0.686   1.007  1.00  0.00     0.171 C 
BRANCH   8   9
ATOM      9  C   UNL     1      -0.154   1.366   0.145  1.00  0.00     0.038 C 
BRANCH   9  10
ATOM     10  C   UNL     1       1.331   1.151   0.448  1.00  0.00    -0.015 C 
ATOM     11  C   UNL     1       1.782  -0.267   0.119  1.00  0.00     0.007 C 
ATOM     12  C   UNL     1       2.122   2.155  -0.411  1.00  0.00     0.007 C 
ENDBRANCH   9  10
ENDBRANCH   8   9
BRANCH   8  13
ATOM     13  N   UNL     1      -1.185   1.042   2.427  1.00  0.00    -0.343 N 
ATOM     14  C   UNL     1      -1.915   0.618   3.502  1.00  0.00     0.242 C 
ATOM     15  H   UNL     1      -0.491   1.705   2.646  1.00  0.00     0.164 HD
ATOM     16  O   UNL     1      -1.424   0.870   4.610  1.00  0.00    -0.273 OA
BRANCH  14  17
ATOM     17  C   UNL     1      -3.184  -0.247   3.410  1.00  0.00     0.248 C 
BRANCH  17  18
ATOM     18  N   UNL     1      -4.315   0.286   2.658  1.00  0.00    -0.217 N 
ATOM     19  N   UNL     1      -4.609  -0.335   1.460  1.00  0.00    -0.131 NA
ATOM     20  C   UNL     1      -5.101   1.300   3.202  1.00  0.00     0.267 A 
ATOM     21  C   UNL     1      -5.585   0.166   0.791  1.00  0.00     0.229 A 
ATOM     22  C   UNL     1      -6.229   1.782   2.360  1.00  0.00     0.079 A 
ATOM     23  O   UNL     1      -4.910   1.829   4.292  1.00  0.00    -0.268 OA
ATOM     24  C   UNL     1      -6.471   1.253   1.160  1.00  0.00     0.075 A 
BRANCH  21  25
ATOM     25  O   UNL     1      -5.833  -0.278  -0.445  1.00  0.00    -0.492 OA
ATOM     26  H   UNL     1      -5.326  -0.981  -0.800  1.00  0.00     0.295 HD
ENDBRANCH  21  25
ENDBRANCH  17  18
ENDBRANCH  14  17
ENDBRANCH   8  13
ENDBRANCH   5   8
ENDBRANCH   3   4
ENDBRANCH   2   3
ENDBRANCH   1   2
BRANCH   1  27
ATOM     27  C   UNL     1      -5.120   5.136   2.316  1.00  0.00     0.002 C 
BRANCH  27  28
ATOM     28  C   UNL     1      -4.705   6.276   3.240  1.00  0.00     0.021 C 
BRANCH  28  29
ATOM     29  C   UNL     1      -4.913   7.659   2.652  1.00  0.00     0.116 C 
BRANCH  29  30
ATOM     30  N   UNL     1      -6.301   7.955   2.307  1.00  0.00    -0.352 N 
ATOM     31  C   UNL     1      -6.867   9.210   2.213  1.00  0.00     0.251 C 
ATOM     32  H   UNL     1      -6.888   7.186   2.124  1.00  0.00     0.163 HD
ATOM     33  O   UNL     1      -8.060   9.364   1.982  1.00  0.00    -0.269 OA
BRANCH  31  34
ATOM     34  C   UNL     1      -5.970  10.354   2.457  1.00  0.00     0.039 A 
ATOM     35  C   UNL     1      -4.811  10.460   1.687  1.00  0.00     0.014 A 
ATOM     36  C   UNL     1      -6.151  11.132   3.602  1.00  0.00     0.014 A 
ATOM     37  C   UNL     1      -3.744  11.190   2.183  1.00  0.00     0.010 A 
ATOM     38  C   UNL     1      -5.111  11.959   4.033  1.00  0.00     0.010 A 
ATOM     39  C   UNL     1      -3.877  11.946   3.364  1.00  0.00    -0.014 A 
BRANCH  39  40
ATOM     40  C   UNL     1      -2.707  12.716   3.865  1.00  0.00     0.031 A 
ATOM     41  C   UNL     1      -2.099  12.428   5.213  1.00  0.00     0.074 A 
ATOM     42  C   UNL     1      -2.158  13.642   3.056  1.00  0.00     0.049 A 
ATOM     43  N   UNL     1      -1.089  13.018   5.799  1.00  0.00    -0.248 NA
ATOM     44  C   UNL     1      -2.698  11.345   6.011  1.00  0.00     0.031 C 
ATOM     45  C   UNL     1      -2.659  13.980   1.723  1.00  0.00     0.029 A 
ATOM     46  N   UNL     1      -1.052  14.439   3.206  1.00  0.00    -0.354 N 
ATOM     47  C   UNL     1      -0.955  12.412   7.044  1.00  0.00     0.074 A 
ATOM     48  C   UNL     1      -1.997  11.413   7.136  1.00  0.00     0.031 C 
ATOM     49  C   UNL     1      -1.821  14.847   1.145  1.00  0.00     0.029 A 
ATOM     50  C   UNL     1      -0.785  15.217   2.103  1.00  0.00     0.049 A 
ATOM     51  H   UNL     1      -0.503  14.453   4.023  1.00  0.00     0.167 HD
ATOM     52  C   UNL     1      -0.043  12.668   8.013  1.00  0.00     0.034 A 
ATOM     53  C   UNL     1       0.168  16.145   1.888  1.00  0.00     0.034 A 
ATOM     54  C   UNL     1       1.010  13.646   7.878  1.00  0.00     0.049 A 
ATOM     55  C   UNL     1       1.160  16.418   2.984  1.00  0.00     0.074 A 
ATOM     56  C   UNL     1       1.996  13.970   8.793  1.00  0.00     0.029 A 
ATOM     57  N   UNL     1       1.225  14.444   6.763  1.00  0.00    -0.354 N 
ATOM     58  N   UNL     1       1.268  15.837   4.156  1.00  0.00    -0.248 NA
ATOM     59  C   UNL     1       2.150  17.474   2.743  1.00  0.00     0.031 C 
ATOM     60  C   UNL     1       2.768  15.001   8.257  1.00  0.00     0.029 A 
ATOM     61  C   UNL     1       2.314  15.273   6.976  1.00  0.00     0.049 A 
ATOM     62  H   UNL     1       0.683  14.423   5.941  1.00  0.00     0.167 HD
ATOM     63  C   UNL     1       2.344  16.449   4.788  1.00  0.00     0.074 A 
ATOM     64  C   UNL     1       2.873  17.423   3.855  1.00  0.00     0.031 C 
ATOM     65  C   UNL     1       2.840  16.231   6.032  1.00  0.00     0.034 A 
BRANCH  52  66
ATOM     66  C   UNL     1      -0.114  11.899   9.312  1.00  0.00     0.023 A 
ATOM     67  C   UNL     1      -0.352  12.585  10.520  1.00  0.00     0.031 A 
ATOM     68  C   UNL     1       0.191  10.528   9.379  1.00  0.00     0.131 A 
ATOM     69  C   UNL     1      -0.242  11.908  11.742  1.00  0.00     0.055 A 
ATOM     70  C   UNL     1       0.258   9.849  10.597  1.00  0.00     0.041 A 
ATOM     71  F   UNL     1       0.428   9.828   8.258  1.00  0.00    -0.206 F 
ATOM     72  C   UNL     1       0.055  10.543  11.787  1.00  0.00     0.022 A 
BRANCH  69  73
ATOM     73  S   UNL     1      -0.411  12.786  13.322  1.00  0.00     0.124 S 
ATOM     74  O   UNL     1      -1.530  12.078  13.940  1.00  0.00    -0.237 OA
ATOM     75  O   UNL     1       0.891  12.555  13.941  1.00  0.00    -0.237 OA
ATOM     76  O   UNL     1      -0.688  14.164  12.930  1.00  0.00    -0.744 OA
ENDBRANCH  69  73
ENDBRANCH  52  66
BRANCH  53  77
ATOM     77  C   UNL     1       0.219  16.836   0.566  1.00  0.00     0.023 A 
ATOM     78  C   UNL     1      -0.884  17.575   0.096  1.00  0.00     0.031 A 
ATOM     79  C   UNL     1       1.302  16.643  -0.306  1.00  0.00     0.131 A 
ATOM     80  C   UNL     1      -0.921  18.002  -1.237  1.00  0.00     0.055 A 
ATOM     81  C   UNL     1       1.298  17.146  -1.608  1.00  0.00     0.041 A 
ATOM     82  F   UNL     1       2.372  15.935   0.091  1.00  0.00    -0.206 F 
ATOM     83  C   UNL     1       0.171  17.808  -2.087  1.00  0.00     0.022 A 
BRANCH  80  84
ATOM     84  S   UNL     1      -2.454  18.657  -1.956  1.00  0.00     0.124 S 
ATOM     85  O   UNL     1      -2.062  20.015  -2.320  1.00  0.00    -0.237 OA
ATOM     86  O   UNL     1      -2.676  17.742  -3.073  1.00  0.00    -0.237 OA
ATOM     87  O   UNL     1      -3.419  18.547  -0.867  1.00  0.00    -0.744 OA
ENDBRANCH  80  84
ENDBRANCH  53  77
BRANCH  65  88
ATOM     88  C   UNL     1       4.024  17.048   6.483  1.00  0.00     0.023 A 
ATOM     89  C   UNL     1       5.245  16.412   6.777  1.00  0.00     0.031 A 
ATOM     90  C   UNL     1       3.902  18.420   6.765  1.00  0.00     0.131 A 
ATOM     91  C   UNL     1       6.282  17.137   7.374  1.00  0.00     0.055 A 
ATOM     92  C   UNL     1       4.955  19.149   7.317  1.00  0.00     0.041 A 
ATOM     93  F   UNL     1       2.754  19.068   6.510  1.00  0.00    -0.206 F 
ATOM     94  C   UNL     1       6.146  18.505   7.638  1.00  0.00     0.022 A 
BRANCH  91  95
ATOM     95  S   UNL     1       7.807  16.317   7.913  1.00  0.00     0.124 S 
ATOM     96  O   UNL     1       8.818  17.003   7.111  1.00  0.00    -0.237 OA
ATOM     97  O   UNL     1       7.832  16.622   9.341  1.00  0.00    -0.237 OA
ATOM     98  O   UNL     1       7.592  14.914   7.575  1.00  0.00    -0.744 OA
ENDBRANCH  91  95
ENDBRANCH  65  88
ENDBRANCH  39  40
ENDBRANCH  31  34
ENDBRANCH  29  30
ENDBRANCH  28  29
ENDBRANCH  27  28
ENDBRANCH   1  27
TORSDOF 22
