REMARK SMILES O=C(NCCCCCCNC(=O)[C@H]1C[C@](O)(c2ccc(Cl)cc2)[C@@H](c2ccc(Cl)cc2)O1)c1ccc(-c2c3nc(c(-c4cc(S(=O)(=O)[O-])ccc4F)c4ccc([nH]4)c(-c4cc(S(=O)(=O)[O-])ccc4F)c4nc(c(-c5cc(S(=O)(=O)[O-])ccc5F)c5ccc2[nH]5)C=C4)C=C3)cc1
REMARK SMILES IDX 5 1 4 2 3 3 1 4 2 5 33 7 34 8 95 9 35 10 94 11 36 12 37 13
REMARK SMILES IDX 38 14 88 15 39 16 93 17 87 18 89 19 40 20 92 21 86 22 85 23
REMARK SMILES IDX 41 25 73 26 53 27 72 28 54 29 57 30 71 31 90 32 55 33 56 34
REMARK SMILES IDX 70 36 91 37 58 38 42 39 43 40 51 41 44 42 50 43 52 44 49 45
REMARK SMILES IDX 45 46 46 47 47 48 48 49 74 50 75 51 83 52 76 53 82 54 84 55
REMARK SMILES IDX 81 56 77 57 78 58 79 59 80 60 59 61 60 62 68 63 61 64 67 65
REMARK SMILES IDX 69 66 66 67 62 68 63 69 64 70 65 71 6 72 7 73 8 74 9 75
REMARK SMILES IDX 10 76 11 77 12 79 13 80 14 81 32 82 15 83 24 84 17 85 18 86
REMARK SMILES IDX 23 87 19 88 22 89 20 90 21 91 16 92 25 94 26 95 31 96 27 97
REMARK SMILES IDX 30 98 28 99 29 100
REMARK H PARENT 3 6 89 24 57 35 10 78 16 93
REMARK Flexibility Score: inf
ROOT
ATOM      1  C   UNL     1      15.476   4.177  -9.691  1.00  0.00     0.021 C 
ENDROOT
BRANCH   1   2
ATOM      2  C   UNL     1      16.731   4.951  -9.123  1.00  0.00     0.116 C 
BRANCH   2   3
ATOM      3  N   UNL     1      17.983   4.239  -9.209  1.00  0.00    -0.352 N 
ATOM      4  O   UNL     1      20.131   3.763  -8.806  1.00  0.00    -0.269 OA
ATOM      5  C   UNL     1      19.071   4.207  -8.364  1.00  0.00     0.251 C 
ATOM      6  H   UNL     1      18.076   3.677 -10.012  1.00  0.00     0.163 HD
BRANCH   5   7
ATOM      7  C   UNL     1      19.047   4.653  -6.944  1.00  0.00     0.039 A 
ATOM      8  C   UNL     1      18.615   3.776  -5.942  1.00  0.00     0.014 A 
ATOM      9  C   UNL     1      19.742   5.809  -6.566  1.00  0.00     0.014 A 
ATOM     10  C   UNL     1      18.816   4.082  -4.582  1.00  0.00     0.010 A 
ATOM     11  C   UNL     1      19.985   6.090  -5.205  1.00  0.00     0.010 A 
ATOM     12  C   UNL     1      19.528   5.230  -4.191  1.00  0.00    -0.014 A 
BRANCH  12  13
ATOM     13  C   UNL     1      19.865   5.485  -2.748  1.00  0.00     0.031 A 
ATOM     14  C   UNL     1      19.326   6.696  -2.023  1.00  0.00     0.074 A 
ATOM     15  C   UNL     1      20.686   4.641  -2.084  1.00  0.00     0.049 A 
ATOM     16  N   UNL     1      19.566   7.115  -0.804  1.00  0.00    -0.248 NA
ATOM     17  C   UNL     1      18.400   7.553  -2.776  1.00  0.00     0.031 C 
ATOM     18  C   UNL     1      21.295   3.439  -2.658  1.00  0.00     0.029 A 
ATOM     19  N   UNL     1      21.163   4.661  -0.792  1.00  0.00    -0.354 N 
ATOM     20  C   UNL     1      18.823   8.282  -0.641  1.00  0.00     0.074 A 
ATOM     21  C   UNL     1      18.163   8.527  -1.908  1.00  0.00     0.031 C 
ATOM     22  C   UNL     1      22.045   2.833  -1.725  1.00  0.00     0.029 A 
ATOM     23  C   UNL     1      22.028   3.627  -0.501  1.00  0.00     0.049 A 
ATOM     24  H   UNL     1      20.909   5.349  -0.136  1.00  0.00     0.167 HD
ATOM     25  C   UNL     1      18.688   9.067   0.461  1.00  0.00     0.034 A 
ATOM     26  C   UNL     1      22.750   3.358   0.608  1.00  0.00     0.034 A 
ATOM     27  C   UNL     1      19.366   8.827   1.716  1.00  0.00     0.049 A 
ATOM     28  C   UNL     1      22.636   4.280   1.797  1.00  0.00     0.074 A 
ATOM     29  C   UNL     1      19.299   9.562   2.890  1.00  0.00     0.029 A 
ATOM     30  N   UNL     1      20.244   7.778   1.962  1.00  0.00    -0.354 N 
ATOM     31  N   UNL     1      21.913   5.369   1.932  1.00  0.00    -0.248 NA
ATOM     32  C   UNL     1      23.425   3.933   2.987  1.00  0.00     0.031 C 
ATOM     33  C   UNL     1      20.181   8.997   3.818  1.00  0.00     0.029 A 
ATOM     34  C   UNL     1      20.738   7.861   3.257  1.00  0.00     0.049 A 
ATOM     35  H   UNL     1      20.480   7.078   1.312  1.00  0.00     0.167 HD
ATOM     36  C   UNL     1      22.140   5.815   3.232  1.00  0.00     0.074 A 
ATOM     37  C   UNL     1      23.043   4.865   3.846  1.00  0.00     0.031 C 
ATOM     38  C   UNL     1      21.647   6.913   3.861  1.00  0.00     0.034 A 
BRANCH  25  39
ATOM     39  C   UNL     1      17.788  10.278   0.349  1.00  0.00     0.023 A 
ATOM     40  C   UNL     1      16.409  10.148   0.105  1.00  0.00     0.031 A 
ATOM     41  C   UNL     1      18.308  11.579   0.479  1.00  0.00     0.131 A 
ATOM     42  C   UNL     1      15.614  11.291  -0.072  1.00  0.00     0.055 A 
ATOM     43  C   UNL     1      17.496  12.712   0.383  1.00  0.00     0.041 A 
ATOM     44  F   UNL     1      19.618  11.773   0.697  1.00  0.00    -0.206 F 
ATOM     45  C   UNL     1      16.143  12.573   0.091  1.00  0.00     0.022 A 
BRANCH  42  46
ATOM     46  S   UNL     1      13.910  11.078  -0.656  1.00  0.00     0.124 S 
ATOM     47  O   UNL     1      14.117  10.381  -1.924  1.00  0.00    -0.237 OA
ATOM     48  O   UNL     1      13.305  10.291   0.412  1.00  0.00    -0.237 OA
ATOM     49  O   UNL     1      13.415  12.447  -0.781  1.00  0.00    -0.744 OA
ENDBRANCH  42  46
ENDBRANCH  25  39
BRANCH  26  50
ATOM     50  C   UNL     1      23.683   2.189   0.646  1.00  0.00     0.023 A 
ATOM     51  C   UNL     1      23.517   1.151   1.578  1.00  0.00     0.031 A 
ATOM     52  C   UNL     1      24.799   2.127  -0.209  1.00  0.00     0.131 A 
ATOM     53  C   UNL     1      24.478   0.130   1.671  1.00  0.00     0.055 A 
ATOM     54  C   UNL     1      25.715   1.074  -0.158  1.00  0.00     0.041 A 
ATOM     55  F   UNL     1      25.015   3.094  -1.116  1.00  0.00    -0.206 F 
ATOM     56  C   UNL     1      25.566   0.076   0.798  1.00  0.00     0.022 A 
BRANCH  53  57
ATOM     57  S   UNL     1      24.348  -1.064   3.031  1.00  0.00     0.124 S 
ATOM     58  O   UNL     1      24.323  -0.187   4.196  1.00  0.00    -0.237 OA
ATOM     59  O   UNL     1      23.097  -1.747   2.716  1.00  0.00    -0.237 OA
ATOM     60  O   UNL     1      25.553  -1.877   2.887  1.00  0.00    -0.744 OA
ENDBRANCH  53  57
ENDBRANCH  26  50
BRANCH  38  61
ATOM     61  C   UNL     1      22.041   7.109   5.307  1.00  0.00     0.023 A 
ATOM     62  C   UNL     1      23.373   7.352   5.687  1.00  0.00     0.031 A 
ATOM     63  C   UNL     1      21.072   7.013   6.322  1.00  0.00     0.131 A 
ATOM     64  C   UNL     1      23.711   7.419   7.048  1.00  0.00     0.055 A 
ATOM     65  C   UNL     1      21.404   7.151   7.671  1.00  0.00     0.041 A 
ATOM     66  F   UNL     1      19.785   6.779   6.020  1.00  0.00    -0.206 F 
ATOM     67  C   UNL     1      22.732   7.338   8.041  1.00  0.00     0.022 A 
BRANCH  64  68
ATOM     68  S   UNL     1      25.465   7.498   7.506  1.00  0.00     0.124 S 
ATOM     69  O   UNL     1      25.997   6.295   6.876  1.00  0.00    -0.237 OA
ATOM     70  O   UNL     1      25.884   8.765   6.917  1.00  0.00    -0.237 OA
ATOM     71  O   UNL     1      25.439   7.474   8.968  1.00  0.00    -0.744 OA
ENDBRANCH  64  68
ENDBRANCH  38  61
ENDBRANCH  12  13
ENDBRANCH   5   7
ENDBRANCH   2   3
ENDBRANCH   1   2
BRANCH   1  72
ATOM     72  C   UNL     1      15.300   2.594  -9.697  1.00  0.00     0.002 C 
BRANCH  72  73
ATOM     73  C   UNL     1      14.742   1.468  -8.625  1.00  0.00     0.002 C 
BRANCH  73  74
ATOM     74  C   UNL     1      13.603   1.431  -7.138  1.00  0.00     0.021 C 
BRANCH  74  75
ATOM     75  C   UNL     1      11.848   2.657  -6.648  1.00  0.00     0.116 C 
BRANCH  75  76
ATOM     76  N   UNL     1      10.367   2.792  -7.491  1.00  0.00    -0.354 N 
ATOM     77  C   UNL     1       9.175   2.094  -7.478  1.00  0.00     0.249 C 
ATOM     78  H   UNL     1      10.362   3.539  -8.133  1.00  0.00     0.163 HD
ATOM     79  O   UNL     1       8.429   2.185  -8.459  1.00  0.00    -0.272 OA
BRANCH  77  80
ATOM     80  C   UNL     1       8.774   1.236  -6.267  1.00  0.00     0.211 C 
ATOM     81  C   UNL     1       8.573  -0.274  -6.492  1.00  0.00     0.085 C 
ATOM     82  O   UNL     1       9.801   1.343  -5.296  1.00  0.00    -0.357 OA
ATOM     83  C   UNL     1       9.557  -0.937  -5.531  1.00  0.00     0.123 C 
ATOM     84  C   UNL     1      10.601   0.152  -5.450  1.00  0.00     0.186 C 
BRANCH  83  85
ATOM     85  C   UNL     1       9.073  -1.188  -4.041  1.00  0.00    -0.013 A 
ATOM     86  C   UNL     1       8.949  -2.494  -3.542  1.00  0.00     0.008 A 
ATOM     87  C   UNL     1       8.979  -0.144  -3.073  1.00  0.00     0.008 A 
ATOM     88  C   UNL     1       8.838  -2.740  -2.159  1.00  0.00     0.021 A 
ATOM     89  C   UNL     1       8.901  -0.387  -1.696  1.00  0.00     0.021 A 
ATOM     90  C   UNL     1       8.846  -1.690  -1.242  1.00  0.00     0.041 A 
ATOM     91  Cl  UNL     1       8.812  -2.006   0.448  1.00  0.00    -0.084 Cl
ENDBRANCH  83  85
BRANCH  83  92
ATOM     92  O   UNL     1      10.129  -2.125  -6.066  1.00  0.00    -0.382 OA
ATOM     93  H   UNL     1      10.421  -1.962  -6.977  1.00  0.00     0.212 HD
ENDBRANCH  83  92
BRANCH  84  94
ATOM     94  C   UNL     1      11.780   0.577  -6.330  1.00  0.00    -0.016 A 
ATOM     95  C   UNL     1      11.819   1.160  -8.058  1.00  0.00     0.008 A 
ATOM     96  C   UNL     1      12.782   1.378  -5.098  1.00  0.00     0.008 A 
ATOM     97  C   UNL     1      12.774   2.704  -8.424  1.00  0.00     0.021 A 
ATOM     98  C   UNL     1      13.638   2.810  -5.415  1.00  0.00     0.021 A 
ATOM     99  C   UNL     1      13.743   3.458  -7.044  1.00  0.00     0.041 A 
ATOM    100  Cl  UNL     1      15.344   4.031  -6.898  1.00  0.00    -0.084 Cl
ENDBRANCH  84  94
ENDBRANCH  77  80
ENDBRANCH  75  76
ENDBRANCH  74  75
ENDBRANCH  73  74
ENDBRANCH  72  73
ENDBRANCH   1  72
TORSDOF 19
