REMARK SMILES CC(=O)NCCc1c[nH]c2ccc(C(=O)NCCCCCCNC(=O)c3ccc(-c4c5nc(c(-c6cc(S(=O)(=O)[O-])ccc6F)c6ccc([nH]6)c(-c6cc(S(=O)(=O)[O-])ccc6F)c6nc(c(-c7cc(S(=O)(=O)[O-])ccc7F)c7ccc4[nH]7)C=C6)C=C5)cc3)cc12
REMARK SMILES IDX 19 1 18 2 17 3 16 4 14 5 15 6 13 8 7 9 8 10 90 11 9 12 10 13
REMARK SMILES IDX 89 14 11 16 12 17 6 18 5 19 4 20 1 21 2 22 3 23 20 25 21 26
REMARK SMILES IDX 22 27 23 28 24 29 25 31 26 32 27 33 88 34 28 35 87 36 29 37
REMARK SMILES IDX 30 38 31 39 81 40 32 41 86 42 80 43 82 44 33 45 85 46 79 47
REMARK SMILES IDX 78 48 34 50 66 51 46 52 65 53 47 54 50 55 64 56 83 57 48 58
REMARK SMILES IDX 49 59 63 61 84 62 51 63 35 64 36 65 44 66 37 67 43 68 45 69
REMARK SMILES IDX 42 70 38 71 39 72 40 73 41 74 67 75 68 76 76 77 69 78 75 79
REMARK SMILES IDX 77 80 74 81 70 82 71 83 72 84 73 85 52 86 53 87 61 88 54 89
REMARK SMILES IDX 60 90 62 91 59 92 55 93 56 94 57 95 58 96
REMARK H PARENT 16 7 9 15 4 24 23 30 82 49 50 60
REMARK Flexibility Score: inf
ROOT
ATOM      1  C   UNL     1      -1.992  -3.238 -11.446  1.00  0.00     0.002 C 
ENDROOT
BRANCH   1   2
ATOM      2  C   UNL     1      -1.272  -3.997 -10.321  1.00  0.00     0.021 C 
BRANCH   2   3
ATOM      3  C   UNL     1       0.172  -3.534 -10.121  1.00  0.00     0.116 C 
BRANCH   3   4
ATOM      4  N   UNL     1       0.187  -2.315  -9.341  1.00  0.00    -0.352 N 
ATOM      5  C   UNL     1       0.474  -2.040  -8.034  1.00  0.00     0.251 C 
ATOM      6  O   UNL     1       0.338  -0.867  -7.675  1.00  0.00    -0.269 OA
ATOM      7  H   UNL     1      -0.062  -1.517  -9.861  1.00  0.00     0.163 HD
BRANCH   5   8
ATOM      8  C   UNL     1       0.987  -3.039  -7.050  1.00  0.00     0.040 A 
ATOM      9  C   UNL     1       2.793  -3.083  -3.664  1.00  0.00    -0.021 A 
ATOM     10  C   UNL     1       3.122  -4.319  -3.140  1.00  0.00     0.087 A 
ATOM     11  C   UNL     1       2.177  -3.327  -4.931  1.00  0.00     0.003 A 
ATOM     12  N   UNL     1       2.702  -5.285  -4.016  1.00  0.00    -0.361 N 
ATOM     13  C   UNL     1       2.069  -4.705  -5.090  1.00  0.00     0.046 A 
ATOM     14  C   UNL     1       1.662  -2.495  -5.942  1.00  0.00     0.024 A 
ATOM     15  H   UNL     1       2.835  -6.253  -3.894  1.00  0.00     0.166 HD
ATOM     16  C   UNL     1       1.397  -5.285  -6.169  1.00  0.00     0.027 A 
ATOM     17  C   UNL     1       0.815  -4.423  -7.114  1.00  0.00     0.016 A 
BRANCH   9  18
ATOM     18  C   UNL     1       3.000  -1.747  -3.016  1.00  0.00     0.059 C 
BRANCH  18  19
ATOM     19  C   UNL     1       1.686  -1.018  -2.695  1.00  0.00     0.120 C 
BRANCH  19  20
ATOM     20  N   UNL     1       0.861  -1.750  -1.745  1.00  0.00    -0.356 N 
ATOM     21  C   UNL     1       0.950  -0.065   0.042  1.00  0.00     0.114 C 
ATOM     22  C   UNL     1       0.479  -1.390  -0.488  1.00  0.00     0.216 C 
ATOM     23  O   UNL     1      -0.230  -2.139   0.180  1.00  0.00    -0.275 OA
ATOM     24  H   UNL     1       0.533  -2.625  -2.053  1.00  0.00     0.163 HD
ENDBRANCH  19  20
ENDBRANCH  18  19
ENDBRANCH   9  18
ENDBRANCH   5   8
ENDBRANCH   3   4
ENDBRANCH   2   3
ENDBRANCH   1   2
BRANCH   1  25
ATOM     25  C   UNL     1      -1.344  -3.383 -12.830  1.00  0.00     0.002 C 
BRANCH  25  26
ATOM     26  C   UNL     1      -1.107  -4.828 -13.275  1.00  0.00     0.021 C 
BRANCH  26  27
ATOM     27  C   UNL     1      -2.383  -5.653 -13.397  1.00  0.00     0.116 C 
BRANCH  27  28
ATOM     28  N   UNL     1      -3.253  -5.129 -14.438  1.00  0.00    -0.352 N 
ATOM     29  C   UNL     1      -3.737  -5.761 -15.556  1.00  0.00     0.251 C 
ATOM     30  H   UNL     1      -3.533  -4.192 -14.325  1.00  0.00     0.163 HD
ATOM     31  O   UNL     1      -4.228  -5.103 -16.466  1.00  0.00    -0.269 OA
BRANCH  29  32
ATOM     32  C   UNL     1      -3.647  -7.233 -15.653  1.00  0.00     0.039 A 
ATOM     33  C   UNL     1      -3.237  -7.812 -16.855  1.00  0.00     0.014 A 
ATOM     34  C   UNL     1      -3.969  -8.036 -14.555  1.00  0.00     0.014 A 
ATOM     35  C   UNL     1      -3.098  -9.199 -16.938  1.00  0.00     0.010 A 
ATOM     36  C   UNL     1      -3.755  -9.409 -14.616  1.00  0.00     0.010 A 
ATOM     37  C   UNL     1      -3.324 -10.006 -15.810  1.00  0.00    -0.014 A 
BRANCH  37  38
ATOM     38  C   UNL     1      -3.127 -11.478 -15.863  1.00  0.00     0.031 A 
ATOM     39  C   UNL     1      -4.293 -12.401 -15.638  1.00  0.00     0.074 A 
ATOM     40  C   UNL     1      -1.890 -11.979 -16.053  1.00  0.00     0.049 A 
ATOM     41  N   UNL     1      -4.313 -13.707 -15.567  1.00  0.00    -0.248 NA
ATOM     42  C   UNL     1      -5.606 -11.768 -15.435  1.00  0.00     0.031 C 
ATOM     43  C   UNL     1      -0.677 -11.180 -16.248  1.00  0.00     0.029 A 
ATOM     44  N   UNL     1      -1.444 -13.275 -16.108  1.00  0.00    -0.354 N 
ATOM     45  C   UNL     1      -5.635 -14.052 -15.301  1.00  0.00     0.074 A 
ATOM     46  C   UNL     1      -6.370 -12.814 -15.157  1.00  0.00     0.031 C 
ATOM     47  C   UNL     1       0.367 -12.004 -16.429  1.00  0.00     0.029 A 
ATOM     48  C   UNL     1      -0.087 -13.386 -16.309  1.00  0.00     0.049 A 
ATOM     49  H   UNL     1      -2.038 -14.054 -16.011  1.00  0.00     0.167 HD
ATOM     50  C   UNL     1      -6.187 -15.287 -15.211  1.00  0.00     0.034 A 
ATOM     51  C   UNL     1       0.704 -14.476 -16.375  1.00  0.00     0.034 A 
ATOM     52  C   UNL     1      -5.437 -16.510 -15.366  1.00  0.00     0.049 A 
ATOM     53  C   UNL     1       0.074 -15.839 -16.234  1.00  0.00     0.074 A 
ATOM     54  C   UNL     1      -5.901 -17.814 -15.342  1.00  0.00     0.029 A 
ATOM     55  N   UNL     1      -4.063 -16.583 -15.564  1.00  0.00    -0.354 N 
ATOM     56  N   UNL     1      -1.185 -16.150 -16.028  1.00  0.00    -0.248 NA
ATOM     57  C   UNL     1       0.969 -16.999 -16.345  1.00  0.00     0.031 C 
ATOM     58  C   UNL     1      -4.802 -18.673 -15.445  1.00  0.00     0.029 A 
ATOM     59  C   UNL     1      -3.661 -17.908 -15.628  1.00  0.00     0.049 A 
ATOM     60  H   UNL     1      -3.463 -15.807 -15.646  1.00  0.00     0.167 HD
ATOM     61  C   UNL     1      -1.238 -17.541 -16.026  1.00  0.00     0.074 A 
ATOM     62  C   UNL     1       0.114 -18.007 -16.258  1.00  0.00     0.031 C 
ATOM     63  C   UNL     1      -2.308 -18.360 -15.858  1.00  0.00     0.034 A 
BRANCH  50  64
ATOM     64  C   UNL     1      -7.664 -15.371 -14.904  1.00  0.00     0.023 A 
ATOM     65  C   UNL     1      -8.631 -14.830 -15.770  1.00  0.00     0.031 A 
ATOM     66  C   UNL     1      -8.113 -15.981 -13.720  1.00  0.00     0.131 A 
ATOM     67  C   UNL     1      -9.985 -14.838 -15.402  1.00  0.00     0.055 A 
ATOM     68  C   UNL     1      -9.470 -16.066 -13.402  1.00  0.00     0.041 A 
ATOM     69  F   UNL     1      -7.238 -16.496 -12.841  1.00  0.00    -0.206 F 
ATOM     70  C   UNL     1     -10.415 -15.478 -14.238  1.00  0.00     0.022 A 
BRANCH  67  71
ATOM     71  S   UNL     1     -11.156 -13.867 -16.391  1.00  0.00     0.124 S 
ATOM     72  O   UNL     1     -10.580 -12.528 -16.296  1.00  0.00    -0.237 OA
ATOM     73  O   UNL     1     -11.072 -14.508 -17.698  1.00  0.00    -0.237 OA
ATOM     74  O   UNL     1     -12.425 -14.043 -15.688  1.00  0.00    -0.744 OA
ENDBRANCH  67  71
ENDBRANCH  50  64
BRANCH  51  75
ATOM     75  C   UNL     1       2.176 -14.331 -16.574  1.00  0.00     0.023 A 
ATOM     76  C   UNL     1       2.805 -14.843 -17.720  1.00  0.00     0.031 A 
ATOM     77  C   UNL     1       2.982 -13.716 -15.600  1.00  0.00     0.131 A 
ATOM     78  C   UNL     1       4.202 -14.777 -17.840  1.00  0.00     0.055 A 
ATOM     79  C   UNL     1       4.365 -13.599 -15.752  1.00  0.00     0.041 A 
ATOM     80  F   UNL     1       2.433 -13.207 -14.485  1.00  0.00    -0.206 F 
ATOM     81  C   UNL     1       4.985 -14.145 -16.871  1.00  0.00     0.022 A 
BRANCH  78  82
ATOM     82  S   UNL     1       4.994 -15.621 -19.236  1.00  0.00     0.124 S 
ATOM     83  O   UNL     1       4.529 -16.991 -19.056  1.00  0.00    -0.237 OA
ATOM     84  O   UNL     1       4.442 -14.900 -20.378  1.00  0.00    -0.237 OA
ATOM     85  O   UNL     1       6.420 -15.408 -18.997  1.00  0.00    -0.744 OA
ENDBRANCH  78  82
ENDBRANCH  51  75
BRANCH  63  86
ATOM     86  C   UNL     1      -2.069 -19.846 -15.982  1.00  0.00     0.023 A 
ATOM     87  C   UNL     1      -1.288 -20.557 -15.055  1.00  0.00     0.031 A 
ATOM     88  C   UNL     1      -2.645 -20.561 -17.048  1.00  0.00     0.131 A 
ATOM     89  C   UNL     1      -1.063 -21.929 -15.239  1.00  0.00     0.055 A 
ATOM     90  C   UNL     1      -2.471 -21.938 -17.190  1.00  0.00     0.041 A 
ATOM     91  F   UNL     1      -3.397 -19.932 -17.966  1.00  0.00    -0.206 F 
ATOM     92  C   UNL     1      -1.666 -22.628 -16.289  1.00  0.00     0.022 A 
BRANCH  89  93
ATOM     93  S   UNL     1       0.103 -22.778 -14.138  1.00  0.00     0.124 S 
ATOM     94  O   UNL     1       1.331 -22.020 -14.355  1.00  0.00    -0.237 OA
ATOM     95  O   UNL     1      -0.525 -22.613 -12.831  1.00  0.00    -0.237 OA
ATOM     96  O   UNL     1       0.122 -24.148 -14.648  1.00  0.00    -0.744 OA
ENDBRANCH  89  93
ENDBRANCH  63  86
ENDBRANCH  37  38
ENDBRANCH  29  32
ENDBRANCH  27  28
ENDBRANCH  26  27
ENDBRANCH  25  26
ENDBRANCH   1  25
TORSDOF 19
