REMARK SMILES C[C@H]1[C@H](C(=O)NCCCCCCNC(=O)c2ccc(-c3c4nc(c(-c5cc(S(=O)(=O)[O-])ccc5F)c5ccc([nH]5)c(-c5cc(S(=O)(=O)[O-])ccc5F)c5nc(c(-c6cc(S(=O)(=O)[O-])ccc6F)c6ccc3[nH]6)C=C5)C=C4)cc2)CC[N@@H+]1CC(=O)N1CCCC1
REMARK SMILES IDX 10 1 9 2 8 3 7 4 6 5 4 6 5 7 3 9 1 10 2 11 81 12 79 13 80 14
REMARK SMILES IDX 82 16 83 17 84 18 85 19 86 20 89 21 87 22 88 23 11 24 12 25
REMARK SMILES IDX 13 26 14 27 15 29 16 30 17 31 78 32 18 33 77 34 19 35 20 36
REMARK SMILES IDX 21 37 71 38 22 39 76 40 70 41 72 42 23 43 75 44 69 45 68 46
REMARK SMILES IDX 24 48 56 49 36 50 55 51 37 52 40 53 54 54 73 55 38 56 39 57
REMARK SMILES IDX 53 59 74 60 41 61 25 62 26 63 34 64 27 65 33 66 35 67 32 68
REMARK SMILES IDX 28 69 29 70 30 71 31 72 57 73 58 74 66 75 59 76 65 77 67 78
REMARK SMILES IDX 64 79 60 80 61 81 62 82 63 83 42 84 43 85 51 86 44 87 50 88
REMARK SMILES IDX 52 89 49 90 45 91 46 92 47 93 48 94
REMARK H PARENT 6 8 81 15 13 28 72 47 40 58
REMARK Flexibility Score: inf
ROOT
ATOM      1  C   UNL     1      -2.832   1.028   6.572  1.00  0.00     0.002 C 
ENDROOT
BRANCH   1   2
ATOM      2  C   UNL     1      -1.744   1.274   5.527  1.00  0.00     0.002 C 
BRANCH   2   3
ATOM      3  C   UNL     1      -1.789   0.352   4.304  1.00  0.00     0.021 C 
BRANCH   3   4
ATOM      4  C   UNL     1      -2.366   0.790   2.934  1.00  0.00     0.116 C 
BRANCH   4   5
ATOM      5  N   UNL     1      -1.701   1.893   2.229  1.00  0.00    -0.356 N 
ATOM      6  C   UNL     1      -1.274   2.167   0.964  1.00  0.00     0.229 C 
ATOM      7  O   UNL     1      -0.919   3.351   0.807  1.00  0.00    -0.275 OA
ATOM      8  H   UNL     1      -1.510   2.641   2.839  1.00  0.00     0.163 HD
BRANCH   6   9
ATOM      9  C   UNL     1      -1.079   1.232  -0.258  1.00  0.00     0.142 C 
ATOM     10  C   UNL     1       1.105   0.851  -1.688  1.00  0.00     0.076 C 
ATOM     11  C   UNL     1       0.346   0.673  -0.369  1.00  0.00     0.194 C 
ATOM     12  N   UNL     1       0.257  -0.772  -0.194  1.00  0.00    -0.324 N 
ATOM     13  C   UNL     1      -1.995   0.047  -0.433  1.00  0.00     0.081 C 
ATOM     14  C   UNL     1      -1.142  -1.188  -0.157  1.00  0.00     0.263 C 
ATOM     15  H   UNL     1       0.650  -1.226  -1.019  1.00  0.00     0.348 HD
BRANCH  12  16
ATOM     16  C   UNL     1       1.157  -1.324   0.837  1.00  0.00     0.364 C 
BRANCH  16  17
ATOM     17  C   UNL     1       0.989  -0.637   2.196  1.00  0.00     0.277 C 
ATOM     18  O   UNL     1       0.185  -1.142   2.976  1.00  0.00    -0.268 OA
ATOM     19  N   UNL     1       1.693   0.539   2.440  1.00  0.00    -0.338 N 
ATOM     20  C   UNL     1       3.019   0.844   1.945  1.00  0.00     0.119 C 
ATOM     21  C   UNL     1       1.225   1.679   3.211  1.00  0.00     0.119 C 
ATOM     22  C   UNL     1       3.548   1.954   2.864  1.00  0.00     0.023 C 
ATOM     23  C   UNL     1       2.454   2.217   3.890  1.00  0.00     0.023 C 
ENDBRANCH  16  17
ENDBRANCH  12  16
ENDBRANCH   6   9
ENDBRANCH   4   5
ENDBRANCH   3   4
ENDBRANCH   2   3
ENDBRANCH   1   2
BRANCH   1  24
ATOM     24  C   UNL     1      -3.068  -0.438   6.966  1.00  0.00     0.021 C 
BRANCH  24  25
ATOM     25  C   UNL     1      -1.822  -1.208   7.406  1.00  0.00     0.116 C 
BRANCH  25  26
ATOM     26  N   UNL     1      -1.296  -0.685   8.660  1.00  0.00    -0.352 N 
ATOM     27  C   UNL     1      -1.448  -1.219   9.916  1.00  0.00     0.251 C 
ATOM     28  H   UNL     1      -0.772   0.146   8.601  1.00  0.00     0.163 HD
ATOM     29  O   UNL     1      -1.258  -0.534  10.921  1.00  0.00    -0.269 OA
BRANCH  27  30
ATOM     30  C   UNL     1      -1.844  -2.634  10.028  1.00  0.00     0.039 A 
ATOM     31  C   UNL     1      -2.975  -2.989  10.764  1.00  0.00     0.014 A 
ATOM     32  C   UNL     1      -1.106  -3.600   9.335  1.00  0.00     0.014 A 
ATOM     33  C   UNL     1      -3.398  -4.319  10.761  1.00  0.00     0.010 A 
ATOM     34  C   UNL     1      -1.575  -4.906   9.272  1.00  0.00     0.010 A 
ATOM     35  C   UNL     1      -2.718  -5.282   9.994  1.00  0.00    -0.014 A 
BRANCH  35  36
ATOM     36  C   UNL     1      -3.169  -6.696   9.959  1.00  0.00     0.031 A 
ATOM     37  C   UNL     1      -2.271  -7.775  10.502  1.00  0.00     0.074 A 
ATOM     38  C   UNL     1      -4.355  -7.009   9.400  1.00  0.00     0.049 A 
ATOM     39  N   UNL     1      -2.452  -9.070  10.526  1.00  0.00    -0.248 NA
ATOM     40  C   UNL     1      -0.982  -7.339  11.061  1.00  0.00     0.031 C 
ATOM     41  C   UNL     1      -5.286  -6.048   8.803  1.00  0.00     0.029 A 
ATOM     42  N   UNL     1      -4.982  -8.219   9.241  1.00  0.00    -0.354 N 
ATOM     43  C   UNL     1      -1.299  -9.601  11.094  1.00  0.00     0.074 A 
ATOM     44  C   UNL     1      -0.396  -8.495  11.324  1.00  0.00     0.031 C 
ATOM     45  C   UNL     1      -6.380  -6.701   8.378  1.00  0.00     0.029 A 
ATOM     46  C   UNL     1      -6.210  -8.129   8.625  1.00  0.00     0.049 A 
ATOM     47  H   UNL     1      -4.591  -9.071   9.539  1.00  0.00     0.167 HD
ATOM     48  C   UNL     1      -1.032 -10.889  11.423  1.00  0.00     0.034 A 
ATOM     49  C   UNL     1      -7.093  -9.092   8.293  1.00  0.00     0.034 A 
ATOM     50  C   UNL     1      -1.952 -11.974  11.188  1.00  0.00     0.049 A 
ATOM     51  C   UNL     1      -6.758 -10.524   8.633  1.00  0.00     0.074 A 
ATOM     52  C   UNL     1      -1.813 -13.310  11.520  1.00  0.00     0.029 A 
ATOM     53  N   UNL     1      -3.180 -11.849  10.549  1.00  0.00    -0.354 N 
ATOM     54  N   UNL     1      -5.688 -11.005   9.226  1.00  0.00    -0.248 NA
ATOM     55  C   UNL     1      -7.753 -11.540   8.270  1.00  0.00     0.031 C 
ATOM     56  C   UNL     1      -2.917 -14.003  11.013  1.00  0.00     0.029 A 
ATOM     57  C   UNL     1      -3.791 -13.089  10.444  1.00  0.00     0.049 A 
ATOM     58  H   UNL     1      -3.561 -11.003  10.219  1.00  0.00     0.167 HD
ATOM     59  C   UNL     1      -5.898 -12.377   9.333  1.00  0.00     0.074 A 
ATOM     60  C   UNL     1      -7.203 -12.641   8.762  1.00  0.00     0.031 C 
ATOM     61  C   UNL     1      -5.089 -13.334   9.858  1.00  0.00     0.034 A 
BRANCH  48  62
ATOM     62  C   UNL     1       0.315 -11.184  12.043  1.00  0.00     0.023 A 
ATOM     63  C   UNL     1       0.708 -10.607  13.265  1.00  0.00     0.031 A 
ATOM     64  C   UNL     1       1.235 -12.020  11.388  1.00  0.00     0.131 A 
ATOM     65  C   UNL     1       2.010 -10.804  13.747  1.00  0.00     0.055 A 
ATOM     66  C   UNL     1       2.499 -12.286  11.921  1.00  0.00     0.041 A 
ATOM     67  F   UNL     1       0.930 -12.581  10.207  1.00  0.00    -0.206 F 
ATOM     68  C   UNL     1       2.900 -11.662  13.098  1.00  0.00     0.022 A 
BRANCH  65  69
ATOM     69  S   UNL     1       2.577  -9.794  15.144  1.00  0.00     0.124 S 
ATOM     70  O   UNL     1       2.397  -8.441  14.622  1.00  0.00    -0.237 OA
ATOM     71  O   UNL     1       1.668 -10.193  16.212  1.00  0.00    -0.237 OA
ATOM     72  O   UNL     1       3.968 -10.205  15.322  1.00  0.00    -0.744 OA
ENDBRANCH  65  69
ENDBRANCH  48  62
BRANCH  49  73
ATOM     73  C   UNL     1      -8.369  -8.748   7.600  1.00  0.00     0.023 A 
ATOM     74  C   UNL     1      -9.613  -9.000   8.202  1.00  0.00     0.031 A 
ATOM     75  C   UNL     1      -8.367  -8.200   6.304  1.00  0.00     0.131 A 
ATOM     76  C   UNL     1     -10.799  -8.752   7.493  1.00  0.00     0.055 A 
ATOM     77  C   UNL     1      -9.550  -7.899   5.626  1.00  0.00     0.041 A 
ATOM     78  F   UNL     1      -7.208  -7.937   5.679  1.00  0.00    -0.206 F 
ATOM     79  C   UNL     1     -10.776  -8.189   6.216  1.00  0.00     0.022 A 
BRANCH  76  80
ATOM     80  S   UNL     1     -12.375  -9.268   8.229  1.00  0.00     0.124 S 
ATOM     81  O   UNL     1     -12.156 -10.696   8.428  1.00  0.00    -0.237 OA
ATOM     82  O   UNL     1     -12.428  -8.451   9.436  1.00  0.00    -0.237 OA
ATOM     83  O   UNL     1     -13.357  -8.925   7.202  1.00  0.00    -0.744 OA
ENDBRANCH  76  80
ENDBRANCH  49  73
BRANCH  61  84
ATOM     84  C   UNL     1      -5.618 -14.748   9.873  1.00  0.00     0.023 A 
ATOM     85  C   UNL     1      -5.859 -15.460   8.685  1.00  0.00     0.031 A 
ATOM     86  C   UNL     1      -5.888 -15.388  11.095  1.00  0.00     0.131 A 
ATOM     87  C   UNL     1      -6.412 -16.748   8.744  1.00  0.00     0.055 A 
ATOM     88  C   UNL     1      -6.371 -16.696  11.149  1.00  0.00     0.041 A 
ATOM     89  F   UNL     1      -5.681 -14.754  12.261  1.00  0.00    -0.206 F 
ATOM     90  C   UNL     1      -6.649 -17.378   9.968  1.00  0.00     0.022 A 
BRANCH  87  91
ATOM     91  S   UNL     1      -6.917 -17.548   7.197  1.00  0.00     0.124 S 
ATOM     92  O   UNL     1      -7.874 -16.588   6.658  1.00  0.00    -0.237 OA
ATOM     93  O   UNL     1      -5.653 -17.662   6.477  1.00  0.00    -0.237 OA
ATOM     94  O   UNL     1      -7.494 -18.817   7.640  1.00  0.00    -0.744 OA
ENDBRANCH  87  91
ENDBRANCH  61  84
ENDBRANCH  35  36
ENDBRANCH  27  30
ENDBRANCH  25  26
ENDBRANCH  24  25
ENDBRANCH   1  24
TORSDOF 18
