REMARK SMILES O=C(CCn1cc(Cl)c([N+](=O)[O-])n1)NCCCCCCNC(=O)c1ccc(-c2c3nc(c(-c4cc(S(=O)(=O)[O-])ccc4F)c4ccc([nH]4)c(-c4cc(S(=O)(=O)[O-])ccc4F)c4nc(c(-c5cc(S(=O)(=O)[O-])ccc5F)c5ccc2[nH]5)C=C4)C=C3)cc1
REMARK SMILES IDX 17 1 16 2 15 3 14 4 1 5 2 6 3 8 4 9 5 10 6 11 13 12 7 13
REMARK SMILES IDX 9 14 8 15 10 16 11 17 12 18 18 19 19 20 20 21 21 22 22 23
REMARK SMILES IDX 23 25 24 26 25 27 86 28 26 29 85 30 27 31 28 32 29 33 79 34
REMARK SMILES IDX 30 35 84 36 78 37 80 38 31 39 83 40 77 41 76 42 32 44 64 45
REMARK SMILES IDX 44 46 63 47 45 48 48 49 62 50 81 51 46 52 47 53 61 55 82 56
REMARK SMILES IDX 49 57 33 58 34 59 42 60 35 61 41 62 43 63 40 64 36 65 37 66
REMARK SMILES IDX 38 67 39 68 65 69 66 70 74 71 67 72 73 73 75 74 72 75 68 76
REMARK SMILES IDX 69 77 70 78 71 79 50 80 51 81 59 82 52 83 58 84 60 85 57 86
REMARK SMILES IDX 53 87 54 88 55 89 56 90
REMARK H PARENT 14 7 21 24 80 43 48 54
REMARK Flexibility Score: inf
ROOT
ATOM      1  C   UNL     1       4.038   2.515  -2.719  1.00  0.00     0.002 C 
ENDROOT
BRANCH   1   2
ATOM      2  C   UNL     1       2.530   2.452  -2.425  1.00  0.00     0.021 C 
BRANCH   2   3
ATOM      3  C   UNL     1       1.963   1.048  -2.198  1.00  0.00     0.116 C 
BRANCH   3   4
ATOM      4  N   UNL     1       2.686   0.366  -1.143  1.00  0.00    -0.356 N 
ATOM      5  O   UNL     1       0.882  -0.243   0.129  1.00  0.00    -0.275 OA
ATOM      6  C   UNL     1       2.097  -0.177  -0.032  1.00  0.00     0.221 C 
ATOM      7  H   UNL     1       3.664   0.289  -1.230  1.00  0.00     0.163 HD
BRANCH   6   8
ATOM      8  C   UNL     1       3.055  -0.613   1.061  1.00  0.00     0.125 C 
BRANCH   8   9
ATOM      9  C   UNL     1       4.050  -1.688   0.645  1.00  0.00     0.179 C 
BRANCH   9  10
ATOM     10  N   UNL     1       5.176  -1.252  -0.168  1.00  0.00    -0.178 N 
ATOM     11  C   UNL     1       5.846  -0.061  -0.123  1.00  0.00     0.161 A 
ATOM     12  N   UNL     1       5.651  -2.086  -1.115  1.00  0.00     0.061 NA
ATOM     13  C   UNL     1       6.779  -0.098  -1.136  1.00  0.00     0.160 A 
ATOM     14  C   UNL     1       6.642  -1.381  -1.698  1.00  0.00     0.408 A 
ATOM     15  Cl  UNL     1       7.845   1.145  -1.563  1.00  0.00    -0.073 Cl
BRANCH  14  16
ATOM     16  N   UNL     1       7.370  -1.997  -2.786  1.00  0.00    -0.020 N 
ATOM     17  O   UNL     1       7.840  -1.240  -3.645  1.00  0.00    -0.358 OA
ATOM     18  O   UNL     1       7.485  -3.232  -2.782  1.00  0.00    -0.358 OA
ENDBRANCH  14  16
ENDBRANCH   9  10
ENDBRANCH   8   9
ENDBRANCH   6   8
ENDBRANCH   3   4
ENDBRANCH   2   3
ENDBRANCH   1   2
BRANCH   1  19
ATOM     19  C   UNL     1       4.542   1.654  -3.888  1.00  0.00     0.002 C 
BRANCH  19  20
ATOM     20  C   UNL     1       3.896   1.926  -5.252  1.00  0.00     0.021 C 
BRANCH  20  21
ATOM     21  C   UNL     1       4.134   3.332  -5.786  1.00  0.00     0.116 C 
BRANCH  21  22
ATOM     22  N   UNL     1       5.524   3.570  -6.172  1.00  0.00    -0.352 N 
ATOM     23  C   UNL     1       6.052   4.718  -6.730  1.00  0.00     0.251 C 
ATOM     24  H   UNL     1       6.154   2.829  -6.016  1.00  0.00     0.163 HD
ATOM     25  O   UNL     1       7.095   4.671  -7.385  1.00  0.00    -0.269 OA
BRANCH  23  26
ATOM     26  C   UNL     1       5.352   5.999  -6.521  1.00  0.00     0.039 A 
ATOM     27  C   UNL     1       5.232   6.950  -7.539  1.00  0.00     0.014 A 
ATOM     28  C   UNL     1       4.790   6.230  -5.266  1.00  0.00     0.014 A 
ATOM     29  C   UNL     1       4.470   8.095  -7.304  1.00  0.00     0.010 A 
ATOM     30  C   UNL     1       3.933   7.286  -5.080  1.00  0.00     0.010 A 
ATOM     31  C   UNL     1       3.804   8.247  -6.076  1.00  0.00    -0.014 A 
BRANCH  31  32
ATOM     32  C   UNL     1       2.825   9.314  -5.865  1.00  0.00     0.031 A 
ATOM     33  C   UNL     1       1.712   9.295  -6.854  1.00  0.00     0.074 A 
ATOM     34  C   UNL     1       2.785  10.072  -4.744  1.00  0.00     0.049 A 
ATOM     35  N   UNL     1       1.477  10.148  -7.793  1.00  0.00    -0.248 NA
ATOM     36  C   UNL     1       0.868   8.089  -6.935  1.00  0.00     0.031 C 
ATOM     37  C   UNL     1       3.650   9.974  -3.563  1.00  0.00     0.029 A 
ATOM     38  N   UNL     1       1.887  11.025  -4.366  1.00  0.00    -0.354 N 
ATOM     39  C   UNL     1       0.296   9.732  -8.401  1.00  0.00     0.074 A 
ATOM     40  C   UNL     1       0.121   8.362  -8.007  1.00  0.00     0.031 C 
ATOM     41  C   UNL     1       3.099  10.655  -2.532  1.00  0.00     0.029 A 
ATOM     42  C   UNL     1       1.931  11.372  -3.013  1.00  0.00     0.049 A 
ATOM     43  H   UNL     1       1.256  11.439  -4.999  1.00  0.00     0.167 HD
ATOM     44  C   UNL     1      -0.569  10.640  -8.937  1.00  0.00     0.034 A 
ATOM     45  C   UNL     1       1.069  12.177  -2.326  1.00  0.00     0.034 A 
ATOM     46  C   UNL     1       0.084  11.924  -9.095  1.00  0.00     0.049 A 
ATOM     47  C   UNL     1       0.389  13.021  -3.339  1.00  0.00     0.074 A 
ATOM     48  C   UNL     1       1.201  12.365  -9.779  1.00  0.00     0.029 A 
ATOM     49  N   UNL     1      -0.181  12.896  -8.154  1.00  0.00    -0.354 N 
ATOM     50  N   UNL     1       1.018  13.903  -4.066  1.00  0.00    -0.248 NA
ATOM     51  C   UNL     1      -0.860  12.534  -3.903  1.00  0.00     0.031 C 
ATOM     52  C   UNL     1       1.829  13.291  -8.894  1.00  0.00     0.029 A 
ATOM     53  C   UNL     1       1.014  13.452  -7.770  1.00  0.00     0.049 A 
ATOM     54  H   UNL     1      -1.071  13.147  -7.816  1.00  0.00     0.167 HD
ATOM     55  C   UNL     1       0.507  13.740  -5.345  1.00  0.00     0.074 A 
ATOM     56  C   UNL     1      -0.716  12.957  -5.163  1.00  0.00     0.031 C 
ATOM     57  C   UNL     1       1.272  13.998  -6.448  1.00  0.00     0.034 A 
BRANCH  44  58
ATOM     58  C   UNL     1      -2.083  10.513  -8.934  1.00  0.00     0.023 A 
ATOM     59  C   UNL     1      -2.810  11.610  -9.440  1.00  0.00     0.031 A 
ATOM     60  C   UNL     1      -2.845   9.558  -8.225  1.00  0.00     0.131 A 
ATOM     61  C   UNL     1      -4.166  11.795  -9.120  1.00  0.00     0.055 A 
ATOM     62  C   UNL     1      -4.212   9.713  -7.965  1.00  0.00     0.041 A 
ATOM     63  F   UNL     1      -2.316   8.465  -7.669  1.00  0.00    -0.206 F 
ATOM     64  C   UNL     1      -4.872  10.855  -8.379  1.00  0.00     0.022 A 
BRANCH  61  65
ATOM     65  S   UNL     1      -4.931  13.384  -9.529  1.00  0.00     0.124 S 
ATOM     66  O   UNL     1      -4.022  14.318  -8.875  1.00  0.00    -0.237 OA
ATOM     67  O   UNL     1      -4.899  13.364 -10.988  1.00  0.00    -0.237 OA
ATOM     68  O   UNL     1      -6.260  13.281  -8.933  1.00  0.00    -0.744 OA
ENDBRANCH  61  65
ENDBRANCH  44  58
BRANCH  45  69
ATOM     69  C   UNL     1       0.577  12.023  -0.921  1.00  0.00     0.023 A 
ATOM     70  C   UNL     1      -0.009  13.071  -0.169  1.00  0.00     0.031 A 
ATOM     71  C   UNL     1       0.451  10.722  -0.383  1.00  0.00     0.131 A 
ATOM     72  C   UNL     1      -0.677  12.793   1.053  1.00  0.00     0.055 A 
ATOM     73  C   UNL     1      -0.213  10.454   0.817  1.00  0.00     0.041 A 
ATOM     74  F   UNL     1       0.897   9.649  -1.055  1.00  0.00    -0.206 F 
ATOM     75  C   UNL     1      -0.788  11.488   1.537  1.00  0.00     0.022 A 
BRANCH  72  76
ATOM     76  S   UNL     1      -1.488  14.120   2.015  1.00  0.00     0.124 S 
ATOM     77  O   UNL     1      -0.359  14.948   2.421  1.00  0.00    -0.237 OA
ATOM     78  O   UNL     1      -2.405  14.700   1.040  1.00  0.00    -0.237 OA
ATOM     79  O   UNL     1      -2.141  13.400   3.111  1.00  0.00    -0.744 OA
ENDBRANCH  72  76
ENDBRANCH  45  69
BRANCH  57  80
ATOM     80  C   UNL     1       2.576  14.755  -6.262  1.00  0.00     0.023 A 
ATOM     81  C   UNL     1       3.655  14.347  -5.441  1.00  0.00     0.031 A 
ATOM     82  C   UNL     1       2.763  15.899  -7.058  1.00  0.00     0.131 A 
ATOM     83  C   UNL     1       4.856  15.087  -5.436  1.00  0.00     0.055 A 
ATOM     84  C   UNL     1       3.961  16.611  -7.071  1.00  0.00     0.041 A 
ATOM     85  F   UNL     1       1.786  16.326  -7.875  1.00  0.00    -0.206 F 
ATOM     86  C   UNL     1       5.011  16.211  -6.255  1.00  0.00     0.022 A 
BRANCH  83  87
ATOM     87  S   UNL     1       6.242  14.622  -4.345  1.00  0.00     0.124 S 
ATOM     88  O   UNL     1       5.604  14.412  -3.051  1.00  0.00    -0.237 OA
ATOM     89  O   UNL     1       6.773  13.427  -4.997  1.00  0.00    -0.237 OA
ATOM     90  O   UNL     1       7.128  15.787  -4.404  1.00  0.00    -0.744 OA
ENDBRANCH  83  87
ENDBRANCH  57  80
ENDBRANCH  31  32
ENDBRANCH  23  26
ENDBRANCH  21  22
ENDBRANCH  20  21
ENDBRANCH  19  20
ENDBRANCH   1  19
TORSDOF 19
