REMARK SMILES Cc1ccc2c(c1)c(-c1ccnc3c(C)cccc13)c(C)n2CC(=O)NCCCCCCNC(=O)c1ccc(-c2c3nc(c(-c4cc(S(=O)(=O)[O-])ccc4F)c4ccc([nH]4)c(-c4cc(S(=O)(=O)[O-])ccc4F)c4nc(c(-c5cc(S(=O)(=O)[O-])ccc5F)c5ccc2[nH]5)C=C4)C=C3)cc1
REMARK SMILES IDX 30 1 29 2 28 3 27 4 26 5 24 6 25 7 23 9 22 10 1 11 2 12 3 13
REMARK SMILES IDX 7 14 4 15 6 16 5 17 8 18 20 19 21 20 9 21 10 22 19 23 11 24
REMARK SMILES IDX 13 25 18 26 12 27 14 28 17 29 15 30 16 31 31 32 32 33 33 34
REMARK SMILES IDX 34 35 35 37 36 38 37 39 98 40 38 41 97 42 39 43 40 44 41 45
REMARK SMILES IDX 91 46 42 47 96 48 90 49 92 50 43 51 95 52 89 53 88 54 44 56
REMARK SMILES IDX 76 57 56 58 75 59 57 60 60 61 74 62 93 63 58 64 59 65 73 67
REMARK SMILES IDX 94 68 61 69 45 70 46 71 54 72 47 73 53 74 55 75 52 76 48 77
REMARK SMILES IDX 49 78 50 79 51 80 77 81 78 82 86 83 79 84 85 85 87 86 84 87
REMARK SMILES IDX 80 88 81 89 82 90 83 91 62 92 63 93 71 94 64 95 70 96 72 97
REMARK SMILES IDX 69 98 65 99 66 100 67 101 68 102
REMARK H PARENT 26 8 33 36 92 55 60 66
REMARK Flexibility Score: inf
ROOT
ATOM      1  C   UNL     1      -4.561  -5.677   1.730  1.00  0.00     0.002 C 
ENDROOT
BRANCH   1   2
ATOM      2  C   UNL     1      -4.467  -5.158   0.290  1.00  0.00     0.002 C 
BRANCH   2   3
ATOM      3  C   UNL     1      -3.073  -4.669  -0.121  1.00  0.00     0.021 C 
BRANCH   3   4
ATOM      4  C   UNL     1      -2.012  -5.767  -0.135  1.00  0.00     0.116 C 
BRANCH   4   5
ATOM      5  N   UNL     1      -2.214  -6.687  -1.240  1.00  0.00    -0.355 N 
ATOM      6  C   UNL     1      -1.500  -6.826  -2.396  1.00  0.00     0.239 C 
ATOM      7  O   UNL     1      -1.886  -7.663  -3.217  1.00  0.00    -0.273 OA
ATOM      8  H   UNL     1      -2.978  -7.301  -1.142  1.00  0.00     0.163 HD
BRANCH   6   9
ATOM      9  C   UNL     1      -0.232  -6.028  -2.632  1.00  0.00     0.222 C 
BRANCH   9  10
ATOM     10  N   UNL     1      -0.462  -4.606  -2.872  1.00  0.00    -0.335 N 
ATOM     11  C   UNL     1       0.870   0.042   0.069  1.00  0.00     0.044 C 
ATOM     12  C   UNL     1       0.587  -1.216  -0.700  1.00  0.00    -0.050 A 
ATOM     13  C   UNL     1       1.159  -2.419  -0.288  1.00  0.00     0.005 A 
ATOM     14  C   UNL     1      -0.266  -1.203  -1.814  1.00  0.00     0.014 A 
ATOM     15  C   UNL     1       0.907  -3.614  -0.968  1.00  0.00     0.027 A 
ATOM     16  C   UNL     1      -0.541  -2.399  -2.517  1.00  0.00     0.008 A 
ATOM     17  C   UNL     1       0.038  -3.588  -2.074  1.00  0.00     0.049 A 
ATOM     18  C   UNL     1      -1.347  -2.717  -3.651  1.00  0.00     0.011 A 
ATOM     19  C   UNL     1      -1.205  -4.073  -3.912  1.00  0.00     0.024 A 
ATOM     20  C   UNL     1      -1.773  -4.885  -5.030  1.00  0.00     0.065 C 
BRANCH  18  21
ATOM     21  C   UNL     1      -2.196  -1.823  -4.433  1.00  0.00    -0.005 A 
ATOM     22  C   UNL     1      -1.576  -0.873  -5.239  1.00  0.00     0.029 A 
ATOM     23  C   UNL     1      -3.614  -1.864  -4.346  1.00  0.00     0.008 A 
ATOM     24  C   UNL     1      -2.380  -0.005  -5.942  1.00  0.00     0.112 A 
ATOM     25  C   UNL     1      -4.348  -0.922  -5.102  1.00  0.00     0.074 A 
ATOM     26  C   UNL     1      -4.317  -2.787  -3.536  1.00  0.00     0.011 A 
ATOM     27  N   UNL     1      -3.729  -0.018  -5.890  1.00  0.00    -0.256 NA
ATOM     28  C   UNL     1      -5.750  -0.939  -5.011  1.00  0.00    -0.025 A 
ATOM     29  C   UNL     1      -5.702  -2.786  -3.448  1.00  0.00     0.001 A 
ATOM     30  C   UNL     1      -6.603   0.032  -5.784  1.00  0.00     0.047 C 
ATOM     31  C   UNL     1      -6.418  -1.860  -4.183  1.00  0.00     0.005 A 
ENDBRANCH  18  21
ENDBRANCH   9  10
ENDBRANCH   6   9
ENDBRANCH   4   5
ENDBRANCH   3   4
ENDBRANCH   2   3
ENDBRANCH   1   2
BRANCH   1  32
ATOM     32  C   UNL     1      -4.130  -4.677   2.814  1.00  0.00     0.021 C 
BRANCH  32  33
ATOM     33  C   UNL     1      -4.911  -3.363   2.793  1.00  0.00     0.116 C 
BRANCH  33  34
ATOM     34  N   UNL     1      -6.335  -3.558   2.969  1.00  0.00    -0.352 N 
ATOM     35  C   UNL     1      -7.181  -3.645   4.038  1.00  0.00     0.251 C 
ATOM     36  H   UNL     1      -6.808  -3.649   2.110  1.00  0.00     0.163 HD
ATOM     37  O   UNL     1      -8.375  -3.781   3.753  1.00  0.00    -0.269 OA
BRANCH  35  38
ATOM     38  C   UNL     1      -6.778  -3.644   5.473  1.00  0.00     0.039 A 
ATOM     39  C   UNL     1      -5.487  -3.459   5.967  1.00  0.00     0.014 A 
ATOM     40  C   UNL     1      -7.815  -3.895   6.394  1.00  0.00     0.014 A 
ATOM     41  C   UNL     1      -5.225  -3.612   7.328  1.00  0.00     0.010 A 
ATOM     42  C   UNL     1      -7.561  -4.035   7.754  1.00  0.00     0.010 A 
ATOM     43  C   UNL     1      -6.255  -3.943   8.215  1.00  0.00    -0.014 A 
BRANCH  43  44
ATOM     44  C   UNL     1      -5.926  -4.100   9.631  1.00  0.00     0.031 A 
ATOM     45  C   UNL     1      -5.360  -2.881  10.278  1.00  0.00     0.074 A 
ATOM     46  C   UNL     1      -6.193  -5.213  10.347  1.00  0.00     0.049 A 
ATOM     47  N   UNL     1      -4.159  -2.697  10.722  1.00  0.00    -0.248 NA
ATOM     48  C   UNL     1      -6.196  -1.673  10.305  1.00  0.00     0.031 C 
ATOM     49  C   UNL     1      -7.003  -6.370   9.954  1.00  0.00     0.029 A 
ATOM     50  N   UNL     1      -5.859  -5.503  11.636  1.00  0.00    -0.354 N 
ATOM     51  C   UNL     1      -4.139  -1.412  11.270  1.00  0.00     0.074 A 
ATOM     52  C   UNL     1      -5.363  -0.782  10.843  1.00  0.00     0.031 C 
ATOM     53  C   UNL     1      -7.289  -7.110  11.050  1.00  0.00     0.029 A 
ATOM     54  C   UNL     1      -6.551  -6.577  12.181  1.00  0.00     0.049 A 
ATOM     55  H   UNL     1      -5.183  -4.993  12.140  1.00  0.00     0.167 HD
ATOM     56  C   UNL     1      -3.209  -1.040  12.197  1.00  0.00     0.034 A 
ATOM     57  C   UNL     1      -6.559  -6.971  13.480  1.00  0.00     0.034 A 
ATOM     58  C   UNL     1      -2.124  -1.982  12.247  1.00  0.00     0.049 A 
ATOM     59  C   UNL     1      -5.371  -6.389  14.144  1.00  0.00     0.074 A 
ATOM     60  C   UNL     1      -1.125  -2.381  11.386  1.00  0.00     0.029 A 
ATOM     61  N   UNL     1      -2.171  -2.928  13.240  1.00  0.00    -0.354 N 
ATOM     62  N   UNL     1      -4.145  -6.752  13.896  1.00  0.00    -0.248 NA
ATOM     63  C   UNL     1      -5.527  -5.092  14.782  1.00  0.00     0.031 C 
ATOM     64  C   UNL     1      -0.938  -3.767  11.656  1.00  0.00     0.029 A 
ATOM     65  C   UNL     1      -1.792  -4.126  12.701  1.00  0.00     0.049 A 
ATOM     66  H   UNL     1      -2.432  -2.771  14.176  1.00  0.00     0.167 HD
ATOM     67  C   UNL     1      -3.430  -5.565  13.905  1.00  0.00     0.074 A 
ATOM     68  C   UNL     1      -4.306  -4.598  14.565  1.00  0.00     0.031 C 
ATOM     69  C   UNL     1      -2.318  -5.407  13.130  1.00  0.00     0.034 A 
BRANCH  56  70
ATOM     70  C   UNL     1      -3.452  -0.047  13.317  1.00  0.00     0.023 A 
ATOM     71  C   UNL     1      -4.717   0.493  13.611  1.00  0.00     0.031 A 
ATOM     72  C   UNL     1      -2.450   0.183  14.288  1.00  0.00     0.131 A 
ATOM     73  C   UNL     1      -4.963   1.181  14.807  1.00  0.00     0.055 A 
ATOM     74  C   UNL     1      -2.711   0.814  15.511  1.00  0.00     0.041 A 
ATOM     75  F   UNL     1      -1.196  -0.262  14.110  1.00  0.00    -0.206 F 
ATOM     76  C   UNL     1      -3.978   1.310  15.780  1.00  0.00     0.022 A 
BRANCH  73  77
ATOM     77  S   UNL     1      -6.595   1.902  15.133  1.00  0.00     0.124 S 
ATOM     78  O   UNL     1      -7.000   1.195  16.342  1.00  0.00    -0.237 OA
ATOM     79  O   UNL     1      -6.265   3.314  15.305  1.00  0.00    -0.237 OA
ATOM     80  O   UNL     1      -7.353   1.587  13.925  1.00  0.00    -0.744 OA
ENDBRANCH  73  77
ENDBRANCH  56  70
BRANCH  57  81
ATOM     81  C   UNL     1      -7.749  -7.373  14.270  1.00  0.00     0.023 A 
ATOM     82  C   UNL     1      -9.005  -6.826  13.949  1.00  0.00     0.031 A 
ATOM     83  C   UNL     1      -7.616  -7.997  15.523  1.00  0.00     0.131 A 
ATOM     84  C   UNL     1     -10.052  -6.855  14.881  1.00  0.00     0.055 A 
ATOM     85  C   UNL     1      -8.670  -8.044  16.444  1.00  0.00     0.041 A 
ATOM     86  F   UNL     1      -6.434  -8.504  15.909  1.00  0.00    -0.206 F 
ATOM     87  C   UNL     1      -9.891  -7.455  16.131  1.00  0.00     0.022 A 
BRANCH  84  88
ATOM     88  S   UNL     1     -11.617  -6.012  14.519  1.00  0.00     0.124 S 
ATOM     89  O   UNL     1     -12.603  -7.039  14.859  1.00  0.00    -0.237 OA
ATOM     90  O   UNL     1     -11.558  -4.875  15.439  1.00  0.00    -0.237 OA
ATOM     91  O   UNL     1     -11.518  -5.693  13.106  1.00  0.00    -0.744 OA
ENDBRANCH  84  88
ENDBRANCH  57  81
BRANCH  69  92
ATOM     92  C   UNL     1      -1.714  -6.622  12.462  1.00  0.00     0.023 A 
ATOM     93  C   UNL     1      -0.328  -6.803  12.611  1.00  0.00     0.031 A 
ATOM     94  C   UNL     1      -2.380  -7.437  11.528  1.00  0.00     0.131 A 
ATOM     95  C   UNL     1       0.356  -7.722  11.810  1.00  0.00     0.055 A 
ATOM     96  C   UNL     1      -1.704  -8.410  10.783  1.00  0.00     0.041 A 
ATOM     97  F   UNL     1      -3.677  -7.262  11.241  1.00  0.00    -0.206 F 
ATOM     98  C   UNL     1      -0.326  -8.542  10.908  1.00  0.00     0.022 A 
BRANCH  95  99
ATOM     99  S   UNL     1       2.166  -7.746  11.800  1.00  0.00     0.124 S 
ATOM    100  O   UNL     1       2.460  -9.089  12.292  1.00  0.00    -0.237 OA
ATOM    101  O   UNL     1       2.469  -7.516  10.388  1.00  0.00    -0.237 OA
ATOM    102  O   UNL     1       2.541  -6.656  12.695  1.00  0.00    -0.744 OA
ENDBRANCH  95  99
ENDBRANCH  69  92
ENDBRANCH  43  44
ENDBRANCH  35  38
ENDBRANCH  33  34
ENDBRANCH  32  33
ENDBRANCH   1  32
TORSDOF 18
