REMARK SMILES CC(C)(C)OC(=O)[C@]1(C(=O)NCCCCCCNC(=O)c2ccc(-c3c4nc(c(-c5cc(S(=O)(=O)[O-])ccc5F)c5ccc([nH]5)c(-c5cc(S(=O)(=O)[O-])ccc5F)c5nc(c(-c6cc(S(=O)(=O)[O-])ccc6F)c6ccc3[nH]6)C=C5)C=C4)cc2)CC=CC[C@@H]1[NH3+]
REMARK SMILES IDX 14 1 13 2 12 3 11 4 9 5 10 6 8 8 84 9 88 10 85 11 87 12
REMARK SMILES IDX 86 13 6 14 7 15 5 16 2 17 1 18 3 19 4 20 89 21 15 25 16 26
REMARK SMILES IDX 17 27 18 28 19 29 20 31 21 32 22 33 83 34 23 35 82 36 24 37
REMARK SMILES IDX 25 38 26 39 76 40 27 41 81 42 75 43 77 44 28 45 80 46 74 47
REMARK SMILES IDX 73 48 29 50 61 51 41 52 60 53 42 54 45 55 59 56 78 57 43 58
REMARK SMILES IDX 44 59 58 61 79 62 46 63 30 64 31 65 39 66 32 67 38 68 40 69
REMARK SMILES IDX 37 70 33 71 34 72 35 73 36 74 62 75 63 76 71 77 64 78 70 79
REMARK SMILES IDX 72 80 69 81 65 82 66 83 67 84 68 85 47 86 48 87 56 88 49 89
REMARK SMILES IDX 55 90 57 91 54 92 50 93 51 94 52 95 53 96
REMARK H PARENT 11 7 89 22 89 23 89 24 18 30 77 49 45 60
REMARK Flexibility Score: inf
ROOT
ATOM      1  C   UNL     1       1.843   0.970   3.444  1.00  0.00     0.002 C 
ENDROOT
BRANCH   1   2
ATOM      2  C   UNL     1       2.750  -0.140   2.903  1.00  0.00     0.021 C 
BRANCH   2   3
ATOM      3  C   UNL     1       2.341  -1.575   3.225  1.00  0.00     0.116 C 
BRANCH   3   4
ATOM      4  N   UNL     1       1.007  -1.919   2.783  1.00  0.00    -0.355 N 
ATOM      5  C   UNL     1       0.424  -3.130   2.572  1.00  0.00     0.244 C 
ATOM      6  O   UNL     1      -0.796  -3.078   2.355  1.00  0.00    -0.274 OA
ATOM      7  H   UNL     1       0.423  -1.146   2.603  1.00  0.00     0.163 HD
BRANCH   5   8
ATOM      8  C   UNL     1       1.182  -4.472   2.466  1.00  0.00     0.201 C 
ATOM      9  C   UNL     1       0.202  -5.555   3.026  1.00  0.00     0.062 C 
ATOM     10  C   UNL     1       1.420  -4.741   0.946  1.00  0.00     0.212 C 
ATOM     11  C   UNL     1       0.525  -6.963   2.626  1.00  0.00    -0.029 C 
ATOM     12  C   UNL     1       1.745  -6.216   0.583  1.00  0.00     0.093 C 
ATOM     13  C   UNL     1       1.217  -7.254   1.521  1.00  0.00    -0.025 C 
BRANCH   8  14
ATOM     14  C   UNL     1       2.405  -4.566   3.368  1.00  0.00     0.328 C 
ATOM     15  O   UNL     1       2.381  -4.264   4.557  1.00  0.00    -0.251 OA
BRANCH  14  16
ATOM     16  O   UNL     1       3.514  -5.032   2.729  1.00  0.00    -0.459 OA
BRANCH  16  17
ATOM     17  C   UNL     1       4.798  -5.120   3.412  1.00  0.00     0.104 C 
ATOM     18  C   UNL     1       5.740  -5.792   2.400  1.00  0.00     0.056 C 
ATOM     19  C   UNL     1       4.735  -5.997   4.668  1.00  0.00     0.056 C 
ATOM     20  C   UNL     1       5.339  -3.721   3.723  1.00  0.00     0.056 C 
ENDBRANCH  16  17
ENDBRANCH  14  16
ENDBRANCH   8  14
BRANCH  10  21
ATOM     21  N   UNL     1       2.420  -3.854   0.309  1.00  0.00    -0.353 N 
ATOM     22  H   UNL     1       3.346  -4.062   0.684  1.00  0.00     0.344 HD
ATOM     23  H   UNL     1       2.184  -2.881   0.505  1.00  0.00     0.344 HD
ATOM     24  H   UNL     1       2.418  -4.009  -0.699  1.00  0.00     0.344 HD
ENDBRANCH  10  21
ENDBRANCH   5   8
ENDBRANCH   3   4
ENDBRANCH   2   3
ENDBRANCH   1   2
BRANCH   1  25
ATOM     25  C   UNL     1       1.537   0.942   4.943  1.00  0.00     0.002 C 
BRANCH  25  26
ATOM     26  C   UNL     1       2.744   0.901   5.881  1.00  0.00     0.021 C 
BRANCH  26  27
ATOM     27  C   UNL     1       3.800   1.977   5.655  1.00  0.00     0.116 C 
BRANCH  27  28
ATOM     28  N   UNL     1       3.300   3.326   5.860  1.00  0.00    -0.352 N 
ATOM     29  C   UNL     1       3.862   4.354   6.580  1.00  0.00     0.251 C 
ATOM     30  H   UNL     1       2.442   3.532   5.423  1.00  0.00     0.163 HD
ATOM     31  O   UNL     1       3.240   5.401   6.746  1.00  0.00    -0.269 OA
BRANCH  29  32
ATOM     32  C   UNL     1       5.202   4.178   7.185  1.00  0.00     0.039 A 
ATOM     33  C   UNL     1       5.392   4.515   8.528  1.00  0.00     0.014 A 
ATOM     34  C   UNL     1       6.261   3.660   6.434  1.00  0.00     0.014 A 
ATOM     35  C   UNL     1       6.624   4.261   9.140  1.00  0.00     0.010 A 
ATOM     36  C   UNL     1       7.463   3.347   7.062  1.00  0.00     0.010 A 
ATOM     37  C   UNL     1       7.658   3.641   8.422  1.00  0.00    -0.014 A 
BRANCH  37  38
ATOM     38  C   UNL     1       8.966   3.307   9.048  1.00  0.00     0.031 A 
ATOM     39  C   UNL     1      10.219   3.962   8.534  1.00  0.00     0.074 A 
ATOM     40  C   UNL     1       9.042   2.356  10.001  1.00  0.00     0.049 A 
ATOM     41  N   UNL     1      11.470   3.685   8.796  1.00  0.00    -0.248 NA
ATOM     42  C   UNL     1      10.034   5.051   7.564  1.00  0.00     0.031 C 
ATOM     43  C   UNL     1       7.901   1.640  10.574  1.00  0.00     0.029 A 
ATOM     44  N   UNL     1      10.129   1.811  10.639  1.00  0.00    -0.354 N 
ATOM     45  C   UNL     1      12.222   4.545   8.003  1.00  0.00     0.074 A 
ATOM     46  C   UNL     1      11.283   5.315   7.215  1.00  0.00     0.031 C 
ATOM     47  C   UNL     1       8.348   0.756  11.481  1.00  0.00     0.029 A 
ATOM     48  C   UNL     1       9.807   0.800  11.516  1.00  0.00     0.049 A 
ATOM     49  H   UNL     1      11.053   2.115  10.483  1.00  0.00     0.167 HD
ATOM     50  C   UNL     1      13.570   4.691   7.951  1.00  0.00     0.034 A 
ATOM     51  C   UNL     1      10.598  -0.017  12.243  1.00  0.00     0.034 A 
ATOM     52  C   UNL     1      14.488   3.929   8.761  1.00  0.00     0.049 A 
ATOM     53  C   UNL     1      12.096   0.140  12.147  1.00  0.00     0.074 A 
ATOM     54  C   UNL     1      15.868   4.025   8.822  1.00  0.00     0.029 A 
ATOM     55  N   UNL     1      14.121   2.928   9.652  1.00  0.00    -0.354 N 
ATOM     56  N   UNL     1      12.793   0.970  11.405  1.00  0.00    -0.248 NA
ATOM     57  C   UNL     1      12.915  -0.745  12.987  1.00  0.00     0.031 C 
ATOM     58  C   UNL     1      16.338   3.042   9.698  1.00  0.00     0.029 A 
ATOM     59  C   UNL     1      15.249   2.384  10.246  1.00  0.00     0.049 A 
ATOM     60  H   UNL     1      13.196   2.647   9.834  1.00  0.00     0.167 HD
ATOM     61  C   UNL     1      14.128   0.736  11.725  1.00  0.00     0.074 A 
ATOM     62  C   UNL     1      14.140  -0.315  12.721  1.00  0.00     0.031 C 
ATOM     63  C   UNL     1      15.243   1.344  11.247  1.00  0.00     0.034 A 
BRANCH  50  64
ATOM     64  C   UNL     1      14.123   5.688   6.962  1.00  0.00     0.023 A 
ATOM     65  C   UNL     1      13.831   7.060   7.053  1.00  0.00     0.031 A 
ATOM     66  C   UNL     1      14.928   5.258   5.892  1.00  0.00     0.131 A 
ATOM     67  C   UNL     1      14.266   7.938   6.049  1.00  0.00     0.055 A 
ATOM     68  C   UNL     1      15.433   6.151   4.944  1.00  0.00     0.041 A 
ATOM     69  F   UNL     1      15.226   3.958   5.739  1.00  0.00    -0.206 F 
ATOM     70  C   UNL     1      15.088   7.498   5.010  1.00  0.00     0.022 A 
BRANCH  67  71
ATOM     71  S   UNL     1      13.613   9.630   6.039  1.00  0.00     0.124 S 
ATOM     72  O   UNL     1      12.176   9.389   5.939  1.00  0.00    -0.237 OA
ATOM     73  O   UNL     1      14.085  10.158   7.314  1.00  0.00    -0.237 OA
ATOM     74  O   UNL     1      14.222  10.225   4.851  1.00  0.00    -0.744 OA
ENDBRANCH  67  71
ENDBRANCH  50  64
BRANCH  51  75
ATOM     75  C   UNL     1      10.000  -1.072  13.111  1.00  0.00     0.023 A 
ATOM     76  C   UNL     1      10.152  -1.031  14.506  1.00  0.00     0.031 A 
ATOM     77  C   UNL     1       9.304  -2.161  12.556  1.00  0.00     0.131 A 
ATOM     78  C   UNL     1       9.659  -2.082  15.296  1.00  0.00     0.055 A 
ATOM     79  C   UNL     1       8.767  -3.176  13.351  1.00  0.00     0.041 A 
ATOM     80  F   UNL     1       9.126  -2.249  11.228  1.00  0.00    -0.206 F 
ATOM     81  C   UNL     1       8.955  -3.147  14.729  1.00  0.00     0.022 A 
BRANCH  78  82
ATOM     82  S   UNL     1      10.030  -2.081  17.071  1.00  0.00     0.124 S 
ATOM     83  O   UNL     1      11.489  -2.058  17.069  1.00  0.00    -0.237 OA
ATOM     84  O   UNL     1       9.369  -0.860  17.518  1.00  0.00    -0.237 OA
ATOM     85  O   UNL     1       9.426  -3.325  17.545  1.00  0.00    -0.744 OA
ENDBRANCH  78  82
ENDBRANCH  51  75
BRANCH  63  86
ATOM     86  C   UNL     1      16.566   0.945  11.851  1.00  0.00     0.023 A 
ATOM     87  C   UNL     1      17.148  -0.311  11.615  1.00  0.00     0.031 A 
ATOM     88  C   UNL     1      17.268   1.863  12.654  1.00  0.00     0.131 A 
ATOM     89  C   UNL     1      18.382  -0.628  12.203  1.00  0.00     0.055 A 
ATOM     90  C   UNL     1      18.518   1.561  13.195  1.00  0.00     0.041 A 
ATOM     91  F   UNL     1      16.755   3.077  12.911  1.00  0.00    -0.206 F 
ATOM     92  C   UNL     1      19.078   0.306  12.976  1.00  0.00     0.022 A 
BRANCH  89  93
ATOM     93  S   UNL     1      19.051  -2.300  11.987  1.00  0.00     0.124 S 
ATOM     94  O   UNL     1      18.022  -3.123  12.614  1.00  0.00    -0.237 OA
ATOM     95  O   UNL     1      19.158  -2.410  10.536  1.00  0.00    -0.237 OA
ATOM     96  O   UNL     1      20.328  -2.255  12.698  1.00  0.00    -0.744 OA
ENDBRANCH  89  93
ENDBRANCH  63  86
ENDBRANCH  37  38
ENDBRANCH  29  32
ENDBRANCH  27  28
ENDBRANCH  26  27
ENDBRANCH  25  26
ENDBRANCH   1  25
TORSDOF 20
