REMARK SMILES C[C@@H]1CC[C@@H](C(=O)NCCCCCCNC(=O)c2ccc(-c3c4nc(c(-c5cc(S(=O)(=O)[O-])ccc5F)c5ccc([nH]5)c(-c5cc(S(=O)(=O)[O-])ccc5F)c5nc(c(-c6cc(S(=O)(=O)[O-])ccc6F)c6ccc3[nH]6)C=C5)C=C4)cc2)[C@H](SCC[NH+](C)C)C1
REMARK SMILES IDX 11 1 10 2 9 3 8 4 6 5 7 6 5 8 1 9 2 10 3 11 88 12 4 13 81 14
REMARK SMILES IDX 82 15 83 16 84 17 85 18 86 19 87 20 12 22 13 23 14 24 15 25
REMARK SMILES IDX 16 26 17 28 18 29 19 30 80 31 20 32 79 33 21 34 22 35 23 36
REMARK SMILES IDX 73 37 24 38 78 39 72 40 74 41 25 42 77 43 71 44 70 45 26 47
REMARK SMILES IDX 58 48 38 49 57 50 39 51 42 52 56 53 75 54 40 55 41 56 55 58
REMARK SMILES IDX 76 59 43 60 27 61 28 62 36 63 29 64 35 65 37 66 34 67 30 68
REMARK SMILES IDX 31 69 32 70 33 71 59 72 60 73 68 74 61 75 67 76 69 77 66 78
REMARK SMILES IDX 62 79 63 80 64 81 65 82 44 83 45 84 53 85 46 86 52 87 54 88
REMARK SMILES IDX 51 89 47 90 48 91 49 92 50 93
REMARK H PARENT 8 7 85 21 15 27 74 46 42 57
REMARK Flexibility Score: inf
ROOT
ATOM      1  C   UNL     1      -5.249   1.584  -3.725  1.00  0.00     0.002 C 
ENDROOT
BRANCH   1   2
ATOM      2  C   UNL     1      -5.002   1.625  -2.208  1.00  0.00     0.021 C 
BRANCH   2   3
ATOM      3  C   UNL     1      -4.667   0.288  -1.544  1.00  0.00     0.116 C 
BRANCH   3   4
ATOM      4  N   UNL     1      -3.605  -0.410  -2.226  1.00  0.00    -0.356 N 
ATOM      5  C   UNL     1      -2.325  -0.672  -1.896  1.00  0.00     0.224 C 
ATOM      6  O   UNL     1      -1.683  -1.307  -2.740  1.00  0.00    -0.275 OA
ATOM      7  H   UNL     1      -3.868  -0.766  -3.106  1.00  0.00     0.163 HD
BRANCH   5   8
ATOM      8  C   UNL     1      -1.661  -0.129  -0.611  1.00  0.00     0.091 C 
ATOM      9  C   UNL     1       2.249  -1.229   0.147  1.00  0.00     0.007 C 
ATOM     10  C   UNL     1       1.142  -1.237  -0.909  1.00  0.00    -0.013 C 
ATOM     11  C   UNL     1       0.807   0.166  -1.451  1.00  0.00     0.004 C 
ATOM     12  C   UNL     1      -0.032  -2.093  -0.435  1.00  0.00     0.018 C 
ATOM     13  C   UNL     1      -0.575   0.785  -1.193  1.00  0.00     0.015 C 
ATOM     14  C   UNL     1      -1.186  -1.335   0.241  1.00  0.00     0.059 C 
BRANCH  14  15
ATOM     15  S   UNL     1      -0.967  -1.553   2.108  1.00  0.00    -0.152 SA
BRANCH  15  16
ATOM     16  C   UNL     1      -0.803   0.010   3.063  1.00  0.00     0.131 C 
BRANCH  16  17
ATOM     17  C   UNL     1       0.648   0.456   3.457  1.00  0.00     0.272 C 
BRANCH  17  18
ATOM     18  N   UNL     1       1.255   1.613   2.761  1.00  0.00    -0.339 N 
ATOM     19  C   UNL     1       2.698   1.460   2.547  1.00  0.00     0.332 C 
ATOM     20  C   UNL     1       0.591   1.891   1.514  1.00  0.00     0.332 C 
ATOM     21  H   UNL     1       1.125   2.410   3.384  1.00  0.00     0.347 HD
ENDBRANCH  17  18
ENDBRANCH  16  17
ENDBRANCH  15  16
ENDBRANCH  14  15
ENDBRANCH   5   8
ENDBRANCH   3   4
ENDBRANCH   2   3
ENDBRANCH   1   2
BRANCH   1  22
ATOM     22  C   UNL     1      -6.215   0.511  -4.236  1.00  0.00     0.002 C 
BRANCH  22  23
ATOM     23  C   UNL     1      -7.591   0.491  -3.574  1.00  0.00     0.021 C 
BRANCH  23  24
ATOM     24  C   UNL     1      -8.377   1.789  -3.698  1.00  0.00     0.116 C 
BRANCH  24  25
ATOM     25  N   UNL     1      -8.726   2.091  -5.076  1.00  0.00    -0.352 N 
ATOM     26  C   UNL     1      -9.963   2.339  -5.618  1.00  0.00     0.251 C 
ATOM     27  H   UNL     1      -7.972   2.121  -5.709  1.00  0.00     0.163 HD
ATOM     28  O   UNL     1     -10.101   2.370  -6.840  1.00  0.00    -0.269 OA
BRANCH  26  29
ATOM     29  C   UNL     1     -11.128   2.539  -4.728  1.00  0.00     0.039 A 
ATOM     30  C   UNL     1     -12.332   1.901  -5.029  1.00  0.00     0.014 A 
ATOM     31  C   UNL     1     -11.026   3.346  -3.590  1.00  0.00     0.014 A 
ATOM     32  C   UNL     1     -13.416   2.022  -4.156  1.00  0.00     0.010 A 
ATOM     33  C   UNL     1     -12.078   3.396  -2.680  1.00  0.00     0.010 A 
ATOM     34  C   UNL     1     -13.287   2.740  -2.955  1.00  0.00    -0.014 A 
BRANCH  34  35
ATOM     35  C   UNL     1     -14.407   2.821  -1.981  1.00  0.00     0.031 A 
ATOM     36  C   UNL     1     -15.028   4.152  -1.654  1.00  0.00     0.074 A 
ATOM     37  C   UNL     1     -14.828   1.705  -1.351  1.00  0.00     0.049 A 
ATOM     38  N   UNL     1     -15.970   4.439  -0.792  1.00  0.00    -0.248 NA
ATOM     39  C   UNL     1     -14.497   5.321  -2.372  1.00  0.00     0.031 C 
ATOM     40  C   UNL     1     -14.281   0.362  -1.559  1.00  0.00     0.029 A 
ATOM     41  N   UNL     1     -15.807   1.520  -0.408  1.00  0.00    -0.354 N 
ATOM     42  C   UNL     1     -16.135   5.818  -0.855  1.00  0.00     0.074 A 
ATOM     43  C   UNL     1     -15.149   6.315  -1.790  1.00  0.00     0.031 C 
ATOM     44  C   UNL     1     -14.957  -0.511  -0.795  1.00  0.00     0.029 A 
ATOM     45  C   UNL     1     -15.945   0.212  -0.002  1.00  0.00     0.049 A 
ATOM     46  H   UNL     1     -16.359   2.254  -0.054  1.00  0.00     0.167 HD
ATOM     47  C   UNL     1     -17.041   6.595  -0.209  1.00  0.00     0.034 A 
ATOM     48  C   UNL     1     -16.767  -0.340   0.914  1.00  0.00     0.034 A 
ATOM     49  C   UNL     1     -18.022   6.079   0.715  1.00  0.00     0.049 A 
ATOM     50  C   UNL     1     -17.735   0.551   1.653  1.00  0.00     0.074 A 
ATOM     51  C   UNL     1     -19.024   6.766   1.379  1.00  0.00     0.029 A 
ATOM     52  N   UNL     1     -18.118   4.753   1.118  1.00  0.00    -0.354 N 
ATOM     53  N   UNL     1     -17.918   1.847   1.540  1.00  0.00    -0.248 NA
ATOM     54  C   UNL     1     -18.612  -0.097   2.635  1.00  0.00     0.031 C 
ATOM     55  C   UNL     1     -19.667   5.875   2.245  1.00  0.00     0.029 A 
ATOM     56  C   UNL     1     -19.133   4.611   2.053  1.00  0.00     0.049 A 
ATOM     57  H   UNL     1     -17.549   4.020   0.788  1.00  0.00     0.167 HD
ATOM     58  C   UNL     1     -18.958   2.160   2.411  1.00  0.00     0.074 A 
ATOM     59  C   UNL     1     -19.369   0.916   3.029  1.00  0.00     0.031 C 
ATOM     60  C   UNL     1     -19.527   3.366   2.672  1.00  0.00     0.034 A 
BRANCH  47  61
ATOM     61  C   UNL     1     -16.985   8.085  -0.458  1.00  0.00     0.023 A 
ATOM     62  C   UNL     1     -17.183   8.632  -1.738  1.00  0.00     0.031 A 
ATOM     63  C   UNL     1     -16.699   8.972   0.595  1.00  0.00     0.131 A 
ATOM     64  C   UNL     1     -17.010  10.008  -1.949  1.00  0.00     0.055 A 
ATOM     65  C   UNL     1     -16.619  10.352   0.397  1.00  0.00     0.041 A 
ATOM     66  F   UNL     1     -16.477   8.512   1.837  1.00  0.00    -0.206 F 
ATOM     67  C   UNL     1     -16.757  10.877  -0.885  1.00  0.00     0.022 A 
BRANCH  64  68
ATOM     68  S   UNL     1     -16.955  10.623  -3.655  1.00  0.00     0.124 S 
ATOM     69  O   UNL     1     -15.861   9.834  -4.217  1.00  0.00    -0.237 OA
ATOM     70  O   UNL     1     -18.291  10.306  -4.147  1.00  0.00    -0.237 OA
ATOM     71  O   UNL     1     -16.669  12.047  -3.497  1.00  0.00    -0.744 OA
ENDBRANCH  64  68
ENDBRANCH  47  61
BRANCH  48  72
ATOM     72  C   UNL     1     -16.716  -1.804   1.195  1.00  0.00     0.023 A 
ATOM     73  C   UNL     1     -17.827  -2.626   0.947  1.00  0.00     0.031 A 
ATOM     74  C   UNL     1     -15.574  -2.397   1.763  1.00  0.00     0.131 A 
ATOM     75  C   UNL     1     -17.793  -3.980   1.314  1.00  0.00     0.055 A 
ATOM     76  C   UNL     1     -15.523  -3.758   2.070  1.00  0.00     0.041 A 
ATOM     77  F   UNL     1     -14.482  -1.659   2.021  1.00  0.00    -0.206 F 
ATOM     78  C   UNL     1     -16.643  -4.555   1.859  1.00  0.00     0.022 A 
BRANCH  75  79
ATOM     79  S   UNL     1     -19.312  -4.958   1.161  1.00  0.00     0.124 S 
ATOM     80  O   UNL     1     -20.237  -4.201   1.996  1.00  0.00    -0.237 OA
ATOM     81  O   UNL     1     -19.559  -4.912  -0.277  1.00  0.00    -0.237 OA
ATOM     82  O   UNL     1     -18.927  -6.268   1.683  1.00  0.00    -0.744 OA
ENDBRANCH  75  79
ENDBRANCH  48  72
BRANCH  60  83
ATOM     83  C   UNL     1     -20.692   3.384   3.633  1.00  0.00     0.023 A 
ATOM     84  C   UNL     1     -20.543   3.049   4.991  1.00  0.00     0.031 A 
ATOM     85  C   UNL     1     -21.977   3.733   3.178  1.00  0.00     0.131 A 
ATOM     86  C   UNL     1     -21.667   3.011   5.830  1.00  0.00     0.055 A 
ATOM     87  C   UNL     1     -23.079   3.762   4.033  1.00  0.00     0.041 A 
ATOM     88  F   UNL     1     -22.181   4.057   1.891  1.00  0.00    -0.206 F 
ATOM     89  C   UNL     1     -22.930   3.386   5.364  1.00  0.00     0.022 A 
BRANCH  86  90
ATOM     90  S   UNL     1     -21.476   2.366   7.514  1.00  0.00     0.124 S 
ATOM     91  O   UNL     1     -20.955   1.026   7.268  1.00  0.00    -0.237 OA
ATOM     92  O   UNL     1     -20.539   3.315   8.107  1.00  0.00    -0.237 OA
ATOM     93  O   UNL     1     -22.832   2.415   8.056  1.00  0.00    -0.744 OA
ENDBRANCH  86  90
ENDBRANCH  60  83
ENDBRANCH  34  35
ENDBRANCH  26  29
ENDBRANCH  24  25
ENDBRANCH  23  24
ENDBRANCH  22  23
ENDBRANCH   1  22
TORSDOF 20
