REMARK SMILES O=C(CNC(=O)CNC(=O)OCc1ccccc1)NCCCCCCNC(=O)c1ccc(-c2c3nc(c(-c4cc(S(=O)(=O)[O-])ccc4F)c4ccc([nH]4)c(-c4cc(S(=O)(=O)[O-])ccc4F)c4nc(c(-c5cc(S(=O)(=O)[O-])ccc5F)c5ccc2[nH]5)C=C4)C=C3)cc1
REMARK SMILES IDX 21 1 20 2 19 3 1 4 2 5 3 7 4 8 5 9 6 11 7 12 8 13 9 14 10 16
REMARK SMILES IDX 11 17 12 18 13 19 14 20 18 21 15 22 17 23 16 24 22 25 23 26
REMARK SMILES IDX 24 27 25 28 26 29 27 30 28 32 29 33 30 34 91 35 31 36 90 37
REMARK SMILES IDX 32 38 33 39 34 40 84 41 35 42 89 43 83 44 85 45 36 46 88 47
REMARK SMILES IDX 82 48 81 49 37 51 69 52 49 53 68 54 50 55 53 56 67 57 86 58
REMARK SMILES IDX 51 59 52 60 66 62 87 63 54 64 38 65 39 66 47 67 40 68 46 69
REMARK SMILES IDX 48 70 45 71 41 72 42 73 43 74 44 75 70 76 71 77 79 78 72 79
REMARK SMILES IDX 78 80 80 81 77 82 73 83 74 84 75 85 76 86 55 87 56 88 64 89
REMARK SMILES IDX 57 90 63 91 65 92 62 93 58 94 59 95 60 96 61 97
REMARK H PARENT 19 6 4 10 8 15 26 31 85 50 53 61
REMARK Flexibility Score: inf
ROOT
ATOM      1  C   UNL     1       2.596  -3.155   1.058  1.00  0.00     0.021 C 
ENDROOT
BRANCH   1   2
ATOM      2  C   UNL     1       2.038  -1.813   1.534  1.00  0.00     0.116 C 
BRANCH   2   3
ATOM      3  N   UNL     1       2.636  -0.681   0.849  1.00  0.00    -0.355 N 
ATOM      4  O   UNL     1       0.801  -0.151  -0.427  1.00  0.00    -0.273 OA
ATOM      5  C   UNL     1       1.948   0.091  -0.059  1.00  0.00     0.239 C 
ATOM      6  H   UNL     1       3.575  -0.457   1.042  1.00  0.00     0.163 HD
BRANCH   5   7
ATOM      7  C   UNL     1       2.765   1.216  -0.708  1.00  0.00     0.216 C 
BRANCH   7   8
ATOM      8  N   UNL     1       3.851   1.726   0.122  1.00  0.00    -0.346 N 
ATOM      9  C   UNL     1       5.196   1.724  -0.100  1.00  0.00     0.239 C 
ATOM     10  H   UNL     1       3.569   2.134   0.972  1.00  0.00     0.164 HD
ATOM     11  O   UNL     1       5.913   2.357   0.677  1.00  0.00    -0.273 OA
BRANCH   9  12
ATOM     12  C   UNL     1       5.790   0.982  -1.296  1.00  0.00     0.219 C 
BRANCH  12  13
ATOM     13  N   UNL     1       5.530  -0.438  -1.170  1.00  0.00    -0.312 N 
ATOM     14  C   UNL     1       4.845  -1.218  -2.046  1.00  0.00     0.407 C 
ATOM     15  H   UNL     1       5.886  -0.883  -0.367  1.00  0.00     0.167 HD
ATOM     16  O   UNL     1       4.525  -2.362  -1.753  1.00  0.00    -0.225 OA
BRANCH  14  17
ATOM     17  O   UNL     1       4.555  -0.585  -3.207  1.00  0.00    -0.445 OA
BRANCH  17  18
ATOM     18  C   UNL     1       3.794  -1.356  -4.150  1.00  0.00     0.270 C 
BRANCH  18  19
ATOM     19  C   UNL     1       4.587  -2.512  -4.707  1.00  0.00    -0.011 A 
ATOM     20  C   UNL     1       4.069  -3.812  -4.634  1.00  0.00     0.007 A 
ATOM     21  C   UNL     1       5.867  -2.314  -5.241  1.00  0.00     0.007 A 
ATOM     22  C   UNL     1       4.833  -4.900  -5.055  1.00  0.00     0.000 A 
ATOM     23  C   UNL     1       6.630  -3.405  -5.660  1.00  0.00     0.000 A 
ATOM     24  C   UNL     1       6.115  -4.697  -5.560  1.00  0.00     0.000 A 
ENDBRANCH  18  19
ENDBRANCH  17  18
ENDBRANCH  14  17
ENDBRANCH  12  13
ENDBRANCH   9  12
ENDBRANCH   7   8
ENDBRANCH   5   7
ENDBRANCH   2   3
ENDBRANCH   1   2
BRANCH   1  25
ATOM     25  C   UNL     1       4.090  -3.366   1.333  1.00  0.00     0.002 C 
BRANCH  25  26
ATOM     26  C   UNL     1       4.523  -3.259   2.796  1.00  0.00     0.002 C 
BRANCH  26  27
ATOM     27  C   UNL     1       3.817  -4.214   3.758  1.00  0.00     0.021 C 
BRANCH  27  28
ATOM     28  C   UNL     1       3.987  -5.694   3.433  1.00  0.00     0.116 C 
BRANCH  28  29
ATOM     29  N   UNL     1       5.371  -6.128   3.533  1.00  0.00    -0.352 N 
ATOM     30  C   UNL     1       5.910  -7.168   4.251  1.00  0.00     0.251 C 
ATOM     31  H   UNL     1       6.016  -5.599   3.010  1.00  0.00     0.163 HD
ATOM     32  O   UNL     1       7.130  -7.256   4.368  1.00  0.00    -0.269 OA
BRANCH  30  33
ATOM     33  C   UNL     1       5.025  -8.164   4.899  1.00  0.00     0.039 A 
ATOM     34  C   UNL     1       5.335  -8.611   6.185  1.00  0.00     0.014 A 
ATOM     35  C   UNL     1       3.902  -8.669   4.238  1.00  0.00     0.014 A 
ATOM     36  C   UNL     1       4.491  -9.524   6.826  1.00  0.00     0.010 A 
ATOM     37  C   UNL     1       3.018  -9.511   4.909  1.00  0.00     0.010 A 
ATOM     38  C   UNL     1       3.308  -9.960   6.206  1.00  0.00    -0.014 A 
BRANCH  38  39
ATOM     39  C   UNL     1       2.389 -10.918   6.881  1.00  0.00     0.031 A 
ATOM     40  C   UNL     1       2.139 -12.273   6.270  1.00  0.00     0.074 A 
ATOM     41  C   UNL     1       1.756 -10.562   8.018  1.00  0.00     0.049 A 
ATOM     42  N   UNL     1       1.316 -13.215   6.654  1.00  0.00    -0.248 NA
ATOM     43  C   UNL     1       2.895 -12.599   5.051  1.00  0.00     0.031 C 
ATOM     44  C   UNL     1       1.894  -9.270   8.694  1.00  0.00     0.029 A 
ATOM     45  N   UNL     1       0.864 -11.250   8.804  1.00  0.00    -0.354 N 
ATOM     46  C   UNL     1       1.459 -14.244   5.729  1.00  0.00     0.074 A 
ATOM     47  C   UNL     1       2.387 -13.777   4.722  1.00  0.00     0.031 C 
ATOM     48  C   UNL     1       1.135  -9.269   9.802  1.00  0.00     0.029 A 
ATOM     49  C   UNL     1       0.413 -10.535   9.891  1.00  0.00     0.049 A 
ATOM     50  H   UNL     1       0.574 -12.171   8.608  1.00  0.00     0.167 HD
ATOM     51  C   UNL     1       0.897 -15.478   5.735  1.00  0.00     0.034 A 
ATOM     52  C   UNL     1      -0.492 -10.854  10.839  1.00  0.00     0.034 A 
ATOM     53  C   UNL     1      -0.023 -15.937   6.745  1.00  0.00     0.049 A 
ATOM     54  C   UNL     1      -1.144 -12.217  10.792  1.00  0.00     0.074 A 
ATOM     55  C   UNL     1      -0.645 -17.169   6.849  1.00  0.00     0.029 A 
ATOM     56  N   UNL     1      -0.453 -15.184   7.831  1.00  0.00    -0.354 N 
ATOM     57  N   UNL     1      -0.978 -13.185   9.920  1.00  0.00    -0.248 NA
ATOM     58  C   UNL     1      -2.091 -12.538  11.868  1.00  0.00     0.031 C 
ATOM     59  C   UNL     1      -1.498 -17.139   7.956  1.00  0.00     0.029 A 
ATOM     60  C   UNL     1      -1.341 -15.922   8.598  1.00  0.00     0.049 A 
ATOM     61  H   UNL     1      -0.168 -14.262   8.027  1.00  0.00     0.167 HD
ATOM     62  C   UNL     1      -1.761 -14.244  10.375  1.00  0.00     0.074 A 
ATOM     63  C   UNL     1      -2.384 -13.801  11.603  1.00  0.00     0.031 C 
ATOM     64  C   UNL     1      -1.945 -15.474   9.830  1.00  0.00     0.034 A 
BRANCH  51  65
ATOM     65  C   UNL     1       1.262 -16.416   4.609  1.00  0.00     0.023 A 
ATOM     66  C   UNL     1       2.582 -16.869   4.431  1.00  0.00     0.031 A 
ATOM     67  C   UNL     1       0.285 -16.868   3.705  1.00  0.00     0.131 A 
ATOM     68  C   UNL     1       2.900 -17.693   3.343  1.00  0.00     0.055 A 
ATOM     69  C   UNL     1       0.593 -17.756   2.672  1.00  0.00     0.041 A 
ATOM     70  F   UNL     1      -0.987 -16.453   3.809  1.00  0.00    -0.206 F 
ATOM     71  C   UNL     1       1.909 -18.165   2.479  1.00  0.00     0.022 A 
BRANCH  68  72
ATOM     72  S   UNL     1       4.647 -18.039   3.000  1.00  0.00     0.124 S 
ATOM     73  O   UNL     1       5.172 -16.695   2.770  1.00  0.00    -0.237 OA
ATOM     74  O   UNL     1       5.086 -18.697   4.225  1.00  0.00    -0.237 OA
ATOM     75  O   UNL     1       4.600 -18.893   1.815  1.00  0.00    -0.744 OA
ENDBRANCH  68  72
ENDBRANCH  51  65
BRANCH  52  76
ATOM     76  C   UNL     1      -0.867  -9.875  11.905  1.00  0.00     0.023 A 
ATOM     77  C   UNL     1      -0.686 -10.176  13.265  1.00  0.00     0.031 A 
ATOM     78  C   UNL     1      -1.502  -8.662  11.582  1.00  0.00     0.131 A 
ATOM     79  C   UNL     1      -1.210  -9.322  14.248  1.00  0.00     0.055 A 
ATOM     80  C   UNL     1      -1.952  -7.778  12.565  1.00  0.00     0.041 A 
ATOM     81  F   UNL     1      -1.704  -8.319  10.300  1.00  0.00    -0.206 F 
ATOM     82  C   UNL     1      -1.828  -8.118  13.908  1.00  0.00     0.022 A 
BRANCH  79  83
ATOM     83  S   UNL     1      -1.211  -9.885  15.973  1.00  0.00     0.124 S 
ATOM     84  O   UNL     1      -1.899 -11.166  15.864  1.00  0.00    -0.237 OA
ATOM     85  O   UNL     1       0.216  -9.946  16.272  1.00  0.00    -0.237 OA
ATOM     86  O   UNL     1      -1.949  -8.836  16.672  1.00  0.00    -0.744 OA
ENDBRANCH  79  83
ENDBRANCH  52  76
BRANCH  64  87
ATOM     87  C   UNL     1      -2.790 -16.457  10.607  1.00  0.00     0.023 A 
ATOM     88  C   UNL     1      -4.158 -16.243  10.849  1.00  0.00     0.031 A 
ATOM     89  C   UNL     1      -2.203 -17.625  11.129  1.00  0.00     0.131 A 
ATOM     90  C   UNL     1      -4.875 -17.145  11.649  1.00  0.00     0.055 A 
ATOM     91  C   UNL     1      -2.939 -18.556  11.862  1.00  0.00     0.041 A 
ATOM     92  F   UNL     1      -0.899 -17.882  10.933  1.00  0.00    -0.206 F 
ATOM     93  C   UNL     1      -4.280 -18.310  12.140  1.00  0.00     0.022 A 
BRANCH  90  94
ATOM     94  S   UNL     1      -6.569 -16.717  12.139  1.00  0.00     0.124 S 
ATOM     95  O   UNL     1      -6.379 -15.425  12.789  1.00  0.00    -0.237 OA
ATOM     96  O   UNL     1      -7.266 -16.691  10.858  1.00  0.00    -0.237 OA
ATOM     97  O   UNL     1      -6.954 -17.809  13.032  1.00  0.00    -0.744 OA
ENDBRANCH  90  94
ENDBRANCH  64  87
ENDBRANCH  38  39
ENDBRANCH  30  33
ENDBRANCH  28  29
ENDBRANCH  27  28
ENDBRANCH  26  27
ENDBRANCH  25  26
ENDBRANCH   1  25
TORSDOF 22
