REMARK SMILES C[C@H](NC(=O)N1CC[C@@H](C(=O)NCCCCCCNC(=O)c2ccc(-c3c4nc(c(-c5cc(S(=O)(=O)[O-])ccc5F)c5ccc([nH]5)c(-c5cc(S(=O)(=O)[O-])ccc5F)c5nc(c(-c6cc(S(=O)(=O)[O-])ccc6F)c6ccc3[nH]6)C=C5)C=C4)cc2)[C@H]1C)c1ccc(Cl)cc1
REMARK SMILES IDX 15 1 14 2 13 3 12 4 10 5 11 6 9 8 6 9 7 10 85 11 8 12 86 13
REMARK SMILES IDX 4 14 3 15 5 17 2 18 1 19 87 20 88 21 93 22 89 23 92 24 90 25
REMARK SMILES IDX 91 26 16 27 17 28 18 29 19 30 20 31 21 33 22 34 23 35 84 36
REMARK SMILES IDX 24 37 83 38 25 39 26 40 27 41 77 42 28 43 82 44 76 45 78 46
REMARK SMILES IDX 29 47 81 48 75 49 74 50 30 52 62 53 42 54 61 55 43 56 46 57
REMARK SMILES IDX 60 58 79 59 44 60 45 61 59 63 80 64 47 65 31 66 32 67 40 68
REMARK SMILES IDX 33 69 39 70 41 71 38 72 34 73 35 74 36 75 37 76 63 77 64 78
REMARK SMILES IDX 72 79 65 80 71 81 73 82 70 83 66 84 67 85 68 86 69 87 48 88
REMARK SMILES IDX 49 89 57 90 50 91 56 92 58 93 55 94 51 95 52 96 53 97 54 98
REMARK H PARENT 12 7 3 16 19 32 78 51 46 62
REMARK Flexibility Score: inf
ROOT
ATOM      1  C   UNL     1       1.401   6.634   2.819  1.00  0.00     0.002 C 
ENDROOT
BRANCH   1   2
ATOM      2  C   UNL     1       1.506   5.368   1.969  1.00  0.00     0.021 C 
BRANCH   2   3
ATOM      3  C   UNL     1       2.222   5.532   0.625  1.00  0.00     0.116 C 
BRANCH   3   4
ATOM      4  N   UNL     1       3.659   5.397   0.762  1.00  0.00    -0.356 N 
ATOM      5  C   UNL     1       4.575   4.529   0.268  1.00  0.00     0.225 C 
ATOM      6  O   UNL     1       5.739   4.715   0.651  1.00  0.00    -0.275 OA
ATOM      7  H   UNL     1       4.057   6.087   1.341  1.00  0.00     0.163 HD
BRANCH   5   8
ATOM      8  C   UNL     1       4.302   3.360  -0.681  1.00  0.00     0.102 C 
ATOM      9  N   UNL     1       2.591   1.709  -0.935  1.00  0.00    -0.321 N 
ATOM     10  C   UNL     1       2.797   2.319  -2.235  1.00  0.00     0.122 C 
ATOM     11  C   UNL     1       3.753   2.032  -0.100  1.00  0.00     0.096 C 
ATOM     12  C   UNL     1       3.478   3.644  -1.940  1.00  0.00     0.037 C 
ATOM     13  C   UNL     1       3.491   2.001   1.397  1.00  0.00     0.032 C 
BRANCH   9  14
ATOM     14  C   UNL     1       2.001   0.468  -0.938  1.00  0.00     0.318 C 
ATOM     15  N   UNL     1       0.769   0.347  -0.361  1.00  0.00    -0.331 N 
ATOM     16  H   UNL     1       0.257  -0.436  -0.665  1.00  0.00     0.165 HD
ATOM     17  O   UNL     1       2.478  -0.484  -1.551  1.00  0.00    -0.249 OA
BRANCH  15  18
ATOM     18  C   UNL     1       0.071   1.176   0.632  1.00  0.00     0.111 C 
ATOM     19  C   UNL     1       0.148   2.659   0.303  1.00  0.00     0.036 C 
BRANCH  18  20
ATOM     20  C   UNL     1      -1.404   0.786   0.863  1.00  0.00    -0.026 A 
ATOM     21  C   UNL     1      -2.378   1.770   1.172  1.00  0.00     0.007 A 
ATOM     22  C   UNL     1      -1.841  -0.547   0.844  1.00  0.00     0.007 A 
ATOM     23  C   UNL     1      -3.720   1.457   1.383  1.00  0.00     0.021 A 
ATOM     24  C   UNL     1      -3.194  -0.864   1.052  1.00  0.00     0.021 A 
ATOM     25  C   UNL     1      -4.127   0.137   1.311  1.00  0.00     0.041 A 
ATOM     26  Cl  UNL     1      -5.780  -0.254   1.555  1.00  0.00    -0.084 Cl
ENDBRANCH  18  20
ENDBRANCH  15  18
ENDBRANCH   9  14
ENDBRANCH   5   8
ENDBRANCH   3   4
ENDBRANCH   2   3
ENDBRANCH   1   2
BRANCH   1  27
ATOM     27  C   UNL     1       0.491   7.725   2.240  1.00  0.00     0.002 C 
BRANCH  27  28
ATOM     28  C   UNL     1      -0.925   7.286   1.843  1.00  0.00     0.021 C 
BRANCH  28  29
ATOM     29  C   UNL     1      -1.738   6.606   2.944  1.00  0.00     0.116 C 
BRANCH  29  30
ATOM     30  N   UNL     1      -1.952   7.482   4.082  1.00  0.00    -0.352 N 
ATOM     31  C   UNL     1      -3.123   7.995   4.587  1.00  0.00     0.251 C 
ATOM     32  H   UNL     1      -1.137   7.748   4.564  1.00  0.00     0.163 HD
ATOM     33  O   UNL     1      -3.077   8.911   5.401  1.00  0.00    -0.269 OA
BRANCH  31  34
ATOM     34  C   UNL     1      -4.428   7.458   4.140  1.00  0.00     0.039 A 
ATOM     35  C   UNL     1      -5.464   8.350   3.853  1.00  0.00     0.014 A 
ATOM     36  C   UNL     1      -4.643   6.080   4.035  1.00  0.00     0.014 A 
ATOM     37  C   UNL     1      -6.696   7.864   3.405  1.00  0.00     0.010 A 
ATOM     38  C   UNL     1      -5.848   5.601   3.522  1.00  0.00     0.010 A 
ATOM     39  C   UNL     1      -6.888   6.487   3.204  1.00  0.00    -0.014 A 
BRANCH  39  40
ATOM     40  C   UNL     1      -8.172   5.960   2.669  1.00  0.00     0.031 A 
ATOM     41  C   UNL     1      -9.032   5.057   3.511  1.00  0.00     0.074 A 
ATOM     42  C   UNL     1      -8.539   6.253   1.405  1.00  0.00     0.049 A 
ATOM     43  N   UNL     1     -10.149   4.449   3.201  1.00  0.00    -0.248 NA
ATOM     44  C   UNL     1      -8.553   4.781   4.872  1.00  0.00     0.031 C 
ATOM     45  C   UNL     1      -7.779   7.096   0.480  1.00  0.00     0.029 A 
ATOM     46  N   UNL     1      -9.639   5.873   0.679  1.00  0.00    -0.354 N 
ATOM     47  C   UNL     1     -10.504   3.712   4.327  1.00  0.00     0.074 A 
ATOM     48  C   UNL     1      -9.442   3.895   5.294  1.00  0.00     0.031 C 
ATOM     49  C   UNL     1      -8.452   7.196  -0.677  1.00  0.00     0.029 A 
ATOM     50  C   UNL     1      -9.663   6.385  -0.598  1.00  0.00     0.049 A 
ATOM     51  H   UNL     1     -10.346   5.289   1.037  1.00  0.00     0.167 HD
ATOM     52  C   UNL     1     -11.623   2.974   4.544  1.00  0.00     0.034 A 
ATOM     53  C   UNL     1     -10.553   6.214  -1.595  1.00  0.00     0.034 A 
ATOM     54  C   UNL     1     -12.669   2.797   3.564  1.00  0.00     0.049 A 
ATOM     55  C   UNL     1     -11.758   5.341  -1.356  1.00  0.00     0.074 A 
ATOM     56  C   UNL     1     -13.861   2.105   3.689  1.00  0.00     0.029 A 
ATOM     57  N   UNL     1     -12.643   3.306   2.271  1.00  0.00    -0.354 N 
ATOM     58  N   UNL     1     -12.102   4.684  -0.272  1.00  0.00    -0.248 NA
ATOM     59  C   UNL     1     -12.699   5.193  -2.474  1.00  0.00     0.031 C 
ATOM     60  C   UNL     1     -14.517   2.131   2.452  1.00  0.00     0.029 A 
ATOM     61  C   UNL     1     -13.779   2.912   1.578  1.00  0.00     0.049 A 
ATOM     62  H   UNL     1     -11.922   3.865   1.899  1.00  0.00     0.167 HD
ATOM     63  C   UNL     1     -13.318   4.073  -0.568  1.00  0.00     0.074 A 
ATOM     64  C   UNL     1     -13.650   4.450  -1.928  1.00  0.00     0.031 C 
ATOM     65  C   UNL     1     -14.093   3.279   0.215  1.00  0.00     0.034 A 
BRANCH  52  66
ATOM     66  C   UNL     1     -11.744   2.284   5.885  1.00  0.00     0.023 A 
ATOM     67  C   UNL     1     -11.758   3.013   7.089  1.00  0.00     0.031 A 
ATOM     68  C   UNL     1     -11.792   0.882   5.970  1.00  0.00     0.131 A 
ATOM     69  C   UNL     1     -11.713   2.339   8.319  1.00  0.00     0.055 A 
ATOM     70  C   UNL     1     -11.846   0.218   7.198  1.00  0.00     0.041 A 
ATOM     71  F   UNL     1     -11.764   0.127   4.860  1.00  0.00    -0.206 F 
ATOM     72  C   UNL     1     -11.784   0.946   8.383  1.00  0.00     0.022 A 
BRANCH  69  73
ATOM     73  S   UNL     1     -11.372   3.302   9.818  1.00  0.00     0.124 S 
ATOM     74  O   UNL     1     -10.104   3.942   9.475  1.00  0.00    -0.237 OA
ATOM     75  O   UNL     1     -12.531   4.183   9.897  1.00  0.00    -0.237 OA
ATOM     76  O   UNL     1     -11.284   2.287  10.865  1.00  0.00    -0.744 OA
ENDBRANCH  69  73
ENDBRANCH  52  66
BRANCH  53  77
ATOM     77  C   UNL     1     -10.344   6.881  -2.913  1.00  0.00     0.023 A 
ATOM     78  C   UNL     1     -11.236   7.863  -3.372  1.00  0.00     0.031 A 
ATOM     79  C   UNL     1      -9.266   6.528  -3.744  1.00  0.00     0.131 A 
ATOM     80  C   UNL     1     -11.058   8.431  -4.643  1.00  0.00     0.055 A 
ATOM     81  C   UNL     1      -9.064   7.133  -4.986  1.00  0.00     0.041 A 
ATOM     82  F   UNL     1      -8.381   5.598  -3.351  1.00  0.00    -0.206 F 
ATOM     83  C   UNL     1      -9.970   8.083  -5.446  1.00  0.00     0.022 A 
BRANCH  80  84
ATOM     84  S   UNL     1     -12.313   9.584  -5.262  1.00  0.00     0.124 S 
ATOM     85  O   UNL     1     -13.512   8.752  -5.249  1.00  0.00    -0.237 OA
ATOM     86  O   UNL     1     -12.261  10.651  -4.269  1.00  0.00    -0.237 OA
ATOM     87  O   UNL     1     -11.818   9.945  -6.589  1.00  0.00    -0.744 OA
ENDBRANCH  80  84
ENDBRANCH  53  77
BRANCH  65  88
ATOM     88  C   UNL     1     -15.402   2.804  -0.371  1.00  0.00     0.023 A 
ATOM     89  C   UNL     1     -15.451   1.923  -1.466  1.00  0.00     0.031 A 
ATOM     90  C   UNL     1     -16.621   3.252   0.170  1.00  0.00     0.131 A 
ATOM     91  C   UNL     1     -16.689   1.565  -2.021  1.00  0.00     0.055 A 
ATOM     92  C   UNL     1     -17.851   2.841  -0.345  1.00  0.00     0.041 A 
ATOM     93  F   UNL     1     -16.636   4.098   1.213  1.00  0.00    -0.206 F 
ATOM     94  C   UNL     1     -17.890   2.003  -1.456  1.00  0.00     0.022 A 
BRANCH  91  95
ATOM     95  S   UNL     1     -16.710   0.598  -3.555  1.00  0.00     0.124 S 
ATOM     96  O   UNL     1     -15.959   1.456  -4.466  1.00  0.00    -0.237 OA
ATOM     97  O   UNL     1     -16.049  -0.640  -3.154  1.00  0.00    -0.237 OA
ATOM     98  O   UNL     1     -18.134   0.468  -3.860  1.00  0.00    -0.744 OA
ENDBRANCH  91  95
ENDBRANCH  65  88
ENDBRANCH  39  40
ENDBRANCH  31  34
ENDBRANCH  29  30
ENDBRANCH  28  29
ENDBRANCH  27  28
ENDBRANCH   1  27
TORSDOF 19
