REMARK SMILES COC(=O)c1c(-c2ccccc2Cl)csc1NC(=O)[C@@H]1[C@@H]2CC[C@@H](C2)[C@@H]1C(=O)NCCCCCCNC(=O)c1ccc(-c2c3nc(c(-c4cc(S(=O)(=O)[O-])ccc4F)c4ccc([nH]4)c(-c4cc(S(=O)(=O)[O-])ccc4F)c4nc(c(-c5cc(S(=O)(=O)[O-])ccc5F)c5ccc2[nH]5)C=C4)C=C3)cc1
REMARK SMILES IDX 32 1 31 2 30 3 29 4 27 5 28 6 26 8 20 9 21 10 22 11 25 12
REMARK SMILES IDX 24 13 23 14 18 15 17 16 19 18 16 19 5 20 6 21 14 22 15 23
REMARK SMILES IDX 3 24 4 25 2 26 1 27 7 28 8 29 12 30 9 31 11 32 13 33 10 34
REMARK SMILES IDX 33 35 34 36 35 37 36 38 37 39 38 41 39 42 40 43 101 44 41 45
REMARK SMILES IDX 100 46 42 47 43 48 44 49 94 50 45 51 99 52 93 53 95 54 46 55
REMARK SMILES IDX 98 56 92 57 91 58 47 60 79 61 59 62 78 63 60 64 63 65 77 66
REMARK SMILES IDX 96 67 61 68 62 69 76 71 97 72 64 73 48 74 49 75 57 76 50 77
REMARK SMILES IDX 56 78 58 79 55 80 51 81 52 82 53 83 54 84 80 85 81 86 89 87
REMARK SMILES IDX 82 88 88 89 90 90 87 91 83 92 84 93 85 94 86 95 65 96 66 97
REMARK SMILES IDX 74 98 67 99 73 100 75 101 72 102 68 103 69 104 70 105 71 106
REMARK H PARENT 29 7 17 17 36 40 95 59 63 70
REMARK Flexibility Score: inf
ROOT
ATOM      1  C   UNL     1      -1.196  -9.462  -6.925  1.00  0.00     0.002 C 
ENDROOT
BRANCH   1   2
ATOM      2  C   UNL     1       0.293  -9.340  -7.247  1.00  0.00     0.021 C 
BRANCH   2   3
ATOM      3  C   UNL     1       0.950  -8.271  -6.389  1.00  0.00     0.116 C 
BRANCH   3   4
ATOM      4  N   UNL     1       1.814  -8.854  -5.391  1.00  0.00    -0.356 N 
ATOM      5  C   UNL     1       2.881  -8.383  -4.719  1.00  0.00     0.224 C 
ATOM      6  O   UNL     1       3.452  -9.202  -3.985  1.00  0.00    -0.275 OA
ATOM      7  H   UNL     1       1.575  -9.779  -5.154  1.00  0.00     0.163 HD
BRANCH   5   8
ATOM      8  C   UNL     1       3.452  -6.977  -4.818  1.00  0.00     0.094 C 
ATOM      9  C   UNL     1       2.684  -5.644  -4.926  1.00  0.00     0.094 C 
ATOM     10  C   UNL     1       3.463  -4.955  -6.111  1.00  0.00     0.002 C 
ATOM     11  C   UNL     1       3.266  -5.678  -7.464  1.00  0.00     0.005 C 
ATOM     12  C   UNL     1       4.907  -5.356  -5.801  1.00  0.00     0.009 C 
ATOM     13  C   UNL     1       4.595  -6.854  -5.863  1.00  0.00     0.002 C 
ATOM     14  C   UNL     1       4.071  -6.976  -7.295  1.00  0.00     0.005 C 
BRANCH   9  15
ATOM     15  C   UNL     1       1.175  -5.425  -5.020  1.00  0.00     0.229 C 
ATOM     16  N   UNL     1       0.212  -5.903  -4.184  1.00  0.00    -0.317 N 
ATOM     17  H   UNL     1      -0.656  -5.450  -4.286  1.00  0.00     0.170 HD
ATOM     18  O   UNL     1       0.739  -4.687  -5.918  1.00  0.00    -0.274 OA
BRANCH  16  19
ATOM     19  C   UNL     1       0.204  -6.894  -3.221  1.00  0.00     0.110 A 
ATOM     20  C   UNL     1      -0.844  -7.779  -2.962  1.00  0.00     0.102 A 
ATOM     21  C   UNL     1      -0.349  -8.918  -2.192  1.00  0.00     0.011 A 
ATOM     22  C   UNL     1       0.924  -8.649  -1.714  1.00  0.00     0.076 A 
ATOM     23  S   UNL     1       1.475  -7.083  -2.130  1.00  0.00    -0.125 S 
BRANCH  20  24
ATOM     24  C   UNL     1      -2.166  -7.598  -3.567  1.00  0.00     0.341 C 
ATOM     25  O   UNL     1      -2.389  -6.721  -4.411  1.00  0.00    -0.246 OA
BRANCH  24  26
ATOM     26  O   UNL     1      -3.116  -8.450  -3.106  1.00  0.00    -0.465 OA
ATOM     27  C   UNL     1      -4.398  -8.306  -3.723  1.00  0.00     0.282 C 
ENDBRANCH  24  26
ENDBRANCH  20  24
BRANCH  21  28
ATOM     28  C   UNL     1      -0.921 -10.277  -2.060  1.00  0.00     0.002 A 
ATOM     29  C   UNL     1      -1.402 -10.907  -3.223  1.00  0.00     0.010 A 
ATOM     30  C   UNL     1      -0.943 -11.032  -0.875  1.00  0.00     0.048 A 
ATOM     31  C   UNL     1      -1.880 -12.220  -3.229  1.00  0.00     0.001 A 
ATOM     32  C   UNL     1      -1.397 -12.364  -0.883  1.00  0.00     0.021 A 
ATOM     33  Cl  UNL     1      -0.456 -10.394   0.658  1.00  0.00    -0.084 Cl
ATOM     34  C   UNL     1      -1.863 -12.957  -2.056  1.00  0.00     0.002 A 
ENDBRANCH  21  28
ENDBRANCH  16  19
ENDBRANCH   9  15
ENDBRANCH   5   8
ENDBRANCH   3   4
ENDBRANCH   2   3
ENDBRANCH   1   2
BRANCH   1  35
ATOM     35  C   UNL     1      -2.072  -8.319  -7.438  1.00  0.00     0.002 C 
BRANCH  35  36
ATOM     36  C   UNL     1      -2.025  -8.092  -8.944  1.00  0.00     0.021 C 
BRANCH  36  37
ATOM     37  C   UNL     1      -2.084  -9.359  -9.781  1.00  0.00     0.116 C 
BRANCH  37  38
ATOM     38  N   UNL     1      -3.255 -10.177  -9.505  1.00  0.00    -0.352 N 
ATOM     39  C   UNL     1      -3.958 -10.948 -10.398  1.00  0.00     0.251 C 
ATOM     40  H   UNL     1      -3.578 -10.178  -8.575  1.00  0.00     0.163 HD
ATOM     41  O   UNL     1      -4.970 -11.547 -10.057  1.00  0.00    -0.269 OA
BRANCH  39  42
ATOM     42  C   UNL     1      -3.477 -10.983 -11.791  1.00  0.00     0.039 A 
ATOM     43  C   UNL     1      -4.307 -10.496 -12.800  1.00  0.00     0.014 A 
ATOM     44  C   UNL     1      -2.158 -11.363 -12.061  1.00  0.00     0.014 A 
ATOM     45  C   UNL     1      -3.793 -10.334 -14.086  1.00  0.00     0.010 A 
ATOM     46  C   UNL     1      -1.630 -11.134 -13.325  1.00  0.00     0.010 A 
ATOM     47  C   UNL     1      -2.443 -10.619 -14.349  1.00  0.00    -0.014 A 
BRANCH  47  48
ATOM     48  C   UNL     1      -1.863 -10.414 -15.699  1.00  0.00     0.031 A 
ATOM     49  C   UNL     1      -1.380 -11.603 -16.480  1.00  0.00     0.074 A 
ATOM     50  C   UNL     1      -1.709  -9.166 -16.183  1.00  0.00     0.049 A 
ATOM     51  N   UNL     1      -0.750 -11.643 -17.624  1.00  0.00    -0.248 NA
ATOM     52  C   UNL     1      -1.604 -12.922 -15.867  1.00  0.00     0.031 C 
ATOM     53  C   UNL     1      -2.096  -7.934 -15.492  1.00  0.00     0.029 A 
ATOM     54  N   UNL     1      -1.172  -8.727 -17.366  1.00  0.00    -0.354 N 
ATOM     55  C   UNL     1      -0.482 -12.988 -17.858  1.00  0.00     0.074 A 
ATOM     56  C   UNL     1      -0.965 -13.720 -16.707  1.00  0.00     0.031 C 
ATOM     57  C   UNL     1      -1.797  -6.881 -16.270  1.00  0.00     0.029 A 
ATOM     58  C   UNL     1      -1.166  -7.357 -17.497  1.00  0.00     0.049 A 
ATOM     59  H   UNL     1      -0.823  -9.335 -18.058  1.00  0.00     0.167 HD
ATOM     60  C   UNL     1       0.093 -13.559 -18.945  1.00  0.00     0.034 A 
ATOM     61  C   UNL     1      -0.694  -6.577 -18.490  1.00  0.00     0.034 A 
ATOM     62  C   UNL     1       0.544 -12.814 -20.093  1.00  0.00     0.049 A 
ATOM     63  C   UNL     1      -0.074  -7.235 -19.696  1.00  0.00     0.074 A 
ATOM     64  C   UNL     1       1.090 -13.290 -21.272  1.00  0.00     0.029 A 
ATOM     65  N   UNL     1       0.501 -11.430 -20.205  1.00  0.00    -0.354 N 
ATOM     66  N   UNL     1       0.135  -8.511 -19.923  1.00  0.00    -0.248 NA
ATOM     67  C   UNL     1       0.360  -6.349 -20.784  1.00  0.00     0.031 C 
ATOM     68  C   UNL     1       1.422 -12.193 -22.075  1.00  0.00     0.029 A 
ATOM     69  C   UNL     1       1.026 -11.035 -21.425  1.00  0.00     0.049 A 
ATOM     70  H   UNL     1       0.148 -10.819 -19.519  1.00  0.00     0.167 HD
ATOM     71  C   UNL     1       0.704  -8.582 -21.191  1.00  0.00     0.074 A 
ATOM     72  C   UNL     1       0.792  -7.221 -21.683  1.00  0.00     0.031 C 
ATOM     73  C   UNL     1       1.112  -9.671 -21.890  1.00  0.00     0.034 A 
BRANCH  60  74
ATOM     74  C   UNL     1       0.278 -15.056 -18.918  1.00  0.00     0.023 A 
ATOM     75  C   UNL     1      -0.820 -15.933 -18.860  1.00  0.00     0.031 A 
ATOM     76  C   UNL     1       1.568 -15.615 -18.903  1.00  0.00     0.131 A 
ATOM     77  C   UNL     1      -0.609 -17.311 -18.703  1.00  0.00     0.055 A 
ATOM     78  C   UNL     1       1.771 -16.995 -18.831  1.00  0.00     0.041 A 
ATOM     79  F   UNL     1       2.655 -14.828 -18.935  1.00  0.00    -0.206 F 
ATOM     80  C   UNL     1       0.679 -17.851 -18.714  1.00  0.00     0.022 A 
BRANCH  77  81
ATOM     81  S   UNL     1      -2.036 -18.368 -18.339  1.00  0.00     0.124 S 
ATOM     82  O   UNL     1      -2.506 -17.802 -17.077  1.00  0.00    -0.237 OA
ATOM     83  O   UNL     1      -2.896 -18.149 -19.497  1.00  0.00    -0.237 OA
ATOM     84  O   UNL     1      -1.455 -19.705 -18.237  1.00  0.00    -0.744 OA
ENDBRANCH  77  81
ENDBRANCH  60  74
BRANCH  61  85
ATOM     85  C   UNL     1      -0.779  -5.094 -18.388  1.00  0.00     0.023 A 
ATOM     86  C   UNL     1      -1.609  -4.356 -19.246  1.00  0.00     0.031 A 
ATOM     87  C   UNL     1      -0.005  -4.389 -17.449  1.00  0.00     0.131 A 
ATOM     88  C   UNL     1      -1.618  -2.954 -19.176  1.00  0.00     0.055 A 
ATOM     89  C   UNL     1      -0.049  -2.997 -17.354  1.00  0.00     0.041 A 
ATOM     90  F   UNL     1       0.798  -5.050 -16.599  1.00  0.00    -0.206 F 
ATOM     91  C   UNL     1      -0.851  -2.270 -18.229  1.00  0.00     0.022 A 
BRANCH  88  92
ATOM     92  S   UNL     1      -2.599  -2.030 -20.389  1.00  0.00     0.124 S 
ATOM     93  O   UNL     1      -2.022  -2.486 -21.649  1.00  0.00    -0.237 OA
ATOM     94  O   UNL     1      -3.952  -2.491 -20.098  1.00  0.00    -0.237 OA
ATOM     95  O   UNL     1      -2.333  -0.633 -20.050  1.00  0.00    -0.744 OA
ENDBRANCH  88  92
ENDBRANCH  61  85
BRANCH  73  96
ATOM     96  C   UNL     1       1.650  -9.430 -23.276  1.00  0.00     0.023 A 
ATOM     97  C   UNL     1       2.887  -8.798 -23.488  1.00  0.00     0.031 A 
ATOM     98  C   UNL     1       0.910  -9.839 -24.399  1.00  0.00     0.131 A 
ATOM     99  C   UNL     1       3.328  -8.551 -24.796  1.00  0.00     0.055 A 
ATOM    100  C   UNL     1       1.377  -9.636 -25.698  1.00  0.00     0.041 A 
ATOM    101  F   UNL     1      -0.278 -10.447 -24.250  1.00  0.00    -0.206 F 
ATOM    102  C   UNL     1       2.588  -8.979 -25.902  1.00  0.00     0.022 A 
BRANCH  99 103
ATOM    103  S   UNL     1       4.853  -7.601 -25.037  1.00  0.00     0.124 S 
ATOM    104  O   UNL     1       4.527  -6.334 -24.389  1.00  0.00    -0.237 OA
ATOM    105  O   UNL     1       5.847  -8.426 -24.358  1.00  0.00    -0.237 OA
ATOM    106  O   UNL     1       4.992  -7.537 -26.491  1.00  0.00    -0.744 OA
ENDBRANCH  99 103
ENDBRANCH  73  96
ENDBRANCH  47  48
ENDBRANCH  39  42
ENDBRANCH  37  38
ENDBRANCH  36  37
ENDBRANCH  35  36
ENDBRANCH   1  35
TORSDOF 21
