REMARK SMILES CCn1nc(C(=O)NCCCCCCNC(=O)c2ccc(-c3c4nc(c(-c5cc(S(=O)(=O)[O-])ccc5F)c5ccc([nH]5)c(-c5cc(S(=O)(=O)[O-])ccc5F)c5nc(c(-c6cc(S(=O)(=O)[O-])ccc6F)c6ccc3[nH]6)C=C5)C=C4)cc2)c2c1CC[C@H]([NH2+]Cc1nn(CC)c3ccccc13)C2
REMARK SMILES IDX 11 1 10 2 9 3 8 4 6 5 7 6 5 8 3 9 4 10 82 11 81 12 83 13
REMARK SMILES IDX 99 14 84 15 85 16 2 17 1 18 86 19 87 22 88 23 89 24 98 25
REMARK SMILES IDX 90 26 93 27 97 28 94 29 96 30 95 31 91 32 92 33 12 34 13 35
REMARK SMILES IDX 14 36 15 37 16 38 17 40 18 41 19 42 80 43 20 44 79 45 21 46
REMARK SMILES IDX 22 47 23 48 73 49 24 50 78 51 72 52 74 53 25 54 77 55 71 56
REMARK SMILES IDX 70 57 26 59 58 60 38 61 57 62 39 63 42 64 56 65 75 66 40 67
REMARK SMILES IDX 41 68 55 70 76 71 43 72 27 73 28 74 36 75 29 76 35 77 37 78
REMARK SMILES IDX 34 79 30 80 31 81 32 82 33 83 59 84 60 85 68 86 61 87 67 88
REMARK SMILES IDX 69 89 66 90 62 91 63 92 64 93 65 94 44 95 45 96 53 97 46 98
REMARK SMILES IDX 52 99 54 100 51 101 47 102 48 103 49 104 50 105
REMARK H PARENT 8 7 86 20 86 21 15 39 74 58 42 69
REMARK Flexibility Score: inf
ROOT
ATOM      1  C   UNL     1       0.906   3.663  -9.717  1.00  0.00     0.002 C 
ENDROOT
BRANCH   1   2
ATOM      2  C   UNL     1       0.061   3.066  -8.526  1.00  0.00     0.021 C 
BRANCH   2   3
ATOM      3  C   UNL     1       0.254   2.962  -6.983  1.00  0.00     0.116 C 
BRANCH   3   4
ATOM      4  N   UNL     1       0.146   4.018  -5.971  1.00  0.00    -0.351 N 
ATOM      5  C   UNL     1       0.246   4.005  -4.553  1.00  0.00     0.272 C 
ATOM      6  O   UNL     1       0.102   5.126  -4.042  1.00  0.00    -0.267 OA
ATOM      7  H   UNL     1      -0.031   4.910  -6.348  1.00  0.00     0.163 HD
BRANCH   5   8
ATOM      8  C   UNL     1       0.496   2.790  -3.660  1.00  0.00     0.153 A 
ATOM      9  N   UNL     1       0.624   1.606  -1.815  1.00  0.00    -0.269 N 
ATOM     10  N   UNL     1       0.277   2.833  -2.316  1.00  0.00    -0.167 NA
ATOM     11  C   UNL     1       1.125   0.785  -2.781  1.00  0.00     0.043 A 
ATOM     12  C   UNL     1       1.034   1.508  -3.941  1.00  0.00     0.012 A 
ATOM     13  C   UNL     1       1.668  -0.600  -2.740  1.00  0.00     0.062 C 
ATOM     14  C   UNL     1       1.552   1.000  -5.194  1.00  0.00     0.105 C 
ATOM     15  C   UNL     1       2.790  -0.780  -3.794  1.00  0.00     0.072 C 
ATOM     16  C   UNL     1       2.566  -0.128  -5.185  1.00  0.00     0.187 C 
BRANCH   9  17
ATOM     17  C   UNL     1       0.383   1.374  -0.397  1.00  0.00     0.141 C 
ATOM     18  C   UNL     1       0.816   0.052   0.227  1.00  0.00     0.029 C 
ENDBRANCH   9  17
BRANCH  16  19
ATOM     19  N   UNL     1       3.874   0.264  -5.797  1.00  0.00    -0.338 N 
ATOM     20  H   UNL     1       4.345  -0.593  -6.087  1.00  0.00     0.346 HD
ATOM     21  H   UNL     1       4.350   0.799  -5.071  1.00  0.00     0.346 HD
BRANCH  19  22
ATOM     22  C   UNL     1       3.835   1.172  -6.975  1.00  0.00     0.320 C 
BRANCH  22  23
ATOM     23  C   UNL     1       3.874   2.697  -6.690  1.00  0.00     0.124 A 
ATOM     24  N   UNL     1       3.148   3.524  -7.467  1.00  0.00    -0.171 NA
ATOM     25  C   UNL     1       4.519   3.458  -5.679  1.00  0.00     0.029 A 
ATOM     26  N   UNL     1       3.194   4.739  -6.894  1.00  0.00    -0.265 N 
ATOM     27  C   UNL     1       3.937   4.729  -5.747  1.00  0.00     0.069 A 
ATOM     28  C   UNL     1       5.476   3.220  -4.682  1.00  0.00     0.012 A 
ATOM     29  C   UNL     1       4.138   5.719  -4.786  1.00  0.00     0.028 A 
ATOM     30  C   UNL     1       5.804   4.262  -3.806  1.00  0.00     0.001 A 
ATOM     31  C   UNL     1       5.118   5.474  -3.832  1.00  0.00     0.002 A 
BRANCH  26  32
ATOM     32  C   UNL     1       2.414   5.863  -7.408  1.00  0.00     0.141 C 
ATOM     33  C   UNL     1       3.014   6.679  -8.553  1.00  0.00     0.029 C 
ENDBRANCH  26  32
ENDBRANCH  22  23
ENDBRANCH  19  22
ENDBRANCH  16  19
ENDBRANCH   5   8
ENDBRANCH   3   4
ENDBRANCH   2   3
ENDBRANCH   1   2
BRANCH   1  34
ATOM     34  C   UNL     1       2.402   3.674 -10.194  1.00  0.00     0.002 C 
BRANCH  34  35
ATOM     35  C   UNL     1       3.462   2.562 -10.235  1.00  0.00     0.021 C 
BRANCH  35  36
ATOM     36  C   UNL     1       3.362   1.474 -11.274  1.00  0.00     0.116 C 
BRANCH  36  37
ATOM     37  N   UNL     1       3.545   1.981 -12.632  1.00  0.00    -0.352 N 
ATOM     38  C   UNL     1       3.105   1.421 -13.819  1.00  0.00     0.251 C 
ATOM     39  H   UNL     1       4.043   2.826 -12.712  1.00  0.00     0.163 HD
ATOM     40  O   UNL     1       3.663   1.661 -14.871  1.00  0.00    -0.269 OA
BRANCH  38  41
ATOM     41  C   UNL     1       1.929   0.536 -13.753  1.00  0.00     0.039 A 
ATOM     42  C   UNL     1       1.805  -0.597 -14.556  1.00  0.00     0.014 A 
ATOM     43  C   UNL     1       0.966   0.850 -12.799  1.00  0.00     0.014 A 
ATOM     44  C   UNL     1       0.715  -1.434 -14.341  1.00  0.00     0.010 A 
ATOM     45  C   UNL     1       0.057  -0.092 -12.427  1.00  0.00     0.010 A 
ATOM     46  C   UNL     1      -0.148  -1.174 -13.263  1.00  0.00    -0.014 A 
BRANCH  46  47
ATOM     47  C   UNL     1      -1.222  -2.080 -12.891  1.00  0.00     0.031 A 
ATOM     48  C   UNL     1      -0.752  -3.467 -12.685  1.00  0.00     0.074 A 
ATOM     49  C   UNL     1      -2.458  -1.648 -12.555  1.00  0.00     0.049 A 
ATOM     50  N   UNL     1      -0.825  -4.442 -13.527  1.00  0.00    -0.248 NA
ATOM     51  C   UNL     1       0.129  -3.744 -11.537  1.00  0.00     0.031 C 
ATOM     52  C   UNL     1      -2.948  -0.266 -12.439  1.00  0.00     0.029 A 
ATOM     53  N   UNL     1      -3.537  -2.369 -12.153  1.00  0.00    -0.354 N 
ATOM     54  C   UNL     1      -0.292  -5.538 -12.863  1.00  0.00     0.074 A 
ATOM     55  C   UNL     1       0.524  -4.988 -11.818  1.00  0.00     0.031 C 
ATOM     56  C   UNL     1      -4.136  -0.248 -11.795  1.00  0.00     0.029 A 
ATOM     57  C   UNL     1      -4.583  -1.617 -11.621  1.00  0.00     0.049 A 
ATOM     58  H   UNL     1      -3.576  -3.350 -12.231  1.00  0.00     0.167 HD
ATOM     59  C   UNL     1      -0.859  -6.767 -13.017  1.00  0.00     0.034 A 
ATOM     60  C   UNL     1      -5.750  -2.084 -11.097  1.00  0.00     0.034 A 
ATOM     61  C   UNL     1      -1.744  -6.767 -14.171  1.00  0.00     0.049 A 
ATOM     62  C   UNL     1      -5.944  -3.430 -11.692  1.00  0.00     0.074 A 
ATOM     63  C   UNL     1      -1.592  -6.517 -15.521  1.00  0.00     0.029 A 
ATOM     64  N   UNL     1      -3.095  -6.639 -13.922  1.00  0.00    -0.354 N 
ATOM     65  N   UNL     1      -6.114  -3.622 -12.973  1.00  0.00    -0.248 NA
ATOM     66  C   UNL     1      -5.449  -4.582 -10.956  1.00  0.00     0.031 C 
ATOM     67  C   UNL     1      -2.769  -5.802 -15.904  1.00  0.00     0.029 A 
ATOM     68  C   UNL     1      -3.627  -5.731 -14.803  1.00  0.00     0.049 A 
ATOM     69  H   UNL     1      -3.597  -7.122 -13.226  1.00  0.00     0.167 HD
ATOM     70  C   UNL     1      -5.343  -4.736 -13.275  1.00  0.00     0.074 A 
ATOM     71  C   UNL     1      -5.054  -5.349 -11.978  1.00  0.00     0.031 C 
ATOM     72  C   UNL     1      -4.777  -4.886 -14.511  1.00  0.00     0.034 A 
BRANCH  59  73
ATOM     73  C   UNL     1      -1.010  -7.787 -11.898  1.00  0.00     0.023 A 
ATOM     74  C   UNL     1      -1.768  -8.933 -12.202  1.00  0.00     0.031 A 
ATOM     75  C   UNL     1      -0.741  -7.588 -10.524  1.00  0.00     0.131 A 
ATOM     76  C   UNL     1      -2.353  -9.707 -11.186  1.00  0.00     0.055 A 
ATOM     77  C   UNL     1      -1.281  -8.394  -9.517  1.00  0.00     0.041 A 
ATOM     78  F   UNL     1      -0.004  -6.577 -10.055  1.00  0.00    -0.206 F 
ATOM     79  C   UNL     1      -2.127  -9.436  -9.842  1.00  0.00     0.022 A 
BRANCH  76  80
ATOM     80  S   UNL     1      -3.575 -10.952 -11.665  1.00  0.00     0.124 S 
ATOM     81  O   UNL     1      -4.497 -10.155 -12.467  1.00  0.00    -0.237 OA
ATOM     82  O   UNL     1      -2.750 -11.912 -12.390  1.00  0.00    -0.237 OA
ATOM     83  O   UNL     1      -4.099 -11.418 -10.385  1.00  0.00    -0.744 OA
ENDBRANCH  76  80
ENDBRANCH  59  73
BRANCH  60  84
ATOM     84  C   UNL     1      -6.431  -1.621  -9.851  1.00  0.00     0.023 A 
ATOM     85  C   UNL     1      -7.775  -1.935  -9.541  1.00  0.00     0.031 A 
ATOM     86  C   UNL     1      -5.659  -1.064  -8.806  1.00  0.00     0.131 A 
ATOM     87  C   UNL     1      -8.284  -1.700  -8.238  1.00  0.00     0.055 A 
ATOM     88  C   UNL     1      -6.163  -0.844  -7.522  1.00  0.00     0.041 A 
ATOM     89  F   UNL     1      -4.354  -0.794  -8.976  1.00  0.00    -0.206 F 
ATOM     90  C   UNL     1      -7.477  -1.171  -7.229  1.00  0.00     0.022 A 
BRANCH  87  91
ATOM     91  S   UNL     1     -10.001  -2.150  -7.806  1.00  0.00     0.124 S 
ATOM     92  O   UNL     1     -10.779  -1.229  -8.626  1.00  0.00    -0.237 OA
ATOM     93  O   UNL     1     -10.060  -3.559  -8.176  1.00  0.00    -0.237 OA
ATOM     94  O   UNL     1     -10.070  -1.893  -6.366  1.00  0.00    -0.744 OA
ENDBRANCH  87  91
ENDBRANCH  60  84
BRANCH  72  95
ATOM     95  C   UNL     1      -5.282  -4.000 -15.639  1.00  0.00     0.023 A 
ATOM     96  C   UNL     1      -5.193  -2.588 -15.687  1.00  0.00     0.031 A 
ATOM     97  C   UNL     1      -5.792  -4.657 -16.773  1.00  0.00     0.131 A 
ATOM     98  C   UNL     1      -5.613  -1.894 -16.844  1.00  0.00     0.055 A 
ATOM     99  C   UNL     1      -6.184  -3.970 -17.920  1.00  0.00     0.041 A 
ATOM    100  F   UNL     1      -5.883  -5.997 -16.797  1.00  0.00    -0.206 F 
ATOM    101  C   UNL     1      -6.100  -2.584 -17.959  1.00  0.00     0.022 A 
BRANCH  98 102
ATOM    102  S   UNL     1      -5.553  -0.070 -16.923  1.00  0.00     0.124 S 
ATOM    103  O   UNL     1      -6.225   0.347 -15.698  1.00  0.00    -0.237 OA
ATOM    104  O   UNL     1      -4.119   0.200 -16.989  1.00  0.00    -0.237 OA
ATOM    105  O   UNL     1      -6.284   0.243 -18.153  1.00  0.00    -0.744 OA
ENDBRANCH  98 102
ENDBRANCH  72  95
ENDBRANCH  46  47
ENDBRANCH  38  41
ENDBRANCH  36  37
ENDBRANCH  35  36
ENDBRANCH  34  35
ENDBRANCH   1  34
TORSDOF 21
