REMARK SMILES Cc1noc(C)c1CNc1cnc(C(=O)NCCCCCCNC(=O)c2ccc(-c3c4nc(c(-c5cc(S(=O)(=O)[O-])ccc5F)c5ccc([nH]5)c(-c5cc(S(=O)(=O)[O-])ccc5F)c5nc(c(-c6cc(S(=O)(=O)[O-])ccc6F)c6ccc3[nH]6)C=C5)C=C4)cc2)cn1
REMARK SMILES IDX 19 1 18 2 17 3 16 4 14 5 15 6 13 8 10 9 11 10 90 11 12 12
REMARK SMILES IDX 89 13 9 14 8 16 7 17 1 18 2 19 3 20 4 21 5 22 6 23 20 24
REMARK SMILES IDX 21 25 22 26 23 27 24 28 25 30 26 31 27 32 88 33 28 34 87 35
REMARK SMILES IDX 29 36 30 37 31 38 81 39 32 40 86 41 80 42 82 43 33 44 85 45
REMARK SMILES IDX 79 46 78 47 34 49 66 50 46 51 65 52 47 53 50 54 64 55 83 56
REMARK SMILES IDX 48 57 49 58 63 60 84 61 51 62 35 63 36 64 44 65 37 66 43 67
REMARK SMILES IDX 45 68 42 69 38 70 39 71 40 72 41 73 67 74 68 75 76 76 69 77
REMARK SMILES IDX 75 78 77 79 74 80 70 81 71 82 72 83 73 84 52 85 53 86 61 87
REMARK SMILES IDX 54 88 60 89 62 90 59 91 55 92 56 93 57 94 58 95
REMARK H PARENT 16 7 9 15 23 29 82 48 50 59
REMARK Flexibility Score: inf
ROOT
ATOM      1  C   UNL     1      -4.953  10.246   1.213  1.00  0.00     0.002 C 
ENDROOT
BRANCH   1   2
ATOM      2  C   UNL     1      -3.866   9.224   0.864  1.00  0.00     0.021 C 
BRANCH   2   3
ATOM      3  C   UNL     1      -4.224   7.794   1.262  1.00  0.00     0.116 C 
BRANCH   3   4
ATOM      4  N   UNL     1      -5.213   7.229   0.357  1.00  0.00    -0.351 N 
ATOM      5  C   UNL     1      -5.119   6.238  -0.594  1.00  0.00     0.271 C 
ATOM      6  O   UNL     1      -6.122   5.982  -1.263  1.00  0.00    -0.267 OA
ATOM      7  H   UNL     1      -6.110   7.626   0.440  1.00  0.00     0.163 HD
BRANCH   5   8
ATOM      8  C   UNL     1      -3.874   5.452  -0.827  1.00  0.00     0.146 A 
ATOM      9  C   UNL     1      -1.724   3.836  -1.208  1.00  0.00     0.144 A 
ATOM     10  C   UNL     1      -1.726   4.873  -0.280  1.00  0.00     0.158 A 
ATOM     11  N   UNL     1      -2.796   3.635  -1.999  1.00  0.00    -0.235 NA
ATOM     12  N   UNL     1      -2.783   5.686  -0.067  1.00  0.00    -0.246 NA
ATOM     13  C   UNL     1      -3.867   4.452  -1.787  1.00  0.00     0.147 A 
BRANCH   9  14
ATOM     14  N   UNL     1      -0.688   2.946  -1.354  1.00  0.00    -0.365 N 
ATOM     15  H   UNL     1      -0.424   2.647  -2.254  1.00  0.00     0.162 HD
BRANCH  14  16
ATOM     16  C   UNL     1       0.021   2.442  -0.192  1.00  0.00     0.156 C 
BRANCH  16  17
ATOM     17  C   UNL     1       0.054   0.960  -0.085  1.00  0.00     0.037 A 
ATOM     18  C   UNL     1      -2.497   0.384  -0.005  1.00  0.00     0.071 C 
ATOM     19  C   UNL     1      -1.048   0.064  -0.004  1.00  0.00     0.086 A 
ATOM     20  N   UNL     1      -0.637  -1.207   0.081  1.00  0.00    -0.085 NA
ATOM     21  O   UNL     1       0.744  -1.158   0.073  1.00  0.00    -0.361 OA
ATOM     22  C   UNL     1       1.153   0.134  -0.021  1.00  0.00     0.138 A 
ATOM     23  C   UNL     1       2.609   0.369  -0.023  1.00  0.00     0.091 C 
ENDBRANCH  16  17
ENDBRANCH  14  16
ENDBRANCH   9  14
ENDBRANCH   5   8
ENDBRANCH   3   4
ENDBRANCH   2   3
ENDBRANCH   1   2
BRANCH   1  24
ATOM     24  C   UNL     1      -5.358  10.276   2.692  1.00  0.00     0.002 C 
BRANCH  24  25
ATOM     25  C   UNL     1      -4.199  10.440   3.680  1.00  0.00     0.021 C 
BRANCH  25  26
ATOM     26  C   UNL     1      -3.384  11.716   3.491  1.00  0.00     0.116 C 
BRANCH  26  27
ATOM     27  N   UNL     1      -4.194  12.906   3.696  1.00  0.00    -0.352 N 
ATOM     28  C   UNL     1      -3.999  13.951   4.561  1.00  0.00     0.251 C 
ATOM     29  H   UNL     1      -4.997  12.971   3.131  1.00  0.00     0.163 HD
ATOM     30  O   UNL     1      -4.912  14.753   4.759  1.00  0.00    -0.269 OA
BRANCH  28  31
ATOM     31  C   UNL     1      -2.708  14.102   5.265  1.00  0.00     0.039 A 
ATOM     32  C   UNL     1      -2.712  14.441   6.620  1.00  0.00     0.014 A 
ATOM     33  C   UNL     1      -1.496  13.923   4.590  1.00  0.00     0.014 A 
ATOM     34  C   UNL     1      -1.502  14.545   7.311  1.00  0.00     0.010 A 
ATOM     35  C   UNL     1      -0.296  13.956   5.298  1.00  0.00     0.010 A 
ATOM     36  C   UNL     1      -0.285  14.270   6.665  1.00  0.00    -0.014 A 
BRANCH  36  37
ATOM     37  C   UNL     1       1.004  14.306   7.406  1.00  0.00     0.031 A 
ATOM     38  C   UNL     1       2.067  15.305   7.026  1.00  0.00     0.074 A 
ATOM     39  C   UNL     1       1.238  13.402   8.380  1.00  0.00     0.049 A 
ATOM     40  N   UNL     1       3.276  15.445   7.506  1.00  0.00    -0.248 NA
ATOM     41  C   UNL     1       1.737  16.252   5.949  1.00  0.00     0.031 C 
ATOM     42  C   UNL     1       0.299  12.362   8.809  1.00  0.00     0.029 A 
ATOM     43  N   UNL     1       2.338  13.199   9.177  1.00  0.00    -0.354 N 
ATOM     44  C   UNL     1       3.858  16.478   6.777  1.00  0.00     0.074 A 
ATOM     45  C   UNL     1       2.883  16.900   5.795  1.00  0.00     0.031 C 
ATOM     46  C   UNL     1       0.854  11.648   9.802  1.00  0.00     0.029 A 
ATOM     47  C   UNL     1       2.207  12.138  10.046  1.00  0.00     0.049 A 
ATOM     48  H   UNL     1       3.145  13.761   9.133  1.00  0.00     0.167 HD
ATOM     49  C   UNL     1       5.087  17.029   6.924  1.00  0.00     0.034 A 
ATOM     50  C   UNL     1       3.083  11.607  10.923  1.00  0.00     0.034 A 
ATOM     51  C   UNL     1       6.036  16.615   7.929  1.00  0.00     0.049 A 
ATOM     52  C   UNL     1       4.450  12.237  11.055  1.00  0.00     0.074 A 
ATOM     53  C   UNL     1       7.271  17.168   8.220  1.00  0.00     0.029 A 
ATOM     54  N   UNL     1       5.866  15.545   8.796  1.00  0.00    -0.354 N 
ATOM     55  N   UNL     1       4.951  13.266  10.410  1.00  0.00    -0.248 NA
ATOM     56  C   UNL     1       5.364  11.644  12.039  1.00  0.00     0.031 C 
ATOM     57  C   UNL     1       7.883  16.381   9.200  1.00  0.00     0.029 A 
ATOM     58  C   UNL     1       6.993  15.393   9.589  1.00  0.00     0.049 A 
ATOM     59  H   UNL     1       5.063  14.976   8.842  1.00  0.00     0.167 HD
ATOM     60  C   UNL     1       6.223  13.464  10.943  1.00  0.00     0.074 A 
ATOM     61  C   UNL     1       6.402  12.463  11.973  1.00  0.00     0.031 C 
ATOM     62  C   UNL     1       7.158  14.391  10.614  1.00  0.00     0.034 A 
BRANCH  49  63
ATOM     63  C   UNL     1       5.501  18.116   5.962  1.00  0.00     0.023 A 
ATOM     64  C   UNL     1       4.862  19.366   5.927  1.00  0.00     0.031 A 
ATOM     65  C   UNL     1       6.582  17.903   5.088  1.00  0.00     0.131 A 
ATOM     66  C   UNL     1       5.282  20.340   5.007  1.00  0.00     0.055 A 
ATOM     67  C   UNL     1       7.042  18.900   4.227  1.00  0.00     0.041 A 
ATOM     68  F   UNL     1       7.216  16.719   5.061  1.00  0.00    -0.206 F 
ATOM     69  C   UNL     1       6.385  20.126   4.177  1.00  0.00     0.022 A 
BRANCH  66  70
ATOM     70  S   UNL     1       4.304  21.858   4.839  1.00  0.00     0.124 S 
ATOM     71  O   UNL     1       3.004  21.328   4.435  1.00  0.00    -0.237 OA
ATOM     72  O   UNL     1       4.373  22.429   6.179  1.00  0.00    -0.237 OA
ATOM     73  O   UNL     1       5.012  22.609   3.804  1.00  0.00    -0.744 OA
ENDBRANCH  66  70
ENDBRANCH  49  63
BRANCH  50  74
ATOM     74  C   UNL     1       2.728  10.399  11.729  1.00  0.00     0.023 A 
ATOM     75  C   UNL     1       2.735  10.437  13.132  1.00  0.00     0.031 A 
ATOM     76  C   UNL     1       2.470   9.163  11.108  1.00  0.00     0.131 A 
ATOM     77  C   UNL     1       2.569   9.252  13.866  1.00  0.00     0.055 A 
ATOM     78  C   UNL     1       2.231   8.001  11.844  1.00  0.00     0.041 A 
ATOM     79  F   UNL     1       2.451   9.065   9.769  1.00  0.00    -0.206 F 
ATOM     80  C   UNL     1       2.302   8.037  13.232  1.00  0.00     0.022 A 
BRANCH  77  81
ATOM     81  S   UNL     1       2.858   9.296  15.658  1.00  0.00     0.124 S 
ATOM     82  O   UNL     1       4.197   9.867  15.726  1.00  0.00    -0.237 OA
ATOM     83  O   UNL     1       1.769  10.152  16.117  1.00  0.00    -0.237 OA
ATOM     84  O   UNL     1       2.756   7.892  16.052  1.00  0.00    -0.744 OA
ENDBRANCH  77  81
ENDBRANCH  50  74
BRANCH  62  85
ATOM     85  C   UNL     1       8.435  14.399  11.420  1.00  0.00     0.023 A 
ATOM     86  C   UNL     1       9.344  13.327  11.384  1.00  0.00     0.031 A 
ATOM     87  C   UNL     1       8.741  15.496  12.245  1.00  0.00     0.131 A 
ATOM     88  C   UNL     1      10.483  13.349  12.203  1.00  0.00     0.055 A 
ATOM     89  C   UNL     1       9.911  15.543  13.004  1.00  0.00     0.041 A 
ATOM     90  F   UNL     1       7.908  16.547  12.322  1.00  0.00    -0.206 F 
ATOM     91  C   UNL     1      10.782  14.459  12.997  1.00  0.00     0.022 A 
BRANCH  88  92
ATOM     92  S   UNL     1      11.519  11.863  12.293  1.00  0.00     0.124 S 
ATOM     93  O   UNL     1      10.565  10.855  12.744  1.00  0.00    -0.237 OA
ATOM     94  O   UNL     1      11.989  11.725  10.918  1.00  0.00    -0.237 OA
ATOM     95  O   UNL     1      12.549  12.221  13.266  1.00  0.00    -0.744 OA
ENDBRANCH  88  92
ENDBRANCH  62  85
ENDBRANCH  36  37
ENDBRANCH  28  31
ENDBRANCH  26  27
ENDBRANCH  25  26
ENDBRANCH  24  25
ENDBRANCH   1  24
TORSDOF 19
