REMARK SMILES O=C(NCCCCCCNC(=O)[C@H]1C[C@](O)(c2ccccc2Cl)[C@@H](c2ccccc2Cl)O1)c1ccc(-c2c3nc(c(-c4cc(S(=O)(=O)[O-])ccc4F)c4ccc([nH]4)c(-c4cc(S(=O)(=O)[O-])ccc4F)c4nc(c(-c5cc(S(=O)(=O)[O-])ccc5F)c5ccc2[nH]5)C=C4)C=C3)cc1
REMARK SMILES IDX 5 1 4 2 3 3 1 4 2 5 33 7 34 8 95 9 35 10 94 11 36 12 37 13
REMARK SMILES IDX 38 14 88 15 39 16 93 17 87 18 89 19 40 20 92 21 86 22 85 23
REMARK SMILES IDX 41 25 73 26 53 27 72 28 54 29 57 30 71 31 90 32 55 33 56 34
REMARK SMILES IDX 70 36 91 37 58 38 42 39 43 40 51 41 44 42 50 43 52 44 49 45
REMARK SMILES IDX 45 46 46 47 47 48 48 49 74 50 75 51 83 52 76 53 82 54 84 55
REMARK SMILES IDX 81 56 77 57 78 58 79 59 80 60 59 61 60 62 68 63 61 64 67 65
REMARK SMILES IDX 69 66 66 67 62 68 63 69 64 70 65 71 6 72 7 73 8 74 9 75
REMARK SMILES IDX 10 76 11 77 12 79 13 80 14 81 32 82 15 83 24 84 17 85 18 86
REMARK SMILES IDX 22 87 19 88 21 89 23 90 20 91 16 92 25 94 26 95 30 96 27 97
REMARK SMILES IDX 29 98 31 99 28 100
REMARK H PARENT 3 6 89 24 57 35 10 78 16 93
REMARK Flexibility Score: inf
ROOT
ATOM      1  C   UNL     1      10.279  12.463  -5.346  1.00  0.00     0.021 C 
ENDROOT
BRANCH   1   2
ATOM      2  C   UNL     1      11.520  13.147  -4.787  1.00  0.00     0.116 C 
BRANCH   2   3
ATOM      3  N   UNL     1      12.330  13.753  -5.832  1.00  0.00    -0.352 N 
ATOM      4  O   UNL     1      13.251  15.454  -6.996  1.00  0.00    -0.269 OA
ATOM      5  C   UNL     1      12.728  15.063  -5.955  1.00  0.00     0.251 C 
ATOM      6  H   UNL     1      12.634  13.146  -6.545  1.00  0.00     0.163 HD
BRANCH   5   7
ATOM      7  C   UNL     1      12.508  16.002  -4.832  1.00  0.00     0.039 A 
ATOM      8  C   UNL     1      12.828  15.624  -3.525  1.00  0.00     0.014 A 
ATOM      9  C   UNL     1      11.985  17.273  -5.087  1.00  0.00     0.014 A 
ATOM     10  C   UNL     1      12.510  16.465  -2.465  1.00  0.00     0.010 A 
ATOM     11  C   UNL     1      11.744  18.151  -4.025  1.00  0.00     0.010 A 
ATOM     12  C   UNL     1      11.988  17.748  -2.703  1.00  0.00    -0.014 A 
BRANCH  12  13
ATOM     13  C   UNL     1      11.793  18.670  -1.554  1.00  0.00     0.031 A 
ATOM     14  C   UNL     1      10.424  19.134  -1.144  1.00  0.00     0.074 A 
ATOM     15  C   UNL     1      12.881  19.058  -0.857  1.00  0.00     0.049 A 
ATOM     16  N   UNL     1      10.083  19.919  -0.153  1.00  0.00    -0.248 NA
ATOM     17  C   UNL     1       9.290  18.665  -1.953  1.00  0.00     0.031 C 
ATOM     18  C   UNL     1      14.260  18.673  -1.175  1.00  0.00     0.029 A 
ATOM     19  N   UNL     1      13.006  19.835   0.264  1.00  0.00    -0.354 N 
ATOM     20  C   UNL     1       8.700  20.047  -0.221  1.00  0.00     0.074 A 
ATOM     21  C   UNL     1       8.269  19.283  -1.374  1.00  0.00     0.031 C 
ATOM     22  C   UNL     1      15.083  19.173  -0.243  1.00  0.00     0.029 A 
ATOM     23  C   UNL     1      14.305  19.972   0.696  1.00  0.00     0.049 A 
ATOM     24  H   UNL     1      12.240  20.256   0.718  1.00  0.00     0.167 HD
ATOM     25  C   UNL     1       7.872  20.732   0.608  1.00  0.00     0.034 A 
ATOM     26  C   UNL     1      14.820  20.679   1.720  1.00  0.00     0.034 A 
ATOM     27  C   UNL     1       8.324  21.491   1.752  1.00  0.00     0.049 A 
ATOM     28  C   UNL     1      13.880  21.459   2.598  1.00  0.00     0.074 A 
ATOM     29  C   UNL     1       7.569  22.203   2.669  1.00  0.00     0.029 A 
ATOM     30  N   UNL     1       9.652  21.644   2.134  1.00  0.00    -0.354 N 
ATOM     31  N   UNL     1      12.572  21.555   2.526  1.00  0.00    -0.248 NA
ATOM     32  C   UNL     1      14.484  22.222   3.696  1.00  0.00     0.031 C 
ATOM     33  C   UNL     1       8.440  22.836   3.563  1.00  0.00     0.029 A 
ATOM     34  C   UNL     1       9.737  22.462   3.252  1.00  0.00     0.049 A 
ATOM     35  H   UNL     1      10.420  21.232   1.678  1.00  0.00     0.167 HD
ATOM     36  C   UNL     1      12.197  22.380   3.581  1.00  0.00     0.074 A 
ATOM     37  C   UNL     1      13.413  22.726   4.289  1.00  0.00     0.031 C 
ATOM     38  C   UNL     1      10.961  22.818   3.931  1.00  0.00     0.034 A 
BRANCH  25  39
ATOM     39  C   UNL     1       6.396  20.728   0.283  1.00  0.00     0.023 A 
ATOM     40  C   UNL     1       5.624  19.555   0.348  1.00  0.00     0.031 A 
ATOM     41  C   UNL     1       5.750  21.920  -0.091  1.00  0.00     0.131 A 
ATOM     42  C   UNL     1       4.266  19.588  -0.009  1.00  0.00     0.055 A 
ATOM     43  C   UNL     1       4.383  21.961  -0.378  1.00  0.00     0.041 A 
ATOM     44  F   UNL     1       6.438  23.069  -0.189  1.00  0.00    -0.206 F 
ATOM     45  C   UNL     1       3.635  20.788  -0.348  1.00  0.00     0.022 A 
BRANCH  42  46
ATOM     46  S   UNL     1       3.359  18.022  -0.131  1.00  0.00     0.124 S 
ATOM     47  O   UNL     1       4.132  17.310  -1.147  1.00  0.00    -0.237 OA
ATOM     48  O   UNL     1       3.451  17.496   1.226  1.00  0.00    -0.237 OA
ATOM     49  O   UNL     1       2.021  18.432  -0.551  1.00  0.00    -0.744 OA
ENDBRANCH  42  46
ENDBRANCH  25  39
BRANCH  26  50
ATOM     50  C   UNL     1      16.293  20.716   1.945  1.00  0.00     0.023 A 
ATOM     51  C   UNL     1      16.860  20.219   3.128  1.00  0.00     0.031 A 
ATOM     52  C   UNL     1      17.154  21.288   0.991  1.00  0.00     0.131 A 
ATOM     53  C   UNL     1      18.240  20.345   3.348  1.00  0.00     0.055 A 
ATOM     54  C   UNL     1      18.533  21.356   1.187  1.00  0.00     0.041 A 
ATOM     55  F   UNL     1      16.664  21.777  -0.160  1.00  0.00    -0.206 F 
ATOM     56  C   UNL     1      19.082  20.897   2.379  1.00  0.00     0.022 A 
BRANCH  53  57
ATOM     57  S   UNL     1      18.909  19.867   4.964  1.00  0.00     0.124 S 
ATOM     58  O   UNL     1      18.102  20.675   5.872  1.00  0.00    -0.237 OA
ATOM     59  O   UNL     1      18.653  18.431   4.984  1.00  0.00    -0.237 OA
ATOM     60  O   UNL     1      20.317  20.247   4.875  1.00  0.00    -0.744 OA
ENDBRANCH  53  57
ENDBRANCH  26  50
BRANCH  38  61
ATOM     61  C   UNL     1      10.881  23.699   5.153  1.00  0.00     0.023 A 
ATOM     62  C   UNL     1      11.450  24.985   5.170  1.00  0.00     0.031 A 
ATOM     63  C   UNL     1      10.271  23.228   6.329  1.00  0.00     0.131 A 
ATOM     64  C   UNL     1      11.458  25.729   6.359  1.00  0.00     0.055 A 
ATOM     65  C   UNL     1      10.226  23.999   7.491  1.00  0.00     0.041 A 
ATOM     66  F   UNL     1       9.715  22.007   6.369  1.00  0.00    -0.206 F 
ATOM     67  C   UNL     1      10.836  25.251   7.515  1.00  0.00     0.022 A 
BRANCH  64  68
ATOM     68  S   UNL     1      12.387  27.286   6.404  1.00  0.00     0.124 S 
ATOM     69  O   UNL     1      13.733  26.847   6.049  1.00  0.00    -0.237 OA
ATOM     70  O   UNL     1      11.694  28.092   5.403  1.00  0.00    -0.237 OA
ATOM     71  O   UNL     1      12.227  27.741   7.784  1.00  0.00    -0.744 OA
ENDBRANCH  64  68
ENDBRANCH  38  61
ENDBRANCH  12  13
ENDBRANCH   5   7
ENDBRANCH   2   3
ENDBRANCH   1   2
BRANCH   1  72
ATOM     72  C   UNL     1      10.553  11.173  -6.120  1.00  0.00     0.002 C 
BRANCH  72  73
ATOM     73  C   UNL     1      11.296  10.086  -5.336  1.00  0.00     0.002 C 
BRANCH  73  74
ATOM     74  C   UNL     1      10.720   9.757  -3.954  1.00  0.00     0.021 C 
BRANCH  74  75
ATOM     75  C   UNL     1       9.268   9.279  -3.949  1.00  0.00     0.116 C 
BRANCH  75  76
ATOM     76  N   UNL     1       9.085   8.058  -4.708  1.00  0.00    -0.354 N 
ATOM     77  C   UNL     1       9.074   6.770  -4.261  1.00  0.00     0.249 C 
ATOM     78  H   UNL     1       8.950   8.174  -5.676  1.00  0.00     0.163 HD
ATOM     79  O   UNL     1       8.900   5.878  -5.096  1.00  0.00    -0.272 OA
BRANCH  77  80
ATOM     80  C   UNL     1       9.216   6.468  -2.744  1.00  0.00     0.211 C 
ATOM     81  C   UNL     1       9.441   4.974  -2.498  1.00  0.00     0.085 C 
ATOM     82  O   UNL     1      10.273   7.179  -2.105  1.00  0.00    -0.357 OA
ATOM     83  C   UNL     1      10.659   4.881  -1.579  1.00  0.00     0.124 C 
ATOM     84  C   UNL     1      11.332   6.270  -1.748  1.00  0.00     0.187 C 
BRANCH  83  85
ATOM     85  C   UNL     1      10.210   4.419  -0.173  1.00  0.00     0.005 A 
ATOM     86  C   UNL     1       9.916   3.033  -0.031  1.00  0.00     0.008 A 
ATOM     87  C   UNL     1      10.041   5.202   0.987  1.00  0.00     0.047 A 
ATOM     88  C   UNL     1       9.576   2.450   1.192  1.00  0.00     0.001 A 
ATOM     89  C   UNL     1       9.739   4.602   2.225  1.00  0.00     0.021 A 
ATOM     90  Cl  UNL     1      10.069   6.928   1.042  1.00  0.00    -0.084 Cl
ATOM     91  C   UNL     1       9.520   3.233   2.332  1.00  0.00     0.002 A 
ENDBRANCH  83  85
BRANCH  83  92
ATOM     92  O   UNL     1      11.583   3.871  -2.032  1.00  0.00    -0.382 OA
ATOM     93  H   UNL     1      11.907   4.102  -2.917  1.00  0.00     0.212 HD
ENDBRANCH  83  92
BRANCH  84  94
ATOM     94  C   UNL     1      12.454   6.513  -2.757  1.00  0.00     0.003 A 
ATOM     95  C   UNL     1      12.351   6.071  -4.090  1.00  0.00     0.008 A 
ATOM     96  C   UNL     1      13.573   7.312  -2.429  1.00  0.00     0.046 A 
ATOM     97  C   UNL     1      13.289   6.442  -5.059  1.00  0.00     0.000 A 
ATOM     98  C   UNL     1      14.518   7.669  -3.400  1.00  0.00     0.021 A 
ATOM     99  Cl  UNL     1      13.854   7.938  -0.838  1.00  0.00    -0.084 Cl
ATOM    100  C   UNL     1      14.370   7.246  -4.716  1.00  0.00     0.002 A 
ENDBRANCH  84  94
ENDBRANCH  77  80
ENDBRANCH  75  76
ENDBRANCH  74  75
ENDBRANCH  73  74
ENDBRANCH  72  73
ENDBRANCH   1  72
TORSDOF 19
