REMARK SMILES CC1=C(C)C[C@H](C(=O)N[C@@H](C)CCc2ccccc2)[C@@H](C(=O)NCCCCCCNC(=O)c2ccc(-c3c4nc(c(-c5cc(S(=O)(=O)[O-])ccc5F)c5ccc([nH]5)c(-c5cc(S(=O)(=O)[O-])ccc5F)c5nc(c(-c6cc(S(=O)(=O)[O-])ccc6F)c6ccc3[nH]6)C=C5)C=C4)cc2)C1
REMARK SMILES IDX 25 1 24 2 23 3 21 4 22 5 20 7 1 8 2 9 3 10 96 11 4 12 5 13
REMARK SMILES IDX 6 14 7 15 8 16 9 17 10 19 11 20 12 21 13 22 14 23 15 24
REMARK SMILES IDX 19 25 16 26 18 27 17 28 26 29 27 30 28 31 29 32 30 33 31 34
REMARK SMILES IDX 32 36 33 37 34 38 95 39 35 40 94 41 36 42 37 43 38 44 88 45
REMARK SMILES IDX 39 46 93 47 87 48 89 49 40 50 92 51 86 52 85 53 41 55 73 56
REMARK SMILES IDX 53 57 72 58 54 59 57 60 71 61 90 62 55 63 56 64 70 66 91 67
REMARK SMILES IDX 58 68 42 69 43 70 51 71 44 72 50 73 52 74 49 75 45 76 46 77
REMARK SMILES IDX 47 78 48 79 74 80 75 81 83 82 76 83 82 84 84 85 81 86 77 87
REMARK SMILES IDX 78 88 79 89 80 90 59 91 60 92 68 93 61 94 67 95 69 96 66 97
REMARK SMILES IDX 62 98 63 99 64 100 65 101
REMARK H PARENT 23 6 9 18 30 35 89 54 57 65
REMARK Flexibility Score: inf
ROOT
ATOM      1  C   UNL     1      -0.815   5.300  -4.916  1.00  0.00     0.021 C 
ENDROOT
BRANCH   1   2
ATOM      2  C   UNL     1      -0.781   4.182  -3.877  1.00  0.00     0.116 C 
BRANCH   2   3
ATOM      3  N   UNL     1      -1.900   3.266  -3.968  1.00  0.00    -0.356 N 
ATOM      4  C   UNL     1      -1.956   1.943  -3.639  1.00  0.00     0.224 C 
ATOM      5  O   UNL     1      -3.057   1.387  -3.664  1.00  0.00    -0.275 OA
ATOM      6  H   UNL     1      -2.736   3.652  -4.316  1.00  0.00     0.163 HD
BRANCH   4   7
ATOM      7  C   UNL     1      -0.687   1.177  -3.256  1.00  0.00     0.095 C 
ATOM      8  C   UNL     1       0.275  -0.605   0.066  1.00  0.00     0.039 C 
ATOM      9  C   UNL     1      -0.132  -0.532  -1.382  1.00  0.00    -0.074 C 
ATOM     10  C   UNL     1       0.002  -1.546  -2.260  1.00  0.00    -0.074 C 
ATOM     11  C   UNL     1      -0.815   0.754  -1.786  1.00  0.00     0.045 C 
ATOM     12  C   UNL     1       0.504  -2.924  -1.911  1.00  0.00     0.039 C 
ATOM     13  C   UNL     1      -0.423  -1.392  -3.699  1.00  0.00     0.045 C 
ATOM     14  C   UNL     1      -0.478   0.034  -4.262  1.00  0.00     0.095 C 
BRANCH  14  15
ATOM     15  C   UNL     1       0.665   0.318  -5.243  1.00  0.00     0.224 C 
ATOM     16  O   UNL     1       0.448   0.269  -6.460  1.00  0.00    -0.275 OA
ATOM     17  N   UNL     1       1.936   0.629  -4.877  1.00  0.00    -0.353 N 
ATOM     18  H   UNL     1       2.488   0.979  -5.614  1.00  0.00     0.163 HD
BRANCH  17  19
ATOM     19  C   UNL     1       2.641   0.545  -3.600  1.00  0.00     0.079 C 
ATOM     20  C   UNL     1       3.377  -0.796  -3.534  1.00  0.00     0.031 C 
BRANCH  19  21
ATOM     21  C   UNL     1       3.676   1.681  -3.439  1.00  0.00     0.029 C 
BRANCH  21  22
ATOM     22  C   UNL     1       3.108   3.099  -3.294  1.00  0.00     0.037 C 
BRANCH  22  23
ATOM     23  C   UNL     1       2.425   3.490  -2.000  1.00  0.00    -0.048 A 
ATOM     24  C   UNL     1       1.898   4.790  -1.906  1.00  0.00     0.004 A 
ATOM     25  C   UNL     1       2.284   2.647  -0.894  1.00  0.00     0.004 A 
ATOM     26  C   UNL     1       1.179   5.202  -0.781  1.00  0.00     0.000 A 
ATOM     27  C   UNL     1       1.567   3.059   0.235  1.00  0.00     0.000 A 
ATOM     28  C   UNL     1       0.996   4.327   0.283  1.00  0.00     0.000 A 
ENDBRANCH  22  23
ENDBRANCH  21  22
ENDBRANCH  19  21
ENDBRANCH  17  19
ENDBRANCH  14  15
ENDBRANCH   4   7
ENDBRANCH   2   3
ENDBRANCH   1   2
BRANCH   1  29
ATOM     29  C   UNL     1      -1.849   6.400  -4.664  1.00  0.00     0.002 C 
BRANCH  29  30
ATOM     30  C   UNL     1      -1.637   7.240  -3.400  1.00  0.00     0.002 C 
BRANCH  30  31
ATOM     31  C   UNL     1      -0.300   7.983  -3.291  1.00  0.00     0.021 C 
BRANCH  31  32
ATOM     32  C   UNL     1       0.057   8.917  -4.446  1.00  0.00     0.116 C 
BRANCH  32  33
ATOM     33  N   UNL     1      -0.934   9.955  -4.659  1.00  0.00    -0.352 N 
ATOM     34  C   UNL     1      -0.792  11.313  -4.793  1.00  0.00     0.251 C 
ATOM     35  H   UNL     1      -1.862   9.632  -4.716  1.00  0.00     0.163 HD
ATOM     36  O   UNL     1      -1.809  12.011  -4.822  1.00  0.00    -0.269 OA
BRANCH  34  37
ATOM     37  C   UNL     1       0.541  11.958  -4.877  1.00  0.00     0.039 A 
ATOM     38  C   UNL     1       0.722  13.193  -4.243  1.00  0.00     0.014 A 
ATOM     39  C   UNL     1       1.595  11.405  -5.611  1.00  0.00     0.014 A 
ATOM     40  C   UNL     1       1.959  13.843  -4.302  1.00  0.00     0.010 A 
ATOM     41  C   UNL     1       2.849  12.024  -5.617  1.00  0.00     0.010 A 
ATOM     42  C   UNL     1       3.045  13.253  -4.966  1.00  0.00    -0.014 A 
BRANCH  42  43
ATOM     43  C   UNL     1       4.379  13.917  -4.991  1.00  0.00     0.031 A 
ATOM     44  C   UNL     1       4.963  14.408  -6.291  1.00  0.00     0.074 A 
ATOM     45  C   UNL     1       5.083  14.045  -3.848  1.00  0.00     0.049 A 
ATOM     46  N   UNL     1       6.122  14.973  -6.516  1.00  0.00    -0.248 NA
ATOM     47  C   UNL     1       4.146  14.217  -7.500  1.00  0.00     0.031 C 
ATOM     48  C   UNL     1       4.643  13.581  -2.529  1.00  0.00     0.029 A 
ATOM     49  N   UNL     1       6.317  14.597  -3.606  1.00  0.00    -0.354 N 
ATOM     50  C   UNL     1       6.183  15.190  -7.889  1.00  0.00     0.074 A 
ATOM     51  C   UNL     1       4.961  14.654  -8.450  1.00  0.00     0.031 C 
ATOM     52  C   UNL     1       5.580  13.888  -1.618  1.00  0.00     0.029 A 
ATOM     53  C   UNL     1       6.707  14.531  -2.287  1.00  0.00     0.049 A 
ATOM     54  H   UNL     1       6.872  15.002  -4.311  1.00  0.00     0.167 HD
ATOM     55  C   UNL     1       7.158  15.795  -8.612  1.00  0.00     0.034 A 
ATOM     56  C   UNL     1       7.846  14.933  -1.685  1.00  0.00     0.034 A 
ATOM     57  C   UNL     1       8.358  16.354  -8.039  1.00  0.00     0.049 A 
ATOM     58  C   UNL     1       8.918  15.595  -2.517  1.00  0.00     0.074 A 
ATOM     59  C   UNL     1       9.370  17.055  -8.674  1.00  0.00     0.029 A 
ATOM     60  N   UNL     1       8.716  16.272  -6.700  1.00  0.00    -0.354 N 
ATOM     61  N   UNL     1       8.924  15.851  -3.805  1.00  0.00    -0.248 NA
ATOM     62  C   UNL     1      10.129  16.035  -1.811  1.00  0.00     0.031 C 
ATOM     63  C   UNL     1      10.367  17.338  -7.735  1.00  0.00     0.029 A 
ATOM     64  C   UNL     1       9.946  16.879  -6.498  1.00  0.00     0.049 A 
ATOM     65  H   UNL     1       8.175  15.845  -5.997  1.00  0.00     0.167 HD
ATOM     66  C   UNL     1      10.122  16.517  -4.052  1.00  0.00     0.074 A 
ATOM     67  C   UNL     1      10.803  16.635  -2.780  1.00  0.00     0.031 C 
ATOM     68  C   UNL     1      10.615  16.991  -5.224  1.00  0.00     0.034 A 
BRANCH  55  69
ATOM     69  C   UNL     1       6.983  15.866 -10.110  1.00  0.00     0.023 A 
ATOM     70  C   UNL     1       5.958  16.622 -10.703  1.00  0.00     0.031 A 
ATOM     71  C   UNL     1       7.869  15.177 -10.958  1.00  0.00     0.131 A 
ATOM     72  C   UNL     1       5.809  16.628 -12.098  1.00  0.00     0.055 A 
ATOM     73  C   UNL     1       7.759  15.244 -12.348  1.00  0.00     0.041 A 
ATOM     74  F   UNL     1       8.856  14.424 -10.448  1.00  0.00    -0.206 F 
ATOM     75  C   UNL     1       6.718  15.964 -12.926  1.00  0.00     0.022 A 
BRANCH  72  76
ATOM     76  S   UNL     1       4.348  17.428 -12.814  1.00  0.00     0.124 S 
ATOM     77  O   UNL     1       3.265  16.645 -12.222  1.00  0.00    -0.237 OA
ATOM     78  O   UNL     1       4.476  18.802 -12.341  1.00  0.00    -0.237 OA
ATOM     79  O   UNL     1       4.526  17.244 -14.252  1.00  0.00    -0.744 OA
ENDBRANCH  72  76
ENDBRANCH  55  69
BRANCH  56  80
ATOM     80  C   UNL     1       8.056  14.717  -0.223  1.00  0.00     0.023 A 
ATOM     81  C   UNL     1       8.228  15.804   0.650  1.00  0.00     0.031 A 
ATOM     82  C   UNL     1       8.166  13.421   0.312  1.00  0.00     0.131 A 
ATOM     83  C   UNL     1       8.566  15.577   1.993  1.00  0.00     0.055 A 
ATOM     84  C   UNL     1       8.441  13.200   1.663  1.00  0.00     0.041 A 
ATOM     85  F   UNL     1       8.008  12.345  -0.476  1.00  0.00    -0.206 F 
ATOM     86  C   UNL     1       8.662  14.283   2.508  1.00  0.00     0.022 A 
BRANCH  83  87
ATOM     87  S   UNL     1       9.000  17.001   3.031  1.00  0.00     0.124 S 
ATOM     88  O   UNL     1      10.063  17.624   2.249  1.00  0.00    -0.237 OA
ATOM     89  O   UNL     1       7.736  17.727   3.089  1.00  0.00    -0.237 OA
ATOM     90  O   UNL     1       9.425  16.389   4.287  1.00  0.00    -0.744 OA
ENDBRANCH  83  87
ENDBRANCH  56  80
BRANCH  68  91
ATOM     91  C   UNL     1      11.929  17.731  -5.168  1.00  0.00     0.023 A 
ATOM     92  C   UNL     1      13.132  17.080  -4.844  1.00  0.00     0.031 A 
ATOM     93  C   UNL     1      11.973  19.112  -5.429  1.00  0.00     0.131 A 
ATOM     94  C   UNL     1      14.319  17.820  -4.734  1.00  0.00     0.055 A 
ATOM     95  C   UNL     1      13.166  19.832  -5.377  1.00  0.00     0.041 A 
ATOM     96  F   UNL     1      10.853  19.784  -5.742  1.00  0.00    -0.206 F 
ATOM     97  C   UNL     1      14.347  19.189  -5.014  1.00  0.00     0.022 A 
BRANCH  94  98
ATOM     98  S   UNL     1      15.814  16.986  -4.134  1.00  0.00     0.124 S 
ATOM     99  O   UNL     1      15.388  16.505  -2.824  1.00  0.00    -0.237 OA
ATOM    100  O   UNL     1      16.029  15.961  -5.150  1.00  0.00    -0.237 OA
ATOM    101  O   UNL     1      16.815  18.052  -4.108  1.00  0.00    -0.744 OA
ENDBRANCH  94  98
ENDBRANCH  68  91
ENDBRANCH  42  43
ENDBRANCH  34  37
ENDBRANCH  32  33
ENDBRANCH  31  32
ENDBRANCH  30  31
ENDBRANCH  29  30
ENDBRANCH   1  29
TORSDOF 21
