REMARK SMILES CC(C)C[C@H](NC(=O)CNC(=O)[C@@H]([NH3+])C(C)C)C(=O)NCCCCCCNC(=O)c1ccc(-c2c3nc(c(-c4cc(S(=O)(=O)[O-])ccc4F)c4ccc([nH]4)c(-c4cc(S(=O)(=O)[O-])ccc4F)c4nc(c(-c5cc(S(=O)(=O)[O-])ccc5F)c5ccc2[nH]5)C=C4)C=C3)cc1
REMARK SMILES IDX 22 1 21 2 20 3 18 4 19 5 5 7 4 8 2 9 1 10 3 11 6 12 7 13
REMARK SMILES IDX 8 15 9 16 10 17 11 18 12 20 13 21 14 22 15 26 16 27 17 28
REMARK SMILES IDX 23 29 24 30 25 31 26 32 27 33 28 34 29 36 30 37 31 38 92 39
REMARK SMILES IDX 32 40 91 41 33 42 34 43 35 44 85 45 36 46 90 47 84 48 86 49
REMARK SMILES IDX 37 50 89 51 83 52 82 53 38 55 70 56 50 57 69 58 51 59 54 60
REMARK SMILES IDX 68 61 87 62 52 63 53 64 67 66 88 67 55 68 39 69 40 70 48 71
REMARK SMILES IDX 41 72 47 73 49 74 46 75 42 76 43 77 44 78 45 79 71 80 72 81
REMARK SMILES IDX 80 82 73 83 79 84 81 85 78 86 74 87 75 88 76 89 77 90 56 91
REMARK SMILES IDX 57 92 65 93 58 94 64 95 66 96 63 97 59 98 60 99 61 100
REMARK SMILES IDX 62 101
REMARK H PARENT 20 6 6 14 10 19 14 23 14 24 14 25 27 35 86 54 54 65
REMARK Flexibility Score: inf
ROOT
ATOM      1  C   UNL     1      -3.719   1.782   3.746  1.00  0.00     0.021 C 
ENDROOT
BRANCH   1   2
ATOM      2  C   UNL     1      -3.165   0.368   3.637  1.00  0.00     0.116 C 
BRANCH   2   3
ATOM      3  N   UNL     1      -3.615  -0.257   2.410  1.00  0.00    -0.354 N 
ATOM      4  C   UNL     1      -2.923  -0.988   1.499  1.00  0.00     0.242 C 
ATOM      5  O   UNL     1      -3.521  -1.422   0.509  1.00  0.00    -0.273 OA
ATOM      6  H   UNL     1      -4.569  -0.132   2.205  1.00  0.00     0.163 HD
BRANCH   4   7
ATOM      7  C   UNL     1      -1.440  -1.319   1.719  1.00  0.00     0.171 C 
BRANCH   7   8
ATOM      8  C   UNL     1      -1.185  -2.219   2.942  1.00  0.00     0.038 C 
BRANCH   8   9
ATOM      9  C   UNL     1      -2.092  -3.478   3.036  1.00  0.00    -0.015 C 
ATOM     10  C   UNL     1      -1.681  -4.613   2.099  1.00  0.00     0.007 C 
ATOM     11  C   UNL     1      -2.090  -4.015   4.468  1.00  0.00     0.007 C 
ENDBRANCH   8   9
ENDBRANCH   7   8
BRANCH   7  12
ATOM     12  N   UNL     1      -0.641  -0.086   1.695  1.00  0.00    -0.343 N 
ATOM     13  C   UNL     1       0.303   0.369   0.829  1.00  0.00     0.240 C 
ATOM     14  H   UNL     1      -0.824   0.525   2.445  1.00  0.00     0.164 HD
ATOM     15  O   UNL     1       0.545   1.581   0.872  1.00  0.00    -0.273 OA
BRANCH  13  16
ATOM     16  C   UNL     1       0.970  -0.507  -0.234  1.00  0.00     0.216 C 
BRANCH  16  17
ATOM     17  N   UNL     1       1.202  -1.869   0.197  1.00  0.00    -0.342 N 
ATOM     18  C   UNL     1       0.602  -3.038  -0.126  1.00  0.00     0.278 C 
ATOM     19  H   UNL     1       1.934  -1.962   0.849  1.00  0.00     0.164 HD
ATOM     20  O   UNL     1       0.925  -3.999   0.584  1.00  0.00    -0.268 OA
BRANCH  18  21
ATOM     21  C   UNL     1      -0.410  -3.238  -1.298  1.00  0.00     0.273 C 
BRANCH  21  22
ATOM     22  N   UNL     1      -1.153  -2.014  -1.672  1.00  0.00    -0.347 N 
ATOM     23  H   UNL     1      -0.499  -1.314  -2.022  1.00  0.00     0.345 HD
ATOM     24  H   UNL     1      -1.638  -1.648  -0.854  1.00  0.00     0.345 HD
ATOM     25  H   UNL     1      -1.832  -2.238  -2.399  1.00  0.00     0.345 HD
ENDBRANCH  21  22
BRANCH  21  26
ATOM     26  C   UNL     1       0.303  -3.915  -2.490  1.00  0.00     0.051 C 
ATOM     27  C   UNL     1       0.854  -5.293  -2.083  1.00  0.00     0.014 C 
ATOM     28  C   UNL     1      -0.639  -4.124  -3.682  1.00  0.00     0.014 C 
ENDBRANCH  21  26
ENDBRANCH  18  21
ENDBRANCH  16  17
ENDBRANCH  13  16
ENDBRANCH   7  12
ENDBRANCH   4   7
ENDBRANCH   2   3
ENDBRANCH   1   2
BRANCH   1  29
ATOM     29  C   UNL     1      -5.232   1.818   3.977  1.00  0.00     0.002 C 
BRANCH  29  30
ATOM     30  C   UNL     1      -5.712   0.943   5.141  1.00  0.00     0.002 C 
BRANCH  30  31
ATOM     31  C   UNL     1      -4.976   1.184   6.462  1.00  0.00     0.021 C 
BRANCH  31  32
ATOM     32  C   UNL     1      -4.999   2.633   6.925  1.00  0.00     0.116 C 
BRANCH  32  33
ATOM     33  N   UNL     1      -6.357   3.104   7.123  1.00  0.00    -0.352 N 
ATOM     34  C   UNL     1      -6.884   3.741   8.215  1.00  0.00     0.251 C 
ATOM     35  H   UNL     1      -6.979   2.946   6.377  1.00  0.00     0.163 HD
ATOM     36  O   UNL     1      -8.101   3.858   8.330  1.00  0.00    -0.269 OA
BRANCH  34  37
ATOM     37  C   UNL     1      -5.970   4.258   9.253  1.00  0.00     0.039 A 
ATOM     38  C   UNL     1      -6.274   4.029  10.594  1.00  0.00     0.014 A 
ATOM     39  C   UNL     1      -4.810   4.953   8.895  1.00  0.00     0.014 A 
ATOM     40  C   UNL     1      -5.392   4.472  11.580  1.00  0.00     0.010 A 
ATOM     41  C   UNL     1      -3.893   5.317   9.873  1.00  0.00     0.010 A 
ATOM     42  C   UNL     1      -4.184   5.098  11.228  1.00  0.00    -0.014 A 
BRANCH  42  43
ATOM     43  C   UNL     1      -3.239   5.570  12.270  1.00  0.00     0.031 A 
ATOM     44  C   UNL     1      -2.948   7.041  12.403  1.00  0.00     0.074 A 
ATOM     45  C   UNL     1      -2.627   4.677  13.072  1.00  0.00     0.049 A 
ATOM     46  N   UNL     1      -2.124   7.652  13.215  1.00  0.00    -0.248 NA
ATOM     47  C   UNL     1      -3.658   7.941  11.480  1.00  0.00     0.031 C 
ATOM     48  C   UNL     1      -2.804   3.224  13.009  1.00  0.00     0.029 A 
ATOM     49  N   UNL     1      -1.733   4.857  14.097  1.00  0.00    -0.354 N 
ATOM     50  C   UNL     1      -2.219   9.004  12.903  1.00  0.00     0.074 A 
ATOM     51  C   UNL     1      -3.115   9.112  11.772  1.00  0.00     0.031 C 
ATOM     52  C   UNL     1      -2.067   2.650  13.973  1.00  0.00     0.029 A 
ATOM     53  C   UNL     1      -1.328   3.683  14.691  1.00  0.00     0.049 A 
ATOM     54  H   UNL     1      -1.411   5.743  14.381  1.00  0.00     0.167 HD
ATOM     55  C   UNL     1      -1.642  10.062  13.525  1.00  0.00     0.034 A 
ATOM     56  C   UNL     1      -0.453   3.467  15.693  1.00  0.00     0.034 A 
ATOM     57  C   UNL     1      -0.751   9.935  14.652  1.00  0.00     0.049 A 
ATOM     58  C   UNL     1       0.210   4.658  16.342  1.00  0.00     0.074 A 
ATOM     59  C   UNL     1      -0.119  10.936  15.369  1.00  0.00     0.029 A 
ATOM     60  N   UNL     1      -0.364   8.731  15.227  1.00  0.00    -0.354 N 
ATOM     61  N   UNL     1       0.080   5.935  16.059  1.00  0.00    -0.248 NA
ATOM     62  C   UNL     1       1.121   4.381  17.458  1.00  0.00     0.031 C 
ATOM     63  C   UNL     1       0.699  10.336  16.332  1.00  0.00     0.029 A 
ATOM     64  C   UNL     1       0.513   8.964  16.275  1.00  0.00     0.049 A 
ATOM     65  H   UNL     1      -0.668   7.842  14.933  1.00  0.00     0.167 HD
ATOM     66  C   UNL     1       0.863   6.612  16.991  1.00  0.00     0.074 A 
ATOM     67  C   UNL     1       1.442   5.603  17.854  1.00  0.00     0.031 C 
ATOM     68  C   UNL     1       1.082   7.945  17.127  1.00  0.00     0.034 A 
BRANCH  55  69
ATOM     69  C   UNL     1      -1.953  11.438  12.984  1.00  0.00     0.023 A 
ATOM     70  C   UNL     1      -3.265  11.945  12.980  1.00  0.00     0.031 A 
ATOM     71  C   UNL     1      -0.938  12.243  12.441  1.00  0.00     0.131 A 
ATOM     72  C   UNL     1      -3.539  13.181  12.375  1.00  0.00     0.055 A 
ATOM     73  C   UNL     1      -1.203  13.512  11.920  1.00  0.00     0.041 A 
ATOM     74  F   UNL     1       0.331  11.806  12.394  1.00  0.00    -0.206 F 
ATOM     75  C   UNL     1      -2.512  13.981  11.871  1.00  0.00     0.022 A 
BRANCH  72  76
ATOM     76  S   UNL     1      -5.271  13.656  12.125  1.00  0.00     0.124 S 
ATOM     77  O   UNL     1      -5.760  12.558  11.293  1.00  0.00    -0.237 OA
ATOM     78  O   UNL     1      -5.787  13.704  13.488  1.00  0.00    -0.237 OA
ATOM     79  O   UNL     1      -5.177  14.947  11.446  1.00  0.00    -0.744 OA
ENDBRANCH  72  76
ENDBRANCH  55  69
BRANCH  56  80
ATOM     80  C   UNL     1      -0.136   2.080  16.142  1.00  0.00     0.023 A 
ATOM     81  C   UNL     1      -0.401   1.665  17.457  1.00  0.00     0.031 A 
ATOM     82  C   UNL     1       0.502   1.168  15.282  1.00  0.00     0.131 A 
ATOM     83  C   UNL     1       0.033   0.404  17.894  1.00  0.00     0.055 A 
ATOM     84  C   UNL     1       0.871  -0.111  15.702  1.00  0.00     0.041 A 
ATOM     85  F   UNL     1       0.777   1.509  14.012  1.00  0.00    -0.206 F 
ATOM     86  C   UNL     1       0.654  -0.493  17.022  1.00  0.00     0.022 A 
BRANCH  83  87
ATOM     87  S   UNL     1      -0.114  -0.000  19.657  1.00  0.00     0.124 S 
ATOM     88  O   UNL     1       0.607   1.106  20.275  1.00  0.00    -0.237 OA
ATOM     89  O   UNL     1      -1.561  -0.009  19.845  1.00  0.00    -0.237 OA
ATOM     90  O   UNL     1       0.534  -1.306  19.761  1.00  0.00    -0.744 OA
ENDBRANCH  83  87
ENDBRANCH  56  80
BRANCH  68  91
ATOM     91  C   UNL     1       1.937   8.385  18.292  1.00  0.00     0.023 A 
ATOM     92  C   UNL     1       3.295   8.038  18.391  1.00  0.00     0.031 A 
ATOM     93  C   UNL     1       1.372   9.145  19.332  1.00  0.00     0.131 A 
ATOM     94  C   UNL     1       4.024   8.387  19.538  1.00  0.00     0.055 A 
ATOM     95  C   UNL     1       2.121   9.552  20.436  1.00  0.00     0.041 A 
ATOM     96  F   UNL     1       0.079   9.504  19.292  1.00  0.00    -0.206 F 
ATOM     97  C   UNL     1       3.450   9.158  20.552  1.00  0.00     0.022 A 
BRANCH  94  98
ATOM     98  S   UNL     1       5.698   7.719  19.742  1.00  0.00     0.124 S 
ATOM     99  O   UNL     1       5.464   6.282  19.649  1.00  0.00    -0.237 OA
ATOM    100  O   UNL     1       6.412   8.322  18.622  1.00  0.00    -0.237 OA
ATOM    101  O   UNL     1       6.099   8.198  21.063  1.00  0.00    -0.744 OA
ENDBRANCH  94  98
ENDBRANCH  68  91
ENDBRANCH  42  43
ENDBRANCH  34  37
ENDBRANCH  32  33
ENDBRANCH  31  32
ENDBRANCH  30  31
ENDBRANCH  29  30
ENDBRANCH   1  29
TORSDOF 24
