REMARK SMILES O=C(NCCCCCCNC(=O)c1c(F)cccc1NC(=O)C1CCCCC1)c1ccc(-c2c3nc(c(-c4cc(S(=O)(=O)[O-])ccc4F)c4ccc([nH]4)c(-c4cc(S(=O)(=O)[O-])ccc4F)c4nc(c(-c5cc(S(=O)(=O)[O-])ccc5F)c5ccc2[nH]5)C=C4)C=C3)cc1
REMARK SMILES IDX 6 1 5 2 4 3 3 4 1 5 2 6 29 8 30 9 91 10 31 11 90 12 32 13
REMARK SMILES IDX 33 14 34 15 84 16 35 17 89 18 83 19 85 20 36 21 88 22 82 23
REMARK SMILES IDX 81 24 37 26 69 27 49 28 68 29 50 30 53 31 67 32 86 33 51 34
REMARK SMILES IDX 52 35 66 37 87 38 54 39 38 40 39 41 47 42 40 43 46 44 48 45
REMARK SMILES IDX 45 46 41 47 42 48 43 49 44 50 70 51 71 52 79 53 72 54 78 55
REMARK SMILES IDX 80 56 77 57 73 58 74 59 75 60 76 61 55 62 56 63 64 64 57 65
REMARK SMILES IDX 63 66 65 67 62 68 58 69 59 70 60 71 61 72 7 73 8 74 9 75
REMARK SMILES IDX 10 76 11 77 12 79 13 80 14 81 19 82 15 83 16 84 18 85 17 86
REMARK SMILES IDX 20 87 21 88 22 90 23 91 24 92 28 93 25 94 27 95 26 96
REMARK H PARENT 3 7 85 25 53 36 10 78 20 89
REMARK Flexibility Score: inf
ROOT
ATOM      1  C   UNL     1       3.849  -2.748   2.914  1.00  0.00     0.002 C 
ENDROOT
BRANCH   1   2
ATOM      2  C   UNL     1       4.441  -1.412   2.448  1.00  0.00     0.021 C 
BRANCH   2   3
ATOM      3  C   UNL     1       4.314  -1.094   0.960  1.00  0.00     0.116 C 
BRANCH   3   4
ATOM      4  N   UNL     1       2.934  -1.035   0.517  1.00  0.00    -0.352 N 
ATOM      5  O   UNL     1       1.043  -0.144  -0.294  1.00  0.00    -0.269 OA
ATOM      6  C   UNL     1       2.259  -0.042  -0.146  1.00  0.00     0.251 C 
ATOM      7  H   UNL     1       2.398  -1.833   0.726  1.00  0.00     0.163 HD
BRANCH   6   8
ATOM      8  C   UNL     1       2.962   1.154  -0.669  1.00  0.00     0.039 A 
ATOM      9  C   UNL     1       4.164   1.057  -1.378  1.00  0.00     0.014 A 
ATOM     10  C   UNL     1       2.352   2.404  -0.508  1.00  0.00     0.014 A 
ATOM     11  C   UNL     1       4.791   2.212  -1.854  1.00  0.00     0.010 A 
ATOM     12  C   UNL     1       2.962   3.555  -1.016  1.00  0.00     0.010 A 
ATOM     13  C   UNL     1       4.194   3.470  -1.681  1.00  0.00    -0.014 A 
BRANCH  13  14
ATOM     14  C   UNL     1       4.840   4.694  -2.220  1.00  0.00     0.031 A 
ATOM     15  C   UNL     1       5.475   5.693  -1.293  1.00  0.00     0.074 A 
ATOM     16  C   UNL     1       4.854   4.908  -3.549  1.00  0.00     0.049 A 
ATOM     17  N   UNL     1       6.011   6.854  -1.572  1.00  0.00    -0.248 NA
ATOM     18  C   UNL     1       5.510   5.340   0.134  1.00  0.00     0.031 C 
ATOM     19  C   UNL     1       4.288   4.009  -4.556  1.00  0.00     0.029 A 
ATOM     20  N   UNL     1       5.366   5.949  -4.280  1.00  0.00    -0.354 N 
ATOM     21  C   UNL     1       6.437   7.378  -0.358  1.00  0.00     0.074 A 
ATOM     22  C   UNL     1       6.086   6.411   0.662  1.00  0.00     0.031 C 
ATOM     23  C   UNL     1       4.503   4.528  -5.776  1.00  0.00     0.029 A 
ATOM     24  C   UNL     1       5.181   5.813  -5.635  1.00  0.00     0.049 A 
ATOM     25  H   UNL     1       5.824   6.720  -3.874  1.00  0.00     0.167 HD
ATOM     26  C   UNL     1       7.062   8.557  -0.116  1.00  0.00     0.034 A 
ATOM     27  C   UNL     1       5.500   6.640  -6.649  1.00  0.00     0.034 A 
ATOM     28  C   UNL     1       7.407   9.521  -1.129  1.00  0.00     0.049 A 
ATOM     29  C   UNL     1       6.153   7.959  -6.350  1.00  0.00     0.074 A 
ATOM     30  C   UNL     1       8.027  10.751  -0.978  1.00  0.00     0.029 A 
ATOM     31  N   UNL     1       7.162   9.366  -2.485  1.00  0.00    -0.354 N 
ATOM     32  N   UNL     1       6.491   8.466  -5.189  1.00  0.00    -0.248 NA
ATOM     33  C   UNL     1       6.453   8.823  -7.500  1.00  0.00     0.031 C 
ATOM     34  C   UNL     1       8.128  11.351  -2.239  1.00  0.00     0.029 A 
ATOM     35  C   UNL     1       7.607  10.479  -3.180  1.00  0.00     0.049 A 
ATOM     36  H   UNL     1       6.735   8.579  -2.895  1.00  0.00     0.167 HD
ATOM     37  C   UNL     1       7.037   9.713  -5.468  1.00  0.00     0.074 A 
ATOM     38  C   UNL     1       6.998   9.877  -6.908  1.00  0.00     0.031 C 
ATOM     39  C   UNL     1       7.529  10.641  -4.610  1.00  0.00     0.034 A 
BRANCH  26  40
ATOM     40  C   UNL     1       7.371   8.882   1.319  1.00  0.00     0.023 A 
ATOM     41  C   UNL     1       8.414   8.240   2.007  1.00  0.00     0.031 A 
ATOM     42  C   UNL     1       6.602   9.835   2.009  1.00  0.00     0.131 A 
ATOM     43  C   UNL     1       8.633   8.530   3.362  1.00  0.00     0.055 A 
ATOM     44  C   UNL     1       6.858  10.156   3.342  1.00  0.00     0.041 A 
ATOM     45  F   UNL     1       5.582  10.459   1.398  1.00  0.00    -0.206 F 
ATOM     46  C   UNL     1       7.875   9.497   4.028  1.00  0.00     0.022 A 
BRANCH  43  47
ATOM     47  S   UNL     1       9.886   7.584   4.269  1.00  0.00     0.124 S 
ATOM     48  O   UNL     1       9.245   6.276   4.377  1.00  0.00    -0.237 OA
ATOM     49  O   UNL     1      11.045   7.653   3.386  1.00  0.00    -0.237 OA
ATOM     50  O   UNL     1      10.020   8.314   5.528  1.00  0.00    -0.744 OA
ENDBRANCH  43  47
ENDBRANCH  26  40
BRANCH  27  51
ATOM     51  C   UNL     1       5.157   6.267  -8.044  1.00  0.00     0.023 A 
ATOM     52  C   UNL     1       6.149   5.841  -8.939  1.00  0.00     0.031 A 
ATOM     53  C   UNL     1       3.831   6.346  -8.499  1.00  0.00     0.131 A 
ATOM     54  C   UNL     1       5.799   5.524 -10.260  1.00  0.00     0.055 A 
ATOM     55  C   UNL     1       3.484   6.006  -9.806  1.00  0.00     0.041 A 
ATOM     56  F   UNL     1       2.853   6.741  -7.669  1.00  0.00    -0.206 F 
ATOM     57  C   UNL     1       4.473   5.596 -10.697  1.00  0.00     0.022 A 
BRANCH  54  58
ATOM     58  S   UNL     1       7.108   5.021 -11.410  1.00  0.00     0.124 S 
ATOM     59  O   UNL     1       7.894   6.245 -11.519  1.00  0.00    -0.237 OA
ATOM     60  O   UNL     1       7.736   3.916 -10.694  1.00  0.00    -0.237 OA
ATOM     61  O   UNL     1       6.374   4.640 -12.615  1.00  0.00    -0.744 OA
ENDBRANCH  54  58
ENDBRANCH  27  51
BRANCH  39  62
ATOM     62  C   UNL     1       8.064  11.905  -5.218  1.00  0.00     0.023 A 
ATOM     63  C   UNL     1       7.200  12.913  -5.677  1.00  0.00     0.031 A 
ATOM     64  C   UNL     1       9.449  12.095  -5.352  1.00  0.00     0.131 A 
ATOM     65  C   UNL     1       7.732  14.060  -6.284  1.00  0.00     0.055 A 
ATOM     66  C   UNL     1       9.974  13.252  -5.928  1.00  0.00     0.041 A 
ATOM     67  F   UNL     1      10.310  11.156  -4.930  1.00  0.00    -0.206 F 
ATOM     68  C   UNL     1       9.114  14.240  -6.404  1.00  0.00     0.022 A 
BRANCH  65  69
ATOM     69  S   UNL     1       6.595  15.308  -6.947  1.00  0.00     0.124 S 
ATOM     70  O   UNL     1       5.969  14.589  -8.052  1.00  0.00    -0.237 OA
ATOM     71  O   UNL     1       5.736  15.593  -5.803  1.00  0.00    -0.237 OA
ATOM     72  O   UNL     1       7.480  16.402  -7.341  1.00  0.00    -0.744 OA
ENDBRANCH  65  69
ENDBRANCH  39  62
ENDBRANCH  13  14
ENDBRANCH   6   8
ENDBRANCH   3   4
ENDBRANCH   2   3
ENDBRANCH   1   2
BRANCH   1  73
ATOM     73  C   UNL     1       4.345  -4.012   2.202  1.00  0.00     0.002 C 
BRANCH  73  74
ATOM     74  C   UNL     1       5.859  -4.155   2.050  1.00  0.00     0.021 C 
BRANCH  74  75
ATOM     75  C   UNL     1       6.667  -4.025   3.336  1.00  0.00     0.116 C 
BRANCH  75  76
ATOM     76  N   UNL     1       6.626  -5.217   4.169  1.00  0.00    -0.352 N 
ATOM     77  C   UNL     1       7.693  -5.867   4.755  1.00  0.00     0.256 C 
ATOM     78  H   UNL     1       5.736  -5.604   4.334  1.00  0.00     0.163 HD
ATOM     79  O   UNL     1       7.535  -6.904   5.386  1.00  0.00    -0.269 OA
BRANCH  77  80
ATOM     80  C   UNL     1       9.053  -5.359   4.491  1.00  0.00     0.099 A 
ATOM     81  C   UNL     1       9.383  -4.076   4.928  1.00  0.00     0.138 A 
ATOM     82  C   UNL     1       9.958  -6.105   3.713  1.00  0.00     0.057 A 
ATOM     83  F   UNL     1       8.561  -3.398   5.743  1.00  0.00    -0.206 F 
ATOM     84  C   UNL     1      10.534  -3.453   4.470  1.00  0.00     0.040 A 
ATOM     85  C   UNL     1      11.042  -5.427   3.158  1.00  0.00     0.027 A 
ATOM     86  C   UNL     1      11.337  -4.111   3.542  1.00  0.00     0.005 A 
BRANCH  82  87
ATOM     87  N   UNL     1       9.706  -7.468   3.487  1.00  0.00    -0.325 N 
ATOM     88  C   UNL     1      10.454  -8.562   3.201  1.00  0.00     0.227 C 
ATOM     89  H   UNL     1       8.748  -7.682   3.553  1.00  0.00     0.169 HD
ATOM     90  O   UNL     1       9.791  -9.564   2.890  1.00  0.00    -0.274 OA
BRANCH  88  91
ATOM     91  C   UNL     1      11.996  -8.660   3.235  1.00  0.00     0.079 C 
ATOM     92  C   UNL     1      12.753  -7.840   4.290  1.00  0.00     0.013 C 
ATOM     93  C   UNL     1      12.333 -10.162   3.482  1.00  0.00     0.013 C 
ATOM     94  C   UNL     1      14.255  -8.125   4.277  1.00  0.00     0.001 C 
ATOM     95  C   UNL     1      13.823 -10.477   3.574  1.00  0.00     0.001 C 
ATOM     96  C   UNL     1      14.537  -9.585   4.576  1.00  0.00     0.000 C 
ENDBRANCH  88  91
ENDBRANCH  82  87
ENDBRANCH  77  80
ENDBRANCH  75  76
ENDBRANCH  74  75
ENDBRANCH  73  74
ENDBRANCH   1  73
TORSDOF 18
