REMARK SMILES CCCc1cc(S(F)(F)(F)(F)F)cc2c1O[C@@H](C(F)(F)F)C(C(=O)NCCCCCCNC(=O)c1ccc(-c3c4nc(c(-c5cc(S(=O)(=O)[O-])ccc5F)c5ccc([nH]5)c(-c5cc(S(=O)(=O)[O-])ccc5F)c5nc(c(-c6cc(S(=O)(=O)[O-])ccc6F)c6ccc3[nH]6)C=C5)C=C4)cc1)=C2
REMARK SMILES IDX 29 1 28 2 27 3 26 4 25 5 23 6 24 7 22 9 4 10 5 11 15 12 6 13
REMARK SMILES IDX 14 14 16 15 13 16 98 17 17 18 3 19 2 20 1 21 7 22 8 23 9 24
REMARK SMILES IDX 10 25 11 26 12 27 18 28 19 29 20 30 21 31 30 32 31 33 32 34
REMARK SMILES IDX 33 35 34 37 35 38 36 39 97 40 37 41 96 42 38 43 39 44 40 45
REMARK SMILES IDX 90 46 41 47 95 48 89 49 91 50 42 51 94 52 88 53 87 54 43 56
REMARK SMILES IDX 75 57 55 58 74 59 56 60 59 61 73 62 92 63 57 64 58 65 72 67
REMARK SMILES IDX 93 68 60 69 44 70 45 71 53 72 46 73 52 74 54 75 51 76 47 77
REMARK SMILES IDX 48 78 49 79 50 80 76 81 77 82 85 83 78 84 84 85 86 86 83 87
REMARK SMILES IDX 79 88 80 89 81 90 82 91 61 92 62 93 70 94 63 95 69 96 71 97
REMARK SMILES IDX 68 98 64 99 65 100 66 101 67 102
REMARK H PARENT 25 8 32 36 91 55 59 66
REMARK Flexibility Score: inf
ROOT
ATOM      1  C   UNL     1       2.781 -10.306  -1.651  1.00  0.00     0.002 C 
ENDROOT
BRANCH   1   2
ATOM      2  C   UNL     1       2.710  -9.778  -3.075  1.00  0.00     0.002 C 
BRANCH   2   3
ATOM      3  C   UNL     1       1.861  -8.517  -3.106  1.00  0.00     0.021 C 
BRANCH   3   4
ATOM      4  C   UNL     1       2.484  -7.464  -2.205  1.00  0.00     0.116 C 
BRANCH   4   5
ATOM      5  N   UNL     1       3.840  -7.153  -2.680  1.00  0.00    -0.352 N 
ATOM      6  C   UNL     1       4.179  -5.783  -3.091  1.00  0.00     0.251 C 
ATOM      7  O   UNL     1       5.351  -5.514  -3.502  1.00  0.00    -0.270 OA
ATOM      8  H   UNL     1       4.521  -7.862  -2.724  1.00  0.00     0.163 HD
BRANCH   6   9
ATOM      9  C   UNL     1       3.127  -4.688  -3.025  1.00  0.00     0.067 C 
ATOM     10  C   UNL     1       0.455  -1.539  -2.399  1.00  0.00    -0.004 A 
ATOM     11  C   UNL     1      -0.878  -1.805  -2.144  1.00  0.00     0.032 A 
ATOM     12  C   UNL     1       1.322  -2.594  -2.548  1.00  0.00     0.131 A 
ATOM     13  C   UNL     1      -1.331  -3.094  -2.037  1.00  0.00     0.108 A 
ATOM     14  C   UNL     1       0.897  -3.908  -2.464  1.00  0.00     0.019 A 
ATOM     15  O   UNL     1       2.659  -2.314  -2.687  1.00  0.00    -0.475 OA
ATOM     16  C   UNL     1      -0.448  -4.140  -2.203  1.00  0.00     0.036 A 
ATOM     17  C   UNL     1       1.899  -4.952  -2.598  1.00  0.00     0.025 C 
ATOM     18  C   UNL     1       3.460  -3.263  -3.446  1.00  0.00     0.314 C 
BRANCH  10  19
ATOM     19  C   UNL     1       0.961  -0.110  -2.511  1.00  0.00     0.039 C 
BRANCH  19  20
ATOM     20  C   UNL     1       0.455   0.702  -1.330  1.00  0.00     0.001 C 
ATOM     21  C   UNL     1       0.961   0.085  -0.037  1.00  0.00     0.004 C 
ENDBRANCH  19  20
ENDBRANCH  10  19
BRANCH  13  22
ATOM     22  S   UNL     1      -3.075  -3.421  -1.680  1.00  0.00     0.310 S 
ATOM     23  F   UNL     1      -2.819  -3.407  -0.115  1.00  0.00    -0.094 F 
ATOM     24  F   UNL     1      -2.749  -4.962  -1.651  1.00  0.00    -0.094 F 
ATOM     25  F   UNL     1      -4.572  -3.704  -1.370  1.00  0.00    -0.094 F 
ATOM     26  F   UNL     1      -3.355  -1.870  -1.574  1.00  0.00    -0.094 F 
ATOM     27  F   UNL     1      -1.538  -3.115  -1.882  1.00  0.00    -0.094 F 
ENDBRANCH  13  22
BRANCH  18  28
ATOM     28  C   UNL     1       4.932  -2.997  -3.177  1.00  0.00     0.429 C 
ATOM     29  F   UNL     1       5.672  -3.857  -3.870  1.00  0.00    -0.167 F 
ATOM     30  F   UNL     1       5.233  -1.755  -3.546  1.00  0.00    -0.167 F 
ATOM     31  F   UNL     1       5.179  -3.145  -1.878  1.00  0.00    -0.167 F 
ENDBRANCH  18  28
ENDBRANCH   6   9
ENDBRANCH   4   5
ENDBRANCH   3   4
ENDBRANCH   2   3
ENDBRANCH   1   2
BRANCH   1  32
ATOM     32  C   UNL     1       1.379 -10.627  -1.159  1.00  0.00     0.021 C 
BRANCH  32  33
ATOM     33  C   UNL     1       0.755 -11.681  -2.060  1.00  0.00     0.116 C 
BRANCH  33  34
ATOM     34  N   UNL     1       1.576 -12.900  -2.030  1.00  0.00    -0.352 N 
ATOM     35  C   UNL     1       0.993 -14.168  -1.569  1.00  0.00     0.251 C 
ATOM     36  H   UNL     1       2.517 -12.867  -2.318  1.00  0.00     0.163 HD
ATOM     37  O   UNL     1       1.703 -15.222  -1.543  1.00  0.00    -0.269 OA
BRANCH  35  38
ATOM     38  C   UNL     1      -0.459 -14.219  -1.123  1.00  0.00     0.039 A 
ATOM     39  C   UNL     1      -0.790 -14.895   0.040  1.00  0.00     0.014 A 
ATOM     40  C   UNL     1      -1.387 -13.614  -1.856  1.00  0.00     0.014 A 
ATOM     41  C   UNL     1      -2.177 -15.124   0.195  1.00  0.00     0.010 A 
ATOM     42  C   UNL     1      -2.721 -13.772  -1.565  1.00  0.00     0.010 A 
ATOM     43  C   UNL     1      -3.122 -14.477  -0.465  1.00  0.00    -0.014 A 
BRANCH  43  44
ATOM     44  C   UNL     1      -4.576 -14.515  -0.024  1.00  0.00     0.031 A 
ATOM     45  C   UNL     1      -5.518 -15.028  -0.917  1.00  0.00     0.074 A 
ATOM     46  C   UNL     1      -4.885 -14.040   1.239  1.00  0.00     0.049 A 
ATOM     47  N   UNL     1      -6.828 -15.181  -0.719  1.00  0.00    -0.248 NA
ATOM     48  C   UNL     1      -5.197 -15.502  -2.272  1.00  0.00     0.031 C 
ATOM     49  C   UNL     1      -3.939 -13.529   2.149  1.00  0.00     0.029 A 
ATOM     50  N   UNL     1      -6.124 -13.971   1.836  1.00  0.00    -0.354 N 
ATOM     51  C   UNL     1      -7.398 -15.722  -1.798  1.00  0.00     0.074 A 
ATOM     52  C   UNL     1      -6.358 -15.931  -2.814  1.00  0.00     0.031 C 
ATOM     53  C   UNL     1      -4.599 -13.147   3.274  1.00  0.00     0.029 A 
ATOM     54  C   UNL     1      -5.969 -13.414   3.086  1.00  0.00     0.049 A 
ATOM     55  H   UNL     1      -6.974 -14.269   1.438  1.00  0.00     0.167 HD
ATOM     56  C   UNL     1      -8.743 -16.052  -1.972  1.00  0.00     0.034 A 
ATOM     57  C   UNL     1      -6.953 -13.143   4.023  1.00  0.00     0.034 A 
ATOM     58  C   UNL     1      -9.721 -15.821  -1.018  1.00  0.00     0.049 A 
ATOM     59  C   UNL     1      -8.308 -13.419   3.825  1.00  0.00     0.074 A 
ATOM     60  C   UNL     1     -11.080 -16.154  -1.176  1.00  0.00     0.029 A 
ATOM     61  N   UNL     1      -9.569 -15.241   0.222  1.00  0.00    -0.354 N 
ATOM     62  N   UNL     1      -8.871 -13.996   2.762  1.00  0.00    -0.248 NA
ATOM     63  C   UNL     1      -9.364 -13.107   4.797  1.00  0.00     0.031 C 
ATOM     64  C   UNL     1     -11.741 -15.771  -0.050  1.00  0.00     0.029 A 
ATOM     65  C   UNL     1     -10.805 -15.193   0.828  1.00  0.00     0.049 A 
ATOM     66  H   UNL     1      -8.724 -14.916   0.608  1.00  0.00     0.167 HD
ATOM     67  C   UNL     1     -10.188 -14.110   2.945  1.00  0.00     0.074 A 
ATOM     68  C   UNL     1     -10.525 -13.533   4.254  1.00  0.00     0.031 C 
ATOM     69  C   UNL     1     -11.122 -14.676   2.075  1.00  0.00     0.034 A 
BRANCH  56  70
ATOM     70  C   UNL     1      -9.158 -16.700  -3.283  1.00  0.00     0.023 A 
ATOM     71  C   UNL     1      -8.729 -17.969  -3.634  1.00  0.00     0.031 A 
ATOM     72  C   UNL     1     -10.057 -16.051  -4.012  1.00  0.00     0.131 A 
ATOM     73  C   UNL     1      -9.097 -18.357  -4.944  1.00  0.00     0.055 A 
ATOM     74  C   UNL     1     -10.474 -16.555  -5.221  1.00  0.00     0.041 A 
ATOM     75  F   UNL     1     -10.560 -14.901  -3.570  1.00  0.00    -0.206 F 
ATOM     76  C   UNL     1     -10.044 -17.777  -5.659  1.00  0.00     0.022 A 
BRANCH  73  77
ATOM     77  S   UNL     1      -8.207 -19.744  -5.694  1.00  0.00     0.124 S 
ATOM     78  O   UNL     1      -6.717 -19.407  -5.779  1.00  0.00    -0.237 OA
ATOM     79  O   UNL     1      -8.400 -20.996  -4.836  1.00  0.00    -0.237 OA
ATOM     80  O   UNL     1      -8.817 -20.029  -7.266  1.00  0.00    -0.744 OA
ENDBRANCH  73  77
ENDBRANCH  56  70
BRANCH  57  81
ATOM     81  C   UNL     1      -6.535 -12.509   5.340  1.00  0.00     0.023 A 
ATOM     82  C   UNL     1      -6.911 -13.094   6.538  1.00  0.00     0.031 A 
ATOM     83  C   UNL     1      -5.934 -11.326   5.310  1.00  0.00     0.131 A 
ATOM     84  C   UNL     1      -6.867 -12.213   7.644  1.00  0.00     0.055 A 
ATOM     85  C   UNL     1      -5.805 -10.578   6.455  1.00  0.00     0.041 A 
ATOM     86  F   UNL     1      -5.452 -10.861   4.161  1.00  0.00    -0.206 F 
ATOM     87  C   UNL     1      -6.208 -11.069   7.665  1.00  0.00     0.022 A 
BRANCH  84  88
ATOM     88  S   UNL     1      -7.778 -12.688   9.135  1.00  0.00     0.124 S 
ATOM     89  O   UNL     1      -9.264 -12.837   8.799  1.00  0.00    -0.237 OA
ATOM     90  O   UNL     1      -7.237 -14.020   9.661  1.00  0.00    -0.237 OA
ATOM     91  O   UNL     1      -7.582 -11.481  10.331  1.00  0.00    -0.744 OA
ENDBRANCH  84  88
ENDBRANCH  57  81
BRANCH  69  92
ATOM     92  C   UNL     1     -12.573 -14.730   2.523  1.00  0.00     0.023 A 
ATOM     93  C   UNL     1     -13.239 -13.551   2.813  1.00  0.00     0.031 A 
ATOM     94  C   UNL     1     -13.179 -15.907   2.628  1.00  0.00     0.131 A 
ATOM     95  C   UNL     1     -14.467 -13.737   3.490  1.00  0.00     0.055 A 
ATOM     96  C   UNL     1     -14.436 -16.000   3.175  1.00  0.00     0.041 A 
ATOM     97  F   UNL     1     -12.564 -17.006   2.200  1.00  0.00    -0.206 F 
ATOM     98  C   UNL     1     -15.129 -14.879   3.540  1.00  0.00     0.022 A 
BRANCH  95  99
ATOM     99  S   UNL     1     -15.182 -12.312   4.347  1.00  0.00     0.124 S 
ATOM    100  O   UNL     1     -14.205 -11.818   5.416  1.00  0.00    -0.237 OA
ATOM    101  O   UNL     1     -15.445 -11.190   3.339  1.00  0.00    -0.237 OA
ATOM    102  O   UNL     1     -16.654 -12.770   5.087  1.00  0.00    -0.744 OA
ENDBRANCH  95  99
ENDBRANCH  69  92
ENDBRANCH  43  44
ENDBRANCH  35  38
ENDBRANCH  33  34
ENDBRANCH  32  33
ENDBRANCH   1  32
TORSDOF 20
