REMARK SMILES Cc1cc(C)c2c(c1)C=C(C(=O)NCCCCCCNC(=O)c1ccc(-c3c4nc(c(-c5cc(S(=O)(=O)[O-])ccc5F)c5ccc([nH]5)c(-c5cc(S(=O)(=O)[O-])ccc5F)c5nc(c(-c6cc(S(=O)(=O)[O-])ccc6F)c6ccc3[nH]6)C=C5)C=C4)cc1)[C@@H](C(F)(F)F)O2
REMARK SMILES IDX 17 1 16 2 15 3 14 4 13 5 11 6 12 7 10 9 1 10 2 11 3 12 8 13
REMARK SMILES IDX 4 14 7 15 5 16 6 17 9 18 91 19 86 20 87 21 88 22 89 23 90 24
REMARK SMILES IDX 18 25 19 26 20 27 21 28 22 30 23 31 24 32 85 33 25 34 84 35
REMARK SMILES IDX 26 36 27 37 28 38 78 39 29 40 83 41 77 42 79 43 30 44 82 45
REMARK SMILES IDX 76 46 75 47 31 49 63 50 43 51 62 52 44 53 47 54 61 55 80 56
REMARK SMILES IDX 45 57 46 58 60 60 81 61 48 62 32 63 33 64 41 65 34 66 40 67
REMARK SMILES IDX 42 68 39 69 35 70 36 71 37 72 38 73 64 74 65 75 73 76 66 77
REMARK SMILES IDX 72 78 74 79 71 80 67 81 68 82 69 83 70 84 49 85 50 86 58 87
REMARK SMILES IDX 51 88 57 89 59 90 56 91 52 92 53 93 54 94 55 95
REMARK H PARENT 13 8 20 29 79 48 47 59
REMARK Flexibility Score: inf
ROOT
ATOM      1  C   UNL     1      -1.426   6.504  10.184  1.00  0.00     0.002 C 
ENDROOT
BRANCH   1   2
ATOM      2  C   UNL     1      -0.042   6.174   9.608  1.00  0.00     0.002 C 
BRANCH   2   3
ATOM      3  C   UNL     1       0.065   4.826   8.889  1.00  0.00     0.021 C 
BRANCH   3   4
ATOM      4  C   UNL     1      -0.930   4.657   7.745  1.00  0.00     0.116 C 
BRANCH   4   5
ATOM      5  N   UNL     1      -0.428   5.229   6.508  1.00  0.00    -0.352 N 
ATOM      6  C   UNL     1      -0.119   4.789   5.267  1.00  0.00     0.251 C 
ATOM      7  O   UNL     1       0.279   5.661   4.487  1.00  0.00    -0.270 OA
ATOM      8  H   UNL     1      -0.272   6.197   6.596  1.00  0.00     0.163 HD
BRANCH   6   9
ATOM      9  C   UNL     1      -0.221   3.373   4.799  1.00  0.00     0.067 C 
ATOM     10  C   UNL     1       1.039  -0.081  -0.176  1.00  0.00     0.044 C 
ATOM     11  C   UNL     1       0.580   0.202   1.223  1.00  0.00    -0.050 A 
ATOM     12  C   UNL     1       0.159  -0.841   2.058  1.00  0.00     0.010 A 
ATOM     13  C   UNL     1       0.626   1.509   1.727  1.00  0.00     0.015 A 
ATOM     14  C   UNL     1      -0.235  -0.589   3.378  1.00  0.00    -0.008 A 
ATOM     15  C   UNL     1       0.233   1.777   3.042  1.00  0.00     0.018 A 
ATOM     16  C   UNL     1      -0.688  -1.711   4.269  1.00  0.00     0.048 C 
ATOM     17  C   UNL     1      -0.201   0.728   3.854  1.00  0.00     0.130 A 
ATOM     18  C   UNL     1       0.313   3.125   3.589  1.00  0.00     0.025 C 
ATOM     19  O   UNL     1      -0.557   0.921   5.157  1.00  0.00    -0.475 OA
ATOM     20  C   UNL     1      -0.900   2.271   5.561  1.00  0.00     0.314 C 
BRANCH  20  21
ATOM     21  C   UNL     1      -2.433   2.414   5.577  1.00  0.00     0.429 C 
ATOM     22  F   UNL     1      -2.977   1.606   6.520  1.00  0.00    -0.167 F 
ATOM     23  F   UNL     1      -2.834   3.672   5.875  1.00  0.00    -0.167 F 
ATOM     24  F   UNL     1      -2.996   2.093   4.391  1.00  0.00    -0.167 F 
ENDBRANCH  20  21
ENDBRANCH   6   9
ENDBRANCH   4   5
ENDBRANCH   3   4
ENDBRANCH   2   3
ENDBRANCH   1   2
BRANCH   1  25
ATOM     25  C   UNL     1      -2.076   5.392  11.011  1.00  0.00     0.021 C 
BRANCH  25  26
ATOM     26  C   UNL     1      -1.239   4.909  12.190  1.00  0.00     0.116 C 
BRANCH  26  27
ATOM     27  N   UNL     1      -1.006   5.970  13.154  1.00  0.00    -0.352 N 
ATOM     28  C   UNL     1      -1.431   6.062  14.455  1.00  0.00     0.251 C 
ATOM     29  H   UNL     1      -0.469   6.728  12.828  1.00  0.00     0.163 HD
ATOM     30  O   UNL     1      -1.346   7.132  15.052  1.00  0.00    -0.269 OA
BRANCH  28  31
ATOM     31  C   UNL     1      -2.001   4.874  15.121  1.00  0.00     0.039 A 
ATOM     32  C   UNL     1      -3.188   5.005  15.844  1.00  0.00     0.014 A 
ATOM     33  C   UNL     1      -1.359   3.634  15.034  1.00  0.00     0.014 A 
ATOM     34  C   UNL     1      -3.755   3.881  16.445  1.00  0.00     0.010 A 
ATOM     35  C   UNL     1      -1.962   2.502  15.574  1.00  0.00     0.010 A 
ATOM     36  C   UNL     1      -3.157   2.618  16.299  1.00  0.00    -0.014 A 
BRANCH  36  37
ATOM     37  C   UNL     1      -3.745   1.421  16.949  1.00  0.00     0.031 A 
ATOM     38  C   UNL     1      -3.005   0.746  18.071  1.00  0.00     0.074 A 
ATOM     39  C   UNL     1      -4.931   0.942  16.526  1.00  0.00     0.049 A 
ATOM     40  N   UNL     1      -3.339  -0.316  18.758  1.00  0.00    -0.248 NA
ATOM     41  C   UNL     1      -1.709   1.327  18.456  1.00  0.00     0.031 C 
ATOM     42  C   UNL     1      -5.726   1.501  15.430  1.00  0.00     0.029 A 
ATOM     43  N   UNL     1      -5.681  -0.116  16.973  1.00  0.00    -0.354 N 
ATOM     44  C   UNL     1      -2.298  -0.526  19.655  1.00  0.00     0.074 A 
ATOM     45  C   UNL     1      -1.291   0.474  19.378  1.00  0.00     0.031 C 
ATOM     46  C   UNL     1      -6.872   0.808  15.322  1.00  0.00     0.029 A 
ATOM     47  C   UNL     1      -6.878  -0.265  16.311  1.00  0.00     0.049 A 
ATOM     48  H   UNL     1      -5.390  -0.713  17.700  1.00  0.00     0.167 HD
ATOM     49  C   UNL     1      -2.207  -1.447  20.643  1.00  0.00     0.034 A 
ATOM     50  C   UNL     1      -7.867  -1.164  16.486  1.00  0.00     0.034 A 
ATOM     51  C   UNL     1      -3.229  -2.417  20.930  1.00  0.00     0.049 A 
ATOM     52  C   UNL     1      -7.719  -2.212  17.557  1.00  0.00     0.074 A 
ATOM     53  C   UNL     1      -3.264  -3.357  21.945  1.00  0.00     0.029 A 
ATOM     54  N   UNL     1      -4.398  -2.574  20.198  1.00  0.00    -0.354 N 
ATOM     55  N   UNL     1      -6.739  -2.378  18.415  1.00  0.00    -0.248 NA
ATOM     56  C   UNL     1      -8.801  -3.199  17.678  1.00  0.00     0.031 C 
ATOM     57  C   UNL     1      -4.427  -4.117  21.794  1.00  0.00     0.029 A 
ATOM     58  C   UNL     1      -5.143  -3.618  20.717  1.00  0.00     0.049 A 
ATOM     59  H   UNL     1      -4.658  -2.023  19.425  1.00  0.00     0.167 HD
ATOM     60  C   UNL     1      -7.091  -3.483  19.182  1.00  0.00     0.074 A 
ATOM     61  C   UNL     1      -8.377  -3.938  18.696  1.00  0.00     0.031 C 
ATOM     62  C   UNL     1      -6.411  -4.069  20.199  1.00  0.00     0.034 A 
BRANCH  49  63
ATOM     63  C   UNL     1      -0.959  -1.441  21.485  1.00  0.00     0.023 A 
ATOM     64  C   UNL     1      -0.672  -0.374  22.354  1.00  0.00     0.031 A 
ATOM     65  C   UNL     1      -0.049  -2.509  21.422  1.00  0.00     0.131 A 
ATOM     66  C   UNL     1       0.524  -0.373  23.085  1.00  0.00     0.055 A 
ATOM     67  C   UNL     1       1.108  -2.533  22.202  1.00  0.00     0.041 A 
ATOM     68  F   UNL     1      -0.268  -3.544  20.595  1.00  0.00    -0.206 F 
ATOM     69  C   UNL     1       1.405  -1.456  23.033  1.00  0.00     0.022 A 
BRANCH  66  70
ATOM     70  S   UNL     1       0.956   1.107  24.038  1.00  0.00     0.124 S 
ATOM     71  O   UNL     1       1.140   2.095  22.978  1.00  0.00    -0.237 OA
ATOM     72  O   UNL     1      -0.215   1.292  24.887  1.00  0.00    -0.237 OA
ATOM     73  O   UNL     1       2.178   0.718  24.739  1.00  0.00    -0.744 OA
ENDBRANCH  66  70
ENDBRANCH  49  63
BRANCH  50  74
ATOM     74  C   UNL     1      -9.082  -1.117  15.627  1.00  0.00     0.023 A 
ATOM     75  C   UNL     1     -10.326  -0.746  16.159  1.00  0.00     0.031 A 
ATOM     76  C   UNL     1      -9.016  -1.446  14.261  1.00  0.00     0.131 A 
ATOM     77  C   UNL     1     -11.462  -0.733  15.334  1.00  0.00     0.055 A 
ATOM     78  C   UNL     1     -10.141  -1.397  13.437  1.00  0.00     0.041 A 
ATOM     79  F   UNL     1      -7.846  -1.799  13.705  1.00  0.00    -0.206 F 
ATOM     80  C   UNL     1     -11.375  -1.045  13.975  1.00  0.00     0.022 A 
BRANCH  77  81
ATOM     81  S   UNL     1     -13.069  -0.326  16.070  1.00  0.00     0.124 S 
ATOM     82  O   UNL     1     -13.257  -1.432  17.002  1.00  0.00    -0.237 OA
ATOM     83  O   UNL     1     -12.810   0.980  16.667  1.00  0.00    -0.237 OA
ATOM     84  O   UNL     1     -13.975  -0.314  14.924  1.00  0.00    -0.744 OA
ENDBRANCH  77  81
ENDBRANCH  50  74
BRANCH  62  85
ATOM     85  C   UNL     1      -7.036  -5.270  20.851  1.00  0.00     0.023 A 
ATOM     86  C   UNL     1      -7.038  -6.519  20.210  1.00  0.00     0.031 A 
ATOM     87  C   UNL     1      -7.564  -5.182  22.150  1.00  0.00     0.131 A 
ATOM     88  C   UNL     1      -7.572  -7.636  20.868  1.00  0.00     0.055 A 
ATOM     89  C   UNL     1      -8.057  -6.304  22.815  1.00  0.00     0.041 A 
ATOM     90  F   UNL     1      -7.575  -4.009  22.804  1.00  0.00    -0.206 F 
ATOM     91  C   UNL     1      -8.064  -7.540  22.173  1.00  0.00     0.022 A 
BRANCH  88  92
ATOM     92  S   UNL     1      -7.616  -9.224  19.994  1.00  0.00     0.124 S 
ATOM     93  O   UNL     1      -8.599  -8.964  18.947  1.00  0.00    -0.237 OA
ATOM     94  O   UNL     1      -6.236  -9.381  19.547  1.00  0.00    -0.237 OA
ATOM     95  O   UNL     1      -8.042 -10.169  21.025  1.00  0.00    -0.744 OA
ENDBRANCH  88  92
ENDBRANCH  62  85
ENDBRANCH  36  37
ENDBRANCH  28  31
ENDBRANCH  26  27
ENDBRANCH  25  26
ENDBRANCH   1  25
TORSDOF 17
