REMARK SMILES C[C@@H](C(=O)NCCCCCCNC(=O)c1ccc(-c2c3nc(c(-c4cc(S(=O)(=O)[O-])ccc4F)c4ccc([nH]4)c(-c4cc(S(=O)(=O)[O-])ccc4F)c4nc(c(-c5cc(S(=O)(=O)[O-])ccc5F)c5ccc2[nH]5)C=C4)C=C3)cc1)n1ccc(C(=O)N2CC[NH+](Cc3cccc(F)c3)CC2)n1
REMARK SMILES IDX 8 1 7 2 6 3 5 4 3 5 4 6 2 8 1 9 78 10 79 11 98 12 80 13
REMARK SMILES IDX 81 14 82 15 83 16 84 17 85 18 97 19 86 20 96 21 87 22 88 24
REMARK SMILES IDX 89 25 90 26 95 27 91 28 93 29 92 30 94 31 9 32 10 33 11 34
REMARK SMILES IDX 12 35 13 36 14 38 15 39 16 40 77 41 17 42 76 43 18 44 19 45
REMARK SMILES IDX 20 46 70 47 21 48 75 49 69 50 71 51 22 52 74 53 68 54 67 55
REMARK SMILES IDX 23 57 55 58 35 59 54 60 36 61 39 62 53 63 72 64 37 65 38 66
REMARK SMILES IDX 52 68 73 69 40 70 24 71 25 72 33 73 26 74 32 75 34 76 31 77
REMARK SMILES IDX 27 78 28 79 29 80 30 81 56 82 57 83 65 84 58 85 64 86 66 87
REMARK SMILES IDX 63 88 59 89 60 90 61 91 62 92 41 93 42 94 50 95 43 96 49 97
REMARK SMILES IDX 51 98 48 99 44 100 45 101 46 102 47 103
REMARK H PARENT 5 7 87 23 12 37 71 56 39 67
REMARK Flexibility Score: inf
ROOT
ATOM      1  C   UNL     1       5.021  -2.449   1.427  1.00  0.00     0.002 C 
ENDROOT
BRANCH   1   2
ATOM      2  C   UNL     1       4.292  -1.402   0.576  1.00  0.00     0.021 C 
BRANCH   2   3
ATOM      3  C   UNL     1       3.439  -1.991  -0.552  1.00  0.00     0.116 C 
BRANCH   3   4
ATOM      4  N   UNL     1       2.372  -2.811  -0.011  1.00  0.00    -0.354 N 
ATOM      5  C   UNL     1       1.044  -2.525   0.153  1.00  0.00     0.244 C 
ATOM      6  O   UNL     1       0.387  -3.325   0.822  1.00  0.00    -0.273 OA
ATOM      7  H   UNL     1       2.644  -3.710   0.284  1.00  0.00     0.163 HD
BRANCH   5   8
ATOM      8  C   UNL     1       0.454  -1.284  -0.514  1.00  0.00     0.193 C 
ATOM      9  C   UNL     1       0.891  -0.011   0.229  1.00  0.00     0.044 C 
BRANCH   8  10
ATOM     10  N   UNL     1      -1.009  -1.355  -0.623  1.00  0.00    -0.260 N 
ATOM     11  C   UNL     1      -1.809  -2.413  -0.953  1.00  0.00     0.110 A 
ATOM     12  N   UNL     1      -1.708  -0.220  -0.468  1.00  0.00    -0.167 NA
ATOM     13  C   UNL     1      -3.105  -1.962  -0.828  1.00  0.00     0.056 A 
ATOM     14  C   UNL     1      -2.998  -0.583  -0.518  1.00  0.00     0.150 A 
BRANCH  14  15
ATOM     15  C   UNL     1      -4.067   0.366  -0.183  1.00  0.00     0.274 C 
ATOM     16  O   UNL     1      -5.131  -0.031   0.311  1.00  0.00    -0.267 OA
ATOM     17  N   UNL     1      -3.812   1.731  -0.383  1.00  0.00    -0.326 N 
ATOM     18  C   UNL     1      -4.700   2.669   0.283  1.00  0.00     0.181 C 
ATOM     19  C   UNL     1      -3.117   2.202  -1.588  1.00  0.00     0.181 C 
ATOM     20  C   UNL     1      -4.227   4.133   0.253  1.00  0.00     0.284 C 
ATOM     21  C   UNL     1      -2.693   3.680  -1.550  1.00  0.00     0.284 C 
ATOM     22  N   UNL     1      -3.687   4.618  -1.021  1.00  0.00    -0.328 N 
ATOM     23  H   UNL     1      -3.189   5.482  -0.806  1.00  0.00     0.348 HD
BRANCH  22  24
ATOM     24  C   UNL     1      -4.650   5.158  -1.984  1.00  0.00     0.299 C 
BRANCH  24  25
ATOM     25  C   UNL     1      -5.625   4.196  -2.621  1.00  0.00     0.009 A 
ATOM     26  C   UNL     1      -5.324   3.568  -3.842  1.00  0.00     0.010 A 
ATOM     27  C   UNL     1      -6.841   3.890  -1.994  1.00  0.00     0.048 A 
ATOM     28  C   UNL     1      -6.176   2.596  -4.376  1.00  0.00     0.004 A 
ATOM     29  C   UNL     1      -7.677   2.915  -2.528  1.00  0.00     0.123 A 
ATOM     30  C   UNL     1      -7.349   2.256  -3.705  1.00  0.00     0.039 A 
ATOM     31  F   UNL     1      -8.805   2.592  -1.882  1.00  0.00    -0.207 F 
ENDBRANCH  24  25
ENDBRANCH  22  24
ENDBRANCH  14  15
ENDBRANCH   8  10
ENDBRANCH   5   8
ENDBRANCH   3   4
ENDBRANCH   2   3
ENDBRANCH   1   2
BRANCH   1  32
ATOM     32  C   UNL     1       5.949  -3.384   0.647  1.00  0.00     0.002 C 
BRANCH  32  33
ATOM     33  C   UNL     1       6.992  -2.678  -0.221  1.00  0.00     0.021 C 
BRANCH  33  34
ATOM     34  C   UNL     1       7.927  -1.745   0.542  1.00  0.00     0.116 C 
BRANCH  34  35
ATOM     35  N   UNL     1       8.786  -2.470   1.463  1.00  0.00    -0.352 N 
ATOM     36  C   UNL     1      10.140  -2.340   1.639  1.00  0.00     0.251 C 
ATOM     37  H   UNL     1       8.340  -3.138   2.033  1.00  0.00     0.163 HD
ATOM     38  O   UNL     1      10.756  -3.159   2.325  1.00  0.00    -0.269 OA
BRANCH  36  39
ATOM     39  C   UNL     1      10.852  -1.229   0.979  1.00  0.00     0.039 A 
ATOM     40  C   UNL     1      12.006  -1.498   0.238  1.00  0.00     0.014 A 
ATOM     41  C   UNL     1      10.362   0.077   1.078  1.00  0.00     0.014 A 
ATOM     42  C   UNL     1      12.643  -0.462  -0.450  1.00  0.00     0.010 A 
ATOM     43  C   UNL     1      10.966   1.096   0.348  1.00  0.00     0.010 A 
ATOM     44  C   UNL     1      12.114   0.837  -0.419  1.00  0.00    -0.014 A 
BRANCH  44  45
ATOM     45  C   UNL     1      12.754   1.964  -1.142  1.00  0.00     0.031 A 
ATOM     46  C   UNL     1      13.339   3.103  -0.355  1.00  0.00     0.074 A 
ATOM     47  C   UNL     1      12.710   2.018  -2.486  1.00  0.00     0.049 A 
ATOM     48  N   UNL     1      13.763   4.269  -0.767  1.00  0.00    -0.248 NA
ATOM     49  C   UNL     1      13.413   2.911   1.100  1.00  0.00     0.031 C 
ATOM     50  C   UNL     1      12.140   0.989  -3.357  1.00  0.00     0.029 A 
ATOM     51  N   UNL     1      13.124   2.997  -3.353  1.00  0.00    -0.354 N 
ATOM     52  C   UNL     1      14.121   4.967   0.381  1.00  0.00     0.074 A 
ATOM     53  C   UNL     1      13.817   4.104   1.505  1.00  0.00     0.031 C 
ATOM     54  C   UNL     1      12.233   1.395  -4.633  1.00  0.00     0.029 A 
ATOM     55  C   UNL     1      12.829   2.728  -4.669  1.00  0.00     0.049 A 
ATOM     56  H   UNL     1      13.588   3.815  -3.062  1.00  0.00     0.167 HD
ATOM     57  C   UNL     1      14.663   6.206   0.486  1.00  0.00     0.034 A 
ATOM     58  C   UNL     1      12.993   3.481  -5.774  1.00  0.00     0.034 A 
ATOM     59  C   UNL     1      14.979   7.039  -0.648  1.00  0.00     0.049 A 
ATOM     60  C   UNL     1      13.609   4.848  -5.643  1.00  0.00     0.074 A 
ATOM     61  C   UNL     1      15.579   8.286  -0.668  1.00  0.00     0.029 A 
ATOM     62  N   UNL     1      14.715   6.706  -1.972  1.00  0.00    -0.354 N 
ATOM     63  N   UNL     1      13.967   5.490  -4.554  1.00  0.00    -0.248 NA
ATOM     64  C   UNL     1      13.852   5.589  -6.887  1.00  0.00     0.031 C 
ATOM     65  C   UNL     1      15.633   8.727  -1.996  1.00  0.00     0.029 A 
ATOM     66  C   UNL     1      15.123   7.730  -2.812  1.00  0.00     0.049 A 
ATOM     67  H   UNL     1      14.298   5.865  -2.269  1.00  0.00     0.167 HD
ATOM     68  C   UNL     1      14.504   6.698  -4.986  1.00  0.00     0.074 A 
ATOM     69  C   UNL     1      14.421   6.697  -6.433  1.00  0.00     0.031 C 
ATOM     70  C   UNL     1      15.029   7.712  -4.252  1.00  0.00     0.034 A 
BRANCH  57  71
ATOM     71  C   UNL     1      14.905   6.733   1.881  1.00  0.00     0.023 A 
ATOM     72  C   UNL     1      15.783   6.089   2.771  1.00  0.00     0.031 A 
ATOM     73  C   UNL     1      14.194   7.850   2.354  1.00  0.00     0.131 A 
ATOM     74  C   UNL     1      15.846   6.497   4.111  1.00  0.00     0.055 A 
ATOM     75  C   UNL     1      14.333   8.310   3.666  1.00  0.00     0.041 A 
ATOM     76  F   UNL     1      13.327   8.496   1.558  1.00  0.00    -0.206 F 
ATOM     77  C   UNL     1      15.146   7.619   4.559  1.00  0.00     0.022 A 
BRANCH  74  78
ATOM     78  S   UNL     1      16.709   5.428   5.296  1.00  0.00     0.124 S 
ATOM     79  O   UNL     1      16.001   4.162   5.120  1.00  0.00    -0.237 OA
ATOM     80  O   UNL     1      18.083   5.465   4.811  1.00  0.00    -0.237 OA
ATOM     81  O   UNL     1      16.480   6.087   6.581  1.00  0.00    -0.744 OA
ENDBRANCH  74  78
ENDBRANCH  57  71
BRANCH  58  82
ATOM     82  C   UNL     1      12.547   2.965  -7.096  1.00  0.00     0.023 A 
ATOM     83  C   UNL     1      13.477   2.584  -8.074  1.00  0.00     0.031 A 
ATOM     84  C   UNL     1      11.179   2.842  -7.395  1.00  0.00     0.131 A 
ATOM     85  C   UNL     1      13.026   2.122  -9.321  1.00  0.00     0.055 A 
ATOM     86  C   UNL     1      10.736   2.349  -8.623  1.00  0.00     0.041 A 
ATOM     87  F   UNL     1      10.252   3.180  -6.484  1.00  0.00    -0.206 F 
ATOM     88  C   UNL     1      11.662   1.993  -9.598  1.00  0.00     0.022 A 
BRANCH  85  89
ATOM     89  S   UNL     1      14.253   1.720 -10.594  1.00  0.00     0.124 S 
ATOM     90  O   UNL     1      14.893   3.013 -10.809  1.00  0.00    -0.237 OA
ATOM     91  O   UNL     1      15.062   0.705  -9.927  1.00  0.00    -0.237 OA
ATOM     92  O   UNL     1      13.440   1.232 -11.707  1.00  0.00    -0.744 OA
ENDBRANCH  85  89
ENDBRANCH  58  82
BRANCH  70  93
ATOM     93  C   UNL     1      15.608   8.877  -5.010  1.00  0.00     0.023 A 
ATOM     94  C   UNL     1      14.793   9.813  -5.668  1.00  0.00     0.031 A 
ATOM     95  C   UNL     1      17.002   9.055  -5.057  1.00  0.00     0.131 A 
ATOM     96  C   UNL     1      15.383  10.871  -6.376  1.00  0.00     0.055 A 
ATOM     97  C   UNL     1      17.581  10.133  -5.728  1.00  0.00     0.041 A 
ATOM     98  F   UNL     1      17.822   8.187  -4.444  1.00  0.00    -0.206 F 
ATOM     99  C   UNL     1      16.771  11.044  -6.398  1.00  0.00     0.022 A 
BRANCH  96 100
ATOM    100  S   UNL     1      14.315  12.000  -7.312  1.00  0.00     0.124 S 
ATOM    101  O   UNL     1      13.707  11.102  -8.289  1.00  0.00    -0.237 OA
ATOM    102  O   UNL     1      13.423  12.517  -6.279  1.00  0.00    -0.237 OA
ATOM    103  O   UNL     1      15.250  12.978  -7.866  1.00  0.00    -0.744 OA
ENDBRANCH  96 100
ENDBRANCH  70  93
ENDBRANCH  44  45
ENDBRANCH  36  39
ENDBRANCH  34  35
ENDBRANCH  33  34
ENDBRANCH  32  33
ENDBRANCH   1  32
TORSDOF 20
