REMARK SMILES CC(C)c1cc(C2CC[NH+](Cc3c[nH]nc3C(=O)NCCCCCCNC(=O)c3ccc(-c4c5nc(c(-c6cc(S(=O)(=O)[O-])ccc6F)c6ccc([nH]6)c(-c6cc(S(=O)(=O)[O-])ccc6F)c6nc(c(-c7cc(S(=O)(=O)[O-])ccc7F)c7ccc4[nH]7)C=C6)C=C5)cc3)CC2)n[nH]1
REMARK SMILES IDX 22 1 21 2 20 3 19 4 17 5 18 6 16 8 12 9 13 10 14 11 15 12
REMARK SMILES IDX 11 14 10 15 7 16 8 17 93 18 9 19 92 20 6 22 4 23 5 24 95 25
REMARK SMILES IDX 94 26 2 28 1 29 3 30 23 31 24 32 25 33 26 34 27 35 28 37
REMARK SMILES IDX 29 38 30 39 91 40 31 41 90 42 32 43 33 44 34 45 84 46 35 47
REMARK SMILES IDX 89 48 83 49 85 50 36 51 88 52 82 53 81 54 37 56 69 57 49 58
REMARK SMILES IDX 68 59 50 60 53 61 67 62 86 63 51 64 52 65 66 67 87 68 54 69
REMARK SMILES IDX 38 70 39 71 47 72 40 73 46 74 48 75 45 76 41 77 42 78 43 79
REMARK SMILES IDX 44 80 70 81 71 82 79 83 72 84 78 85 80 86 77 87 73 88 74 89
REMARK SMILES IDX 75 90 76 91 55 92 56 93 64 94 57 95 63 96 65 97 62 98 58 99
REMARK SMILES IDX 59 100 60 101 61 102
REMARK H PARENT 19 7 14 13 10 21 95 27 26 36 85 55 53 66
REMARK Flexibility Score: inf
ROOT
ATOM      1  C   UNL     1      -4.931  -3.443  -8.362  1.00  0.00     0.002 C 
ENDROOT
BRANCH   1   2
ATOM      2  C   UNL     1      -4.370  -3.185  -6.968  1.00  0.00     0.021 C 
BRANCH   2   3
ATOM      3  C   UNL     1      -3.293  -4.157  -6.504  1.00  0.00     0.116 C 
BRANCH   3   4
ATOM      4  N   UNL     1      -1.962  -3.772  -6.843  1.00  0.00    -0.351 N 
ATOM      5  C   UNL     1      -0.794  -3.765  -6.120  1.00  0.00     0.272 C 
ATOM      6  O   UNL     1       0.164  -3.341  -6.785  1.00  0.00    -0.267 OA
ATOM      7  H   UNL     1      -1.862  -3.450  -7.768  1.00  0.00     0.163 HD
BRANCH   5   8
ATOM      8  C   UNL     1      -0.600  -4.204  -4.693  1.00  0.00     0.158 A 
ATOM      9  C   UNL     1      -1.368  -4.860  -3.634  1.00  0.00     0.057 A 
ATOM     10  C   UNL     1      -0.450  -5.033  -2.606  1.00  0.00     0.115 A 
ATOM     11  N   UNL     1       0.704  -4.457  -2.998  1.00  0.00    -0.284 N 
ATOM     12  N   UNL     1       0.648  -3.950  -4.218  1.00  0.00    -0.170 NA
ATOM     13  H   UNL     1       1.508  -4.418  -2.432  1.00  0.00     0.189 HD
BRANCH   9  14
ATOM     14  C   UNL     1      -2.776  -5.380  -3.501  1.00  0.00     0.303 C 
BRANCH  14  15
ATOM     15  N   UNL     1      -3.703  -4.494  -2.749  1.00  0.00    -0.331 N 
ATOM     16  C   UNL     1      -4.407  -2.368  -0.784  1.00  0.00     0.051 C 
ATOM     17  C   UNL     1      -4.579  -3.856  -0.474  1.00  0.00     0.071 C 
ATOM     18  C   UNL     1      -4.600  -2.169  -2.284  1.00  0.00     0.071 C 
ATOM     19  C   UNL     1      -3.651  -4.745  -1.304  1.00  0.00     0.263 C 
ATOM     20  C   UNL     1      -3.708  -3.078  -3.132  1.00  0.00     0.263 C 
ATOM     21  H   UNL     1      -4.633  -4.774  -3.058  1.00  0.00     0.348 HD
BRANCH  16  22
ATOM     22  C   UNL     1      -3.117  -1.785  -0.261  1.00  0.00     0.066 A 
ATOM     23  C   UNL     1      -0.981  -1.281   0.136  1.00  0.00     0.038 A 
ATOM     24  C   UNL     1      -1.789  -2.052  -0.663  1.00  0.00     0.049 A 
ATOM     25  N   UNL     1      -1.840  -0.591   0.944  1.00  0.00    -0.282 N 
ATOM     26  N   UNL     1      -3.135  -0.879   0.726  1.00  0.00    -0.180 NA
ATOM     27  H   UNL     1      -1.539   0.056   1.623  1.00  0.00     0.190 HD
BRANCH  23  28
ATOM     28  C   UNL     1       0.510  -1.196   0.180  1.00  0.00     0.031 C 
ATOM     29  C   UNL     1       1.014   0.241   0.276  1.00  0.00     0.014 C 
ATOM     30  C   UNL     1       1.063  -2.061   1.312  1.00  0.00     0.014 C 
ENDBRANCH  23  28
ENDBRANCH  16  22
ENDBRANCH  14  15
ENDBRANCH   9  14
ENDBRANCH   5   8
ENDBRANCH   3   4
ENDBRANCH   2   3
ENDBRANCH   1   2
BRANCH   1  31
ATOM     31  C   UNL     1      -5.442  -4.863  -8.628  1.00  0.00     0.002 C 
BRANCH  31  32
ATOM     32  C   UNL     1      -6.365  -5.479  -7.570  1.00  0.00     0.021 C 
BRANCH  32  33
ATOM     33  C   UNL     1      -7.601  -4.668  -7.191  1.00  0.00     0.116 C 
BRANCH  33  34
ATOM     34  N   UNL     1      -8.404  -4.304  -8.342  1.00  0.00    -0.352 N 
ATOM     35  C   UNL     1      -9.730  -4.521  -8.604  1.00  0.00     0.251 C 
ATOM     36  H   UNL     1      -7.917  -3.823  -9.050  1.00  0.00     0.163 HD
ATOM     37  O   UNL     1     -10.159  -4.266  -9.734  1.00  0.00    -0.269 OA
BRANCH  35  38
ATOM     38  C   UNL     1     -10.643  -5.068  -7.576  1.00  0.00     0.039 A 
ATOM     39  C   UNL     1     -11.612  -5.996  -7.974  1.00  0.00     0.014 A 
ATOM     40  C   UNL     1     -10.601  -4.641  -6.245  1.00  0.00     0.014 A 
ATOM     41  C   UNL     1     -12.507  -6.521  -7.039  1.00  0.00     0.010 A 
ATOM     42  C   UNL     1     -11.452  -5.214  -5.299  1.00  0.00     0.010 A 
ATOM     43  C   UNL     1     -12.423  -6.150  -5.688  1.00  0.00    -0.014 A 
BRANCH  43  44
ATOM     44  C   UNL     1     -13.366  -6.710  -4.683  1.00  0.00     0.031 A 
ATOM     45  C   UNL     1     -14.358  -5.811  -3.995  1.00  0.00     0.074 A 
ATOM     46  C   UNL     1     -13.305  -8.018  -4.363  1.00  0.00     0.049 A 
ATOM     47  N   UNL     1     -15.226  -6.096  -3.058  1.00  0.00    -0.248 NA
ATOM     48  C   UNL     1     -14.352  -4.397  -4.397  1.00  0.00     0.031 C 
ATOM     49  C   UNL     1     -12.365  -8.984  -4.936  1.00  0.00     0.029 A 
ATOM     50  N   UNL     1     -14.043  -8.761  -3.476  1.00  0.00    -0.354 N 
ATOM     51  C   UNL     1     -15.860  -4.896  -2.748  1.00  0.00     0.074 A 
ATOM     52  C   UNL     1     -15.232  -3.873  -3.557  1.00  0.00     0.031 C 
ATOM     53  C   UNL     1     -12.598 -10.193  -4.402  1.00  0.00     0.029 A 
ATOM     54  C   UNL     1     -13.675 -10.085  -3.422  1.00  0.00     0.049 A 
ATOM     55  H   UNL     1     -14.768  -8.381  -2.929  1.00  0.00     0.167 HD
ATOM     56  C   UNL     1     -16.884  -4.672  -1.885  1.00  0.00     0.034 A 
ATOM     57  C   UNL     1     -14.146 -11.095  -2.665  1.00  0.00     0.034 A 
ATOM     58  C   UNL     1     -17.509  -5.707  -1.096  1.00  0.00     0.049 A 
ATOM     59  C   UNL     1     -15.280 -10.823  -1.710  1.00  0.00     0.074 A 
ATOM     60  C   UNL     1     -18.580  -5.601  -0.225  1.00  0.00     0.029 A 
ATOM     61  N   UNL     1     -17.116  -7.040  -1.077  1.00  0.00    -0.354 N 
ATOM     62  N   UNL     1     -15.896  -9.691  -1.459  1.00  0.00    -0.248 NA
ATOM     63  C   UNL     1     -15.793 -11.970  -0.949  1.00  0.00     0.031 C 
ATOM     64  C   UNL     1     -18.796  -6.853   0.363  1.00  0.00     0.029 A 
ATOM     65  C   UNL     1     -17.909  -7.759  -0.195  1.00  0.00     0.049 A 
ATOM     66  H   UNL     1     -16.383  -7.419  -1.613  1.00  0.00     0.167 HD
ATOM     67  C   UNL     1     -16.891  -9.998  -0.535  1.00  0.00     0.074 A 
ATOM     68  C   UNL     1     -16.800 -11.422  -0.285  1.00  0.00     0.031 C 
ATOM     69  C   UNL     1     -17.801  -9.178   0.051  1.00  0.00     0.034 A 
BRANCH  56  70
ATOM     70  C   UNL     1     -17.366  -3.248  -1.738  1.00  0.00     0.023 A 
ATOM     71  C   UNL     1     -17.927  -2.542  -2.817  1.00  0.00     0.031 A 
ATOM     72  C   UNL     1     -17.232  -2.572  -0.511  1.00  0.00     0.131 A 
ATOM     73  C   UNL     1     -18.255  -1.185  -2.674  1.00  0.00     0.055 A 
ATOM     74  C   UNL     1     -17.639  -1.246  -0.352  1.00  0.00     0.041 A 
ATOM     75  F   UNL     1     -16.688  -3.186   0.551  1.00  0.00    -0.206 F 
ATOM     76  C   UNL     1     -18.138  -0.538  -1.442  1.00  0.00     0.022 A 
BRANCH  73  77
ATOM     77  S   UNL     1     -18.692  -0.239  -4.159  1.00  0.00     0.124 S 
ATOM     78  O   UNL     1     -17.491  -0.400  -4.975  1.00  0.00    -0.237 OA
ATOM     79  O   UNL     1     -19.885  -0.930  -4.633  1.00  0.00    -0.237 OA
ATOM     80  O   UNL     1     -18.914   1.113  -3.651  1.00  0.00    -0.744 OA
ENDBRANCH  73  77
ENDBRANCH  56  70
BRANCH  57  81
ATOM     81  C   UNL     1     -13.552 -12.459  -2.772  1.00  0.00     0.023 A 
ATOM     82  C   UNL     1     -14.304 -13.539  -3.261  1.00  0.00     0.031 A 
ATOM     83  C   UNL     1     -12.235 -12.709  -2.349  1.00  0.00     0.131 A 
ATOM     84  C   UNL     1     -13.751 -14.828  -3.271  1.00  0.00     0.055 A 
ATOM     85  C   UNL     1     -11.672 -13.985  -2.408  1.00  0.00     0.041 A 
ATOM     86  F   UNL     1     -11.471 -11.710  -1.880  1.00  0.00    -0.206 F 
ATOM     87  C   UNL     1     -12.436 -15.057  -2.859  1.00  0.00     0.022 A 
BRANCH  84  88
ATOM     88  S   UNL     1     -14.806 -16.222  -3.757  1.00  0.00     0.124 S 
ATOM     89  O   UNL     1     -15.896 -16.120  -2.794  1.00  0.00    -0.237 OA
ATOM     90  O   UNL     1     -15.134 -15.884  -5.138  1.00  0.00    -0.237 OA
ATOM     91  O   UNL     1     -13.933 -17.382  -3.592  1.00  0.00    -0.744 OA
ENDBRANCH  84  88
ENDBRANCH  57  81
BRANCH  69  92
ATOM     92  C   UNL     1     -18.802  -9.822   0.979  1.00  0.00     0.023 A 
ATOM     93  C   UNL     1     -18.416 -10.395   2.204  1.00  0.00     0.031 A 
ATOM     94  C   UNL     1     -20.160  -9.883   0.619  1.00  0.00     0.131 A 
ATOM     95  C   UNL     1     -19.368 -11.056   2.996  1.00  0.00     0.055 A 
ATOM     96  C   UNL     1     -21.112 -10.489   1.439  1.00  0.00     0.041 A 
ATOM     97  F   UNL     1     -20.583  -9.353  -0.541  1.00  0.00    -0.206 F 
ATOM     98  C   UNL     1     -20.715 -11.094   2.628  1.00  0.00     0.022 A 
BRANCH  95  99
ATOM     99  S   UNL     1     -18.803 -11.953   4.468  1.00  0.00     0.124 S 
ATOM    100  O   UNL     1     -17.831 -12.884   3.903  1.00  0.00    -0.237 OA
ATOM    101  O   UNL     1     -18.255 -10.883   5.294  1.00  0.00    -0.237 OA
ATOM    102  O   UNL     1     -20.024 -12.569   4.984  1.00  0.00    -0.744 OA
ENDBRANCH  95  99
ENDBRANCH  69  92
ENDBRANCH  43  44
ENDBRANCH  35  38
ENDBRANCH  33  34
ENDBRANCH  32  33
ENDBRANCH  31  32
ENDBRANCH   1  31
TORSDOF 20
