REMARK SMILES [NH3+]CCOCC(=O)N[C@H](C(=O)NCCCCCCNC(=O)c1ccc(-c2c3nc(c(-c4cc(S(=O)(=O)[O-])ccc4F)c4ccc([nH]4)c(-c4cc(S(=O)(=O)[O-])ccc4F)c4nc(c(-c5cc(S(=O)(=O)[O-])ccc5F)c5ccc2[nH]5)C=C4)C=C3)cc1)C1CCCCC1
REMARK SMILES IDX 14 1 13 2 12 3 10 4 11 5 9 7 8 8 6 9 7 10 5 12 4 13 3 14
REMARK SMILES IDX 2 15 1 16 85 20 86 21 90 22 87 23 89 24 88 25 15 26 16 27
REMARK SMILES IDX 17 28 18 29 19 30 20 31 21 33 22 34 23 35 84 36 24 37 83 38
REMARK SMILES IDX 25 39 26 40 27 41 77 42 28 43 82 44 76 45 78 46 29 47 81 48
REMARK SMILES IDX 75 49 74 50 30 52 62 53 42 54 61 55 43 56 46 57 60 58 79 59
REMARK SMILES IDX 44 60 45 61 59 63 80 64 47 65 31 66 32 67 40 68 33 69 39 70
REMARK SMILES IDX 41 71 38 72 34 73 35 74 36 75 37 76 63 77 64 78 72 79 65 80
REMARK SMILES IDX 71 81 73 82 70 83 66 84 67 85 68 86 69 87 48 88 49 89 57 90
REMARK SMILES IDX 50 91 56 92 58 93 55 94 51 95 52 96 53 97 54 98
REMARK H PARENT 12 6 8 11 1 17 1 18 1 19 19 32 78 51 46 62
REMARK Flexibility Score: inf
ROOT
ATOM      1  C   UNL     1       5.805   5.238   1.835  1.00  0.00     0.021 C 
ENDROOT
BRANCH   1   2
ATOM      2  C   UNL     1       5.151   5.472   0.487  1.00  0.00     0.116 C 
BRANCH   2   3
ATOM      3  N   UNL     1       4.887   4.235  -0.221  1.00  0.00    -0.354 N 
ATOM      4  C   UNL     1       3.769   3.878  -0.925  1.00  0.00     0.242 C 
ATOM      5  O   UNL     1       3.841   2.907  -1.681  1.00  0.00    -0.273 OA
ATOM      6  H   UNL     1       5.607   3.563  -0.191  1.00  0.00     0.163 HD
BRANCH   4   7
ATOM      7  C   UNL     1       2.491   4.749  -0.859  1.00  0.00     0.174 C 
BRANCH   7   8
ATOM      8  N   UNL     1       2.225   5.223   0.514  1.00  0.00    -0.342 N 
ATOM      9  C   UNL     1       2.196   4.553   1.700  1.00  0.00     0.246 C 
ATOM     10  O   UNL     1       1.947   5.209   2.717  1.00  0.00    -0.272 OA
ATOM     11  H   UNL     1       2.036   6.187   0.585  1.00  0.00     0.164 HD
BRANCH   9  12
ATOM     12  C   UNL     1       2.479   3.048   1.805  1.00  0.00     0.260 C 
BRANCH  12  13
ATOM     13  O   UNL     1       1.349   2.198   1.763  1.00  0.00    -0.366 OA
BRANCH  13  14
ATOM     14  C   UNL     1       0.325   2.508   2.708  1.00  0.00     0.222 C 
BRANCH  14  15
ATOM     15  C   UNL     1       0.624   2.046   4.145  1.00  0.00     0.287 C 
BRANCH  15  16
ATOM     16  N   UNL     1       1.608   2.838   4.884  1.00  0.00    -0.356 N 
ATOM     17  H   UNL     1       1.728   2.446   5.817  1.00  0.00     0.344 HD
ATOM     18  H   UNL     1       1.281   3.801   4.959  1.00  0.00     0.344 HD
ATOM     19  H   UNL     1       2.500   2.819   4.389  1.00  0.00     0.344 HD
ENDBRANCH  15  16
ENDBRANCH  14  15
ENDBRANCH  13  14
ENDBRANCH  12  13
ENDBRANCH   9  12
ENDBRANCH   7   8
BRANCH   7  20
ATOM     20  C   UNL     1       2.561   5.901  -1.959  1.00  0.00     0.021 C 
ATOM     21  C   UNL     1       2.037   7.273  -1.480  1.00  0.00     0.006 C 
ATOM     22  C   UNL     1       3.948   6.062  -2.639  1.00  0.00     0.006 C 
ATOM     23  C   UNL     1       2.160   8.376  -2.532  1.00  0.00     0.000 C 
ATOM     24  C   UNL     1       4.063   7.212  -3.632  1.00  0.00     0.000 C 
ATOM     25  C   UNL     1       3.597   8.517  -3.011  1.00  0.00     0.000 C 
ENDBRANCH   7  20
ENDBRANCH   4   7
ENDBRANCH   2   3
ENDBRANCH   1   2
BRANCH   1  26
ATOM     26  C   UNL     1       7.298   4.929   1.721  1.00  0.00     0.002 C 
BRANCH  26  27
ATOM     27  C   UNL     1       8.090   5.880   0.810  1.00  0.00     0.002 C 
BRANCH  27  28
ATOM     28  C   UNL     1       7.857   7.374   1.060  1.00  0.00     0.021 C 
BRANCH  28  29
ATOM     29  C   UNL     1       8.087   7.805   2.500  1.00  0.00     0.116 C 
BRANCH  29  30
ATOM     30  N   UNL     1       9.427   7.461   2.938  1.00  0.00    -0.352 N 
ATOM     31  C   UNL     1      10.405   8.295   3.401  1.00  0.00     0.251 C 
ATOM     32  H   UNL     1       9.661   6.505   2.896  1.00  0.00     0.163 HD
ATOM     33  O   UNL     1      11.573   7.909   3.448  1.00  0.00    -0.269 OA
BRANCH  31  34
ATOM     34  C   UNL     1      10.037   9.655   3.830  1.00  0.00     0.039 A 
ATOM     35  C   UNL     1      10.830  10.733   3.438  1.00  0.00     0.014 A 
ATOM     36  C   UNL     1       8.897   9.856   4.617  1.00  0.00     0.014 A 
ATOM     37  C   UNL     1      10.463  12.024   3.816  1.00  0.00     0.010 A 
ATOM     38  C   UNL     1       8.488  11.147   4.919  1.00  0.00     0.010 A 
ATOM     39  C   UNL     1       9.280  12.241   4.543  1.00  0.00    -0.014 A 
BRANCH  39  40
ATOM     40  C   UNL     1       8.880  13.602   4.975  1.00  0.00     0.031 A 
ATOM     41  C   UNL     1       8.813  13.918   6.444  1.00  0.00     0.074 A 
ATOM     42  C   UNL     1       8.528  14.521   4.056  1.00  0.00     0.049 A 
ATOM     43  N   UNL     1       8.398  15.005   7.040  1.00  0.00    -0.248 NA
ATOM     44  C   UNL     1       9.240  12.853   7.366  1.00  0.00     0.031 C 
ATOM     45  C   UNL     1       8.532  14.312   2.607  1.00  0.00     0.029 A 
ATOM     46  N   UNL     1       8.092  15.813   4.204  1.00  0.00    -0.354 N 
ATOM     47  C   UNL     1       8.498  14.749   8.403  1.00  0.00     0.074 A 
ATOM     48  C   UNL     1       8.945  13.381   8.543  1.00  0.00     0.031 C 
ATOM     49  C   UNL     1       8.142  15.444   2.000  1.00  0.00     0.029 A 
ATOM     50  C   UNL     1       7.810  16.441   3.014  1.00  0.00     0.049 A 
ATOM     51  H   UNL     1       7.990  16.250   5.081  1.00  0.00     0.167 HD
ATOM     52  C   UNL     1       8.262  15.589   9.441  1.00  0.00     0.034 A 
ATOM     53  C   UNL     1       7.324  17.674   2.771  1.00  0.00     0.034 A 
ATOM     54  C   UNL     1       7.828  16.953   9.275  1.00  0.00     0.049 A 
ATOM     55  C   UNL     1       7.034  18.579   3.943  1.00  0.00     0.074 A 
ATOM     56  C   UNL     1       7.598  17.910  10.248  1.00  0.00     0.029 A 
ATOM     57  N   UNL     1       7.551  17.556   8.053  1.00  0.00    -0.354 N 
ATOM     58  N   UNL     1       7.168  18.337   5.227  1.00  0.00    -0.248 NA
ATOM     59  C   UNL     1       6.540  19.926   3.633  1.00  0.00     0.031 C 
ATOM     60  C   UNL     1       7.112  19.062   9.622  1.00  0.00     0.029 A 
ATOM     61  C   UNL     1       7.125  18.859   8.251  1.00  0.00     0.049 A 
ATOM     62  H   UNL     1       7.645  17.120   7.175  1.00  0.00     0.167 HD
ATOM     63  C   UNL     1       6.813  19.518   5.875  1.00  0.00     0.074 A 
ATOM     64  C   UNL     1       6.467  20.470   4.839  1.00  0.00     0.031 C 
ATOM     65  C   UNL     1       6.785  19.795   7.204  1.00  0.00     0.034 A 
BRANCH  52  66
ATOM     66  C   UNL     1       8.445  15.039  10.836  1.00  0.00     0.023 A 
ATOM     67  C   UNL     1       9.689  14.565  11.288  1.00  0.00     0.031 A 
ATOM     68  C   UNL     1       7.352  14.954  11.718  1.00  0.00     0.131 A 
ATOM     69  C   UNL     1       9.793  13.954  12.547  1.00  0.00     0.055 A 
ATOM     70  C   UNL     1       7.482  14.427  13.004  1.00  0.00     0.041 A 
ATOM     71  F   UNL     1       6.133  15.367  11.337  1.00  0.00    -0.206 F 
ATOM     72  C   UNL     1       8.704  13.907  13.420  1.00  0.00     0.022 A 
BRANCH  69  73
ATOM     73  S   UNL     1      11.329  13.081  12.961  1.00  0.00     0.124 S 
ATOM     74  O   UNL     1      11.407  12.096  11.884  1.00  0.00    -0.237 OA
ATOM     75  O   UNL     1      12.319  14.150  12.922  1.00  0.00    -0.237 OA
ATOM     76  O   UNL     1      11.060  12.525  14.286  1.00  0.00    -0.744 OA
ENDBRANCH  69  73
ENDBRANCH  52  66
BRANCH  53  77
ATOM     77  C   UNL     1       7.071  18.126   1.373  1.00  0.00     0.023 A 
ATOM     78  C   UNL     1       7.777  19.209   0.825  1.00  0.00     0.031 A 
ATOM     79  C   UNL     1       6.090  17.509   0.576  1.00  0.00     0.131 A 
ATOM     80  C   UNL     1       7.456  19.676  -0.459  1.00  0.00     0.055 A 
ATOM     81  C   UNL     1       5.816  17.940  -0.724  1.00  0.00     0.041 A 
ATOM     82  F   UNL     1       5.388  16.466   1.047  1.00  0.00    -0.206 F 
ATOM     83  C   UNL     1       6.491  19.040  -1.242  1.00  0.00     0.022 A 
BRANCH  80  84
ATOM     84  S   UNL     1       8.254  21.192  -1.054  1.00  0.00     0.124 S 
ATOM     85  O   UNL     1       7.879  22.149  -0.020  1.00  0.00    -0.237 OA
ATOM     86  O   UNL     1       9.659  20.801  -1.089  1.00  0.00    -0.237 OA
ATOM     87  O   UNL     1       7.637  21.410  -2.361  1.00  0.00    -0.744 OA
ENDBRANCH  80  84
ENDBRANCH  53  77
BRANCH  65  88
ATOM     88  C   UNL     1       6.429  21.205   7.608  1.00  0.00     0.023 A 
ATOM     89  C   UNL     1       5.147  21.741   7.396  1.00  0.00     0.031 A 
ATOM     90  C   UNL     1       7.396  22.022   8.223  1.00  0.00     0.131 A 
ATOM     91  C   UNL     1       4.882  23.073   7.750  1.00  0.00     0.055 A 
ATOM     92  C   UNL     1       7.106  23.324   8.631  1.00  0.00     0.041 A 
ATOM     93  F   UNL     1       8.637  21.562   8.445  1.00  0.00    -0.206 F 
ATOM     94  C   UNL     1       5.846  23.860   8.384  1.00  0.00     0.022 A 
BRANCH  91  95
ATOM     95  S   UNL     1       3.283  23.795   7.289  1.00  0.00     0.124 S 
ATOM     96  O   UNL     1       3.285  23.633   5.838  1.00  0.00    -0.237 OA
ATOM     97  O   UNL     1       2.339  22.958   8.022  1.00  0.00    -0.237 OA
ATOM     98  O   UNL     1       3.382  25.175   7.758  1.00  0.00    -0.744 OA
ENDBRANCH  91  95
ENDBRANCH  65  88
ENDBRANCH  39  40
ENDBRANCH  31  34
ENDBRANCH  29  30
ENDBRANCH  28  29
ENDBRANCH  27  28
ENDBRANCH  26  27
ENDBRANCH   1  26
TORSDOF 23
