REMARK SMILES O=C(COc1ccc(-c2cc3cc(Br)ccc3oc2=O)cc1)NCCCCCCNC(=O)c1ccc(-c2c3nc(c(-c4cc(S(=O)(=O)[O-])ccc4F)c4ccc([nH]4)c(-c4cc(S(=O)(=O)[O-])ccc4F)c4nc(c(-c5cc(S(=O)(=O)[O-])ccc5F)c5ccc2[nH]5)C=C4)C=C3)cc1
REMARK SMILES IDX 26 1 25 2 24 3 23 4 1 5 2 6 3 8 4 9 5 10 6 11 22 12 7 13
REMARK SMILES IDX 21 14 8 15 9 16 10 17 19 18 11 19 18 20 20 21 12 22 17 23
REMARK SMILES IDX 13 24 16 25 14 26 15 27 27 28 28 29 29 30 30 31 31 32 32 34
REMARK SMILES IDX 33 35 34 36 95 37 35 38 94 39 36 40 37 41 38 42 88 43 39 44
REMARK SMILES IDX 93 45 87 46 89 47 40 48 92 49 86 50 85 51 41 53 73 54 53 55
REMARK SMILES IDX 72 56 54 57 57 58 71 59 90 60 55 61 56 62 70 64 91 65 58 66
REMARK SMILES IDX 42 67 43 68 51 69 44 70 50 71 52 72 49 73 45 74 46 75 47 76
REMARK SMILES IDX 48 77 74 78 75 79 83 80 76 81 82 82 84 83 81 84 77 85 78 86
REMARK SMILES IDX 79 87 80 88 59 89 60 90 68 91 61 92 67 93 69 94 66 95 62 96
REMARK SMILES IDX 63 97 64 98 65 99
REMARK H PARENT 23 7 30 33 89 52 57 63
REMARK Flexibility Score: inf
ROOT
ATOM      1  C   UNL     1       4.286  -2.456  -2.602  1.00  0.00     0.002 C 
ENDROOT
BRANCH   1   2
ATOM      2  C   UNL     1       2.796  -2.108  -2.524  1.00  0.00     0.021 C 
BRANCH   2   3
ATOM      3  C   UNL     1       2.268  -1.906  -1.105  1.00  0.00     0.116 C 
BRANCH   3   4
ATOM      4  N   UNL     1       2.911  -0.805  -0.415  1.00  0.00    -0.353 N 
ATOM      5  O   UNL     1       1.340   0.766  -0.987  1.00  0.00    -0.271 OA
ATOM      6  C   UNL     1       2.354   0.453  -0.367  1.00  0.00     0.257 C 
ATOM      7  H   UNL     1       3.774  -0.962   0.032  1.00  0.00     0.163 HD
BRANCH   6   8
ATOM      8  C   UNL     1       3.083   1.461   0.535  1.00  0.00     0.329 C 
BRANCH   8   9
ATOM      9  O   UNL     1       3.805   0.996   1.665  1.00  0.00    -0.484 OA
BRANCH   9  10
ATOM     10  C   UNL     1       3.101   0.492   2.722  1.00  0.00     0.120 A 
ATOM     11  C   UNL     1       3.828   0.359   3.906  1.00  0.00     0.047 A 
ATOM     12  C   UNL     1       1.790   0.030   2.685  1.00  0.00     0.047 A 
ATOM     13  C   UNL     1       3.300  -0.350   4.990  1.00  0.00     0.013 A 
ATOM     14  C   UNL     1       1.259  -0.672   3.771  1.00  0.00     0.013 A 
ATOM     15  C   UNL     1       2.040  -0.956   4.899  1.00  0.00    -0.011 A 
BRANCH  15  16
ATOM     16  C   UNL     1       1.707  -2.033   5.887  1.00  0.00     0.068 A 
ATOM     17  C   UNL     1       0.485  -2.595   6.054  1.00  0.00     0.028 A 
ATOM     18  C   UNL     1       2.683  -3.186   5.802  1.00  0.00     0.344 A 
ATOM     19  C   UNL     1       0.086  -3.385   4.867  1.00  0.00     0.019 A 
ATOM     20  O   UNL     1       2.425  -4.032   4.710  1.00  0.00    -0.422 OA
ATOM     21  O   UNL     1       3.651  -3.300   6.542  1.00  0.00    -0.246 OA
ATOM     22  C   UNL     1      -1.214  -3.405   4.373  1.00  0.00     0.027 A 
ATOM     23  C   UNL     1       1.123  -4.007   4.153  1.00  0.00     0.138 A 
ATOM     24  C   UNL     1      -1.440  -3.970   3.117  1.00  0.00     0.018 A 
ATOM     25  C   UNL     1       0.905  -4.557   2.897  1.00  0.00     0.049 A 
ATOM     26  Br  UNL     1      -3.186  -3.941   2.392  1.00  0.00    -0.051 Br
ATOM     27  C   UNL     1      -0.388  -4.518   2.369  1.00  0.00     0.019 A 
ENDBRANCH  15  16
ENDBRANCH   9  10
ENDBRANCH   8   9
ENDBRANCH   6   8
ENDBRANCH   3   4
ENDBRANCH   2   3
ENDBRANCH   1   2
BRANCH   1  28
ATOM     28  C   UNL     1       4.706  -3.723  -1.850  1.00  0.00     0.002 C 
BRANCH  28  29
ATOM     29  C   UNL     1       3.992  -5.008  -2.278  1.00  0.00     0.021 C 
BRANCH  29  30
ATOM     30  C   UNL     1       4.139  -5.368  -3.753  1.00  0.00     0.116 C 
BRANCH  30  31
ATOM     31  N   UNL     1       5.519  -5.637  -4.125  1.00  0.00    -0.352 N 
ATOM     32  C   UNL     1       6.045  -6.718  -4.796  1.00  0.00     0.251 C 
ATOM     33  H   UNL     1       6.169  -4.948  -3.859  1.00  0.00     0.163 HD
ATOM     34  O   UNL     1       7.257  -6.861  -4.867  1.00  0.00    -0.269 OA
BRANCH  32  35
ATOM     35  C   UNL     1       5.134  -7.716  -5.404  1.00  0.00     0.039 A 
ATOM     36  C   UNL     1       5.396  -9.076  -5.218  1.00  0.00     0.014 A 
ATOM     37  C   UNL     1       4.022  -7.312  -6.147  1.00  0.00     0.014 A 
ATOM     38  C   UNL     1       4.505 -10.029  -5.721  1.00  0.00     0.010 A 
ATOM     39  C   UNL     1       3.098  -8.259  -6.582  1.00  0.00     0.010 A 
ATOM     40  C   UNL     1       3.329  -9.629  -6.376  1.00  0.00    -0.014 A 
BRANCH  40  41
ATOM     41  C   UNL     1       2.333 -10.620  -6.867  1.00  0.00     0.031 A 
ATOM     42  C   UNL     1       2.038 -10.716  -8.341  1.00  0.00     0.074 A 
ATOM     43  C   UNL     1       1.647 -11.380  -5.988  1.00  0.00     0.049 A 
ATOM     44  N   UNL     1       1.128 -11.424  -8.959  1.00  0.00    -0.248 NA
ATOM     45  C   UNL     1       2.858  -9.882  -9.235  1.00  0.00     0.031 C 
ATOM     46  C   UNL     1       1.827 -11.363  -4.534  1.00  0.00     0.029 A 
ATOM     47  N   UNL     1       0.651 -12.306  -6.184  1.00  0.00    -0.354 N 
ATOM     48  C   UNL     1       1.252 -11.108 -10.308  1.00  0.00     0.074 A 
ATOM     49  C   UNL     1       2.290 -10.105 -10.410  1.00  0.00     0.031 C 
ATOM     50  C   UNL     1       0.985 -12.247  -3.975  1.00  0.00     0.029 A 
ATOM     51  C   UNL     1       0.164 -12.854  -5.019  1.00  0.00     0.049 A 
ATOM     52  H   UNL     1       0.316 -12.554  -7.076  1.00  0.00     0.167 HD
ATOM     53  C   UNL     1       0.574 -11.620 -11.364  1.00  0.00     0.034 A 
ATOM     54  C   UNL     1      -0.842 -13.729  -4.812  1.00  0.00     0.034 A 
ATOM     55  C   UNL     1      -0.444 -12.636 -11.247  1.00  0.00     0.049 A 
ATOM     56  C   UNL     1      -1.605 -14.257  -6.005  1.00  0.00     0.074 A 
ATOM     57  C   UNL     1      -1.150 -13.263 -12.259  1.00  0.00     0.029 A 
ATOM     58  N   UNL     1      -0.905 -13.169 -10.052  1.00  0.00    -0.354 N 
ATOM     59  N   UNL     1      -1.443 -13.979  -7.278  1.00  0.00    -0.248 NA
ATOM     60  C   UNL     1      -2.678 -15.224  -5.735  1.00  0.00     0.031 C 
ATOM     61  C   UNL     1      -2.091 -14.115 -11.673  1.00  0.00     0.029 A 
ATOM     62  C   UNL     1      -1.909 -14.092 -10.300  1.00  0.00     0.049 A 
ATOM     63  H   UNL     1      -0.569 -12.927  -9.158  1.00  0.00     0.167 HD
ATOM     64  C   UNL     1      -2.362 -14.774  -7.960  1.00  0.00     0.074 A 
ATOM     65  C   UNL     1      -3.067 -15.546  -6.960  1.00  0.00     0.031 C 
ATOM     66  C   UNL     1      -2.597 -14.864  -9.293  1.00  0.00     0.034 A 
BRANCH  53  67
ATOM     67  C   UNL     1       0.889 -11.074 -12.736  1.00  0.00     0.023 A 
ATOM     68  C   UNL     1       2.152 -11.239 -13.328  1.00  0.00     0.031 A 
ATOM     69  C   UNL     1      -0.097 -10.388 -13.468  1.00  0.00     0.131 A 
ATOM     70  C   UNL     1       2.414 -10.678 -14.587  1.00  0.00     0.055 A 
ATOM     71  C   UNL     1       0.145  -9.901 -14.753  1.00  0.00     0.041 A 
ATOM     72  F   UNL     1      -1.316 -10.180 -12.944  1.00  0.00    -0.206 F 
ATOM     73  C   UNL     1       1.411 -10.035 -15.316  1.00  0.00     0.022 A 
BRANCH  70  74
ATOM     74  S   UNL     1       4.117 -10.697 -15.209  1.00  0.00     0.124 S 
ATOM     75  O   UNL     1       4.817  -9.944 -14.171  1.00  0.00    -0.237 OA
ATOM     76  O   UNL     1       4.415 -12.123 -15.274  1.00  0.00    -0.237 OA
ATOM     77  O   UNL     1       4.018 -10.020 -16.500  1.00  0.00    -0.744 OA
ENDBRANCH  70  74
ENDBRANCH  53  67
BRANCH  54  78
ATOM     78  C   UNL     1      -1.219 -14.152  -3.429  1.00  0.00     0.023 A 
ATOM     79  C   UNL     1      -1.154 -15.501  -3.044  1.00  0.00     0.031 A 
ATOM     80  C   UNL     1      -1.729 -13.229  -2.499  1.00  0.00     0.131 A 
ATOM     81  C   UNL     1      -1.658 -15.900  -1.796  1.00  0.00     0.055 A 
ATOM     82  C   UNL     1      -2.164 -13.621  -1.231  1.00  0.00     0.041 A 
ATOM     83  F   UNL     1      -1.816 -11.926  -2.810  1.00  0.00    -0.206 F 
ATOM     84  C   UNL     1      -2.149 -14.967  -0.881  1.00  0.00     0.022 A 
BRANCH  81  85
ATOM     85  S   UNL     1      -1.789 -17.675  -1.442  1.00  0.00     0.124 S 
ATOM     86  O   UNL     1      -2.590 -18.142  -2.568  1.00  0.00    -0.237 OA
ATOM     87  O   UNL     1      -0.389 -18.085  -1.435  1.00  0.00    -0.237 OA
ATOM     88  O   UNL     1      -2.456 -17.713  -0.142  1.00  0.00    -0.744 OA
ENDBRANCH  81  85
ENDBRANCH  54  78
BRANCH  66  89
ATOM     89  C   UNL     1      -3.606 -15.888  -9.755  1.00  0.00     0.023 A 
ATOM     90  C   UNL     1      -4.974 -15.779  -9.454  1.00  0.00     0.031 A 
ATOM     91  C   UNL     1      -3.183 -16.990 -10.521  1.00  0.00     0.131 A 
ATOM     92  C   UNL     1      -5.863 -16.780  -9.874  1.00  0.00     0.055 A 
ATOM     93  C   UNL     1      -4.081 -17.948 -10.991  1.00  0.00     0.041 A 
ATOM     94  F   UNL     1      -1.887 -17.147 -10.835  1.00  0.00    -0.206 F 
ATOM     95  C   UNL     1      -5.429 -17.853 -10.657  1.00  0.00     0.022 A 
BRANCH  92  96
ATOM     96  S   UNL     1      -7.587 -16.709  -9.312  1.00  0.00     0.124 S 
ATOM     97  O   UNL     1      -7.434 -16.734  -7.861  1.00  0.00    -0.237 OA
ATOM     98  O   UNL     1      -8.050 -15.449  -9.883  1.00  0.00    -0.237 OA
ATOM     99  O   UNL     1      -8.187 -17.909  -9.894  1.00  0.00    -0.744 OA
ENDBRANCH  92  96
ENDBRANCH  66  89
ENDBRANCH  40  41
ENDBRANCH  32  35
ENDBRANCH  30  31
ENDBRANCH  29  30
ENDBRANCH  28  29
ENDBRANCH   1  28
TORSDOF 19
