REMARK SMILES CCOc1ccc2[nH]c(C)c/c(=N\c3cccc(C(=O)NCCCCCCNC(=O)c4ccc(-c5c6nc(c(-c7cc(S(=O)(=O)[O-])ccc7F)c7ccc([nH]7)c(-c7cc(S(=O)(=O)[O-])ccc7F)c7nc(c(-c8cc(S(=O)(=O)[O-])ccc8F)c8ccc5[nH]8)C=C7)C=C6)cc4)c3)c2c1
REMARK SMILES IDX 24 1 23 2 22 3 21 4 19 5 20 6 18 8 14 9 15 10 94 11 16 12
REMARK SMILES IDX 17 13 13 14 4 15 5 16 96 17 6 18 95 19 7 20 12 21 8 22 11 23
REMARK SMILES IDX 9 24 10 26 3 27 2 28 1 29 25 30 26 31 27 32 28 33 29 34
REMARK SMILES IDX 30 36 31 37 32 38 93 39 33 40 92 41 34 42 35 43 36 44 86 45
REMARK SMILES IDX 37 46 91 47 85 48 87 49 38 50 90 51 84 52 83 53 39 55 71 56
REMARK SMILES IDX 51 57 70 58 52 59 55 60 69 61 88 62 53 63 54 64 68 66 89 67
REMARK SMILES IDX 56 68 40 69 41 70 49 71 42 72 48 73 50 74 47 75 43 76 44 77
REMARK SMILES IDX 45 78 46 79 72 80 73 81 81 82 74 83 80 84 82 85 79 86 75 87
REMARK SMILES IDX 76 88 77 89 78 90 57 91 58 92 66 93 59 94 65 95 67 96 64 97
REMARK SMILES IDX 60 98 61 99 62 100 63 101
REMARK H PARENT 21 7 8 25 28 35 87 54 55 65
REMARK Flexibility Score: inf
ROOT
ATOM      1  C   UNL     1       4.997  -3.092  -8.710  1.00  0.00     0.002 C 
ENDROOT
BRANCH   1   2
ATOM      2  C   UNL     1       5.209  -3.397  -7.228  1.00  0.00     0.021 C 
BRANCH   2   3
ATOM      3  C   UNL     1       4.684  -4.725  -6.694  1.00  0.00     0.116 C 
BRANCH   3   4
ATOM      4  N   UNL     1       5.227  -5.907  -7.337  1.00  0.00    -0.352 N 
ATOM      5  C   UNL     1       5.490  -7.168  -6.846  1.00  0.00     0.251 C 
ATOM      6  O   UNL     1       5.940  -8.008  -7.628  1.00  0.00    -0.269 OA
ATOM      7  H   UNL     1       5.446  -5.788  -8.289  1.00  0.00     0.163 HD
BRANCH   5   8
ATOM      8  C   UNL     1       5.326  -7.540  -5.409  1.00  0.00     0.041 A 
ATOM      9  C   UNL     1       4.543  -7.094  -3.158  1.00  0.00     0.064 A 
ATOM     10  C   UNL     1       5.299  -8.160  -2.668  1.00  0.00     0.028 A 
ATOM     11  C   UNL     1       4.460  -6.887  -4.535  1.00  0.00     0.042 A 
ATOM     12  C   UNL     1       6.087  -8.910  -3.542  1.00  0.00     0.003 A 
ATOM     13  C   UNL     1       6.128  -8.575  -4.900  1.00  0.00     0.014 A 
BRANCH   9  14
ATOM     14  N   UNL     1       3.967  -6.119  -2.325  1.00  0.00    -0.248 NA
ATOM     15  C   UNL     1       2.280  -2.699  -0.371  1.00  0.00     0.120 A 
ATOM     16  C   UNL     1       3.109  -1.938   0.449  1.00  0.00     0.048 A 
ATOM     17  C   UNL     1       2.785  -3.804  -1.060  1.00  0.00     0.059 A 
ATOM     18  C   UNL     1       4.470  -2.226   0.527  1.00  0.00     0.030 A 
ATOM     19  C   UNL     1       4.152  -4.102  -0.975  1.00  0.00     0.027 A 
ATOM     20  C   UNL     1       5.004  -3.297  -0.193  1.00  0.00     0.048 A 
ATOM     21  C   UNL     1       4.749  -5.249  -1.739  1.00  0.00     0.075 A 
ATOM     22  N   UNL     1       6.382  -3.541  -0.155  1.00  0.00    -0.359 N 
ATOM     23  C   UNL     1       6.257  -5.277  -1.769  1.00  0.00     0.050 A 
ATOM     24  C   UNL     1       6.973  -4.477  -0.964  1.00  0.00     0.014 A 
ATOM     25  H   UNL     1       6.942  -3.026   0.469  1.00  0.00     0.166 HD
ATOM     26  C   UNL     1       8.472  -4.579  -0.909  1.00  0.00     0.064 C 
BRANCH  15  27
ATOM     27  O   UNL     1       0.937  -2.449  -0.417  1.00  0.00    -0.494 OA
BRANCH  27  28
ATOM     28  C   UNL     1       0.599  -1.264  -1.158  1.00  0.00     0.226 C 
ATOM     29  C   UNL     1       0.537  -0.026  -0.276  1.00  0.00     0.049 C 
ENDBRANCH  27  28
ENDBRANCH  15  27
ENDBRANCH   9  14
ENDBRANCH   5   8
ENDBRANCH   3   4
ENDBRANCH   2   3
ENDBRANCH   1   2
BRANCH   1  30
ATOM     30  C   UNL     1       3.580  -3.230  -9.265  1.00  0.00     0.002 C 
BRANCH  30  31
ATOM     31  C   UNL     1       2.456  -2.533  -8.500  1.00  0.00     0.021 C 
BRANCH  31  32
ATOM     32  C   UNL     1       2.666  -1.061  -8.163  1.00  0.00     0.116 C 
BRANCH  32  33
ATOM     33  N   UNL     1       2.788  -0.202  -9.327  1.00  0.00    -0.352 N 
ATOM     34  C   UNL     1       2.140   0.979  -9.619  1.00  0.00     0.251 C 
ATOM     35  H   UNL     1       3.429  -0.509 -10.009  1.00  0.00     0.163 HD
ATOM     36  O   UNL     1       2.323   1.519 -10.703  1.00  0.00    -0.269 OA
BRANCH  34  37
ATOM     37  C   UNL     1       1.188   1.567  -8.644  1.00  0.00     0.039 A 
ATOM     38  C   UNL     1       1.492   1.638  -7.284  1.00  0.00     0.014 A 
ATOM     39  C   UNL     1      -0.046   2.039  -9.104  1.00  0.00     0.014 A 
ATOM     40  C   UNL     1       0.506   2.005  -6.371  1.00  0.00     0.010 A 
ATOM     41  C   UNL     1      -1.006   2.492  -8.191  1.00  0.00     0.010 A 
ATOM     42  C   UNL     1      -0.760   2.428  -6.812  1.00  0.00    -0.014 A 
BRANCH  42  43
ATOM     43  C   UNL     1      -1.798   2.806  -5.813  1.00  0.00     0.031 A 
ATOM     44  C   UNL     1      -3.077   2.020  -5.686  1.00  0.00     0.074 A 
ATOM     45  C   UNL     1      -1.566   3.843  -4.984  1.00  0.00     0.049 A 
ATOM     46  N   UNL     1      -4.061   2.186  -4.840  1.00  0.00    -0.248 NA
ATOM     47  C   UNL     1      -3.283   0.909  -6.629  1.00  0.00     0.031 C 
ATOM     48  C   UNL     1      -0.371   4.687  -5.022  1.00  0.00     0.029 A 
ATOM     49  N   UNL     1      -2.303   4.356  -3.945  1.00  0.00    -0.354 N 
ATOM     50  C   UNL     1      -5.009   1.218  -5.157  1.00  0.00     0.074 A 
ATOM     51  C   UNL     1      -4.495   0.487  -6.294  1.00  0.00     0.031 C 
ATOM     52  C   UNL     1      -0.433   5.580  -4.025  1.00  0.00     0.029 A 
ATOM     53  C   UNL     1      -1.700   5.420  -3.315  1.00  0.00     0.049 A 
ATOM     54  H   UNL     1      -3.179   3.996  -3.677  1.00  0.00     0.167 HD
ATOM     55  C   UNL     1      -6.189   0.955  -4.545  1.00  0.00     0.034 A 
ATOM     56  C   UNL     1      -2.118   6.194  -2.291  1.00  0.00     0.034 A 
ATOM     57  C   UNL     1      -6.677   1.673  -3.395  1.00  0.00     0.049 A 
ATOM     58  C   UNL     1      -3.437   5.885  -1.633  1.00  0.00     0.074 A 
ATOM     59  C   UNL     1      -7.837   1.441  -2.675  1.00  0.00     0.029 A 
ATOM     60  N   UNL     1      -6.048   2.755  -2.796  1.00  0.00    -0.354 N 
ATOM     61  N   UNL     1      -4.282   4.918  -1.900  1.00  0.00    -0.248 NA
ATOM     62  C   UNL     1      -3.860   6.761  -0.531  1.00  0.00     0.031 C 
ATOM     63  C   UNL     1      -7.940   2.417  -1.684  1.00  0.00     0.029 A 
ATOM     64  C   UNL     1      -6.810   3.217  -1.735  1.00  0.00     0.049 A 
ATOM     65  H   UNL     1      -5.187   3.137  -3.083  1.00  0.00     0.167 HD
ATOM     66  C   UNL     1      -5.330   5.062  -0.995  1.00  0.00     0.074 A 
ATOM     67  C   UNL     1      -4.994   6.188  -0.148  1.00  0.00     0.031 C 
ATOM     68  C   UNL     1      -6.468   4.332  -0.884  1.00  0.00     0.034 A 
BRANCH  55  69
ATOM     69  C   UNL     1      -7.050  -0.167  -5.073  1.00  0.00     0.023 A 
ATOM     70  C   UNL     1      -8.333   0.112  -5.581  1.00  0.00     0.031 A 
ATOM     71  C   UNL     1      -6.667  -1.513  -4.934  1.00  0.00     0.131 A 
ATOM     72  C   UNL     1      -9.202  -0.941  -5.894  1.00  0.00     0.055 A 
ATOM     73  C   UNL     1      -7.523  -2.558  -5.286  1.00  0.00     0.041 A 
ATOM     74  F   UNL     1      -5.454  -1.830  -4.452  1.00  0.00    -0.206 F 
ATOM     75  C   UNL     1      -8.802  -2.274  -5.755  1.00  0.00     0.022 A 
BRANCH  72  76
ATOM     76  S   UNL     1     -10.907  -0.625  -6.427  1.00  0.00     0.124 S 
ATOM     77  O   UNL     1     -10.944  -1.294  -7.726  1.00  0.00    -0.237 OA
ATOM     78  O   UNL     1     -11.682  -1.270  -5.371  1.00  0.00    -0.237 OA
ATOM     79  O   UNL     1     -10.995   0.831  -6.477  1.00  0.00    -0.744 OA
ENDBRANCH  72  76
ENDBRANCH  55  69
BRANCH  56  80
ATOM     80  C   UNL     1      -1.238   7.303  -1.819  1.00  0.00     0.023 A 
ATOM     81  C   UNL     1      -0.873   8.351  -2.685  1.00  0.00     0.031 A 
ATOM     82  C   UNL     1      -0.652   7.268  -0.542  1.00  0.00     0.131 A 
ATOM     83  C   UNL     1       0.109   9.270  -2.294  1.00  0.00     0.055 A 
ATOM     84  C   UNL     1       0.268   8.233  -0.128  1.00  0.00     0.041 A 
ATOM     85  F   UNL     1      -0.957   6.281   0.314  1.00  0.00    -0.206 F 
ATOM     86  C   UNL     1       0.669   9.228  -1.014  1.00  0.00     0.022 A 
BRANCH  83  87
ATOM     87  S   UNL     1       0.806  10.445  -3.488  1.00  0.00     0.124 S 
ATOM     88  O   UNL     1       0.452  11.729  -2.893  1.00  0.00    -0.237 OA
ATOM     89  O   UNL     1       2.226  10.101  -3.450  1.00  0.00    -0.237 OA
ATOM     90  O   UNL     1       0.124  10.114  -4.735  1.00  0.00    -0.744 OA
ENDBRANCH  83  87
ENDBRANCH  56  80
BRANCH  68  91
ATOM     91  C   UNL     1      -7.466   4.705   0.186  1.00  0.00     0.023 A 
ATOM     92  C   UNL     1      -7.780   3.789   1.208  1.00  0.00     0.031 A 
ATOM     93  C   UNL     1      -8.214   5.892   0.105  1.00  0.00     0.131 A 
ATOM     94  C   UNL     1      -8.843   4.054   2.081  1.00  0.00     0.055 A 
ATOM     95  C   UNL     1      -9.242   6.174   1.006  1.00  0.00     0.041 A 
ATOM     96  F   UNL     1      -7.960   6.793  -0.858  1.00  0.00    -0.206 F 
ATOM     97  C   UNL     1      -9.570   5.246   1.990  1.00  0.00     0.022 A 
BRANCH  94  98
ATOM     98  S   UNL     1      -9.381   2.826   3.303  1.00  0.00     0.124 S 
ATOM     99  O   UNL     1      -9.162   3.537   4.561  1.00  0.00    -0.237 OA
ATOM    100  O   UNL     1     -10.780   2.621   2.939  1.00  0.00    -0.237 OA
ATOM    101  O   UNL     1      -8.499   1.688   3.071  1.00  0.00    -0.744 OA
ENDBRANCH  94  98
ENDBRANCH  68  91
ENDBRANCH  42  43
ENDBRANCH  34  37
ENDBRANCH  32  33
ENDBRANCH  31  32
ENDBRANCH  30  31
ENDBRANCH   1  30
TORSDOF 19
