REMARK SMILES CCCCCNC(=O)Oc1cccc(-c2ccc([C@@H](C)C(=O)NCCCCCCNC(=O)c3ccc(-c4c5nc(c(-c6cc(S(=O)(=O)[O-])ccc6F)c6ccc([nH]6)c(-c6cc(S(=O)(=O)[O-])ccc6F)c6nc(c(-c7cc(S(=O)(=O)[O-])ccc7F)c7ccc4[nH]7)C=C6)C=C5)cc3)cc2F)c1
REMARK SMILES IDX 24 1 23 2 21 3 22 4 19 6 20 7 18 8 15 9 16 10 97 11 17 12
REMARK SMILES IDX 96 13 98 14 14 15 10 16 11 17 99 18 12 19 13 20 9 21 7 22
REMARK SMILES IDX 6 23 8 25 5 26 4 27 3 28 2 29 1 30 25 31 26 32 27 33 28 34
REMARK SMILES IDX 29 35 30 36 31 37 32 39 33 40 34 41 95 42 35 43 94 44 36 45
REMARK SMILES IDX 37 46 38 47 88 48 39 49 93 50 87 51 89 52 40 53 92 54 86 55
REMARK SMILES IDX 85 56 41 58 73 59 53 60 72 61 54 62 57 63 71 64 90 65 55 66
REMARK SMILES IDX 56 67 70 69 91 70 58 71 42 72 43 73 51 74 44 75 50 76 52 77
REMARK SMILES IDX 49 78 45 79 46 80 47 81 48 82 74 83 75 84 83 85 76 86 82 87
REMARK SMILES IDX 84 88 81 89 77 90 78 91 79 92 80 93 59 94 60 95 68 96 61 97
REMARK SMILES IDX 67 98 69 99 66 100 62 101 63 102 64 103 65 104
REMARK H PARENT 23 5 6 24 30 38 89 57 57 68
REMARK Flexibility Score: inf
ROOT
ATOM      1  C   UNL     1      -5.249  -8.946  11.025  1.00  0.00     0.116 C 
ENDROOT
BRANCH   1   2
ATOM      2  N   UNL     1      -3.907  -9.466  10.862  1.00  0.00    -0.356 N 
ATOM      3  C   UNL     1      -2.686  -8.903  11.067  1.00  0.00     0.227 C 
ATOM      4  O   UNL     1      -1.705  -9.589  10.751  1.00  0.00    -0.274 OA
ATOM      5  H   UNL     1      -3.873 -10.397  10.545  1.00  0.00     0.163 HD
BRANCH   3   6
ATOM      6  C   UNL     1      -2.476  -7.510  11.679  1.00  0.00     0.105 C 
ATOM      7  C   UNL     1      -3.026  -7.366  13.099  1.00  0.00     0.023 C 
BRANCH   6   8
ATOM      8  C   UNL     1      -2.796  -6.362  10.736  1.00  0.00    -0.033 A 
ATOM      9  C   UNL     1      -3.352  -4.248   8.880  1.00  0.00     0.018 A 
ATOM     10  C   UNL     1      -4.354  -4.811   9.687  1.00  0.00     0.012 A 
ATOM     11  C   UNL     1      -2.060  -4.770   9.040  1.00  0.00     0.131 A 
ATOM     12  C   UNL     1      -4.074  -5.810  10.623  1.00  0.00     0.005 A 
ATOM     13  C   UNL     1      -1.787  -5.818   9.929  1.00  0.00     0.044 A 
ATOM     14  F   UNL     1      -1.025  -4.262   8.352  1.00  0.00    -0.206 F 
BRANCH   9  15
ATOM     15  C   UNL     1      -3.685  -3.157   7.936  1.00  0.00    -0.012 A 
ATOM     16  C   UNL     1      -3.391  -1.986   5.827  1.00  0.00     0.133 A 
ATOM     17  C   UNL     1      -4.389  -1.072   6.148  1.00  0.00     0.047 A 
ATOM     18  C   UNL     1      -3.034  -3.017   6.699  1.00  0.00     0.056 A 
ATOM     19  C   UNL     1      -5.048  -1.192   7.363  1.00  0.00     0.004 A 
ATOM     20  C   UNL     1      -4.689  -2.213   8.247  1.00  0.00     0.009 A 
BRANCH  16  21
ATOM     21  O   UNL     1      -2.664  -1.727   4.654  1.00  0.00    -0.410 OA
BRANCH  21  22
ATOM     22  C   UNL     1      -2.422  -2.752   3.755  1.00  0.00     0.412 C 
ATOM     23  N   UNL     1      -1.597  -2.366   2.734  1.00  0.00    -0.321 N 
ATOM     24  H   UNL     1      -1.405  -3.036   2.039  1.00  0.00     0.167 HD
ATOM     25  O   UNL     1      -2.873  -3.888   3.810  1.00  0.00    -0.224 OA
BRANCH  23  26
ATOM     26  C   UNL     1      -0.978  -1.065   2.578  1.00  0.00     0.119 C 
BRANCH  26  27
ATOM     27  C   UNL     1       0.547  -1.159   2.561  1.00  0.00     0.021 C 
BRANCH  27  28
ATOM     28  C   UNL     1       1.129  -1.936   1.375  1.00  0.00     0.002 C 
BRANCH  28  29
ATOM     29  C   UNL     1       0.713  -1.433  -0.010  1.00  0.00    -0.003 C 
ATOM     30  C   UNL     1       1.109   0.011  -0.275  1.00  0.00     0.004 C 
ENDBRANCH  28  29
ENDBRANCH  27  28
ENDBRANCH  26  27
ENDBRANCH  23  26
ENDBRANCH  21  22
ENDBRANCH  16  21
ENDBRANCH   9  15
ENDBRANCH   6   8
ENDBRANCH   3   6
ENDBRANCH   1   2
BRANCH   1  31
ATOM     31  C   UNL     1      -5.857  -8.522   9.686  1.00  0.00     0.021 C 
BRANCH  31  32
ATOM     32  C   UNL     1      -6.622  -9.643   8.976  1.00  0.00     0.002 C 
BRANCH  32  33
ATOM     33  C   UNL     1      -7.852 -10.162   9.730  1.00  0.00     0.002 C 
BRANCH  33  34
ATOM     34  C   UNL     1      -8.893  -9.099  10.099  1.00  0.00     0.021 C 
BRANCH  34  35
ATOM     35  C   UNL     1      -9.500  -8.362   8.908  1.00  0.00     0.116 C 
BRANCH  35  36
ATOM     36  N   UNL     1     -10.194  -9.275   8.013  1.00  0.00    -0.352 N 
ATOM     37  C   UNL     1     -11.522  -9.329   7.672  1.00  0.00     0.251 C 
ATOM     38  H   UNL     1      -9.625  -9.956   7.587  1.00  0.00     0.163 HD
ATOM     39  O   UNL     1     -11.965 -10.335   7.125  1.00  0.00    -0.269 OA
BRANCH  37  40
ATOM     40  C   UNL     1     -12.415  -8.188   7.971  1.00  0.00     0.039 A 
ATOM     41  C   UNL     1     -13.701  -8.443   8.452  1.00  0.00     0.014 A 
ATOM     42  C   UNL     1     -11.999  -6.872   7.747  1.00  0.00     0.014 A 
ATOM     43  C   UNL     1     -14.548  -7.377   8.763  1.00  0.00     0.010 A 
ATOM     44  C   UNL     1     -12.818  -5.810   8.124  1.00  0.00     0.010 A 
ATOM     45  C   UNL     1     -14.102  -6.051   8.634  1.00  0.00    -0.014 A 
BRANCH  45  46
ATOM     46  C   UNL     1     -14.967  -4.910   9.037  1.00  0.00     0.031 A 
ATOM     47  C   UNL     1     -15.436  -3.912   8.013  1.00  0.00     0.074 A 
ATOM     48  C   UNL     1     -15.289  -4.750  10.336  1.00  0.00     0.049 A 
ATOM     49  N   UNL     1     -16.148  -2.827   8.181  1.00  0.00    -0.248 NA
ATOM     50  C   UNL     1     -15.028  -4.153   6.621  1.00  0.00     0.031 C 
ATOM     51  C   UNL     1     -14.858  -5.631  11.426  1.00  0.00     0.029 A 
ATOM     52  N   UNL     1     -16.044  -3.793  10.966  1.00  0.00    -0.354 N 
ATOM     53  C   UNL     1     -16.273  -2.255   6.920  1.00  0.00     0.074 A 
ATOM     54  C   UNL     1     -15.504  -3.078   6.010  1.00  0.00     0.031 C 
ATOM     55  C   UNL     1     -15.376  -5.187  12.581  1.00  0.00     0.029 A 
ATOM     56  C   UNL     1     -16.134  -3.966  12.328  1.00  0.00     0.049 A 
ATOM     57  H   UNL     1     -16.481  -3.052  10.488  1.00  0.00     0.167 HD
ATOM     58  C   UNL     1     -16.982  -1.159   6.551  1.00  0.00     0.034 A 
ATOM     59  C   UNL     1     -16.746  -3.220  13.269  1.00  0.00     0.034 A 
ATOM     60  C   UNL     1     -17.744  -0.349   7.472  1.00  0.00     0.049 A 
ATOM     61  C   UNL     1     -17.502  -1.988  12.839  1.00  0.00     0.074 A 
ATOM     62  C   UNL     1     -18.532   0.756   7.201  1.00  0.00     0.029 A 
ATOM     63  N   UNL     1     -17.809  -0.552   8.846  1.00  0.00    -0.354 N 
ATOM     64  N   UNL     1     -17.649  -1.488  11.633  1.00  0.00    -0.248 NA
ATOM     65  C   UNL     1     -18.183  -1.228  13.894  1.00  0.00     0.031 C 
ATOM     66  C   UNL     1     -19.012   1.263   8.414  1.00  0.00     0.029 A 
ATOM     67  C   UNL     1     -18.596   0.426   9.437  1.00  0.00     0.049 A 
ATOM     68  H   UNL     1     -17.362  -1.284   9.329  1.00  0.00     0.167 HD
ATOM     69  C   UNL     1     -18.464  -0.369  11.785  1.00  0.00     0.074 A 
ATOM     70  C   UNL     1     -18.794  -0.285  13.193  1.00  0.00     0.031 C 
ATOM     71  C   UNL     1     -18.902   0.508  10.846  1.00  0.00     0.034 A 
BRANCH  58  72
ATOM     72  C   UNL     1     -16.946  -0.764   5.093  1.00  0.00     0.023 A 
ATOM     73  C   UNL     1     -17.451  -1.608   4.088  1.00  0.00     0.031 A 
ATOM     74  C   UNL     1     -16.389   0.465   4.698  1.00  0.00     0.131 A 
ATOM     75  C   UNL     1     -17.323  -1.247   2.738  1.00  0.00     0.055 A 
ATOM     76  C   UNL     1     -16.339   0.856   3.358  1.00  0.00     0.041 A 
ATOM     77  F   UNL     1     -15.872   1.306   5.608  1.00  0.00    -0.206 F 
ATOM     78  C   UNL     1     -16.794  -0.009   2.367  1.00  0.00     0.022 A 
BRANCH  75  79
ATOM     79  S   UNL     1     -17.728  -2.479   1.470  1.00  0.00     0.124 S 
ATOM     80  O   UNL     1     -16.810  -3.563   1.809  1.00  0.00    -0.237 OA
ATOM     81  O   UNL     1     -19.141  -2.736   1.720  1.00  0.00    -0.237 OA
ATOM     82  O   UNL     1     -17.431  -1.790   0.215  1.00  0.00    -0.744 OA
ENDBRANCH  75  79
ENDBRANCH  58  72
BRANCH  59  83
ATOM     83  C   UNL     1     -16.660  -3.599  14.710  1.00  0.00     0.023 A 
ATOM     84  C   UNL     1     -17.808  -3.942  15.441  1.00  0.00     0.031 A 
ATOM     85  C   UNL     1     -15.428  -3.577  15.390  1.00  0.00     0.131 A 
ATOM     86  C   UNL     1     -17.710  -4.198  16.817  1.00  0.00     0.055 A 
ATOM     87  C   UNL     1     -15.328  -3.891  16.746  1.00  0.00     0.041 A 
ATOM     88  F   UNL     1     -14.298  -3.260  14.739  1.00  0.00    -0.206 F 
ATOM     89  C   UNL     1     -16.477  -4.189  17.472  1.00  0.00     0.022 A 
BRANCH  86  90
ATOM     90  S   UNL     1     -19.238  -4.447  17.764  1.00  0.00     0.124 S 
ATOM     91  O   UNL     1     -19.964  -3.214  17.485  1.00  0.00    -0.237 OA
ATOM     92  O   UNL     1     -19.774  -5.661  17.157  1.00  0.00    -0.237 OA
ATOM     93  O   UNL     1     -18.764  -4.596  19.139  1.00  0.00    -0.744 OA
ENDBRANCH  86  90
ENDBRANCH  59  83
BRANCH  71  94
ATOM     94  C   UNL     1     -19.818   1.613  11.317  1.00  0.00     0.023 A 
ATOM     95  C   UNL     1     -19.374   2.615  12.199  1.00  0.00     0.031 A 
ATOM     96  C   UNL     1     -21.159   1.652  10.895  1.00  0.00     0.131 A 
ATOM     97  C   UNL     1     -20.279   3.573  12.681  1.00  0.00     0.055 A 
ATOM     98  C   UNL     1     -22.037   2.647  11.325  1.00  0.00     0.041 A 
ATOM     99  F   UNL     1     -21.638   0.720  10.056  1.00  0.00    -0.206 F 
ATOM    100  C   UNL     1     -21.603   3.606  12.236  1.00  0.00     0.022 A 
BRANCH  97 101
ATOM    101  S   UNL     1     -19.730   4.710  13.983  1.00  0.00     0.124 S 
ATOM    102  O   UNL     1     -19.317   3.788  15.037  1.00  0.00    -0.237 OA
ATOM    103  O   UNL     1     -18.656   5.445  13.322  1.00  0.00    -0.237 OA
ATOM    104  O   UNL     1     -20.926   5.496  14.280  1.00  0.00    -0.744 OA
ENDBRANCH  97 101
ENDBRANCH  71  94
ENDBRANCH  45  46
ENDBRANCH  37  40
ENDBRANCH  35  36
ENDBRANCH  34  35
ENDBRANCH  33  34
ENDBRANCH  32  33
ENDBRANCH  31  32
ENDBRANCH   1  31
TORSDOF 24
