REMARK SMILES Cc1ccc(S(=O)(=O)Nc2cc3c(cc2C(=O)NCCCCCCNC(=O)c2ccc(-c4c5nc(c(-c6cc(S(=O)(=O)[O-])ccc6F)c6ccc([nH]6)c(-c6cc(S(=O)(=O)[O-])ccc6F)c6nc(c(-c7cc(S(=O)(=O)[O-])ccc7F)c7ccc4[nH]7)C=C6)C=C5)cc2)OCCO3)s1
REMARK SMILES IDX 21 1 20 2 19 3 18 4 16 5 17 6 15 8 10 9 11 10 12 11 14 12
REMARK SMILES IDX 13 13 94 14 91 15 93 16 92 17 9 18 6 20 7 21 8 22 5 23 1 24
REMARK SMILES IDX 2 25 3 26 95 27 4 28 22 29 23 30 24 31 25 32 26 33 27 35
REMARK SMILES IDX 28 36 29 37 90 38 30 39 89 40 31 41 32 42 33 43 83 44 34 45
REMARK SMILES IDX 88 46 82 47 84 48 35 49 87 50 81 51 80 52 36 54 68 55 48 56
REMARK SMILES IDX 67 57 49 58 52 59 66 60 85 61 50 62 51 63 65 65 86 66 53 67
REMARK SMILES IDX 37 68 38 69 46 70 39 71 45 72 47 73 44 74 40 75 41 76 42 77
REMARK SMILES IDX 43 78 69 79 70 80 78 81 71 82 77 83 79 84 76 85 72 86 73 87
REMARK SMILES IDX 74 88 75 89 54 90 55 91 63 92 56 93 62 94 64 95 61 96 57 97
REMARK SMILES IDX 58 98 59 99 60 100
REMARK H PARENT 18 7 9 19 25 34 84 53 52 64
REMARK Flexibility Score: inf
ROOT
ATOM      1  C   UNL     1       1.579  -2.035   3.685  1.00  0.00     0.002 C 
ENDROOT
BRANCH   1   2
ATOM      2  C   UNL     1       0.983  -2.729   2.461  1.00  0.00     0.021 C 
BRANCH   2   3
ATOM      3  C   UNL     1      -0.492  -3.112   2.513  1.00  0.00     0.116 C 
BRANCH   3   4
ATOM      4  N   UNL     1      -1.389  -2.036   2.893  1.00  0.00    -0.352 N 
ATOM      5  C   UNL     1      -2.677  -1.760   2.493  1.00  0.00     0.253 C 
ATOM      6  O   UNL     1      -3.292  -0.866   3.068  1.00  0.00    -0.269 OA
ATOM      7  H   UNL     1      -1.015  -1.399   3.544  1.00  0.00     0.163 HD
BRANCH   5   8
ATOM      8  C   UNL     1      -3.317  -2.504   1.375  1.00  0.00     0.067 A 
ATOM      9  C   UNL     1      -4.032  -1.820   0.369  1.00  0.00     0.066 A 
ATOM     10  C   UNL     1      -4.587  -2.533  -0.702  1.00  0.00     0.078 A 
ATOM     11  C   UNL     1      -4.422  -3.916  -0.779  1.00  0.00     0.163 A 
ATOM     12  C   UNL     1      -3.239  -3.901   1.330  1.00  0.00     0.066 A 
ATOM     13  C   UNL     1      -3.735  -4.594   0.230  1.00  0.00     0.162 A 
ATOM     14  O   UNL     1      -4.943  -4.545  -1.881  1.00  0.00    -0.486 OA
ATOM     15  O   UNL     1      -3.493  -5.942   0.200  1.00  0.00    -0.486 OA
ATOM     16  C   UNL     1      -4.942  -5.973  -1.737  1.00  0.00     0.271 C 
ATOM     17  C   UNL     1      -3.638  -6.459  -1.129  1.00  0.00     0.271 C 
BRANCH   9  18
ATOM     18  N   UNL     1      -4.189  -0.396   0.420  1.00  0.00    -0.278 N 
ATOM     19  H   UNL     1      -4.812   0.018   1.060  1.00  0.00     0.180 HD
BRANCH  18  20
ATOM     20  S   UNL     1      -3.284   0.554  -0.640  1.00  0.00     0.271 S 
ATOM     21  O   UNL     1      -3.303   1.906  -0.134  1.00  0.00    -0.200 OA
ATOM     22  O   UNL     1      -3.766   0.268  -1.980  1.00  0.00    -0.200 OA
BRANCH  20  23
ATOM     23  C   UNL     1      -1.599  -0.020  -0.651  1.00  0.00     0.140 A 
ATOM     24  C   UNL     1       2.257   0.179   0.054  1.00  0.00     0.056 C 
ATOM     25  C   UNL     1       0.847  -0.123  -0.324  1.00  0.00     0.003 A 
ATOM     26  C   UNL     1       0.375  -1.198  -1.050  1.00  0.00     0.016 A 
ATOM     27  S   UNL     1      -0.423   0.922   0.152  1.00  0.00    -0.127 S 
ATOM     28  C   UNL     1      -1.033  -1.139  -1.235  1.00  0.00     0.034 A 
ENDBRANCH  20  23
ENDBRANCH  18  20
ENDBRANCH   9  18
ENDBRANCH   5   8
ENDBRANCH   3   4
ENDBRANCH   2   3
ENDBRANCH   1   2
BRANCH   1  29
ATOM     29  C   UNL     1       1.397  -2.738   5.029  1.00  0.00     0.002 C 
BRANCH  29  30
ATOM     30  C   UNL     1       1.808  -4.210   5.093  1.00  0.00     0.021 C 
BRANCH  30  31
ATOM     31  C   UNL     1       3.206  -4.547   4.584  1.00  0.00     0.116 C 
BRANCH  31  32
ATOM     32  N   UNL     1       4.262  -3.892   5.333  1.00  0.00    -0.352 N 
ATOM     33  C   UNL     1       5.393  -4.430   5.900  1.00  0.00     0.251 C 
ATOM     34  H   UNL     1       4.153  -2.921   5.452  1.00  0.00     0.163 HD
ATOM     35  O   UNL     1       6.115  -3.722   6.597  1.00  0.00    -0.269 OA
BRANCH  33  36
ATOM     36  C   UNL     1       5.721  -5.862   5.706  1.00  0.00     0.039 A 
ATOM     37  C   UNL     1       6.095  -6.620   6.820  1.00  0.00     0.014 A 
ATOM     38  C   UNL     1       5.670  -6.459   4.442  1.00  0.00     0.014 A 
ATOM     39  C   UNL     1       6.346  -7.988   6.681  1.00  0.00     0.010 A 
ATOM     40  C   UNL     1       5.864  -7.835   4.315  1.00  0.00     0.010 A 
ATOM     41  C   UNL     1       6.198  -8.615   5.434  1.00  0.00    -0.014 A 
BRANCH  41  42
ATOM     42  C   UNL     1       6.377 -10.084   5.285  1.00  0.00     0.031 A 
ATOM     43  C   UNL     1       7.515 -10.630   4.467  1.00  0.00     0.074 A 
ATOM     44  C   UNL     1       5.477 -10.924   5.834  1.00  0.00     0.049 A 
ATOM     45  N   UNL     1       7.788 -11.871   4.152  1.00  0.00    -0.248 NA
ATOM     46  C   UNL     1       8.453  -9.646   3.908  1.00  0.00     0.031 C 
ATOM     47  C   UNL     1       4.310 -10.515   6.619  1.00  0.00     0.029 A 
ATOM     48  N   UNL     1       5.393 -12.293   5.806  1.00  0.00    -0.354 N 
ATOM     49  C   UNL     1       8.921 -11.818   3.347  1.00  0.00     0.074 A 
ATOM     50  C   UNL     1       9.251 -10.417   3.183  1.00  0.00     0.031 C 
ATOM     51  C   UNL     1       3.635 -11.610   7.006  1.00  0.00     0.029 A 
ATOM     52  C   UNL     1       4.295 -12.794   6.466  1.00  0.00     0.049 A 
ATOM     53  H   UNL     1       6.056 -12.864   5.354  1.00  0.00     0.167 HD
ATOM     54  C   UNL     1       9.630 -12.843   2.810  1.00  0.00     0.034 A 
ATOM     55  C   UNL     1       3.861 -14.062   6.610  1.00  0.00     0.034 A 
ATOM     56  C   UNL     1       9.299 -14.235   2.993  1.00  0.00     0.049 A 
ATOM     57  C   UNL     1       4.658 -15.183   5.995  1.00  0.00     0.074 A 
ATOM     58  C   UNL     1       9.983 -15.352   2.543  1.00  0.00     0.029 A 
ATOM     59  N   UNL     1       8.185 -14.705   3.677  1.00  0.00    -0.354 N 
ATOM     60  N   UNL     1       5.752 -15.118   5.273  1.00  0.00    -0.248 NA
ATOM     61  C   UNL     1       4.166 -16.548   6.223  1.00  0.00     0.031 C 
ATOM     62  C   UNL     1       9.253 -16.491   2.903  1.00  0.00     0.029 A 
ATOM     63  C   UNL     1       8.148 -16.091   3.636  1.00  0.00     0.049 A 
ATOM     64  H   UNL     1       7.519 -14.136   4.126  1.00  0.00     0.167 HD
ATOM     65  C   UNL     1       6.092 -16.436   4.982  1.00  0.00     0.074 A 
ATOM     66  C   UNL     1       5.095 -17.273   5.618  1.00  0.00     0.031 C 
ATOM     67  C   UNL     1       7.138 -16.912   4.260  1.00  0.00     0.034 A 
BRANCH  54  68
ATOM     68  C   UNL     1      10.819 -12.485   1.950  1.00  0.00     0.023 A 
ATOM     69  C   UNL     1      11.940 -11.822   2.479  1.00  0.00     0.031 A 
ATOM     70  C   UNL     1      10.820 -12.787   0.577  1.00  0.00     0.131 A 
ATOM     71  C   UNL     1      12.979 -11.414   1.628  1.00  0.00     0.055 A 
ATOM     72  C   UNL     1      11.894 -12.449  -0.251  1.00  0.00     0.041 A 
ATOM     73  F   UNL     1       9.770 -13.403   0.011  1.00  0.00    -0.206 F 
ATOM     74  C   UNL     1      12.975 -11.744   0.271  1.00  0.00     0.022 A 
BRANCH  71  75
ATOM     75  S   UNL     1      14.267 -10.325   2.295  1.00  0.00     0.124 S 
ATOM     76  O   UNL     1      13.480  -9.175   2.733  1.00  0.00    -0.237 OA
ATOM     77  O   UNL     1      14.852 -11.140   3.353  1.00  0.00    -0.237 OA
ATOM     78  O   UNL     1      15.134 -10.077   1.146  1.00  0.00    -0.744 OA
ENDBRANCH  71  75
ENDBRANCH  54  68
BRANCH  55  79
ATOM     79  C   UNL     1       2.602 -14.346   7.354  1.00  0.00     0.023 A 
ATOM     80  C   UNL     1       2.622 -15.045   8.570  1.00  0.00     0.031 A 
ATOM     81  C   UNL     1       1.354 -13.954   6.837  1.00  0.00     0.131 A 
ATOM     82  C   UNL     1       1.416 -15.368   9.211  1.00  0.00     0.055 A 
ATOM     83  C   UNL     1       0.160 -14.237   7.501  1.00  0.00     0.041 A 
ATOM     84  F   UNL     1       1.281 -13.276   5.680  1.00  0.00    -0.206 F 
ATOM     85  C   UNL     1       0.186 -14.959   8.690  1.00  0.00     0.022 A 
BRANCH  82  86
ATOM     86  S   UNL     1       1.474 -16.397  10.703  1.00  0.00     0.124 S 
ATOM     87  O   UNL     1       2.147 -17.594  10.213  1.00  0.00    -0.237 OA
ATOM     88  O   UNL     1       2.241 -15.558  11.618  1.00  0.00    -0.237 OA
ATOM     89  O   UNL     1       0.066 -16.570  11.052  1.00  0.00    -0.744 OA
ENDBRANCH  82  86
ENDBRANCH  55  79
BRANCH  67  90
ATOM     90  C   UNL     1       7.267 -18.411   4.156  1.00  0.00     0.023 A 
ATOM     91  C   UNL     1       6.346 -19.181   3.425  1.00  0.00     0.031 A 
ATOM     92  C   UNL     1       8.314 -19.077   4.817  1.00  0.00     0.131 A 
ATOM     93  C   UNL     1       6.460 -20.580   3.414  1.00  0.00     0.055 A 
ATOM     94  C   UNL     1       8.452 -20.464   4.760  1.00  0.00     0.041 A 
ATOM     95  F   UNL     1       9.219 -18.388   5.531  1.00  0.00    -0.206 F 
ATOM     96  C   UNL     1       7.515 -21.225   4.066  1.00  0.00     0.022 A 
BRANCH  93  97
ATOM     97  S   UNL     1       5.162 -21.554   2.604  1.00  0.00     0.124 S 
ATOM     98  O   UNL     1       3.972 -21.151   3.347  1.00  0.00    -0.237 OA
ATOM     99  O   UNL     1       5.238 -21.089   1.223  1.00  0.00    -0.237 OA
ATOM    100  O   UNL     1       5.587 -22.936   2.816  1.00  0.00    -0.744 OA
ENDBRANCH  93  97
ENDBRANCH  67  90
ENDBRANCH  41  42
ENDBRANCH  33  36
ENDBRANCH  31  32
ENDBRANCH  30  31
ENDBRANCH  29  30
ENDBRANCH   1  29
TORSDOF 19
