REMARK SMILES CCN(CC(=O)NC)C(=O)c1ccncc1/C=C/C(=O)NCCCCCCNC(=O)c1ccc(-c2c3nc(c(-c4cc(S(=O)(=O)[O-])ccc4F)c4ccc([nH]4)c(-c4cc(S(=O)(=O)[O-])ccc4F)c4nc(c(-c5cc(S(=O)(=O)[O-])ccc5F)c5ccc2[nH]5)C=C4)C=C3)cc1
REMARK SMILES IDX 23 1 22 2 21 3 19 4 20 5 18 7 17 8 16 9 11 10 12 11 13 12
REMARK SMILES IDX 15 13 14 14 9 15 10 16 3 17 2 18 1 19 4 20 5 21 6 22 7 23
REMARK SMILES IDX 8 24 24 26 25 27 26 28 27 29 28 30 29 31 30 33 31 34 32 35
REMARK SMILES IDX 93 36 33 37 92 38 34 39 35 40 36 41 86 42 37 43 91 44 85 45
REMARK SMILES IDX 87 46 38 47 90 48 84 49 83 50 39 52 71 53 51 54 70 55 52 56
REMARK SMILES IDX 55 57 69 58 88 59 53 60 54 61 68 63 89 64 56 65 40 66 41 67
REMARK SMILES IDX 49 68 42 69 48 70 50 71 47 72 43 73 44 74 45 75 46 76 72 77
REMARK SMILES IDX 73 78 81 79 74 80 80 81 82 82 79 83 75 84 76 85 77 86 78 87
REMARK SMILES IDX 57 88 58 89 66 90 59 91 65 92 67 93 64 94 60 95 61 96 62 97
REMARK SMILES IDX 63 98
REMARK H PARENT 21 6 7 25 28 32 87 51 55 62
REMARK Flexibility Score: inf
ROOT
ATOM      1  C   UNL     1       3.862   1.059  -2.046  1.00  0.00     0.021 C 
ENDROOT
BRANCH   1   2
ATOM      2  C   UNL     1       4.996   1.213  -1.035  1.00  0.00     0.116 C 
BRANCH   2   3
ATOM      3  N   UNL     1       5.774   2.396  -1.347  1.00  0.00    -0.353 N 
ATOM      4  C   UNL     1       5.980   3.530  -0.633  1.00  0.00     0.244 C 
ATOM      5  O   UNL     1       6.719   4.406  -1.077  1.00  0.00    -0.270 OA
ATOM      6  H   UNL     1       6.228   2.372  -2.220  1.00  0.00     0.163 HD
BRANCH   4   7
ATOM      7  C   UNL     1       5.422   3.685   0.729  1.00  0.00     0.072 C 
ATOM      8  C   UNL     1       4.146   3.488   1.103  1.00  0.00     0.016 C 
BRANCH   8   9
ATOM      9  C   UNL     1       3.733   3.665   2.506  1.00  0.00     0.006 A 
ATOM     10  C   UNL     1       2.999   2.719   3.240  1.00  0.00     0.050 A 
ATOM     11  C   UNL     1       2.776   2.913   4.606  1.00  0.00     0.034 A 
ATOM     12  C   UNL     1       3.188   4.101   5.178  1.00  0.00     0.112 A 
ATOM     13  C   UNL     1       4.088   4.829   3.191  1.00  0.00     0.119 A 
ATOM     14  N   UNL     1       3.826   5.071   4.497  1.00  0.00    -0.264 NA
BRANCH  10  15
ATOM     15  C   UNL     1       2.536   1.447   2.634  1.00  0.00     0.255 C 
ATOM     16  O   UNL     1       3.400   0.664   2.246  1.00  0.00    -0.269 OA
BRANCH  15  17
ATOM     17  N   UNL     1       1.162   1.193   2.511  1.00  0.00    -0.330 N 
BRANCH  17  18
ATOM     18  C   UNL     1       0.746  -0.023   1.806  1.00  0.00     0.117 C 
ATOM     19  C   UNL     1       1.057   0.013   0.321  1.00  0.00     0.027 C 
ENDBRANCH  17  18
BRANCH  17  20
ATOM     20  C   UNL     1       0.103   2.131   2.918  1.00  0.00     0.219 C 
BRANCH  20  21
ATOM     21  C   UNL     1      -0.268   2.190   4.413  1.00  0.00     0.239 C 
ATOM     22  O   UNL     1      -0.508   3.277   4.950  1.00  0.00    -0.273 OA
ATOM     23  N   UNL     1      -0.454   1.074   5.168  1.00  0.00    -0.358 N 
ATOM     24  C   UNL     1      -0.434  -0.315   4.783  1.00  0.00     0.142 C 
ATOM     25  H   UNL     1      -0.628   1.240   6.123  1.00  0.00     0.163 HD
ENDBRANCH  20  21
ENDBRANCH  17  20
ENDBRANCH  15  17
ENDBRANCH  10  15
ENDBRANCH   8   9
ENDBRANCH   4   7
ENDBRANCH   2   3
ENDBRANCH   1   2
BRANCH   1  26
ATOM     26  C   UNL     1       4.273   0.359  -3.344  1.00  0.00     0.002 C 
BRANCH  26  27
ATOM     27  C   UNL     1       4.806  -1.069  -3.169  1.00  0.00     0.002 C 
BRANCH  27  28
ATOM     28  C   UNL     1       3.923  -2.011  -2.342  1.00  0.00     0.021 C 
BRANCH  28  29
ATOM     29  C   UNL     1       2.510  -2.210  -2.884  1.00  0.00     0.116 C 
BRANCH  29  30
ATOM     30  N   UNL     1       2.522  -2.811  -4.206  1.00  0.00    -0.352 N 
ATOM     31  C   UNL     1       1.925  -3.963  -4.654  1.00  0.00     0.251 C 
ATOM     32  H   UNL     1       3.035  -2.316  -4.885  1.00  0.00     0.163 HD
ATOM     33  O   UNL     1       2.256  -4.427  -5.740  1.00  0.00    -0.269 OA
BRANCH  31  34
ATOM     34  C   UNL     1       0.898  -4.646  -3.835  1.00  0.00     0.039 A 
ATOM     35  C   UNL     1       0.895  -6.043  -3.788  1.00  0.00     0.014 A 
ATOM     36  C   UNL     1      -0.094  -3.925  -3.164  1.00  0.00     0.014 A 
ATOM     37  C   UNL     1      -0.078  -6.714  -3.042  1.00  0.00     0.010 A 
ATOM     38  C   UNL     1      -1.024  -4.592  -2.367  1.00  0.00     0.010 A 
ATOM     39  C   UNL     1      -1.035  -5.994  -2.309  1.00  0.00    -0.014 A 
BRANCH  39  40
ATOM     40  C   UNL     1      -2.076  -6.694  -1.510  1.00  0.00     0.031 A 
ATOM     41  C   UNL     1      -3.527  -6.569  -1.893  1.00  0.00     0.074 A 
ATOM     42  C   UNL     1      -1.722  -7.405  -0.421  1.00  0.00     0.049 A 
ATOM     43  N   UNL     1      -4.588  -7.038  -1.287  1.00  0.00    -0.248 NA
ATOM     44  C   UNL     1      -3.824  -5.788  -3.103  1.00  0.00     0.031 C 
ATOM     45  C   UNL     1      -0.351  -7.579   0.065  1.00  0.00     0.029 A 
ATOM     46  N   UNL     1      -2.483  -8.111   0.477  1.00  0.00    -0.354 N 
ATOM     47  C   UNL     1      -5.678  -6.602  -2.036  1.00  0.00     0.074 A 
ATOM     48  C   UNL     1      -5.148  -5.777  -3.101  1.00  0.00     0.031 C 
ATOM     49  C   UNL     1      -0.367  -8.362   1.155  1.00  0.00     0.029 A 
ATOM     50  C   UNL     1      -1.748  -8.711   1.474  1.00  0.00     0.049 A 
ATOM     51  H   UNL     1      -3.462  -8.183   0.413  1.00  0.00     0.167 HD
ATOM     52  C   UNL     1      -6.994  -6.885  -1.866  1.00  0.00     0.034 A 
ATOM     53  C   UNL     1      -2.144  -9.450   2.530  1.00  0.00     0.034 A 
ATOM     54  C   UNL     1      -7.505  -7.723  -0.809  1.00  0.00     0.049 A 
ATOM     55  C   UNL     1      -3.616  -9.733   2.709  1.00  0.00     0.074 A 
ATOM     56  C   UNL     1      -8.814  -8.099  -0.561  1.00  0.00     0.029 A 
ATOM     57  N   UNL     1      -6.729  -8.320   0.178  1.00  0.00    -0.354 N 
ATOM     58  N   UNL     1      -4.630  -9.335   1.976  1.00  0.00    -0.248 NA
ATOM     59  C   UNL     1      -3.994 -10.578   3.849  1.00  0.00     0.031 C 
ATOM     60  C   UNL     1      -8.837  -8.870   0.607  1.00  0.00     0.029 A 
ATOM     61  C   UNL     1      -7.534  -9.041   1.046  1.00  0.00     0.049 A 
ATOM     62  H   UNL     1      -5.750  -8.241   0.250  1.00  0.00     0.167 HD
ATOM     63  C   UNL     1      -5.760  -9.918   2.544  1.00  0.00     0.074 A 
ATOM     64  C   UNL     1      -5.300 -10.701   3.671  1.00  0.00     0.031 C 
ATOM     65  C   UNL     1      -7.060  -9.819   2.166  1.00  0.00     0.034 A 
BRANCH  52  66
ATOM     66  C   UNL     1      -7.969  -6.261  -2.837  1.00  0.00     0.023 A 
ATOM     67  C   UNL     1      -7.936  -6.561  -4.211  1.00  0.00     0.031 A 
ATOM     68  C   UNL     1      -8.931  -5.338  -2.390  1.00  0.00     0.131 A 
ATOM     69  C   UNL     1      -8.792  -5.889  -5.096  1.00  0.00     0.055 A 
ATOM     70  C   UNL     1      -9.838  -4.736  -3.266  1.00  0.00     0.041 A 
ATOM     71  F   UNL     1      -8.999  -4.995  -1.094  1.00  0.00    -0.206 F 
ATOM     72  C   UNL     1      -9.762  -4.999  -4.630  1.00  0.00     0.022 A 
BRANCH  69  73
ATOM     73  S   UNL     1      -8.523  -6.089  -6.879  1.00  0.00     0.124 S 
ATOM     74  O   UNL     1      -7.155  -5.596  -7.025  1.00  0.00    -0.237 OA
ATOM     75  O   UNL     1      -8.710  -7.523  -7.068  1.00  0.00    -0.237 OA
ATOM     76  O   UNL     1      -9.551  -5.240  -7.477  1.00  0.00    -0.744 OA
ENDBRANCH  69  73
ENDBRANCH  52  66
BRANCH  53  77
ATOM     77  C   UNL     1      -1.147  -9.979   3.505  1.00  0.00     0.023 A 
ATOM     78  C   UNL     1      -0.967 -11.361   3.675  1.00  0.00     0.031 A 
ATOM     79  C   UNL     1      -0.403  -9.112   4.325  1.00  0.00     0.131 A 
ATOM     80  C   UNL     1      -0.111 -11.837   4.680  1.00  0.00     0.055 A 
ATOM     81  C   UNL     1       0.493  -9.591   5.283  1.00  0.00     0.041 A 
ATOM     82  F   UNL     1      -0.533  -7.781   4.202  1.00  0.00    -0.206 F 
ATOM     83  C   UNL     1       0.630 -10.962   5.476  1.00  0.00     0.022 A 
BRANCH  80  84
ATOM     84  S   UNL     1      -0.064 -13.622   5.003  1.00  0.00     0.124 S 
ATOM     85  O   UNL     1      -1.467 -13.910   5.276  1.00  0.00    -0.237 OA
ATOM     86  O   UNL     1       0.467 -14.141   3.747  1.00  0.00    -0.237 OA
ATOM     87  O   UNL     1       0.833 -13.735   6.151  1.00  0.00    -0.744 OA
ENDBRANCH  80  84
ENDBRANCH  53  77
BRANCH  65  88
ATOM     88  C   UNL     1      -8.065 -10.631   2.948  1.00  0.00     0.023 A 
ATOM     89  C   UNL     1      -8.349 -10.362   4.297  1.00  0.00     0.031 A 
ATOM     90  C   UNL     1      -8.733 -11.705   2.332  1.00  0.00     0.131 A 
ATOM     91  C   UNL     1      -9.229 -11.195   5.005  1.00  0.00     0.055 A 
ATOM     92  C   UNL     1      -9.655 -12.491   3.024  1.00  0.00     0.041 A 
ATOM     93  F   UNL     1      -8.499 -12.008   1.045  1.00  0.00    -0.206 F 
ATOM     94  C   UNL     1      -9.896 -12.248   4.373  1.00  0.00     0.022 A 
BRANCH  91  95
ATOM     95  S   UNL     1      -9.415 -10.944   6.792  1.00  0.00     0.124 S 
ATOM     96  O   UNL     1      -8.041 -11.085   7.263  1.00  0.00    -0.237 OA
ATOM     97  O   UNL     1      -9.977  -9.600   6.862  1.00  0.00    -0.237 OA
ATOM     98  O   UNL     1     -10.322 -12.017   7.197  1.00  0.00    -0.744 OA
ENDBRANCH  91  95
ENDBRANCH  65  88
ENDBRANCH  39  40
ENDBRANCH  31  34
ENDBRANCH  29  30
ENDBRANCH  28  29
ENDBRANCH  27  28
ENDBRANCH  26  27
ENDBRANCH   1  26
TORSDOF 22
