REMARK SMILES C[C@@H](CC(=O)NCCCCCCNC(=O)c1ccc(-c2c3nc(c(-c4cc(S(=O)(=O)[O-])ccc4F)c4ccc([nH]4)c(-c4cc(S(=O)(=O)[O-])ccc4F)c4nc(c(-c5cc(S(=O)(=O)[O-])ccc5F)c5ccc2[nH]5)C=C4)C=C3)cc1)NC(=O)[C@@H]1CCCN(C(N)=O)C1
REMARK SMILES IDX 9 1 8 2 7 3 6 4 4 5 5 6 3 8 2 9 1 10 79 11 80 12 81 14 82 15
REMARK SMILES IDX 83 16 90 17 84 18 86 19 85 20 87 21 88 22 89 23 10 26 11 27
REMARK SMILES IDX 12 28 13 29 14 30 15 32 16 33 17 34 78 35 18 36 77 37 19 38
REMARK SMILES IDX 20 39 21 40 71 41 22 42 76 43 70 44 72 45 23 46 75 47 69 48
REMARK SMILES IDX 68 49 24 51 56 52 36 53 55 54 37 55 40 56 54 57 73 58 38 59
REMARK SMILES IDX 39 60 53 62 74 63 41 64 25 65 26 66 34 67 27 68 33 69 35 70
REMARK SMILES IDX 32 71 28 72 29 73 30 74 31 75 57 76 58 77 66 78 59 79 65 80
REMARK SMILES IDX 67 81 64 82 60 83 61 84 62 85 63 86 42 87 43 88 51 89 44 90
REMARK SMILES IDX 50 91 52 92 49 93 45 94 46 95 47 96 48 97
REMARK H PARENT 6 7 79 13 88 24 88 25 13 31 72 50 40 61
REMARK Flexibility Score: inf
ROOT
ATOM      1  C   UNL     1       0.562   1.117  -4.036  1.00  0.00     0.002 C 
ENDROOT
BRANCH   1   2
ATOM      2  C   UNL     1       0.877   0.631  -2.620  1.00  0.00     0.021 C 
BRANCH   2   3
ATOM      3  C   UNL     1       1.698   1.628  -1.803  1.00  0.00     0.116 C 
BRANCH   3   4
ATOM      4  N   UNL     1       0.830   2.656  -1.272  1.00  0.00    -0.356 N 
ATOM      5  C   UNL     1       0.441   2.868   0.011  1.00  0.00     0.222 C 
ATOM      6  O   UNL     1      -0.483   3.655   0.223  1.00  0.00    -0.275 OA
ATOM      7  H   UNL     1       0.471   3.290  -1.934  1.00  0.00     0.163 HD
BRANCH   5   8
ATOM      8  C   UNL     1       1.146   2.172   1.153  1.00  0.00     0.124 C 
BRANCH   8   9
ATOM      9  C   UNL     1       0.534   0.851   1.636  1.00  0.00     0.088 C 
ATOM     10  C   UNL     1       0.933  -0.375   0.822  1.00  0.00     0.031 C 
BRANCH   9  11
ATOM     11  N   UNL     1      -0.916   0.909   1.766  1.00  0.00    -0.353 N 
ATOM     12  C   UNL     1      -1.749   0.196   2.574  1.00  0.00     0.225 C 
ATOM     13  H   UNL     1      -1.362   1.562   1.180  1.00  0.00     0.163 HD
ATOM     14  O   UNL     1      -2.960   0.322   2.393  1.00  0.00    -0.275 OA
BRANCH  12  15
ATOM     15  C   UNL     1      -1.170  -0.677   3.682  1.00  0.00     0.098 C 
ATOM     16  C   UNL     1      -1.392  -2.174   3.424  1.00  0.00     0.017 C 
ATOM     17  C   UNL     1      -1.746  -0.226   5.026  1.00  0.00     0.134 C 
ATOM     18  C   UNL     1      -2.801  -2.655   3.774  1.00  0.00     0.022 C 
ATOM     19  N   UNL     1      -3.102  -0.725   5.241  1.00  0.00    -0.324 N 
ATOM     20  C   UNL     1      -3.241  -2.171   5.154  1.00  0.00     0.121 C 
BRANCH  19  21
ATOM     21  C   UNL     1      -4.220   0.043   5.457  1.00  0.00     0.314 C 
ATOM     22  N   UNL     1      -4.082   1.376   5.272  1.00  0.00    -0.351 N 
ATOM     23  O   UNL     1      -5.311  -0.398   5.807  1.00  0.00    -0.249 OA
ATOM     24  H   UNL     1      -3.214   1.746   4.992  1.00  0.00     0.161 HD
ATOM     25  H   UNL     1      -4.849   1.976   5.418  1.00  0.00     0.161 HD
ENDBRANCH  19  21
ENDBRANCH  12  15
ENDBRANCH   9  11
ENDBRANCH   8   9
ENDBRANCH   5   8
ENDBRANCH   3   4
ENDBRANCH   2   3
ENDBRANCH   1   2
BRANCH   1  26
ATOM     26  C   UNL     1       1.794   1.349  -4.915  1.00  0.00     0.002 C 
BRANCH  26  27
ATOM     27  C   UNL     1       2.751   0.157  -5.004  1.00  0.00     0.021 C 
BRANCH  27  28
ATOM     28  C   UNL     1       2.102  -1.135  -5.491  1.00  0.00     0.116 C 
BRANCH  28  29
ATOM     29  N   UNL     1       1.536  -0.979  -6.821  1.00  0.00    -0.352 N 
ATOM     30  C   UNL     1       1.864  -1.632  -7.980  1.00  0.00     0.251 C 
ATOM     31  H   UNL     1       0.818  -0.311  -6.900  1.00  0.00     0.163 HD
ATOM     32  O   UNL     1       1.479  -1.187  -9.062  1.00  0.00    -0.269 OA
BRANCH  30  33
ATOM     33  C   UNL     1       2.688  -2.855  -7.923  1.00  0.00     0.039 A 
ATOM     34  C   UNL     1       3.737  -3.012  -8.830  1.00  0.00     0.014 A 
ATOM     35  C   UNL     1       2.420  -3.848  -6.975  1.00  0.00     0.014 A 
ATOM     36  C   UNL     1       4.553  -4.143  -8.751  1.00  0.00     0.010 A 
ATOM     37  C   UNL     1       3.279  -4.935  -6.850  1.00  0.00     0.010 A 
ATOM     38  C   UNL     1       4.351  -5.098  -7.740  1.00  0.00    -0.014 A 
BRANCH  38  39
ATOM     39  C   UNL     1       5.248  -6.274  -7.605  1.00  0.00     0.031 A 
ATOM     40  C   UNL     1       4.701  -7.664  -7.791  1.00  0.00     0.074 A 
ATOM     41  C   UNL     1       6.537  -6.092  -7.258  1.00  0.00     0.049 A 
ATOM     42  N   UNL     1       5.304  -8.816  -7.649  1.00  0.00    -0.248 NA
ATOM     43  C   UNL     1       3.280  -7.771  -8.157  1.00  0.00     0.031 C 
ATOM     44  C   UNL     1       7.169  -4.793  -7.013  1.00  0.00     0.029 A 
ATOM     45  N   UNL     1       7.547  -6.996  -7.044  1.00  0.00    -0.354 N 
ATOM     46  C   UNL     1       4.336  -9.784  -7.896  1.00  0.00     0.074 A 
ATOM     47  C   UNL     1       3.093  -9.082  -8.134  1.00  0.00     0.031 C 
ATOM     48  C   UNL     1       8.462  -4.984  -6.707  1.00  0.00     0.029 A 
ATOM     49  C   UNL     1       8.742  -6.416  -6.685  1.00  0.00     0.049 A 
ATOM     50  H   UNL     1       7.428  -7.968  -7.138  1.00  0.00     0.167 HD
ATOM     51  C   UNL     1       4.477 -11.132  -7.941  1.00  0.00     0.034 A 
ATOM     52  C   UNL     1       9.925  -6.974  -6.360  1.00  0.00     0.034 A 
ATOM     53  C   UNL     1       5.729 -11.813  -7.712  1.00  0.00     0.049 A 
ATOM     54  C   UNL     1      10.052  -8.477  -6.392  1.00  0.00     0.074 A 
ATOM     55  C   UNL     1       5.998 -13.168  -7.790  1.00  0.00     0.029 A 
ATOM     56  N   UNL     1       6.918 -11.194  -7.349  1.00  0.00    -0.354 N 
ATOM     57  N   UNL     1       9.139  -9.376  -6.681  1.00  0.00    -0.248 NA
ATOM     58  C   UNL     1      11.368  -9.038  -6.066  1.00  0.00     0.031 C 
ATOM     59  C   UNL     1       7.326 -13.375  -7.400  1.00  0.00     0.029 A 
ATOM     60  C   UNL     1       7.913 -12.142  -7.164  1.00  0.00     0.049 A 
ATOM     61  H   UNL     1       7.038 -10.223  -7.239  1.00  0.00     0.167 HD
ATOM     62  C   UNL     1       9.784 -10.608  -6.604  1.00  0.00     0.074 A 
ATOM     63  C   UNL     1      11.162 -10.333  -6.257  1.00  0.00     0.031 C 
ATOM     64  C   UNL     1       9.283 -11.854  -6.807  1.00  0.00     0.034 A 
BRANCH  51  65
ATOM     65  C   UNL     1       3.241 -11.955  -8.223  1.00  0.00     0.023 A 
ATOM     66  C   UNL     1       2.535 -11.839  -9.434  1.00  0.00     0.031 A 
ATOM     67  C   UNL     1       2.750 -12.855  -7.261  1.00  0.00     0.131 A 
ATOM     68  C   UNL     1       1.339 -12.550  -9.619  1.00  0.00     0.055 A 
ATOM     69  C   UNL     1       1.607 -13.624  -7.486  1.00  0.00     0.041 A 
ATOM     70  F   UNL     1       3.368 -12.994  -6.077  1.00  0.00    -0.206 F 
ATOM     71  C   UNL     1       0.885 -13.463  -8.665  1.00  0.00     0.022 A 
BRANCH  68  72
ATOM     72  S   UNL     1       0.311 -12.154 -11.060  1.00  0.00     0.124 S 
ATOM     73  O   UNL     1       0.058 -10.729 -10.858  1.00  0.00    -0.237 OA
ATOM     74  O   UNL     1       1.186 -12.496 -12.175  1.00  0.00    -0.237 OA
ATOM     75  O   UNL     1      -0.857 -13.017 -10.895  1.00  0.00    -0.744 OA
ENDBRANCH  68  72
ENDBRANCH  51  65
BRANCH  52  76
ATOM     76  C   UNL     1      11.082  -6.119  -5.963  1.00  0.00     0.023 A 
ATOM     77  C   UNL     1      12.258  -6.090  -6.729  1.00  0.00     0.031 A 
ATOM     78  C   UNL     1      11.044  -5.351  -4.786  1.00  0.00     0.131 A 
ATOM     79  C   UNL     1      13.365  -5.351  -6.284  1.00  0.00     0.055 A 
ATOM     80  C   UNL     1      12.127  -4.571  -4.377  1.00  0.00     0.041 A 
ATOM     81  F   UNL     1       9.943  -5.338  -4.018  1.00  0.00    -0.206 F 
ATOM     82  C   UNL     1      13.303  -4.580  -5.121  1.00  0.00     0.022 A 
BRANCH  79  83
ATOM     83  S   UNL     1      14.926  -5.488  -7.198  1.00  0.00     0.124 S 
ATOM     84  O   UNL     1      15.175  -6.924  -7.144  1.00  0.00    -0.237 OA
ATOM     85  O   UNL     1      14.559  -4.948  -8.503  1.00  0.00    -0.237 OA
ATOM     86  O   UNL     1      15.848  -4.663  -6.421  1.00  0.00    -0.744 OA
ENDBRANCH  79  83
ENDBRANCH  52  76
BRANCH  64  87
ATOM     87  C   UNL     1      10.250 -13.009  -6.703  1.00  0.00     0.023 A 
ATOM     88  C   UNL     1      10.865 -13.356  -5.487  1.00  0.00     0.031 A 
ATOM     89  C   UNL     1      10.567 -13.768  -7.844  1.00  0.00     0.131 A 
ATOM     90  C   UNL     1      11.808 -14.394  -5.453  1.00  0.00     0.055 A 
ATOM     91  C   UNL     1      11.456 -14.842  -7.789  1.00  0.00     0.041 A 
ATOM     92  F   UNL     1      10.013 -13.480  -9.033  1.00  0.00    -0.206 F 
ATOM     93  C   UNL     1      12.093 -15.152  -6.591  1.00  0.00     0.022 A 
BRANCH  90  94
ATOM     94  S   UNL     1      12.734 -14.678  -3.919  1.00  0.00     0.124 S 
ATOM     95  O   UNL     1      13.370 -13.383  -3.704  1.00  0.00    -0.237 OA
ATOM     96  O   UNL     1      11.677 -15.032  -2.977  1.00  0.00    -0.237 OA
ATOM     97  O   UNL     1      13.645 -15.768  -4.265  1.00  0.00    -0.744 OA
ENDBRANCH  90  94
ENDBRANCH  64  87
ENDBRANCH  38  39
ENDBRANCH  30  33
ENDBRANCH  28  29
ENDBRANCH  27  28
ENDBRANCH  26  27
ENDBRANCH   1  26
TORSDOF 20
