REMARK SMILES O=C(CCC(=O)N1Cc2[nH]cnc2C[C@H]1C(=O)NCc1ccccc1)NCCCCCCNC(=O)c1ccc(-c2c3nc(c(-c4cc(S(=O)(=O)[O-])ccc4F)c4ccc([nH]4)c(-c4cc(S(=O)(=O)[O-])ccc4F)c4nc(c(-c5cc(S(=O)(=O)[O-])ccc5F)c5ccc2[nH]5)C=C4)C=C3)cc1
REMARK SMILES IDX 28 1 27 2 26 3 1 4 2 5 3 7 4 8 5 9 6 10 7 11 8 12 15 13 9 14
REMARK SMILES IDX 14 15 10 16 13 17 11 18 12 20 16 21 17 22 18 23 19 25 20 26
REMARK SMILES IDX 21 27 25 28 22 29 24 30 23 31 29 32 30 33 31 34 32 35 33 36
REMARK SMILES IDX 34 37 35 39 36 40 37 41 98 42 38 43 97 44 39 45 40 46 41 47
REMARK SMILES IDX 91 48 42 49 96 50 90 51 92 52 43 53 95 54 89 55 88 56 44 58
REMARK SMILES IDX 76 59 56 60 75 61 57 62 60 63 74 64 93 65 58 66 59 67 73 69
REMARK SMILES IDX 94 70 61 71 45 72 46 73 54 74 47 75 53 76 55 77 52 78 48 79
REMARK SMILES IDX 49 80 50 81 51 82 77 83 78 84 86 85 79 86 85 87 87 88 84 89
REMARK SMILES IDX 80 90 81 91 82 92 83 93 62 94 63 95 71 96 64 97 70 98 72 99
REMARK SMILES IDX 69 100 65 101 66 102 67 103 68 104
REMARK H PARENT 26 6 10 19 18 24 33 38 92 57 60 68
REMARK Flexibility Score: inf
ROOT
ATOM      1  C   UNL     1       1.676   4.071  -0.175  1.00  0.00     0.021 C 
ENDROOT
BRANCH   1   2
ATOM      2  C   UNL     1       1.457   2.542  -0.237  1.00  0.00     0.116 C 
BRANCH   2   3
ATOM      3  N   UNL     1       2.391   1.679   0.492  1.00  0.00    -0.356 N 
ATOM      4  O   UNL     1       1.086  -0.203   0.254  1.00  0.00    -0.275 OA
ATOM      5  C   UNL     1       2.161   0.303   0.565  1.00  0.00     0.220 C 
ATOM      6  H   UNL     1       3.181   2.069   0.930  1.00  0.00     0.163 HD
BRANCH   5   7
ATOM      7  C   UNL     1       3.380  -0.574   0.927  1.00  0.00     0.110 C 
BRANCH   7   8
ATOM      8  C   UNL     1       3.666  -1.679  -0.132  1.00  0.00     0.110 C 
BRANCH   8   9
ATOM      9  C   UNL     1       4.970  -1.580  -0.971  1.00  0.00     0.224 C 
ATOM     10  O   UNL     1       5.894  -2.367  -0.752  1.00  0.00    -0.275 OA
BRANCH   9  11
ATOM     11  N   UNL     1       5.057  -0.639  -1.991  1.00  0.00    -0.324 N 
ATOM     12  C   UNL     1       6.257  -0.537  -2.865  1.00  0.00     0.176 C 
ATOM     13  C   UNL     1       4.127   0.493  -2.049  1.00  0.00     0.180 C 
ATOM     14  C   UNL     1       6.696   0.893  -2.892  1.00  0.00     0.058 A 
ATOM     15  C   UNL     1       4.841   1.722  -1.495  1.00  0.00     0.093 C 
ATOM     16  N   UNL     1       7.701   1.494  -3.600  1.00  0.00    -0.347 N 
ATOM     17  C   UNL     1       6.066   1.935  -2.259  1.00  0.00     0.066 A 
ATOM     18  C   UNL     1       7.643   2.841  -3.323  1.00  0.00     0.197 A 
ATOM     19  H   UNL     1       8.345   1.047  -4.195  1.00  0.00     0.167 HD
ATOM     20  N   UNL     1       6.645   3.133  -2.518  1.00  0.00    -0.242 NA
BRANCH  13  21
ATOM     21  C   UNL     1       3.034   0.455  -3.137  1.00  0.00     0.243 C 
ATOM     22  O   UNL     1       2.181  -0.446  -3.097  1.00  0.00    -0.273 OA
ATOM     23  N   UNL     1       2.904   1.294  -4.183  1.00  0.00    -0.350 N 
ATOM     24  H   UNL     1       1.983   1.402  -4.512  1.00  0.00     0.163 HD
BRANCH  23  25
ATOM     25  C   UNL     1       3.890   2.059  -4.899  1.00  0.00     0.151 C 
BRANCH  25  26
ATOM     26  C   UNL     1       4.655   1.232  -5.905  1.00  0.00    -0.029 A 
ATOM     27  C   UNL     1       4.399  -0.131  -6.133  1.00  0.00     0.005 A 
ATOM     28  C   UNL     1       5.661   1.856  -6.656  1.00  0.00     0.005 A 
ATOM     29  C   UNL     1       5.155  -0.859  -7.051  1.00  0.00     0.000 A 
ATOM     30  C   UNL     1       6.409   1.130  -7.584  1.00  0.00     0.000 A 
ATOM     31  C   UNL     1       6.162  -0.229  -7.774  1.00  0.00     0.000 A 
ENDBRANCH  25  26
ENDBRANCH  23  25
ENDBRANCH  13  21
ENDBRANCH   9  11
ENDBRANCH   8   9
ENDBRANCH   7   8
ENDBRANCH   5   7
ENDBRANCH   2   3
ENDBRANCH   1   2
BRANCH   1  32
ATOM     32  C   UNL     1       2.905   4.730  -0.845  1.00  0.00     0.002 C 
BRANCH  32  33
ATOM     33  C   UNL     1       3.163   4.421  -2.331  1.00  0.00     0.002 C 
BRANCH  33  34
ATOM     34  C   UNL     1       2.681   5.375  -3.418  1.00  0.00     0.021 C 
BRANCH  34  35
ATOM     35  C   UNL     1       3.448   6.688  -3.515  1.00  0.00     0.116 C 
BRANCH  35  36
ATOM     36  N   UNL     1       4.870   6.549  -3.837  1.00  0.00    -0.352 N 
ATOM     37  C   UNL     1       5.844   7.534  -3.705  1.00  0.00     0.251 C 
ATOM     38  H   UNL     1       5.166   5.674  -4.178  1.00  0.00     0.163 HD
ATOM     39  O   UNL     1       6.909   7.473  -4.282  1.00  0.00    -0.269 OA
BRANCH  37  40
ATOM     40  C   UNL     1       5.497   8.669  -2.826  1.00  0.00     0.039 A 
ATOM     41  C   UNL     1       5.251   9.927  -3.372  1.00  0.00     0.014 A 
ATOM     42  C   UNL     1       5.152   8.364  -1.509  1.00  0.00     0.014 A 
ATOM     43  C   UNL     1       4.509  10.841  -2.625  1.00  0.00     0.010 A 
ATOM     44  C   UNL     1       4.342   9.242  -0.810  1.00  0.00     0.010 A 
ATOM     45  C   UNL     1       3.985  10.474  -1.369  1.00  0.00    -0.014 A 
BRANCH  45  46
ATOM     46  C   UNL     1       2.896  11.282  -0.786  1.00  0.00     0.031 A 
ATOM     47  C   UNL     1       1.790  11.653  -1.723  1.00  0.00     0.074 A 
ATOM     48  C   UNL     1       2.687  11.504   0.530  1.00  0.00     0.049 A 
ATOM     49  N   UNL     1       1.444  12.834  -2.120  1.00  0.00    -0.248 NA
ATOM     50  C   UNL     1       1.029  10.572  -2.369  1.00  0.00     0.031 C 
ATOM     51  C   UNL     1       3.448  10.962   1.657  1.00  0.00     0.029 A 
ATOM     52  N   UNL     1       1.665  12.181   1.145  1.00  0.00    -0.354 N 
ATOM     53  C   UNL     1       0.291  12.675  -2.889  1.00  0.00     0.074 A 
ATOM     54  C   UNL     1       0.186  11.262  -3.142  1.00  0.00     0.031 C 
ATOM     55  C   UNL     1       2.744  11.126   2.797  1.00  0.00     0.029 A 
ATOM     56  C   UNL     1       1.583  11.950   2.512  1.00  0.00     0.049 A 
ATOM     57  H   UNL     1       1.048  12.777   0.662  1.00  0.00     0.167 HD
ATOM     58  C   UNL     1      -0.586  13.706  -3.066  1.00  0.00     0.034 A 
ATOM     59  C   UNL     1       0.662  12.411   3.391  1.00  0.00     0.034 A 
ATOM     60  C   UNL     1       0.001  14.951  -2.626  1.00  0.00     0.049 A 
ATOM     61  C   UNL     1       0.101  13.665   2.848  1.00  0.00     0.074 A 
ATOM     62  C   UNL     1       0.993  15.803  -3.059  1.00  0.00     0.029 A 
ATOM     63  N   UNL     1      -0.294  15.307  -1.333  1.00  0.00    -0.354 N 
ATOM     64  N   UNL     1       0.816  14.737   2.652  1.00  0.00    -0.248 NA
ATOM     65  C   UNL     1      -1.212  13.678   2.216  1.00  0.00     0.031 C 
ATOM     66  C   UNL     1       1.480  16.460  -1.889  1.00  0.00     0.029 A 
ATOM     67  C   UNL     1       0.750  16.008  -0.789  1.00  0.00     0.049 A 
ATOM     68  H   UNL     1      -1.133  15.091  -0.866  1.00  0.00     0.167 HD
ATOM     69  C   UNL     1       0.252  15.337   1.547  1.00  0.00     0.074 A 
ATOM     70  C   UNL     1      -1.083  14.764   1.449  1.00  0.00     0.031 C 
ATOM     71  C   UNL     1       1.032  15.988   0.636  1.00  0.00     0.034 A 
BRANCH  58  72
ATOM     72  C   UNL     1      -2.099  13.602  -3.235  1.00  0.00     0.023 A 
ATOM     73  C   UNL     1      -2.829  14.817  -3.240  1.00  0.00     0.031 A 
ATOM     74  C   UNL     1      -2.880  12.437  -3.095  1.00  0.00     0.131 A 
ATOM     75  C   UNL     1      -4.212  14.847  -2.987  1.00  0.00     0.055 A 
ATOM     76  C   UNL     1      -4.268  12.467  -2.902  1.00  0.00     0.041 A 
ATOM     77  F   UNL     1      -2.350  11.210  -3.058  1.00  0.00    -0.206 F 
ATOM     78  C   UNL     1      -4.938  13.676  -2.810  1.00  0.00     0.022 A 
BRANCH  75  79
ATOM     79  S   UNL     1      -5.011  16.452  -2.712  1.00  0.00     0.124 S 
ATOM     80  O   UNL     1      -4.170  17.027  -1.668  1.00  0.00    -0.237 OA
ATOM     81  O   UNL     1      -4.915  17.065  -4.032  1.00  0.00    -0.237 OA
ATOM     82  O   UNL     1      -6.363  16.089  -2.292  1.00  0.00    -0.744 OA
ENDBRANCH  75  79
ENDBRANCH  58  72
BRANCH  59  83
ATOM     83  C   UNL     1       0.190  11.762   4.635  1.00  0.00     0.023 A 
ATOM     84  C   UNL     1      -0.345  12.489   5.714  1.00  0.00     0.031 A 
ATOM     85  C   UNL     1       0.060  10.356   4.678  1.00  0.00     0.131 A 
ATOM     86  C   UNL     1      -0.983  11.811   6.775  1.00  0.00     0.055 A 
ATOM     87  C   UNL     1      -0.564   9.690   5.734  1.00  0.00     0.041 A 
ATOM     88  F   UNL     1       0.466   9.592   3.651  1.00  0.00    -0.206 F 
ATOM     89  C   UNL     1      -1.098  10.418   6.785  1.00  0.00     0.022 A 
BRANCH  86  90
ATOM     90  S   UNL     1      -1.781  12.758   8.108  1.00  0.00     0.124 S 
ATOM     91  O   UNL     1      -0.637  13.275   8.849  1.00  0.00    -0.237 OA
ATOM     92  O   UNL     1      -2.573  13.735   7.369  1.00  0.00    -0.237 OA
ATOM     93  O   UNL     1      -2.568  11.747   8.817  1.00  0.00    -0.744 OA
ENDBRANCH  86  90
ENDBRANCH  59  83
BRANCH  71  94
ATOM     94  C   UNL     1       2.352  16.542   1.113  1.00  0.00     0.023 A 
ATOM     95  C   UNL     1       3.401  15.775   1.665  1.00  0.00     0.031 A 
ATOM     96  C   UNL     1       2.564  17.923   0.957  1.00  0.00     0.131 A 
ATOM     97  C   UNL     1       4.600  16.401   2.054  1.00  0.00     0.055 A 
ATOM     98  C   UNL     1       3.760  18.537   1.323  1.00  0.00     0.041 A 
ATOM     99  F   UNL     1       1.609  18.703   0.421  1.00  0.00    -0.206 F 
ATOM    100  C   UNL     1       4.780  17.778   1.883  1.00  0.00     0.022 A 
BRANCH  97 101
ATOM    101  S   UNL     1       5.938  15.436   2.823  1.00  0.00     0.124 S 
ATOM    102  O   UNL     1       5.251  14.625   3.821  1.00  0.00    -0.237 OA
ATOM    103  O   UNL     1       6.496  14.710   1.685  1.00  0.00    -0.237 OA
ATOM    104  O   UNL     1       6.822  16.464   3.378  1.00  0.00    -0.744 OA
ENDBRANCH  97 101
ENDBRANCH  71  94
ENDBRANCH  45  46
ENDBRANCH  37  40
ENDBRANCH  35  36
ENDBRANCH  34  35
ENDBRANCH  33  34
ENDBRANCH  32  33
ENDBRANCH   1  32
TORSDOF 22
