REMARK SMILES Cc1nsc(Nc2ccccc2C(C)C)c1C(=O)NCCCCCCNC(=O)c1ccc(-c2c3nc(c(-c4cc(S(=O)(=O)[O-])ccc4F)c4ccc([nH]4)c(-c4cc(S(=O)(=O)[O-])ccc4F)c4nc(c(-c5cc(S(=O)(=O)[O-])ccc5F)c5ccc2[nH]5)C=C4)C=C3)cc1
REMARK SMILES IDX 22 1 21 2 20 3 19 4 17 5 18 6 16 8 1 9 2 10 3 11 4 12 5 13
REMARK SMILES IDX 6 14 7 16 8 17 12 18 9 19 11 20 10 21 13 22 14 23 15 24
REMARK SMILES IDX 23 25 24 26 25 27 26 28 27 29 28 31 29 32 30 33 91 34 31 35
REMARK SMILES IDX 90 36 32 37 33 38 34 39 84 40 35 41 89 42 83 43 85 44 36 45
REMARK SMILES IDX 88 46 82 47 81 48 37 50 69 51 49 52 68 53 50 54 53 55 67 56
REMARK SMILES IDX 86 57 51 58 52 59 66 61 87 62 54 63 38 64 39 65 47 66 40 67
REMARK SMILES IDX 46 68 48 69 45 70 41 71 42 72 43 73 44 74 70 75 71 76 79 77
REMARK SMILES IDX 72 78 78 79 80 80 77 81 73 82 74 83 75 84 76 85 55 86 56 87
REMARK SMILES IDX 64 88 57 89 63 90 65 91 62 92 58 93 59 94 60 95 61 96
REMARK H PARENT 19 7 6 15 26 30 85 49 53 60
REMARK Flexibility Score: inf
ROOT
ATOM      1  C   UNL     1       0.655   4.074  -1.025  1.00  0.00     0.002 C 
ENDROOT
BRANCH   1   2
ATOM      2  C   UNL     1       0.953   2.601  -0.726  1.00  0.00     0.021 C 
BRANCH   2   3
ATOM      3  C   UNL     1      -0.289   1.708  -0.725  1.00  0.00     0.116 C 
BRANCH   3   4
ATOM      4  N   UNL     1      -0.622   1.323  -2.066  1.00  0.00    -0.352 N 
ATOM      5  C   UNL     1      -0.362   0.237  -2.847  1.00  0.00     0.256 C 
ATOM      6  O   UNL     1      -0.808   0.372  -3.997  1.00  0.00    -0.269 OA
ATOM      7  H   UNL     1      -1.164   2.001  -2.530  1.00  0.00     0.163 HD
BRANCH   5   8
ATOM      8  C   UNL     1       0.308  -1.016  -2.443  1.00  0.00     0.097 A 
ATOM      9  C   UNL     1       1.666  -0.720  -0.130  1.00  0.00     0.069 C 
ATOM     10  C   UNL     1       1.153  -1.442  -1.325  1.00  0.00     0.066 A 
ATOM     11  N   UNL     1       1.570  -2.711  -1.351  1.00  0.00    -0.195 NA
ATOM     12  S   UNL     1       1.110  -3.420  -2.742  1.00  0.00    -0.018 S 
ATOM     13  C   UNL     1       0.146  -2.122  -3.301  1.00  0.00     0.127 A 
BRANCH  13  14
ATOM     14  N   UNL     1      -0.615  -2.174  -4.433  1.00  0.00    -0.345 N 
ATOM     15  H   UNL     1      -0.939  -1.314  -4.785  1.00  0.00     0.167 HD
BRANCH  14  16
ATOM     16  C   UNL     1      -0.983  -3.325  -5.149  1.00  0.00     0.043 A 
ATOM     17  C   UNL     1      -0.511  -3.436  -6.467  1.00  0.00     0.026 A 
ATOM     18  C   UNL     1      -1.812  -4.337  -4.614  1.00  0.00    -0.022 A 
ATOM     19  C   UNL     1      -0.793  -4.560  -7.239  1.00  0.00     0.002 A 
ATOM     20  C   UNL     1      -2.082  -5.466  -5.412  1.00  0.00     0.006 A 
ATOM     21  C   UNL     1      -1.571  -5.580  -6.706  1.00  0.00     0.000 A 
BRANCH  18  22
ATOM     22  C   UNL     1      -2.449  -4.227  -3.231  1.00  0.00     0.015 C 
ATOM     23  C   UNL     1      -3.978  -4.152  -3.317  1.00  0.00     0.012 C 
ATOM     24  C   UNL     1      -2.028  -5.374  -2.305  1.00  0.00     0.012 C 
ENDBRANCH  18  22
ENDBRANCH  14  16
ENDBRANCH  13  14
ENDBRANCH   5   8
ENDBRANCH   3   4
ENDBRANCH   2   3
ENDBRANCH   1   2
BRANCH   1  25
ATOM     25  C   UNL     1      -0.372   4.740  -0.095  1.00  0.00     0.002 C 
BRANCH  25  26
ATOM     26  C   UNL     1      -0.147   4.542   1.413  1.00  0.00     0.021 C 
BRANCH  26  27
ATOM     27  C   UNL     1       1.065   5.292   1.935  1.00  0.00     0.116 C 
BRANCH  27  28
ATOM     28  N   UNL     1       0.876   6.745   1.873  1.00  0.00    -0.352 N 
ATOM     29  C   UNL     1       1.755   7.759   2.221  1.00  0.00     0.251 C 
ATOM     30  H   UNL     1      -0.000   7.043   1.536  1.00  0.00     0.163 HD
ATOM     31  O   UNL     1       1.347   8.880   2.462  1.00  0.00    -0.269 OA
BRANCH  29  32
ATOM     32  C   UNL     1       3.194   7.438   2.281  1.00  0.00     0.039 A 
ATOM     33  C   UNL     1       4.064   8.008   3.216  1.00  0.00     0.014 A 
ATOM     34  C   UNL     1       3.656   6.509   1.360  1.00  0.00     0.014 A 
ATOM     35  C   UNL     1       5.393   7.584   3.231  1.00  0.00     0.010 A 
ATOM     36  C   UNL     1       4.860   5.909   1.555  1.00  0.00     0.010 A 
ATOM     37  C   UNL     1       5.774   6.532   2.389  1.00  0.00    -0.014 A 
BRANCH  37  38
ATOM     38  C   UNL     1       7.125   6.002   2.322  1.00  0.00     0.031 A 
ATOM     39  C   UNL     1       7.585   5.316   3.554  1.00  0.00     0.074 A 
ATOM     40  C   UNL     1       7.746   5.861   1.127  1.00  0.00     0.049 A 
ATOM     41  N   UNL     1       8.530   5.679   4.352  1.00  0.00    -0.248 NA
ATOM     42  C   UNL     1       6.799   4.176   4.054  1.00  0.00     0.031 C 
ATOM     43  C   UNL     1       7.230   6.168  -0.217  1.00  0.00     0.029 A 
ATOM     44  N   UNL     1       8.927   5.261   0.847  1.00  0.00    -0.354 N 
ATOM     45  C   UNL     1       8.614   4.692   5.330  1.00  0.00     0.074 A 
ATOM     46  C   UNL     1       7.395   3.938   5.224  1.00  0.00     0.031 C 
ATOM     47  C   UNL     1       7.968   5.522  -1.147  1.00  0.00     0.029 A 
ATOM     48  C   UNL     1       9.103   4.902  -0.487  1.00  0.00     0.049 A 
ATOM     49  H   UNL     1       9.610   5.090   1.535  1.00  0.00     0.167 HD
ATOM     50  C   UNL     1       9.784   4.445   5.985  1.00  0.00     0.034 A 
ATOM     51  C   UNL     1      10.085   4.106  -0.993  1.00  0.00     0.034 A 
ATOM     52  C   UNL     1      10.745   5.495   5.714  1.00  0.00     0.049 A 
ATOM     53  C   UNL     1      11.181   4.121   0.015  1.00  0.00     0.074 A 
ATOM     54  C   UNL     1      10.770   6.858   5.936  1.00  0.00     0.029 A 
ATOM     55  N   UNL     1      11.694   5.261   4.740  1.00  0.00    -0.354 N 
ATOM     56  N   UNL     1      11.833   5.207   0.344  1.00  0.00    -0.248 NA
ATOM     57  C   UNL     1      11.184   3.075   1.030  1.00  0.00     0.031 C 
ATOM     58  C   UNL     1      11.324   7.408   4.742  1.00  0.00     0.029 A 
ATOM     59  C   UNL     1      11.704   6.354   3.905  1.00  0.00     0.049 A 
ATOM     60  H   UNL     1      12.260   4.460   4.657  1.00  0.00     0.167 HD
ATOM     61  C   UNL     1      11.947   5.160   1.727  1.00  0.00     0.074 A 
ATOM     62  C   UNL     1      11.609   3.781   2.084  1.00  0.00     0.031 C 
ATOM     63  C   UNL     1      12.001   6.301   2.482  1.00  0.00     0.034 A 
BRANCH  50  64
ATOM     64  C   UNL     1      10.210   3.126   6.592  1.00  0.00     0.023 A 
ATOM     65  C   UNL     1      11.476   3.090   7.213  1.00  0.00     0.031 A 
ATOM     66  C   UNL     1       9.599   1.870   6.385  1.00  0.00     0.131 A 
ATOM     67  C   UNL     1      12.117   1.871   7.490  1.00  0.00     0.055 A 
ATOM     68  C   UNL     1      10.213   0.659   6.725  1.00  0.00     0.041 A 
ATOM     69  F   UNL     1       8.424   1.725   5.765  1.00  0.00    -0.206 F 
ATOM     70  C   UNL     1      11.493   0.652   7.249  1.00  0.00     0.022 A 
BRANCH  67  71
ATOM     71  S   UNL     1      13.854   1.913   7.999  1.00  0.00     0.124 S 
ATOM     72  O   UNL     1      14.450   2.733   6.950  1.00  0.00    -0.237 OA
ATOM     73  O   UNL     1      13.764   2.522   9.321  1.00  0.00    -0.237 OA
ATOM     74  O   UNL     1      14.244   0.505   7.985  1.00  0.00    -0.744 OA
ENDBRANCH  67  71
ENDBRANCH  50  64
BRANCH  51  75
ATOM     75  C   UNL     1       9.931   3.075  -2.066  1.00  0.00     0.023 A 
ATOM     76  C   UNL     1      11.018   2.538  -2.792  1.00  0.00     0.031 A 
ATOM     77  C   UNL     1       8.685   2.426  -2.236  1.00  0.00     0.131 A 
ATOM     78  C   UNL     1      10.829   1.416  -3.641  1.00  0.00     0.055 A 
ATOM     79  C   UNL     1       8.505   1.321  -3.073  1.00  0.00     0.041 A 
ATOM     80  F   UNL     1       7.606   2.794  -1.526  1.00  0.00    -0.206 F 
ATOM     81  C   UNL     1       9.580   0.805  -3.775  1.00  0.00     0.022 A 
BRANCH  78  82
ATOM     82  S   UNL     1      12.237   0.668  -4.531  1.00  0.00     0.124 S 
ATOM     83  O   UNL     1      12.558   1.692  -5.519  1.00  0.00    -0.237 OA
ATOM     84  O   UNL     1      13.211   0.465  -3.466  1.00  0.00    -0.237 OA
ATOM     85  O   UNL     1      11.675  -0.565  -5.087  1.00  0.00    -0.744 OA
ENDBRANCH  78  82
ENDBRANCH  51  75
BRANCH  63  86
ATOM     86  C   UNL     1      12.174   7.640   1.782  1.00  0.00     0.023 A 
ATOM     87  C   UNL     1      11.281   8.183   0.828  1.00  0.00     0.031 A 
ATOM     88  C   UNL     1      13.212   8.469   2.243  1.00  0.00     0.131 A 
ATOM     89  C   UNL     1      11.449   9.510   0.377  1.00  0.00     0.055 A 
ATOM     90  C   UNL     1      13.360   9.787   1.814  1.00  0.00     0.041 A 
ATOM     91  F   UNL     1      14.078   8.023   3.169  1.00  0.00    -0.206 F 
ATOM     92  C   UNL     1      12.480  10.313   0.876  1.00  0.00     0.022 A 
BRANCH  89  93
ATOM     93  S   UNL     1      10.335  10.224  -0.880  1.00  0.00     0.124 S 
ATOM     94  O   UNL     1      10.293   9.200  -1.918  1.00  0.00    -0.237 OA
ATOM     95  O   UNL     1       9.098  10.427  -0.130  1.00  0.00    -0.237 OA
ATOM     96  O   UNL     1      11.014  11.460  -1.274  1.00  0.00    -0.744 OA
ENDBRANCH  89  93
ENDBRANCH  63  86
ENDBRANCH  37  38
ENDBRANCH  29  32
ENDBRANCH  27  28
ENDBRANCH  26  27
ENDBRANCH  25  26
ENDBRANCH   1  25
TORSDOF 19
