REMARK SMILES COc1cccc(-c2cccnc2C(=O)NCCCCCCNC(=O)c2ccc(-c3c4nc(c(-c5cc(S(=O)(=O)[O-])ccc5F)c5ccc([nH]5)c(-c5cc(S(=O)(=O)[O-])ccc5F)c5nc(c(-c6cc(S(=O)(=O)[O-])ccc6F)c6ccc3[nH]6)C=C5)C=C4)cc2)c1F
REMARK SMILES IDX 20 1 19 2 18 3 17 4 16 5 14 6 15 7 13 9 8 10 9 11 10 12
REMARK SMILES IDX 12 13 11 14 7 15 3 16 4 17 89 18 5 19 90 20 6 21 2 22 1 23
REMARK SMILES IDX 21 24 22 25 23 26 24 27 25 29 26 30 27 31 88 32 28 33 87 34
REMARK SMILES IDX 29 35 30 36 31 37 81 38 32 39 86 40 80 41 82 42 33 43 85 44
REMARK SMILES IDX 79 45 78 46 34 48 66 49 46 50 65 51 47 52 50 53 64 54 83 55
REMARK SMILES IDX 48 56 49 57 63 59 84 60 51 61 35 62 36 63 44 64 37 65 43 66
REMARK SMILES IDX 45 67 42 68 38 69 39 70 40 71 41 72 67 73 68 74 76 75 69 76
REMARK SMILES IDX 75 77 77 78 74 79 70 80 71 81 72 82 73 83 52 84 53 85 61 86
REMARK SMILES IDX 54 87 60 88 62 89 59 90 55 91 56 92 57 93 58 94
REMARK H PARENT 16 8 23 28 82 47 50 58
REMARK Flexibility Score: inf
ROOT
ATOM      1  C   UNL     1      -1.693  -4.369   0.344  1.00  0.00     0.002 C 
ENDROOT
BRANCH   1   2
ATOM      2  C   UNL     1      -0.877  -4.145  -0.933  1.00  0.00     0.002 C 
BRANCH   2   3
ATOM      3  C   UNL     1       0.451  -3.388  -0.850  1.00  0.00     0.021 C 
BRANCH   3   4
ATOM      4  C   UNL     1       1.442  -3.763   0.245  1.00  0.00     0.116 C 
BRANCH   4   5
ATOM      5  N   UNL     1       2.096  -5.036   0.134  1.00  0.00    -0.351 N 
ATOM      6  C   UNL     1       3.297  -5.472   0.662  1.00  0.00     0.270 C 
ATOM      7  O   UNL     1       3.535  -6.675   0.495  1.00  0.00    -0.267 OA
ATOM      8  H   UNL     1       1.613  -5.705  -0.403  1.00  0.00     0.163 HD
BRANCH   6   9
ATOM      9  C   UNL     1       4.358  -4.615   1.347  1.00  0.00     0.136 A 
ATOM     10  C   UNL     1       4.190  -3.594   2.300  1.00  0.00     0.016 A 
ATOM     11  C   UNL     1       5.370  -3.045   2.862  1.00  0.00     0.013 A 
ATOM     12  C   UNL     1       6.632  -3.489   2.494  1.00  0.00     0.021 A 
ATOM     13  N   UNL     1       5.613  -5.045   0.982  1.00  0.00    -0.250 NA
ATOM     14  C   UNL     1       6.700  -4.486   1.551  1.00  0.00     0.112 A 
BRANCH  10  15
ATOM     15  C   UNL     1       2.937  -3.012   2.790  1.00  0.00     0.024 A 
ATOM     16  C   UNL     1       1.394  -1.104   2.824  1.00  0.00     0.155 A 
ATOM     17  C   UNL     1       0.592  -1.786   3.736  1.00  0.00     0.049 A 
ATOM     18  C   UNL     1       2.583  -1.700   2.402  1.00  0.00     0.172 A 
ATOM     19  C   UNL     1       0.938  -3.074   4.160  1.00  0.00     0.005 A 
ATOM     20  F   UNL     1       3.403  -1.042   1.565  1.00  0.00    -0.202 F 
ATOM     21  C   UNL     1       2.100  -3.689   3.685  1.00  0.00     0.012 A 
BRANCH  16  22
ATOM     22  O   UNL     1       0.941   0.126   2.433  1.00  0.00    -0.494 OA
ATOM     23  C   UNL     1       1.148   0.440   1.057  1.00  0.00     0.278 C 
ENDBRANCH  16  22
ENDBRANCH  10  15
ENDBRANCH   6   9
ENDBRANCH   4   5
ENDBRANCH   3   4
ENDBRANCH   2   3
ENDBRANCH   1   2
BRANCH   1  24
ATOM     24  C   UNL     1      -1.917  -3.187   1.291  1.00  0.00     0.021 C 
BRANCH  24  25
ATOM     25  C   UNL     1      -2.535  -1.915   0.718  1.00  0.00     0.116 C 
BRANCH  25  26
ATOM     26  N   UNL     1      -3.882  -2.111   0.222  1.00  0.00    -0.352 N 
ATOM     27  C   UNL     1      -5.059  -1.469   0.524  1.00  0.00     0.251 C 
ATOM     28  H   UNL     1      -3.969  -2.829  -0.447  1.00  0.00     0.163 HD
ATOM     29  O   UNL     1      -6.103  -1.924   0.055  1.00  0.00    -0.269 OA
BRANCH  27  30
ATOM     30  C   UNL     1      -5.116  -0.272   1.405  1.00  0.00     0.039 A 
ATOM     31  C   UNL     1      -6.230  -0.122   2.240  1.00  0.00     0.014 A 
ATOM     32  C   UNL     1      -4.151   0.740   1.377  1.00  0.00     0.014 A 
ATOM     33  C   UNL     1      -6.356   1.002   3.065  1.00  0.00     0.010 A 
ATOM     34  C   UNL     1      -4.243   1.831   2.249  1.00  0.00     0.010 A 
ATOM     35  C   UNL     1      -5.351   1.981   3.098  1.00  0.00    -0.014 A 
BRANCH  35  36
ATOM     36  C   UNL     1      -5.466   3.163   3.998  1.00  0.00     0.031 A 
ATOM     37  C   UNL     1      -5.608   4.551   3.428  1.00  0.00     0.074 A 
ATOM     38  C   UNL     1      -5.430   2.995   5.336  1.00  0.00     0.049 A 
ATOM     39  N   UNL     1      -5.691   5.698   4.054  1.00  0.00    -0.248 NA
ATOM     40  C   UNL     1      -5.643   4.666   1.962  1.00  0.00     0.031 C 
ATOM     41  C   UNL     1      -5.282   1.709   6.019  1.00  0.00     0.029 A 
ATOM     42  N   UNL     1      -5.523   3.905   6.362  1.00  0.00    -0.354 N 
ATOM     43  C   UNL     1      -5.778   6.670   3.063  1.00  0.00     0.074 A 
ATOM     44  C   UNL     1      -5.687   5.980   1.794  1.00  0.00     0.031 C 
ATOM     45  C   UNL     1      -5.332   1.907   7.346  1.00  0.00     0.029 A 
ATOM     46  C   UNL     1      -5.470   3.336   7.614  1.00  0.00     0.049 A 
ATOM     47  H   UNL     1      -5.617   4.874   6.215  1.00  0.00     0.167 HD
ATOM     48  C   UNL     1      -5.940   8.009   3.197  1.00  0.00     0.034 A 
ATOM     49  C   UNL     1      -5.522   3.895   8.840  1.00  0.00     0.034 A 
ATOM     50  C   UNL     1      -6.058   8.687   4.464  1.00  0.00     0.049 A 
ATOM     51  C   UNL     1      -5.663   5.388   8.967  1.00  0.00     0.074 A 
ATOM     52  C   UNL     1      -6.287  10.032   4.700  1.00  0.00     0.029 A 
ATOM     53  N   UNL     1      -5.952   8.078   5.706  1.00  0.00    -0.354 N 
ATOM     54  N   UNL     1      -5.755   6.288   8.017  1.00  0.00    -0.248 NA
ATOM     55  C   UNL     1      -5.702   5.943  10.328  1.00  0.00     0.031 C 
ATOM     56  C   UNL     1      -6.255  10.247   6.081  1.00  0.00     0.029 A 
ATOM     57  C   UNL     1      -6.075   9.026   6.710  1.00  0.00     0.049 A 
ATOM     58  H   UNL     1      -5.810   7.115   5.853  1.00  0.00     0.167 HD
ATOM     59  C   UNL     1      -5.882   7.512   8.665  1.00  0.00     0.074 A 
ATOM     60  C   UNL     1      -5.852   7.239  10.087  1.00  0.00     0.031 C 
ATOM     61  C   UNL     1      -6.023   8.748   8.125  1.00  0.00     0.034 A 
BRANCH  48  62
ATOM     62  C   UNL     1      -5.983   8.839   1.939  1.00  0.00     0.023 A 
ATOM     63  C   UNL     1      -7.042   8.732   1.022  1.00  0.00     0.031 A 
ATOM     64  C   UNL     1      -4.959   9.763   1.662  1.00  0.00     0.131 A 
ATOM     65  C   UNL     1      -7.027   9.496  -0.155  1.00  0.00     0.055 A 
ATOM     66  C   UNL     1      -4.985  10.569   0.523  1.00  0.00     0.041 A 
ATOM     67  F   UNL     1      -3.916   9.896   2.496  1.00  0.00    -0.206 F 
ATOM     68  C   UNL     1      -6.018  10.431  -0.399  1.00  0.00     0.022 A 
BRANCH  65  69
ATOM     69  S   UNL     1      -8.294   9.181  -1.413  1.00  0.00     0.124 S 
ATOM     70  O   UNL     1      -8.002   7.798  -1.783  1.00  0.00    -0.237 OA
ATOM     71  O   UNL     1      -9.535   9.394  -0.671  1.00  0.00    -0.237 OA
ATOM     72  O   UNL     1      -8.008  10.171  -2.445  1.00  0.00    -0.744 OA
ENDBRANCH  65  69
ENDBRANCH  48  62
BRANCH  49  73
ATOM     73  C   UNL     1      -5.431   3.028  10.046  1.00  0.00     0.023 A 
ATOM     74  C   UNL     1      -6.553   2.799  10.857  1.00  0.00     0.031 A 
ATOM     75  C   UNL     1      -4.225   2.389  10.385  1.00  0.00     0.131 A 
ATOM     76  C   UNL     1      -6.444   1.957  11.976  1.00  0.00     0.055 A 
ATOM     77  C   UNL     1      -4.130   1.528  11.478  1.00  0.00     0.041 A 
ATOM     78  F   UNL     1      -3.128   2.570   9.631  1.00  0.00    -0.206 F 
ATOM     79  C   UNL     1      -5.244   1.310  12.283  1.00  0.00     0.022 A 
BRANCH  76  80
ATOM     80  S   UNL     1      -7.897   1.716  13.034  1.00  0.00     0.124 S 
ATOM     81  O   UNL     1      -8.072   3.047  13.605  1.00  0.00    -0.237 OA
ATOM     82  O   UNL     1      -8.909   1.291  12.073  1.00  0.00    -0.237 OA
ATOM     83  O   UNL     1      -7.465   0.684  13.974  1.00  0.00    -0.744 OA
ENDBRANCH  76  80
ENDBRANCH  49  73
BRANCH  61  84
ATOM     84  C   UNL     1      -6.180   9.912   9.066  1.00  0.00     0.023 A 
ATOM     85  C   UNL     1      -5.087  10.434   9.776  1.00  0.00     0.031 A 
ATOM     86  C   UNL     1      -7.424  10.557   9.185  1.00  0.00     0.131 A 
ATOM     87  C   UNL     1      -5.261  11.566  10.587  1.00  0.00     0.055 A 
ATOM     88  C   UNL     1      -7.582  11.705   9.962  1.00  0.00     0.041 A 
ATOM     89  F   UNL     1      -8.496  10.098   8.520  1.00  0.00    -0.206 F 
ATOM     90  C   UNL     1      -6.497  12.215  10.669  1.00  0.00     0.022 A 
BRANCH  87  91
ATOM     91  S   UNL     1      -3.848  12.190  11.538  1.00  0.00     0.124 S 
ATOM     92  O   UNL     1      -3.648  11.123  12.514  1.00  0.00    -0.237 OA
ATOM     93  O   UNL     1      -2.812  12.323  10.519  1.00  0.00    -0.237 OA
ATOM     94  O   UNL     1      -4.337  13.452  12.090  1.00  0.00    -0.744 OA
ENDBRANCH  87  91
ENDBRANCH  61  84
ENDBRANCH  35  36
ENDBRANCH  27  30
ENDBRANCH  25  26
ENDBRANCH  24  25
ENDBRANCH   1  24
TORSDOF 18
