REMARK SMILES CCOC(=O)COc1ccc(/C=C/C(=O)NCCCCCCNC(=O)c2ccc(-c3c4nc(c(-c5cc(S(=O)(=O)[O-])ccc5F)c5ccc([nH]5)c(-c5cc(S(=O)(=O)[O-])ccc5F)c5nc(c(-c6cc(S(=O)(=O)[O-])ccc6F)c6ccc3[nH]6)C=C5)C=C4)cc2)cc1
REMARK SMILES IDX 18 1 17 2 16 3 14 4 15 5 13 7 12 8 11 9 8 10 9 11 90 12
REMARK SMILES IDX 10 13 89 14 7 15 6 16 4 17 5 18 3 19 2 20 1 21 19 22 20 23
REMARK SMILES IDX 21 24 22 25 23 26 24 27 25 29 26 30 27 31 88 32 28 33 87 34
REMARK SMILES IDX 29 35 30 36 31 37 81 38 32 39 86 40 80 41 82 42 33 43 85 44
REMARK SMILES IDX 79 45 78 46 34 48 66 49 46 50 65 51 47 52 50 53 64 54 83 55
REMARK SMILES IDX 48 56 49 57 63 59 84 60 51 61 35 62 36 63 44 64 37 65 43 66
REMARK SMILES IDX 45 67 42 68 38 69 39 70 40 71 41 72 67 73 68 74 76 75 69 76
REMARK SMILES IDX 75 77 77 78 74 79 70 80 71 81 72 82 73 83 52 84 53 85 61 86
REMARK SMILES IDX 54 87 60 88 62 89 59 90 55 91 56 92 57 93 58 94
REMARK H PARENT 16 6 23 28 82 47 50 58
REMARK Flexibility Score: inf
ROOT
ATOM      1  C   UNL     1       3.450  -5.537  -5.061  1.00  0.00     0.021 C 
ENDROOT
BRANCH   1   2
ATOM      2  C   UNL     1       4.644  -4.608  -5.283  1.00  0.00     0.116 C 
BRANCH   2   3
ATOM      3  N   UNL     1       4.820  -4.330  -6.700  1.00  0.00    -0.353 N 
ATOM      4  C   UNL     1       4.772  -3.161  -7.392  1.00  0.00     0.243 C 
ATOM      5  O   UNL     1       5.036  -3.147  -8.592  1.00  0.00    -0.270 OA
ATOM      6  H   UNL     1       5.006  -5.124  -7.251  1.00  0.00     0.163 HD
BRANCH   4   7
ATOM      7  C   UNL     1       4.504  -1.885  -6.695  1.00  0.00     0.072 C 
ATOM      8  C   UNL     1       3.466  -1.698  -5.869  1.00  0.00     0.014 C 
BRANCH   8   9
ATOM      9  C   UNL     1       3.249  -0.449  -5.135  1.00  0.00    -0.025 A 
ATOM     10  C   UNL     1       2.697   1.874  -3.649  1.00  0.00     0.120 A 
ATOM     11  C   UNL     1       2.922   1.952  -5.024  1.00  0.00     0.047 A 
ATOM     12  C   UNL     1       2.756   0.633  -3.019  1.00  0.00     0.047 A 
ATOM     13  C   UNL     1       3.210   0.799  -5.764  1.00  0.00     0.012 A 
ATOM     14  C   UNL     1       3.020  -0.522  -3.759  1.00  0.00     0.012 A 
BRANCH  10  15
ATOM     15  O   UNL     1       2.316   3.031  -3.027  1.00  0.00    -0.482 OA
BRANCH  15  16
ATOM     16  C   UNL     1       2.931   3.291  -1.772  1.00  0.00     0.351 C 
BRANCH  16  17
ATOM     17  C   UNL     1       2.408   2.601  -0.514  1.00  0.00     0.344 C 
ATOM     18  O   UNL     1       3.100   2.408   0.479  1.00  0.00    -0.248 OA
BRANCH  17  19
ATOM     19  O   UNL     1       1.102   2.239  -0.639  1.00  0.00    -0.463 OA
BRANCH  19  20
ATOM     20  C   UNL     1       0.551   1.485   0.454  1.00  0.00     0.229 C 
ATOM     21  C   UNL     1       0.844   0.005   0.273  1.00  0.00     0.049 C 
ENDBRANCH  19  20
ENDBRANCH  17  19
ENDBRANCH  16  17
ENDBRANCH  15  16
ENDBRANCH  10  15
ENDBRANCH   8   9
ENDBRANCH   4   7
ENDBRANCH   2   3
ENDBRANCH   1   2
BRANCH   1  22
ATOM     22  C   UNL     1       3.732  -7.001  -5.426  1.00  0.00     0.002 C 
BRANCH  22  23
ATOM     23  C   UNL     1       4.832  -7.675  -4.597  1.00  0.00     0.002 C 
BRANCH  23  24
ATOM     24  C   UNL     1       4.622  -7.635  -3.080  1.00  0.00     0.021 C 
BRANCH  24  25
ATOM     25  C   UNL     1       3.344  -8.316  -2.597  1.00  0.00     0.116 C 
BRANCH  25  26
ATOM     26  N   UNL     1       3.351  -9.740  -2.885  1.00  0.00    -0.352 N 
ATOM     27  C   UNL     1       3.177 -10.805  -2.035  1.00  0.00     0.251 C 
ATOM     28  H   UNL     1       3.502  -9.977  -3.829  1.00  0.00     0.163 HD
ATOM     29  O   UNL     1       3.452 -11.936  -2.421  1.00  0.00    -0.269 OA
BRANCH  27  30
ATOM     30  C   UNL     1       2.677 -10.585  -0.659  1.00  0.00     0.039 A 
ATOM     31  C   UNL     1       3.257 -11.301   0.391  1.00  0.00     0.014 A 
ATOM     32  C   UNL     1       1.619  -9.707  -0.407  1.00  0.00     0.014 A 
ATOM     33  C   UNL     1       2.807 -11.101   1.699  1.00  0.00     0.010 A 
ATOM     34  C   UNL     1       1.218  -9.458   0.904  1.00  0.00     0.010 A 
ATOM     35  C   UNL     1       1.802 -10.159   1.970  1.00  0.00    -0.014 A 
BRANCH  35  36
ATOM     36  C   UNL     1       1.343  -9.909   3.362  1.00  0.00     0.031 A 
ATOM     37  C   UNL     1      -0.069 -10.242   3.764  1.00  0.00     0.074 A 
ATOM     38  C   UNL     1       2.183  -9.340   4.248  1.00  0.00     0.049 A 
ATOM     39  N   UNL     1      -0.671 -10.053   4.911  1.00  0.00    -0.248 NA
ATOM     40  C   UNL     1      -0.926 -10.840   2.729  1.00  0.00     0.031 C 
ATOM     41  C   UNL     1       3.562  -8.934   3.963  1.00  0.00     0.029 A 
ATOM     42  N   UNL     1       2.004  -8.996   5.565  1.00  0.00    -0.354 N 
ATOM     43  C   UNL     1      -1.977 -10.497   4.734  1.00  0.00     0.074 A 
ATOM     44  C   UNL     1      -2.094 -10.906   3.350  1.00  0.00     0.031 C 
ATOM     45  C   UNL     1       4.109  -8.422   5.076  1.00  0.00     0.029 A 
ATOM     46  C   UNL     1       3.112  -8.421   6.143  1.00  0.00     0.049 A 
ATOM     47  H   UNL     1       1.161  -9.148   6.050  1.00  0.00     0.167 HD
ATOM     48  C   UNL     1      -2.978 -10.579   5.646  1.00  0.00     0.034 A 
ATOM     49  C   UNL     1       3.301  -7.940   7.387  1.00  0.00     0.034 A 
ATOM     50  C   UNL     1      -2.839 -10.178   7.026  1.00  0.00     0.049 A 
ATOM     51  C   UNL     1       2.171  -8.029   8.380  1.00  0.00     0.074 A 
ATOM     52  C   UNL     1      -3.768 -10.268   8.048  1.00  0.00     0.029 A 
ATOM     53  N   UNL     1      -1.700  -9.604   7.577  1.00  0.00    -0.354 N 
ATOM     54  N   UNL     1       0.957  -8.502   8.211  1.00  0.00    -0.248 NA
ATOM     55  C   UNL     1       2.440  -7.532   9.736  1.00  0.00     0.031 C 
ATOM     56  C   UNL     1      -3.216  -9.688   9.196  1.00  0.00     0.029 A 
ATOM     57  C   UNL     1      -1.914  -9.307   8.915  1.00  0.00     0.049 A 
ATOM     58  H   UNL     1      -0.862  -9.433   7.089  1.00  0.00     0.167 HD
ATOM     59  C   UNL     1       0.330  -8.387   9.449  1.00  0.00     0.074 A 
ATOM     60  C   UNL     1       1.305  -7.818  10.356  1.00  0.00     0.031 C 
ATOM     61  C   UNL     1      -0.936  -8.726   9.805  1.00  0.00     0.034 A 
BRANCH  48  62
ATOM     62  C   UNL     1      -4.315 -11.097   5.168  1.00  0.00     0.023 A 
ATOM     63  C   UNL     1      -4.467 -12.402   4.667  1.00  0.00     0.031 A 
ATOM     64  C   UNL     1      -5.450 -10.267   5.189  1.00  0.00     0.131 A 
ATOM     65  C   UNL     1      -5.700 -12.812   4.137  1.00  0.00     0.055 A 
ATOM     66  C   UNL     1      -6.696 -10.709   4.739  1.00  0.00     0.041 A 
ATOM     67  F   UNL     1      -5.366  -9.004   5.636  1.00  0.00    -0.206 F 
ATOM     68  C   UNL     1      -6.823 -11.984   4.194  1.00  0.00     0.022 A 
BRANCH  65  69
ATOM     69  S   UNL     1      -5.777 -14.387   3.241  1.00  0.00     0.124 S 
ATOM     70  O   UNL     1      -4.796 -14.170   2.181  1.00  0.00    -0.237 OA
ATOM     71  O   UNL     1      -5.405 -15.353   4.269  1.00  0.00    -0.237 OA
ATOM     72  O   UNL     1      -7.165 -14.457   2.790  1.00  0.00    -0.744 OA
ENDBRANCH  65  69
ENDBRANCH  48  62
BRANCH  49  73
ATOM     73  C   UNL     1       4.605  -7.325   7.770  1.00  0.00     0.023 A 
ATOM     74  C   UNL     1       5.419  -7.907   8.755  1.00  0.00     0.031 A 
ATOM     75  C   UNL     1       5.039  -6.123   7.183  1.00  0.00     0.131 A 
ATOM     76  C   UNL     1       6.598  -7.262   9.160  1.00  0.00     0.055 A 
ATOM     77  C   UNL     1       6.239  -5.513   7.550  1.00  0.00     0.041 A 
ATOM     78  F   UNL     1       4.302  -5.528   6.230  1.00  0.00    -0.206 F 
ATOM     79  C   UNL     1       7.020  -6.076   8.555  1.00  0.00     0.022 A 
BRANCH  76  80
ATOM     80  S   UNL     1       7.530  -7.952  10.554  1.00  0.00     0.124 S 
ATOM     81  O   UNL     1       6.527  -7.951  11.612  1.00  0.00    -0.237 OA
ATOM     82  O   UNL     1       7.919  -9.261  10.039  1.00  0.00    -0.237 OA
ATOM     83  O   UNL     1       8.627  -7.003  10.732  1.00  0.00    -0.744 OA
ENDBRANCH  76  80
ENDBRANCH  49  73
BRANCH  61  84
ATOM     84  C   UNL     1      -1.315  -8.524  11.252  1.00  0.00     0.023 A 
ATOM     85  C   UNL     1      -1.401  -7.243  11.824  1.00  0.00     0.031 A 
ATOM     86  C   UNL     1      -1.576  -9.635  12.076  1.00  0.00     0.131 A 
ATOM     87  C   UNL     1      -1.677  -7.106  13.193  1.00  0.00     0.055 A 
ATOM     88  C   UNL     1      -1.913  -9.489  13.422  1.00  0.00     0.041 A 
ATOM     89  F   UNL     1      -1.506 -10.882  11.583  1.00  0.00    -0.206 F 
ATOM     90  C   UNL     1      -1.950  -8.219  13.992  1.00  0.00     0.022 A 
BRANCH  87  91
ATOM     91  S   UNL     1      -1.575  -5.456  13.940  1.00  0.00     0.124 S 
ATOM     92  O   UNL     1      -0.203  -5.068  13.633  1.00  0.00    -0.237 OA
ATOM     93  O   UNL     1      -2.619  -4.726  13.227  1.00  0.00    -0.237 OA
ATOM     94  O   UNL     1      -1.849  -5.702  15.355  1.00  0.00    -0.744 OA
ENDBRANCH  87  91
ENDBRANCH  61  84
ENDBRANCH  35  36
ENDBRANCH  27  30
ENDBRANCH  25  26
ENDBRANCH  24  25
ENDBRANCH  23  24
ENDBRANCH  22  23
ENDBRANCH   1  22
TORSDOF 22
