REMARK SMILES CCc1nc2sc(C(=O)NCC(=O)NCCCCCCNC(=O)c3ccc(-c4c5nc(c(-c6cc(S(=O)(=O)[O-])ccc6F)c6ccc([nH]6)c(-c6cc(S(=O)(=O)[O-])ccc6F)c6nc(c(-c7cc(S(=O)(=O)[O-])ccc7F)c7ccc4[nH]7)C=C6)C=C5)cc3)c(N)c2c(C(F)(F)F)c1C
REMARK SMILES IDX 17 1 16 2 15 3 14 4 12 5 13 6 11 8 10 9 8 10 9 11 7 13 3 14
REMARK SMILES IDX 4 15 95 16 5 17 90 18 96 19 6 20 89 21 87 22 2 23 1 24 91 25
REMARK SMILES IDX 92 26 93 27 94 28 88 29 18 32 19 33 20 34 21 35 22 36 23 38
REMARK SMILES IDX 24 39 25 40 86 41 26 42 85 43 27 44 28 45 29 46 79 47 30 48
REMARK SMILES IDX 84 49 78 50 80 51 31 52 83 53 77 54 76 55 32 57 64 58 44 59
REMARK SMILES IDX 63 60 45 61 48 62 62 63 81 64 46 65 47 66 61 68 82 69 49 70
REMARK SMILES IDX 33 71 34 72 42 73 35 74 41 75 43 76 40 77 36 78 37 79 38 80
REMARK SMILES IDX 39 81 65 82 66 83 74 84 67 85 73 86 75 87 72 88 68 89 69 90
REMARK SMILES IDX 70 91 71 92 50 93 51 94 59 95 52 96 58 97 60 98 57 99 53 100
REMARK SMILES IDX 54 101 55 102 56 103
REMARK H PARENT 14 7 10 12 88 30 88 31 21 37 80 56 48 67
REMARK Flexibility Score: inf
ROOT
ATOM      1  C   UNL     1       6.795  -6.826  -4.861  1.00  0.00     0.002 C 
ENDROOT
BRANCH   1   2
ATOM      2  C   UNL     1       5.267  -6.817  -4.941  1.00  0.00     0.021 C 
BRANCH   2   3
ATOM      3  C   UNL     1       4.687  -5.487  -5.398  1.00  0.00     0.116 C 
BRANCH   3   4
ATOM      4  N   UNL     1       4.859  -5.250  -6.818  1.00  0.00    -0.355 N 
ATOM      5  C   UNL     1       4.014  -5.370  -7.879  1.00  0.00     0.239 C 
ATOM      6  O   UNL     1       4.485  -5.056  -8.981  1.00  0.00    -0.273 OA
ATOM      7  H   UNL     1       5.762  -4.943  -7.063  1.00  0.00     0.163 HD
BRANCH   5   8
ATOM      8  C   UNL     1       2.508  -5.687  -7.766  1.00  0.00     0.216 C 
BRANCH   8   9
ATOM      9  N   UNL     1       1.947  -6.332  -6.601  1.00  0.00    -0.342 N 
ATOM     10  C   UNL     1       1.304  -5.878  -5.476  1.00  0.00     0.264 C 
ATOM     11  O   UNL     1       0.776  -6.794  -4.834  1.00  0.00    -0.268 OA
ATOM     12  H   UNL     1       2.048  -7.311  -6.618  1.00  0.00     0.164 HD
BRANCH  10  13
ATOM     13  C   UNL     1       1.295  -4.485  -5.005  1.00  0.00     0.118 A 
ATOM     14  C   UNL     1       0.824  -0.563  -2.393  1.00  0.00     0.045 A 
ATOM     15  N   UNL     1       0.461  -1.859  -2.381  1.00  0.00    -0.242 NA
ATOM     16  C   UNL     1       1.594   0.018  -3.414  1.00  0.00    -0.017 A 
ATOM     17  C   UNL     1       0.854  -2.598  -3.428  1.00  0.00     0.127 A 
ATOM     18  C   UNL     1       1.962  -0.785  -4.537  1.00  0.00     0.073 A 
ATOM     19  C   UNL     1       2.009   1.467  -3.369  1.00  0.00     0.047 C 
ATOM     20  S   UNL     1       0.470  -4.242  -3.495  1.00  0.00    -0.108 S 
ATOM     21  C   UNL     1       1.572  -2.161  -4.523  1.00  0.00     0.048 A 
ATOM     22  C   UNL     1       1.821  -3.269  -5.424  1.00  0.00     0.066 A 
BRANCH  14  23
ATOM     23  C   UNL     1       0.290   0.207  -1.204  1.00  0.00     0.053 C 
ATOM     24  C   UNL     1       1.040  -0.111   0.082  1.00  0.00     0.011 C 
ENDBRANCH  14  23
BRANCH  18  25
ATOM     25  C   UNL     1       2.761  -0.244  -5.702  1.00  0.00     0.417 C 
ATOM     26  F   UNL     1       4.028  -0.750  -5.746  1.00  0.00    -0.166 F 
ATOM     27  F   UNL     1       2.201  -0.551  -6.912  1.00  0.00    -0.166 F 
ATOM     28  F   UNL     1       2.916   1.108  -5.743  1.00  0.00    -0.166 F 
ENDBRANCH  18  25
BRANCH  22  29
ATOM     29  N   UNL     1       2.570  -3.078  -6.528  1.00  0.00    -0.397 N 
ATOM     30  H   UNL     1       2.742  -3.828  -7.142  1.00  0.00     0.156 HD
ATOM     31  H   UNL     1       2.946  -2.189  -6.721  1.00  0.00     0.156 HD
ENDBRANCH  22  29
ENDBRANCH  10  13
ENDBRANCH   8   9
ENDBRANCH   5   8
ENDBRANCH   3   4
ENDBRANCH   2   3
ENDBRANCH   1   2
BRANCH   1  32
ATOM     32  C   UNL     1       7.430  -5.719  -3.999  1.00  0.00     0.002 C 
BRANCH  32  33
ATOM     33  C   UNL     1       6.890  -5.560  -2.570  1.00  0.00     0.021 C 
BRANCH  33  34
ATOM     34  C   UNL     1       7.106  -6.783  -1.694  1.00  0.00     0.116 C 
BRANCH  34  35
ATOM     35  N   UNL     1       8.520  -7.040  -1.426  1.00  0.00    -0.352 N 
ATOM     36  C   UNL     1       9.069  -8.043  -0.641  1.00  0.00     0.251 C 
ATOM     37  H   UNL     1       9.160  -6.427  -1.854  1.00  0.00     0.163 HD
ATOM     38  O   UNL     1      10.193  -7.931  -0.186  1.00  0.00    -0.269 OA
BRANCH  36  39
ATOM     39  C   UNL     1       8.252  -9.246  -0.384  1.00  0.00     0.039 A 
ATOM     40  C   UNL     1       8.235  -9.883   0.858  1.00  0.00     0.014 A 
ATOM     41  C   UNL     1       7.461  -9.710  -1.431  1.00  0.00     0.014 A 
ATOM     42  C   UNL     1       7.354 -10.948   1.048  1.00  0.00     0.010 A 
ATOM     43  C   UNL     1       6.468 -10.618  -1.186  1.00  0.00     0.010 A 
ATOM     44  C   UNL     1       6.458 -11.297   0.022  1.00  0.00    -0.014 A 
BRANCH  44  45
ATOM     45  C   UNL     1       5.413 -12.295   0.215  1.00  0.00     0.031 A 
ATOM     46  C   UNL     1       4.552 -12.041   1.396  1.00  0.00     0.074 A 
ATOM     47  C   UNL     1       5.113 -13.242  -0.704  1.00  0.00     0.049 A 
ATOM     48  N   UNL     1       4.551 -12.695   2.508  1.00  0.00    -0.248 NA
ATOM     49  C   UNL     1       3.724 -10.823   1.427  1.00  0.00     0.031 C 
ATOM     50  C   UNL     1       5.701 -13.454  -2.033  1.00  0.00     0.029 A 
ATOM     51  N   UNL     1       4.130 -14.182  -0.673  1.00  0.00    -0.354 N 
ATOM     52  C   UNL     1       3.538 -12.139   3.277  1.00  0.00     0.074 A 
ATOM     53  C   UNL     1       3.221 -10.876   2.663  1.00  0.00     0.031 C 
ATOM     54  C   UNL     1       4.920 -14.291  -2.755  1.00  0.00     0.029 A 
ATOM     55  C   UNL     1       3.878 -14.815  -1.891  1.00  0.00     0.049 A 
ATOM     56  H   UNL     1       3.633 -14.399   0.148  1.00  0.00     0.167 HD
ATOM     57  C   UNL     1       2.873 -12.890   4.199  1.00  0.00     0.034 A 
ATOM     58  C   UNL     1       2.895 -15.718  -2.162  1.00  0.00     0.034 A 
ATOM     59  C   UNL     1       3.582 -14.119   4.477  1.00  0.00     0.049 A 
ATOM     60  C   UNL     1       2.540 -16.328  -0.856  1.00  0.00     0.074 A 
ATOM     61  C   UNL     1       4.845 -14.420   4.952  1.00  0.00     0.029 A 
ATOM     62  N   UNL     1       3.143 -15.265   3.852  1.00  0.00    -0.354 N 
ATOM     63  N   UNL     1       3.380 -17.038  -0.152  1.00  0.00    -0.248 NA
ATOM     64  C   UNL     1       1.451 -15.725  -0.104  1.00  0.00     0.031 C 
ATOM     65  C   UNL     1       5.286 -15.513   4.147  1.00  0.00     0.029 A 
ATOM     66  C   UNL     1       4.241 -15.879   3.296  1.00  0.00     0.049 A 
ATOM     67  H   UNL     1       2.213 -15.585   3.810  1.00  0.00     0.167 HD
ATOM     68  C   UNL     1       3.197 -16.610   1.154  1.00  0.00     0.074 A 
ATOM     69  C   UNL     1       1.938 -15.863   1.133  1.00  0.00     0.031 C 
ATOM     70  C   UNL     1       4.213 -16.651   2.066  1.00  0.00     0.034 A 
BRANCH  57  71
ATOM     71  C   UNL     1       1.423 -12.703   4.571  1.00  0.00     0.023 A 
ATOM     72  C   UNL     1       0.915 -13.469   5.637  1.00  0.00     0.031 A 
ATOM     73  C   UNL     1       0.463 -12.040   3.773  1.00  0.00     0.131 A 
ATOM     74  C   UNL     1      -0.471 -13.605   5.830  1.00  0.00     0.055 A 
ATOM     75  C   UNL     1      -0.911 -12.130   4.005  1.00  0.00     0.041 A 
ATOM     76  F   UNL     1       0.791 -11.354   2.671  1.00  0.00    -0.206 F 
ATOM     77  C   UNL     1      -1.388 -12.938   5.021  1.00  0.00     0.022 A 
BRANCH  74  78
ATOM     78  S   UNL     1      -1.059 -14.784   7.072  1.00  0.00     0.124 S 
ATOM     79  O   UNL     1      -0.458 -16.030   6.609  1.00  0.00    -0.237 OA
ATOM     80  O   UNL     1      -0.512 -14.223   8.303  1.00  0.00    -0.237 OA
ATOM     81  O   UNL     1      -2.513 -14.709   6.949  1.00  0.00    -0.744 OA
ENDBRANCH  74  78
ENDBRANCH  57  71
BRANCH  58  82
ATOM     82  C   UNL     1       2.018 -15.801  -3.371  1.00  0.00     0.023 A 
ATOM     83  C   UNL     1       1.157 -16.899  -3.615  1.00  0.00     0.031 A 
ATOM     84  C   UNL     1       1.811 -14.656  -4.173  1.00  0.00     0.131 A 
ATOM     85  C   UNL     1       0.144 -16.816  -4.604  1.00  0.00     0.055 A 
ATOM     86  C   UNL     1       0.805 -14.578  -5.141  1.00  0.00     0.041 A 
ATOM     87  F   UNL     1       2.523 -13.535  -3.981  1.00  0.00    -0.206 F 
ATOM     88  C   UNL     1      -0.042 -15.653  -5.353  1.00  0.00     0.022 A 
BRANCH  85  89
ATOM     89  S   UNL     1      -1.035 -18.187  -4.859  1.00  0.00     0.124 S 
ATOM     90  O   UNL     1      -0.225 -19.157  -5.588  1.00  0.00    -0.237 OA
ATOM     91  O   UNL     1      -1.406 -18.548  -3.495  1.00  0.00    -0.237 OA
ATOM     92  O   UNL     1      -2.109 -17.572  -5.641  1.00  0.00    -0.744 OA
ENDBRANCH  85  89
ENDBRANCH  58  82
BRANCH  70  93
ATOM     93  C   UNL     1       5.480 -17.409   1.710  1.00  0.00     0.023 A 
ATOM     94  C   UNL     1       6.374 -17.068   0.666  1.00  0.00     0.031 A 
ATOM     95  C   UNL     1       5.862 -18.442   2.583  1.00  0.00     0.131 A 
ATOM     96  C   UNL     1       7.599 -17.760   0.534  1.00  0.00     0.055 A 
ATOM     97  C   UNL     1       7.080 -19.107   2.462  1.00  0.00     0.041 A 
ATOM     98  F   UNL     1       5.067 -18.790   3.609  1.00  0.00    -0.206 F 
ATOM     99  C   UNL     1       7.954 -18.770   1.435  1.00  0.00     0.022 A 
BRANCH  96 100
ATOM    100  S   UNL     1       8.774 -17.345  -0.802  1.00  0.00     0.124 S 
ATOM    101  O   UNL     1       7.983 -17.530  -2.013  1.00  0.00    -0.237 OA
ATOM    102  O   UNL     1       9.150 -15.970  -0.486  1.00  0.00    -0.237 OA
ATOM    103  O   UNL     1       9.852 -18.321  -0.626  1.00  0.00    -0.744 OA
ENDBRANCH  96 100
ENDBRANCH  70  93
ENDBRANCH  44  45
ENDBRANCH  36  39
ENDBRANCH  34  35
ENDBRANCH  33  34
ENDBRANCH  32  33
ENDBRANCH   1  32
TORSDOF 21
