REMARK SMILES O=C(NCCCCCCNC(=O)c1cc(SCC(=O)N2CCOCC2)ccn1)c1ccc(-c2c3nc(c(-c4cc(S(=O)(=O)[O-])ccc4F)c4ccc([nH]4)c(-c4cc(S(=O)(=O)[O-])ccc4F)c4nc(c(-c5cc(S(=O)(=O)[O-])ccc5F)c5ccc2[nH]5)C=C4)C=C3)cc1
REMARK SMILES IDX 6 1 5 2 4 3 3 4 1 5 2 6 29 8 30 9 91 10 31 11 90 12 32 13
REMARK SMILES IDX 33 14 34 15 84 16 35 17 89 18 83 19 85 20 36 21 88 22 82 23
REMARK SMILES IDX 81 24 37 26 69 27 49 28 68 29 50 30 53 31 67 32 86 33 51 34
REMARK SMILES IDX 52 35 66 37 87 38 54 39 38 40 39 41 47 42 40 43 46 44 48 45
REMARK SMILES IDX 45 46 41 47 42 48 43 49 44 50 70 51 71 52 79 53 72 54 78 55
REMARK SMILES IDX 80 56 77 57 73 58 74 59 75 60 76 61 55 62 56 63 64 64 57 65
REMARK SMILES IDX 63 66 65 67 62 68 58 69 59 70 60 71 61 72 7 73 8 74 9 75
REMARK SMILES IDX 10 76 11 77 12 79 13 80 14 81 28 82 15 83 27 84 26 85 16 86
REMARK SMILES IDX 17 87 18 88 19 89 20 90 21 91 25 92 22 93 24 94 23 95
REMARK H PARENT 3 7 85 25 53 36 10 78
REMARK Flexibility Score: inf
ROOT
ATOM      1  C   UNL     1       4.187   3.133   2.417  1.00  0.00     0.002 C 
ENDROOT
BRANCH   1   2
ATOM      2  C   UNL     1       4.695   2.490   1.125  1.00  0.00     0.021 C 
BRANCH   2   3
ATOM      3  C   UNL     1       4.431   0.995   1.012  1.00  0.00     0.116 C 
BRANCH   3   4
ATOM      4  N   UNL     1       3.010   0.692   0.974  1.00  0.00    -0.352 N 
ATOM      5  O   UNL     1       1.085  -0.037   0.054  1.00  0.00    -0.269 OA
ATOM      6  C   UNL     1       2.314  -0.036   0.043  1.00  0.00     0.251 C 
ATOM      7  H   UNL     1       2.476   1.058   1.716  1.00  0.00     0.163 HD
BRANCH   6   8
ATOM      8  C   UNL     1       3.052  -0.812  -0.976  1.00  0.00     0.039 A 
ATOM      9  C   UNL     1       4.146  -1.600  -0.608  1.00  0.00     0.014 A 
ATOM     10  C   UNL     1       2.627  -0.773  -2.307  1.00  0.00     0.014 A 
ATOM     11  C   UNL     1       4.873  -2.274  -1.582  1.00  0.00     0.010 A 
ATOM     12  C   UNL     1       3.311  -1.515  -3.273  1.00  0.00     0.010 A 
ATOM     13  C   UNL     1       4.440  -2.271  -2.917  1.00  0.00    -0.014 A 
BRANCH  13  14
ATOM     14  C   UNL     1       5.094  -3.172  -3.898  1.00  0.00     0.031 A 
ATOM     15  C   UNL     1       5.853  -2.630  -5.074  1.00  0.00     0.074 A 
ATOM     16  C   UNL     1       4.968  -4.503  -3.714  1.00  0.00     0.049 A 
ATOM     17  N   UNL     1       6.435  -3.283  -6.045  1.00  0.00    -0.248 NA
ATOM     18  C   UNL     1       5.970  -1.167  -5.179  1.00  0.00     0.031 C 
ATOM     19  C   UNL     1       4.242  -5.131  -2.604  1.00  0.00     0.029 A 
ATOM     20  N   UNL     1       5.431  -5.566  -4.445  1.00  0.00    -0.354 N 
ATOM     21  C   UNL     1       6.971  -2.318  -6.891  1.00  0.00     0.074 A 
ATOM     22  C   UNL     1       6.632  -1.030  -6.322  1.00  0.00     0.031 C 
ATOM     23  C   UNL     1       4.324  -6.463  -2.719  1.00  0.00     0.029 A 
ATOM     24  C   UNL     1       5.034  -6.787  -3.950  1.00  0.00     0.049 A 
ATOM     25  H   UNL     1       5.993  -5.465  -5.247  1.00  0.00     0.167 HD
ATOM     26  C   UNL     1       7.674  -2.502  -8.035  1.00  0.00     0.034 A 
ATOM     27  C   UNL     1       5.177  -8.028  -4.453  1.00  0.00     0.034 A 
ATOM     28  C   UNL     1       8.002  -3.800  -8.575  1.00  0.00     0.049 A 
ATOM     29  C   UNL     1       5.909  -8.190  -5.759  1.00  0.00     0.074 A 
ATOM     30  C   UNL     1       8.780  -4.098  -9.680  1.00  0.00     0.029 A 
ATOM     31  N   UNL     1       7.549  -5.013  -8.071  1.00  0.00    -0.354 N 
ATOM     32  N   UNL     1       6.471  -7.269  -6.507  1.00  0.00    -0.248 NA
ATOM     33  C   UNL     1       6.024  -9.553  -6.292  1.00  0.00     0.031 C 
ATOM     34  C   UNL     1       8.725  -5.479  -9.896  1.00  0.00     0.029 A 
ATOM     35  C   UNL     1       7.981  -6.054  -8.879  1.00  0.00     0.049 A 
ATOM     36  H   UNL     1       7.001  -5.118  -7.260  1.00  0.00     0.167 HD
ATOM     37  C   UNL     1       7.017  -7.946  -7.592  1.00  0.00     0.074 A 
ATOM     38  C   UNL     1       6.745  -9.353  -7.385  1.00  0.00     0.031 C 
ATOM     39  C   UNL     1       7.681  -7.450  -8.667  1.00  0.00     0.034 A 
BRANCH  26  40
ATOM     40  C   UNL     1       8.096  -1.283  -8.817  1.00  0.00     0.023 A 
ATOM     41  C   UNL     1       9.051  -0.374  -8.331  1.00  0.00     0.031 A 
ATOM     42  C   UNL     1       7.561  -1.056 -10.099  1.00  0.00     0.131 A 
ATOM     43  C   UNL     1       9.416   0.738  -9.108  1.00  0.00     0.055 A 
ATOM     44  C   UNL     1       7.975   0.015 -10.892  1.00  0.00     0.041 A 
ATOM     45  F   UNL     1       6.631  -1.881 -10.606  1.00  0.00    -0.206 F 
ATOM     46  C   UNL     1       8.904   0.924 -10.395  1.00  0.00     0.022 A 
BRANCH  43  47
ATOM     47  S   UNL     1      10.505   1.991  -8.377  1.00  0.00     0.124 S 
ATOM     48  O   UNL     1       9.739   2.406  -7.203  1.00  0.00    -0.237 OA
ATOM     49  O   UNL     1      11.722   1.236  -8.107  1.00  0.00    -0.237 OA
ATOM     50  O   UNL     1      10.619   3.003  -9.426  1.00  0.00    -0.744 OA
ENDBRANCH  43  47
ENDBRANCH  26  40
BRANCH  27  51
ATOM     51  C   UNL     1       4.556  -9.199  -3.771  1.00  0.00     0.023 A 
ATOM     52  C   UNL     1       5.336 -10.271  -3.315  1.00  0.00     0.031 A 
ATOM     53  C   UNL     1       3.159  -9.291  -3.621  1.00  0.00     0.131 A 
ATOM     54  C   UNL     1       4.713 -11.413  -2.787  1.00  0.00     0.055 A 
ATOM     55  C   UNL     1       2.549 -10.398  -3.030  1.00  0.00     0.041 A 
ATOM     56  F   UNL     1       2.362  -8.296  -4.042  1.00  0.00    -0.206 F 
ATOM     57  C   UNL     1       3.327 -11.477  -2.626  1.00  0.00     0.022 A 
BRANCH  54  58
ATOM     58  S   UNL     1       5.736 -12.868  -2.434  1.00  0.00     0.124 S 
ATOM     59  O   UNL     1       6.403 -13.079  -3.713  1.00  0.00    -0.237 OA
ATOM     60  O   UNL     1       6.577 -12.389  -1.343  1.00  0.00    -0.237 OA
ATOM     61  O   UNL     1       4.757 -13.889  -2.064  1.00  0.00    -0.744 OA
ENDBRANCH  54  58
ENDBRANCH  27  51
BRANCH  39  62
ATOM     62  C   UNL     1       8.170  -8.449  -9.684  1.00  0.00     0.023 A 
ATOM     63  C   UNL     1       7.274  -9.179 -10.484  1.00  0.00     0.031 A 
ATOM     64  C   UNL     1       9.547  -8.677  -9.852  1.00  0.00     0.131 A 
ATOM     65  C   UNL     1       7.763 -10.138 -11.383  1.00  0.00     0.055 A 
ATOM     66  C   UNL     1      10.030  -9.588 -10.792  1.00  0.00     0.041 A 
ATOM     67  F   UNL     1      10.445  -8.011  -9.110  1.00  0.00    -0.206 F 
ATOM     68  C   UNL     1       9.136 -10.332 -11.556  1.00  0.00     0.022 A 
BRANCH  65  69
ATOM     69  S   UNL     1       6.577 -11.182 -12.273  1.00  0.00     0.124 S 
ATOM     70  O   UNL     1       5.909 -11.880 -11.180  1.00  0.00    -0.237 OA
ATOM     71  O   UNL     1       5.770 -10.200 -12.990  1.00  0.00    -0.237 OA
ATOM     72  O   UNL     1       7.426 -12.020 -13.118  1.00  0.00    -0.744 OA
ENDBRANCH  65  69
ENDBRANCH  39  62
ENDBRANCH  13  14
ENDBRANCH   6   8
ENDBRANCH   3   4
ENDBRANCH   2   3
ENDBRANCH   1   2
BRANCH   1  73
ATOM     73  C   UNL     1       4.706   2.500   3.713  1.00  0.00     0.002 C 
BRANCH  73  74
ATOM     74  C   UNL     1       6.229   2.386   3.825  1.00  0.00     0.021 C 
BRANCH  74  75
ATOM     75  C   UNL     1       6.978   3.701   3.646  1.00  0.00     0.116 C 
BRANCH  75  76
ATOM     76  N   UNL     1       6.679   4.662   4.693  1.00  0.00    -0.351 N 
ATOM     77  C   UNL     1       7.556   5.404   5.453  1.00  0.00     0.269 C 
ATOM     78  H   UNL     1       5.724   4.802   4.885  1.00  0.00     0.163 HD
ATOM     79  O   UNL     1       7.130   6.155   6.327  1.00  0.00    -0.268 OA
BRANCH  77  80
ATOM     80  C   UNL     1       9.018   5.280   5.202  1.00  0.00     0.129 A 
ATOM     81  C   UNL     1       9.535   5.581   3.944  1.00  0.00     0.049 A 
ATOM     82  N   UNL     1       9.755   4.817   6.243  1.00  0.00    -0.251 NA
ATOM     83  C   UNL     1      10.878   5.319   3.716  1.00  0.00     0.012 A 
ATOM     84  C   UNL     1      11.063   4.627   6.011  1.00  0.00     0.113 A 
ATOM     85  C   UNL     1      11.657   4.850   4.781  1.00  0.00     0.035 A 
BRANCH  83  86
ATOM     86  S   UNL     1      11.736   5.537   2.175  1.00  0.00    -0.116 SA
BRANCH  86  87
ATOM     87  C   UNL     1      10.480   5.592   0.869  1.00  0.00     0.175 C 
BRANCH  87  88
ATOM     88  C   UNL     1       9.423   4.501   0.806  1.00  0.00     0.233 C 
ATOM     89  O   UNL     1       8.237   4.830   0.939  1.00  0.00    -0.274 OA
ATOM     90  N   UNL     1       9.755   3.214   0.433  1.00  0.00    -0.337 N 
ATOM     91  C   UNL     1      11.009   2.519   0.737  1.00  0.00     0.148 C 
ATOM     92  C   UNL     1       8.708   2.333  -0.106  1.00  0.00     0.148 C 
ATOM     93  C   UNL     1      11.452   1.604  -0.406  1.00  0.00     0.181 C 
ATOM     94  C   UNL     1       9.259   1.468  -1.246  1.00  0.00     0.181 C 
ATOM     95  O   UNL     1      10.394   0.717  -0.789  1.00  0.00    -0.378 OA
ENDBRANCH  87  88
ENDBRANCH  86  87
ENDBRANCH  83  86
ENDBRANCH  77  80
ENDBRANCH  75  76
ENDBRANCH  74  75
ENDBRANCH  73  74
ENDBRANCH   1  73
TORSDOF 19
