REMARK SMILES O=C(/C=C/c1ccccc1)Nc1ccc(O)cc1C(=O)NCCCCCCNC(=O)c1ccc(-c2c3nc(c(-c4cc(S(=O)(=O)[O-])ccc4F)c4ccc([nH]4)c(-c4cc(S(=O)(=O)[O-])ccc4F)c4nc(c(-c5cc(S(=O)(=O)[O-])ccc5F)c5ccc2[nH]5)C=C4)C=C3)cc1
REMARK SMILES IDX 24 1 23 2 22 3 21 4 19 5 20 6 18 8 12 9 13 10 14 11 17 12
REMARK SMILES IDX 15 13 11 14 1 15 2 16 3 18 4 19 5 20 6 21 10 22 7 23 9 24
REMARK SMILES IDX 8 25 16 26 25 28 26 29 27 30 28 31 29 32 30 34 31 35 32 36
REMARK SMILES IDX 93 37 33 38 92 39 34 40 35 41 36 42 86 43 37 44 91 45 85 46
REMARK SMILES IDX 87 47 38 48 90 49 84 50 83 51 39 53 71 54 51 55 70 56 52 57
REMARK SMILES IDX 55 58 69 59 88 60 53 61 54 62 68 64 89 65 56 66 40 67 41 68
REMARK SMILES IDX 49 69 42 70 48 71 50 72 47 73 43 74 44 75 45 76 46 77 72 78
REMARK SMILES IDX 73 79 81 80 74 81 80 82 82 83 79 84 75 85 76 86 77 87 78 88
REMARK SMILES IDX 57 89 58 90 66 91 59 92 65 93 67 94 64 95 60 96 61 97 62 98
REMARK SMILES IDX 63 99
REMARK H PARENT 21 7 11 17 16 27 28 33 87 52 55 63
REMARK Flexibility Score: inf
ROOT
ATOM      1  C   UNL     1       3.183  -2.470   2.839  1.00  0.00     0.002 C 
ENDROOT
BRANCH   1   2
ATOM      2  C   UNL     1       3.662  -1.075   2.401  1.00  0.00     0.021 C 
BRANCH   2   3
ATOM      3  C   UNL     1       2.790  -0.232   1.463  1.00  0.00     0.116 C 
BRANCH   3   4
ATOM      4  N   UNL     1       1.558   0.325   1.983  1.00  0.00    -0.352 N 
ATOM      5  C   UNL     1       0.793   1.420   1.607  1.00  0.00     0.253 C 
ATOM      6  O   UNL     1      -0.355   1.434   2.073  1.00  0.00    -0.269 OA
ATOM      7  H   UNL     1       1.193  -0.169   2.752  1.00  0.00     0.163 HD
BRANCH   5   8
ATOM      8  C   UNL     1       1.244   2.658   0.854  1.00  0.00     0.067 A 
ATOM      9  C   UNL     1       2.205   2.826  -0.160  1.00  0.00     0.054 A 
ATOM     10  C   UNL     1       2.627   4.120  -0.543  1.00  0.00     0.031 A 
ATOM     11  C   UNL     1       1.991   5.257  -0.067  1.00  0.00     0.048 A 
ATOM     12  C   UNL     1       0.592   3.840   1.294  1.00  0.00     0.062 A 
ATOM     13  C   UNL     1       0.942   5.104   0.814  1.00  0.00     0.116 A 
BRANCH   9  14
ATOM     14  N   UNL     1       2.777   1.829  -0.958  1.00  0.00    -0.322 N 
ATOM     15  O   UNL     1       0.963   0.429  -1.289  1.00  0.00    -0.270 OA
ATOM     16  C   UNL     1       2.164   0.677  -1.357  1.00  0.00     0.248 C 
ATOM     17  H   UNL     1       3.704   1.971  -1.258  1.00  0.00     0.170 HD
BRANCH  16  18
ATOM     18  C   UNL     1       3.102  -0.340  -1.887  1.00  0.00     0.072 C 
ATOM     19  C   UNL     1       4.407  -0.332  -1.567  1.00  0.00     0.014 C 
BRANCH  19  20
ATOM     20  C   UNL     1       5.325  -1.433  -1.834  1.00  0.00    -0.025 A 
ATOM     21  C   UNL     1       6.487  -1.515  -1.055  1.00  0.00     0.008 A 
ATOM     22  C   UNL     1       5.068  -2.401  -2.812  1.00  0.00     0.008 A 
ATOM     23  C   UNL     1       7.384  -2.549  -1.264  1.00  0.00     0.001 A 
ATOM     24  C   UNL     1       5.946  -3.455  -2.994  1.00  0.00     0.001 A 
ATOM     25  C   UNL     1       7.102  -3.510  -2.231  1.00  0.00     0.000 A 
ENDBRANCH  19  20
ENDBRANCH  16  18
ENDBRANCH   9  14
BRANCH  13  26
ATOM     26  O   UNL     1       0.268   6.228   1.192  1.00  0.00    -0.508 OA
ATOM     27  H   UNL     1       0.524   7.063   0.854  1.00  0.00     0.293 HD
ENDBRANCH  13  26
ENDBRANCH   5   8
ENDBRANCH   3   4
ENDBRANCH   2   3
ENDBRANCH   1   2
BRANCH   1  28
ATOM     28  C   UNL     1       2.820  -3.535   1.790  1.00  0.00     0.002 C 
BRANCH  28  29
ATOM     29  C   UNL     1       3.828  -3.920   0.691  1.00  0.00     0.021 C 
BRANCH  29  30
ATOM     30  C   UNL     1       5.252  -4.373   1.069  1.00  0.00     0.116 C 
BRANCH  30  31
ATOM     31  N   UNL     1       5.377  -5.769   1.460  1.00  0.00    -0.352 N 
ATOM     32  C   UNL     1       6.291  -6.736   1.071  1.00  0.00     0.251 C 
ATOM     33  H   UNL     1       4.702  -6.078   2.106  1.00  0.00     0.163 HD
ATOM     34  O   UNL     1       6.151  -7.879   1.506  1.00  0.00    -0.269 OA
BRANCH  32  35
ATOM     35  C   UNL     1       7.419  -6.471   0.126  1.00  0.00     0.039 A 
ATOM     36  C   UNL     1       7.601  -7.327  -0.971  1.00  0.00     0.014 A 
ATOM     37  C   UNL     1       8.373  -5.479   0.345  1.00  0.00     0.014 A 
ATOM     38  C   UNL     1       8.661  -7.136  -1.887  1.00  0.00     0.010 A 
ATOM     39  C   UNL     1       9.415  -5.272  -0.593  1.00  0.00     0.010 A 
ATOM     40  C   UNL     1       9.566  -6.070  -1.751  1.00  0.00    -0.014 A 
BRANCH  40  41
ATOM     41  C   UNL     1      10.614  -5.765  -2.810  1.00  0.00     0.031 A 
ATOM     42  C   UNL     1      12.077  -5.616  -2.430  1.00  0.00     0.074 A 
ATOM     43  C   UNL     1      10.293  -5.549  -4.112  1.00  0.00     0.049 A 
ATOM     44  N   UNL     1      13.108  -5.296  -3.178  1.00  0.00    -0.248 NA
ATOM     45  C   UNL     1      12.414  -5.819  -1.016  1.00  0.00     0.031 C 
ATOM     46  C   UNL     1       8.944  -5.589  -4.681  1.00  0.00     0.029 A 
ATOM     47  N   UNL     1      11.082  -5.234  -5.207  1.00  0.00    -0.354 N 
ATOM     48  C   UNL     1      14.206  -5.245  -2.322  1.00  0.00     0.074 A 
ATOM     49  C   UNL     1      13.690  -5.469  -0.987  1.00  0.00     0.031 C 
ATOM     50  C   UNL     1       8.999  -5.323  -5.998  1.00  0.00     0.029 A 
ATOM     51  C   UNL     1      10.384  -5.079  -6.390  1.00  0.00     0.049 A 
ATOM     52  H   UNL     1      12.059  -5.130  -5.147  1.00  0.00     0.167 HD
ATOM     53  C   UNL     1      15.526  -5.081  -2.604  1.00  0.00     0.034 A 
ATOM     54  C   UNL     1      10.788  -4.783  -7.649  1.00  0.00     0.034 A 
ATOM     55  C   UNL     1      16.068  -4.891  -3.928  1.00  0.00     0.049 A 
ATOM     56  C   UNL     1      12.260  -4.577  -7.943  1.00  0.00     0.074 A 
ATOM     57  C   UNL     1      17.398  -4.796  -4.306  1.00  0.00     0.029 A 
ATOM     58  N   UNL     1      15.321  -4.758  -5.089  1.00  0.00    -0.354 N 
ATOM     59  N   UNL     1      13.282  -4.625  -7.122  1.00  0.00    -0.248 NA
ATOM     60  C   UNL     1      12.632  -4.293  -9.339  1.00  0.00     0.031 C 
ATOM     61  C   UNL     1      17.453  -4.530  -5.678  1.00  0.00     0.029 A 
ATOM     62  C   UNL     1      16.161  -4.548  -6.175  1.00  0.00     0.049 A 
ATOM     63  H   UNL     1      14.339  -4.805  -5.136  1.00  0.00     0.167 HD
ATOM     64  C   UNL     1      14.415  -4.427  -7.913  1.00  0.00     0.074 A 
ATOM     65  C   UNL     1      13.955  -4.266  -9.274  1.00  0.00     0.031 C 
ATOM     66  C   UNL     1      15.719  -4.393  -7.540  1.00  0.00     0.034 A 
BRANCH  53  67
ATOM     67  C   UNL     1      16.488  -5.106  -1.437  1.00  0.00     0.023 A 
ATOM     68  C   UNL     1      16.608  -6.240  -0.614  1.00  0.00     0.031 A 
ATOM     69  C   UNL     1      17.268  -3.980  -1.119  1.00  0.00     0.131 A 
ATOM     70  C   UNL     1      17.395  -6.185   0.544  1.00  0.00     0.055 A 
ATOM     71  C   UNL     1      18.133  -3.970  -0.021  1.00  0.00     0.041 A 
ATOM     72  F   UNL     1      17.193  -2.863  -1.860  1.00  0.00    -0.206 F 
ATOM     73  C   UNL     1      18.182  -5.069   0.832  1.00  0.00     0.022 A 
BRANCH  70  74
ATOM     74  S   UNL     1      17.224  -7.520   1.759  1.00  0.00     0.124 S 
ATOM     75  O   UNL     1      15.798  -7.449   2.071  1.00  0.00    -0.237 OA
ATOM     76  O   UNL     1      17.656  -8.691   1.006  1.00  0.00    -0.237 OA
ATOM     77  O   UNL     1      18.113  -7.111   2.845  1.00  0.00    -0.744 OA
ENDBRANCH  70  74
ENDBRANCH  53  67
BRANCH  54  78
ATOM     78  C   UNL     1       9.800  -4.658  -8.771  1.00  0.00     0.023 A 
ATOM     79  C   UNL     1       9.835  -5.530  -9.875  1.00  0.00     0.031 A 
ATOM     80  C   UNL     1       8.872  -3.602  -8.806  1.00  0.00     0.131 A 
ATOM     81  C   UNL     1       9.009  -5.295 -10.988  1.00  0.00     0.055 A 
ATOM     82  C   UNL     1       8.010  -3.408  -9.889  1.00  0.00     0.041 A 
ATOM     83  F   UNL     1       8.795  -2.733  -7.785  1.00  0.00    -0.206 F 
ATOM     84  C   UNL     1       8.086  -4.248 -10.996  1.00  0.00     0.022 A 
BRANCH  81  85
ATOM     85  S   UNL     1       9.231  -6.313 -12.476  1.00  0.00     0.124 S 
ATOM     86  O   UNL     1      10.623  -6.041 -12.815  1.00  0.00    -0.237 OA
ATOM     87  O   UNL     1       8.941  -7.652 -11.973  1.00  0.00    -0.237 OA
ATOM     88  O   UNL     1       8.243  -5.774 -13.408  1.00  0.00    -0.744 OA
ENDBRANCH  81  85
ENDBRANCH  54  78
BRANCH  66  89
ATOM     89  C   UNL     1      16.765  -4.242  -8.623  1.00  0.00     0.023 A 
ATOM     90  C   UNL     1      16.881  -3.075  -9.399  1.00  0.00     0.031 A 
ATOM     91  C   UNL     1      17.675  -5.287  -8.872  1.00  0.00     0.131 A 
ATOM     92  C   UNL     1      17.852  -2.998 -10.412  1.00  0.00     0.055 A 
ATOM     93  C   UNL     1      18.677  -5.182  -9.838  1.00  0.00     0.041 A 
ATOM     94  F   UNL     1      17.612  -6.429  -8.169  1.00  0.00    -0.206 F 
ATOM     95  C   UNL     1      18.763  -4.037 -10.623  1.00  0.00     0.022 A 
BRANCH  92  96
ATOM     96  S   UNL     1      17.860  -1.555 -11.512  1.00  0.00     0.124 S 
ATOM     97  O   UNL     1      16.515  -1.595 -12.077  1.00  0.00    -0.237 OA
ATOM     98  O   UNL     1      18.130  -0.459 -10.587  1.00  0.00    -0.237 OA
ATOM     99  O   UNL     1      18.937  -1.847 -12.456  1.00  0.00    -0.744 OA
ENDBRANCH  92  96
ENDBRANCH  66  89
ENDBRANCH  40  41
ENDBRANCH  32  35
ENDBRANCH  30  31
ENDBRANCH  29  30
ENDBRANCH  28  29
ENDBRANCH   1  28
TORSDOF 20
