REMARK SMILES O=C(/C=C/c1ccc(Br)cc1-n1ccnc1)NCCCCCCNC(=O)c1ccc(-c2c3nc(c(-c4cc(S(=O)(=O)[O-])ccc4F)c4ccc([nH]4)c(-c4cc(S(=O)(=O)[O-])ccc4F)c4nc(c(-c5cc(S(=O)(=O)[O-])ccc5F)c5ccc2[nH]5)C=C4)C=C3)cc1
REMARK SMILES IDX 21 1 20 2 19 3 18 4 17 5 1 6 2 7 3 9 4 10 5 11 6 12 11 13
REMARK SMILES IDX 7 14 10 15 8 16 9 17 12 18 13 19 16 20 14 21 15 22 22 23
REMARK SMILES IDX 23 24 24 25 25 26 26 28 27 29 28 30 89 31 29 32 88 33 30 34
REMARK SMILES IDX 31 35 32 36 82 37 33 38 87 39 81 40 83 41 34 42 86 43 80 44
REMARK SMILES IDX 79 45 35 47 67 48 47 49 66 50 48 51 51 52 65 53 84 54 49 55
REMARK SMILES IDX 50 56 64 58 85 59 52 60 36 61 37 62 45 63 38 64 44 65 46 66
REMARK SMILES IDX 43 67 39 68 40 69 41 70 42 71 68 72 69 73 77 74 70 75 76 76
REMARK SMILES IDX 78 77 75 78 71 79 72 80 73 81 74 82 53 83 54 84 62 85 55 86
REMARK SMILES IDX 61 87 63 88 60 89 56 90 57 91 58 92 59 93
REMARK H PARENT 17 8 24 27 83 46 51 57
REMARK Flexibility Score: inf
ROOT
ATOM      1  C   UNL     1       4.663   2.497  -3.497  1.00  0.00     0.002 C 
ENDROOT
BRANCH   1   2
ATOM      2  C   UNL     1       4.196   3.016  -2.129  1.00  0.00     0.002 C 
BRANCH   2   3
ATOM      3  C   UNL     1       2.696   2.874  -1.826  1.00  0.00     0.021 C 
BRANCH   3   4
ATOM      4  C   UNL     1       2.141   1.451  -1.929  1.00  0.00     0.116 C 
BRANCH   4   5
ATOM      5  N   UNL     1       2.804   0.553  -1.005  1.00  0.00    -0.353 N 
ATOM      6  O   UNL     1       0.922  -0.156   0.105  1.00  0.00    -0.270 OA
ATOM      7  C   UNL     1       2.141  -0.138  -0.026  1.00  0.00     0.244 C 
ATOM      8  H   UNL     1       3.778   0.434  -1.085  1.00  0.00     0.163 HD
BRANCH   7   9
ATOM      9  C   UNL     1       2.979  -0.907   0.937  1.00  0.00     0.072 C 
ATOM     10  C   UNL     1       4.320  -0.944   0.961  1.00  0.00     0.016 C 
BRANCH  10  11
ATOM     11  C   UNL     1       5.127  -1.657   1.969  1.00  0.00    -0.001 A 
ATOM     12  C   UNL     1       4.811  -2.988   2.289  1.00  0.00     0.011 A 
ATOM     13  C   UNL     1       6.329  -1.115   2.475  1.00  0.00     0.055 A 
ATOM     14  C   UNL     1       5.661  -3.754   3.092  1.00  0.00     0.016 A 
ATOM     15  C   UNL     1       7.203  -1.896   3.247  1.00  0.00     0.043 A 
ATOM     16  C   UNL     1       6.853  -3.207   3.561  1.00  0.00     0.020 A 
ATOM     17  Br  UNL     1       8.000  -4.250   4.644  1.00  0.00    -0.051 Br
BRANCH  13  18
ATOM     18  N   UNL     1       6.680   0.238   2.244  1.00  0.00    -0.306 N 
ATOM     19  C   UNL     1       5.863   1.339   2.350  1.00  0.00     0.113 A 
ATOM     20  C   UNL     1       7.919   0.712   1.884  1.00  0.00     0.204 A 
ATOM     21  C   UNL     1       6.652   2.420   2.033  1.00  0.00     0.131 A 
ATOM     22  N   UNL     1       7.924   2.017   1.727  1.00  0.00    -0.245 NA
ENDBRANCH  13  18
ENDBRANCH  10  11
ENDBRANCH   7   9
ENDBRANCH   4   5
ENDBRANCH   3   4
ENDBRANCH   2   3
ENDBRANCH   1   2
BRANCH   1  23
ATOM     23  C   UNL     1       3.956   3.087  -4.724  1.00  0.00     0.021 C 
BRANCH  23  24
ATOM     24  C   UNL     1       4.135   4.592  -4.890  1.00  0.00     0.116 C 
BRANCH  24  25
ATOM     25  N   UNL     1       5.504   4.959  -5.235  1.00  0.00    -0.352 N 
ATOM     26  C   UNL     1       6.001   6.218  -5.519  1.00  0.00     0.251 C 
ATOM     27  H   UNL     1       6.154   4.220  -5.271  1.00  0.00     0.163 HD
ATOM     28  O   UNL     1       7.027   6.338  -6.170  1.00  0.00    -0.269 OA
BRANCH  26  29
ATOM     29  C   UNL     1       5.273   7.409  -5.028  1.00  0.00     0.039 A 
ATOM     30  C   UNL     1       5.163   8.556  -5.821  1.00  0.00     0.014 A 
ATOM     31  C   UNL     1       4.704   7.375  -3.755  1.00  0.00     0.014 A 
ATOM     32  C   UNL     1       4.404   9.631  -5.356  1.00  0.00     0.010 A 
ATOM     33  C   UNL     1       3.873   8.393  -3.340  1.00  0.00     0.010 A 
ATOM     34  C   UNL     1       3.738   9.536  -4.123  1.00  0.00    -0.014 A 
BRANCH  34  35
ATOM     35  C   UNL     1       2.742  10.540  -3.735  1.00  0.00     0.031 A 
ATOM     36  C   UNL     1       1.649  10.701  -4.734  1.00  0.00     0.074 A 
ATOM     37  C   UNL     1       2.663  11.090  -2.501  1.00  0.00     0.049 A 
ATOM     38  N   UNL     1       1.411  11.717  -5.494  1.00  0.00    -0.248 NA
ATOM     39  C   UNL     1       0.830   9.520  -5.062  1.00  0.00     0.031 C 
ATOM     40  C   UNL     1       3.502  10.783  -1.338  1.00  0.00     0.029 A 
ATOM     41  N   UNL     1       1.746  11.962  -1.983  1.00  0.00    -0.354 N 
ATOM     42  C   UNL     1       0.249  11.405  -6.197  1.00  0.00     0.074 A 
ATOM     43  C   UNL     1       0.091   9.983  -6.072  1.00  0.00     0.031 C 
ATOM     44  C   UNL     1       2.929  11.274  -0.217  1.00  0.00     0.029 A 
ATOM     45  C   UNL     1       1.771  12.068  -0.590  1.00  0.00     0.049 A 
ATOM     46  H   UNL     1       1.119  12.472  -2.545  1.00  0.00     0.167 HD
ATOM     47  C   UNL     1      -0.621  12.384  -6.574  1.00  0.00     0.034 A 
ATOM     48  C   UNL     1       0.909  12.751   0.214  1.00  0.00     0.034 A 
ATOM     49  C   UNL     1       0.011  13.682  -6.464  1.00  0.00     0.049 A 
ATOM     50  C   UNL     1       0.264  13.777  -0.634  1.00  0.00     0.074 A 
ATOM     51  C   UNL     1       1.091  14.304  -7.056  1.00  0.00     0.029 A 
ATOM     52  N   UNL     1      -0.268  14.399  -5.323  1.00  0.00    -0.354 N 
ATOM     53  N   UNL     1       0.916  14.768  -1.174  1.00  0.00    -0.248 NA
ATOM     54  C   UNL     1      -1.019  13.474  -1.249  1.00  0.00     0.031 C 
ATOM     55  C   UNL     1       1.669  15.108  -6.029  1.00  0.00     0.029 A 
ATOM     56  C   UNL     1       0.876  15.011  -4.883  1.00  0.00     0.049 A 
ATOM     57  H   UNL     1      -1.151  14.463  -4.891  1.00  0.00     0.167 HD
ATOM     58  C   UNL     1       0.368  14.904  -2.438  1.00  0.00     0.074 A 
ATOM     59  C   UNL     1      -0.907  14.195  -2.369  1.00  0.00     0.031 C 
ATOM     60  C   UNL     1       1.138  15.323  -3.487  1.00  0.00     0.034 A 
BRANCH  47  61
ATOM     61  C   UNL     1      -2.139  12.249  -6.602  1.00  0.00     0.023 A 
ATOM     62  C   UNL     1      -2.876  13.424  -6.864  1.00  0.00     0.031 A 
ATOM     63  C   UNL     1      -2.895  11.162  -6.110  1.00  0.00     0.131 A 
ATOM     64  C   UNL     1      -4.234  13.528  -6.513  1.00  0.00     0.055 A 
ATOM     65  C   UNL     1      -4.261  11.252  -5.817  1.00  0.00     0.041 A 
ATOM     66  F   UNL     1      -2.361   9.975  -5.807  1.00  0.00    -0.206 F 
ATOM     67  C   UNL     1      -4.931  12.450  -5.982  1.00  0.00     0.022 A 
BRANCH  64  68
ATOM     68  S   UNL     1      -5.021  15.158  -6.592  1.00  0.00     0.124 S 
ATOM     69  O   UNL     1      -4.130  15.950  -5.752  1.00  0.00    -0.237 OA
ATOM     70  O   UNL     1      -4.982  15.440  -8.023  1.00  0.00    -0.237 OA
ATOM     71  O   UNL     1      -6.352  14.917  -6.040  1.00  0.00    -0.744 OA
ENDBRANCH  64  68
ENDBRANCH  47  61
BRANCH  48  72
ATOM     72  C   UNL     1       0.420  12.396   1.578  1.00  0.00     0.023 A 
ATOM     73  C   UNL     1      -0.146  13.333   2.475  1.00  0.00     0.031 A 
ATOM     74  C   UNL     1       0.267  11.032   1.913  1.00  0.00     0.131 A 
ATOM     75  C   UNL     1      -0.832  12.891   3.635  1.00  0.00     0.055 A 
ATOM     76  C   UNL     1      -0.414  10.602   3.055  1.00  0.00     0.041 A 
ATOM     77  F   UNL     1       0.699  10.065   1.088  1.00  0.00    -0.206 F 
ATOM     78  C   UNL     1      -0.976  11.531   3.917  1.00  0.00     0.022 A 
BRANCH  75  79
ATOM     79  S   UNL     1      -1.632  14.082   4.767  1.00  0.00     0.124 S 
ATOM     80  O   UNL     1      -0.492  14.807   5.316  1.00  0.00    -0.237 OA
ATOM     81  O   UNL     1      -2.508  14.827   3.870  1.00  0.00    -0.237 OA
ATOM     82  O   UNL     1      -2.330  13.225   5.727  1.00  0.00    -0.744 OA
ENDBRANCH  75  79
ENDBRANCH  48  72
BRANCH  60  83
ATOM     83  C   UNL     1       2.443  16.027  -3.167  1.00  0.00     0.023 A 
ATOM     84  C   UNL     1       3.518  15.476  -2.430  1.00  0.00     0.031 A 
ATOM     85  C   UNL     1       2.621  17.308  -3.718  1.00  0.00     0.131 A 
ATOM     86  C   UNL     1       4.707  16.215  -2.261  1.00  0.00     0.055 A 
ATOM     87  C   UNL     1       3.807  18.023  -3.572  1.00  0.00     0.041 A 
ATOM     88  F   UNL     1       1.644  17.879  -4.442  1.00  0.00    -0.206 F 
ATOM     89  C   UNL     1       4.853  17.482  -2.836  1.00  0.00     0.022 A 
BRANCH  86  90
ATOM     90  S   UNL     1       6.084  15.557  -1.263  1.00  0.00     0.124 S 
ATOM     91  O   UNL     1       5.433  15.092  -0.044  1.00  0.00    -0.237 OA
ATOM     92  O   UNL     1       6.636  14.519  -2.129  1.00  0.00    -0.237 OA
ATOM     93  O   UNL     1       6.956  16.720  -1.080  1.00  0.00    -0.744 OA
ENDBRANCH  86  90
ENDBRANCH  60  83
ENDBRANCH  34  35
ENDBRANCH  26  29
ENDBRANCH  24  25
ENDBRANCH  23  24
ENDBRANCH   1  23
TORSDOF 18
