REMARK SMILES O=C(NCCCCCCNC(=O)c1cc([C@@H]2C=NN=C2c2ccc(F)cc2)c2c(ccc3ccccc32)n1)c1ccc(-c2c3nc(c(-c4cc(S(=O)(=O)[O-])ccc4F)c4ccc([nH]4)c(-c4cc(S(=O)(=O)[O-])ccc4F)c4nc(c(-c5cc(S(=O)(=O)[O-])ccc5F)c5ccc2[nH]5)C=C4)C=C3)cc1
REMARK SMILES IDX 6 1 5 2 4 3 3 4 1 5 2 6 39 8 40 9 101 10 41 11 100 12 42 13
REMARK SMILES IDX 43 14 44 15 94 16 45 17 99 18 93 19 95 20 46 21 98 22 92 23
REMARK SMILES IDX 91 24 47 26 79 27 59 28 78 29 60 30 63 31 77 32 96 33 61 34
REMARK SMILES IDX 62 35 76 37 97 38 64 39 48 40 49 41 57 42 50 43 56 44 58 45
REMARK SMILES IDX 55 46 51 47 52 48 53 49 54 50 80 51 81 52 89 53 82 54 88 55
REMARK SMILES IDX 90 56 87 57 83 58 84 59 85 60 86 61 65 62 66 63 74 64 67 65
REMARK SMILES IDX 73 66 75 67 72 68 68 69 69 70 70 71 71 72 7 73 8 74 9 75
REMARK SMILES IDX 10 76 11 77 12 79 13 80 14 81 38 82 15 83 29 84 28 85 30 86
REMARK SMILES IDX 37 87 31 88 32 89 36 90 33 91 35 92 34 93 16 94 17 95 20 96
REMARK SMILES IDX 18 97 19 98 21 99 22 100 27 101 23 102 26 103 24 104 25 105
REMARK H PARENT 3 7 95 25 63 36 10 78
REMARK Flexibility Score: inf
ROOT
ATOM      1  C   UNL     1       4.331   3.369  -0.872  1.00  0.00     0.002 C 
ENDROOT
BRANCH   1   2
ATOM      2  C   UNL     1       4.856   1.946  -1.121  1.00  0.00     0.021 C 
BRANCH   2   3
ATOM      3  C   UNL     1       4.598   0.946   0.004  1.00  0.00     0.116 C 
BRANCH   3   4
ATOM      4  N   UNL     1       3.201   0.796   0.348  1.00  0.00    -0.352 N 
ATOM      5  O   UNL     1       1.172   0.046   0.698  1.00  0.00    -0.269 OA
ATOM      6  C   UNL     1       2.191  -0.058   0.004  1.00  0.00     0.251 C 
ATOM      7  H   UNL     1       2.904   1.480   0.990  1.00  0.00     0.163 HD
BRANCH   6   8
ATOM      8  C   UNL     1       2.180  -1.020  -1.140  1.00  0.00     0.039 A 
ATOM      9  C   UNL     1       3.259  -1.401  -1.938  1.00  0.00     0.014 A 
ATOM     10  C   UNL     1       0.912  -1.558  -1.448  1.00  0.00     0.014 A 
ATOM     11  C   UNL     1       3.046  -2.217  -3.065  1.00  0.00     0.010 A 
ATOM     12  C   UNL     1       0.699  -2.363  -2.567  1.00  0.00     0.010 A 
ATOM     13  C   UNL     1       1.756  -2.659  -3.415  1.00  0.00    -0.014 A 
BRANCH  13  14
ATOM     14  C   UNL     1       1.563  -3.619  -4.519  1.00  0.00     0.031 A 
ATOM     15  C   UNL     1       2.299  -4.899  -4.291  1.00  0.00     0.074 A 
ATOM     16  C   UNL     1       0.727  -3.483  -5.581  1.00  0.00     0.049 A 
ATOM     17  N   UNL     1       3.339  -5.314  -4.933  1.00  0.00    -0.248 NA
ATOM     18  C   UNL     1       1.964  -5.725  -3.118  1.00  0.00     0.031 C 
ATOM     19  C   UNL     1      -0.199  -2.390  -5.887  1.00  0.00     0.029 A 
ATOM     20  N   UNL     1       0.499  -4.344  -6.629  1.00  0.00    -0.354 N 
ATOM     21  C   UNL     1       3.652  -6.564  -4.410  1.00  0.00     0.074 A 
ATOM     22  C   UNL     1       2.886  -6.689  -3.198  1.00  0.00     0.031 C 
ATOM     23  C   UNL     1      -1.021  -2.745  -6.910  1.00  0.00     0.029 A 
ATOM     24  C   UNL     1      -0.610  -4.039  -7.437  1.00  0.00     0.049 A 
ATOM     25  H   UNL     1       1.075  -5.124  -6.802  1.00  0.00     0.167 HD
ATOM     26  C   UNL     1       4.358  -7.469  -5.145  1.00  0.00     0.034 A 
ATOM     27  C   UNL     1      -1.115  -4.744  -8.502  1.00  0.00     0.034 A 
ATOM     28  C   UNL     1       5.012  -6.827  -6.261  1.00  0.00     0.049 A 
ATOM     29  C   UNL     1       0.010  -5.547  -9.030  1.00  0.00     0.074 A 
ATOM     30  C   UNL     1       5.982  -5.854  -6.396  1.00  0.00     0.029 A 
ATOM     31  N   UNL     1       4.389  -6.895  -7.485  1.00  0.00    -0.354 N 
ATOM     32  N   UNL     1       1.062  -5.010  -9.580  1.00  0.00    -0.248 NA
ATOM     33  C   UNL     1       0.193  -6.879  -8.482  1.00  0.00     0.031 C 
ATOM     34  C   UNL     1       5.545  -5.051  -7.493  1.00  0.00     0.029 A 
ATOM     35  C   UNL     1       4.394  -5.632  -8.026  1.00  0.00     0.049 A 
ATOM     36  H   UNL     1       4.008  -7.703  -7.900  1.00  0.00     0.167 HD
ATOM     37  C   UNL     1       2.127  -5.709  -9.039  1.00  0.00     0.074 A 
ATOM     38  C   UNL     1       1.527  -6.892  -8.417  1.00  0.00     0.031 C 
ATOM     39  C   UNL     1       3.352  -5.125  -8.896  1.00  0.00     0.034 A 
BRANCH  26  40
ATOM     40  C   UNL     1       4.170  -8.967  -5.094  1.00  0.00     0.023 A 
ATOM     41  C   UNL     1       5.022  -9.763  -5.888  1.00  0.00     0.031 A 
ATOM     42  C   UNL     1       3.035  -9.619  -4.564  1.00  0.00     0.131 A 
ATOM     43  C   UNL     1       4.691 -11.095  -6.194  1.00  0.00     0.055 A 
ATOM     44  C   UNL     1       2.735 -10.958  -4.833  1.00  0.00     0.041 A 
ATOM     45  F   UNL     1       2.110  -8.977  -3.840  1.00  0.00    -0.206 F 
ATOM     46  C   UNL     1       3.548 -11.696  -5.676  1.00  0.00     0.022 A 
BRANCH  43  47
ATOM     47  S   UNL     1       5.715 -11.991  -7.391  1.00  0.00     0.124 S 
ATOM     48  O   UNL     1       5.614 -11.136  -8.569  1.00  0.00    -0.237 OA
ATOM     49  O   UNL     1       7.012 -12.011  -6.721  1.00  0.00    -0.237 OA
ATOM     50  O   UNL     1       5.053 -13.288  -7.501  1.00  0.00    -0.744 OA
ENDBRANCH  43  47
ENDBRANCH  26  40
BRANCH  27  51
ATOM     51  C   UNL     1      -2.542  -5.099  -8.843  1.00  0.00     0.023 A 
ATOM     52  C   UNL     1      -2.926  -5.756 -10.050  1.00  0.00     0.031 A 
ATOM     53  C   UNL     1      -3.518  -5.064  -7.827  1.00  0.00     0.131 A 
ATOM     54  C   UNL     1      -4.215  -6.345 -10.184  1.00  0.00     0.055 A 
ATOM     55  C   UNL     1      -4.779  -5.660  -7.960  1.00  0.00     0.041 A 
ATOM     56  F   UNL     1      -3.248  -4.529  -6.628  1.00  0.00    -0.206 F 
ATOM     57  C   UNL     1      -5.129  -6.313  -9.131  1.00  0.00     0.022 A 
BRANCH  54  58
ATOM     58  S   UNL     1      -4.712  -7.272 -11.688  1.00  0.00     0.124 S 
ATOM     59  O   UNL     1      -4.991  -6.199 -12.636  1.00  0.00    -0.237 OA
ATOM     60  O   UNL     1      -3.541  -8.094 -11.966  1.00  0.00    -0.237 OA
ATOM     61  O   UNL     1      -5.893  -8.022 -11.253  1.00  0.00    -0.744 OA
ENDBRANCH  54  58
ENDBRANCH  27  51
BRANCH  39  62
ATOM     62  C   UNL     1       3.587  -3.783  -9.565  1.00  0.00     0.023 A 
ATOM     63  C   UNL     1       2.866  -2.592  -9.296  1.00  0.00     0.031 A 
ATOM     64  C   UNL     1       4.672  -3.698 -10.452  1.00  0.00     0.131 A 
ATOM     65  C   UNL     1       3.241  -1.383  -9.924  1.00  0.00     0.055 A 
ATOM     66  C   UNL     1       5.051  -2.500 -11.054  1.00  0.00     0.041 A 
ATOM     67  F   UNL     1       5.410  -4.787 -10.727  1.00  0.00    -0.206 F 
ATOM     68  C   UNL     1       4.333  -1.338 -10.796  1.00  0.00     0.022 A 
BRANCH  65  69
ATOM     69  S   UNL     1       2.319   0.161  -9.613  1.00  0.00     0.124 S 
ATOM     70  O   UNL     1       0.944  -0.193  -9.944  1.00  0.00    -0.237 OA
ATOM     71  O   UNL     1       2.592   0.421  -8.202  1.00  0.00    -0.237 OA
ATOM     72  O   UNL     1       2.937   1.121 -10.531  1.00  0.00    -0.744 OA
ENDBRANCH  65  69
ENDBRANCH  39  62
ENDBRANCH  13  14
ENDBRANCH   6   8
ENDBRANCH   3   4
ENDBRANCH   2   3
ENDBRANCH   1   2
BRANCH   1  73
ATOM     73  C   UNL     1       4.840   4.079   0.389  1.00  0.00     0.002 C 
BRANCH  73  74
ATOM     74  C   UNL     1       6.359   4.177   0.527  1.00  0.00     0.021 C 
BRANCH  74  75
ATOM     75  C   UNL     1       7.054   4.913  -0.611  1.00  0.00     0.116 C 
BRANCH  75  76
ATOM     76  N   UNL     1       6.779   6.343  -0.603  1.00  0.00    -0.351 N 
ATOM     77  C   UNL     1       7.659   7.404  -0.467  1.00  0.00     0.269 C 
ATOM     78  H   UNL     1       5.833   6.592  -0.710  1.00  0.00     0.163 HD
ATOM     79  O   UNL     1       7.234   8.542  -0.342  1.00  0.00    -0.268 OA
BRANCH  77  80
ATOM     80  C   UNL     1       9.127   7.136  -0.522  1.00  0.00     0.129 A 
ATOM     81  C   UNL     1       9.632   6.341  -1.521  1.00  0.00     0.039 A 
ATOM     82  N   UNL     1       9.908   7.694   0.410  1.00  0.00    -0.243 NA
ATOM     83  C   UNL     1      10.994   5.971  -1.528  1.00  0.00    -0.021 A 
ATOM     84  C   UNL     1      11.221   7.444   0.370  1.00  0.00     0.072 A 
ATOM     85  C   UNL     1      11.886   6.569  -0.549  1.00  0.00     0.012 A 
ATOM     86  C   UNL     1      11.926   8.157   1.314  1.00  0.00     0.029 A 
ATOM     87  C   UNL     1      13.354   6.468  -0.401  1.00  0.00    -0.009 A 
ATOM     88  C   UNL     1      13.305   8.076   1.425  1.00  0.00     0.011 A 
ATOM     89  C   UNL     1      14.027   7.244   0.585  1.00  0.00    -0.018 A 
ATOM     90  C   UNL     1      14.225   5.672  -1.179  1.00  0.00     0.009 A 
ATOM     91  C   UNL     1      15.426   7.214   0.737  1.00  0.00     0.009 A 
ATOM     92  C   UNL     1      15.617   5.638  -1.033  1.00  0.00     0.001 A 
ATOM     93  C   UNL     1      16.223   6.416  -0.071  1.00  0.00     0.001 A 
BRANCH  83  94
ATOM     94  C   UNL     1      11.289   5.041  -2.683  1.00  0.00     0.115 C 
ATOM     95  C   UNL     1      11.886   3.712  -2.404  1.00  0.00     0.123 C 
ATOM     96  C   UNL     1      12.183   5.464  -3.802  1.00  0.00     0.083 C 
ATOM     97  N   UNL     1      12.788   3.383  -3.273  1.00  0.00    -0.162 NA
ATOM     98  N   UNL     1      12.973   4.496  -4.172  1.00  0.00    -0.154 NA
BRANCH  96  99
ATOM     99  C   UNL     1      12.074   6.761  -4.502  1.00  0.00    -0.001 A 
ATOM    100  C   UNL     1      12.214   6.770  -5.894  1.00  0.00     0.013 A 
ATOM    101  C   UNL     1      11.830   7.965  -3.829  1.00  0.00     0.013 A 
ATOM    102  C   UNL     1      12.075   7.967  -6.602  1.00  0.00     0.040 A 
ATOM    103  C   UNL     1      11.687   9.158  -4.537  1.00  0.00     0.040 A 
ATOM    104  C   UNL     1      11.806   9.148  -5.918  1.00  0.00     0.123 A 
ATOM    105  F   UNL     1      11.671  10.294  -6.597  1.00  0.00    -0.207 F 
ENDBRANCH  96  99
ENDBRANCH  83  94
ENDBRANCH  77  80
ENDBRANCH  75  76
ENDBRANCH  74  75
ENDBRANCH  73  74
ENDBRANCH   1  73
TORSDOF 18
