REMARK SMILES O=C(NCCCCCCNC(=O)c1cc(Br)ccc1OCc1ccccc1F)c1ccc(-c2c3nc(c(-c4cc(S(=O)(=O)[O-])ccc4F)c4ccc([nH]4)c(-c4cc(S(=O)(=O)[O-])ccc4F)c4nc(c(-c5cc(S(=O)(=O)[O-])ccc5F)c5ccc2[nH]5)C=C4)C=C3)cc1
REMARK SMILES IDX 6 1 5 2 4 3 3 4 1 5 2 6 29 8 30 9 91 10 31 11 90 12 32 13
REMARK SMILES IDX 33 14 34 15 84 16 35 17 89 18 83 19 85 20 36 21 88 22 82 23
REMARK SMILES IDX 81 24 37 26 69 27 49 28 68 29 50 30 53 31 67 32 86 33 51 34
REMARK SMILES IDX 52 35 66 37 87 38 54 39 38 40 39 41 47 42 40 43 46 44 48 45
REMARK SMILES IDX 45 46 41 47 42 48 43 49 44 50 70 51 71 52 79 53 72 54 78 55
REMARK SMILES IDX 80 56 77 57 73 58 74 59 75 60 76 61 55 62 56 63 64 64 57 65
REMARK SMILES IDX 63 66 65 67 62 68 58 69 59 70 60 71 61 72 7 73 8 74 9 75
REMARK SMILES IDX 10 76 11 77 12 79 13 80 14 81 19 82 15 83 18 84 16 85 17 86
REMARK SMILES IDX 20 87 21 88 22 89 23 90 27 91 24 92 26 93 28 94 25 95
REMARK H PARENT 3 7 85 25 53 36 10 78
REMARK Flexibility Score: inf
ROOT
ATOM      1  C   UNL     1       4.294  -2.855  -2.788  1.00  0.00     0.002 C 
ENDROOT
BRANCH   1   2
ATOM      2  C   UNL     1       4.732  -2.488  -1.373  1.00  0.00     0.021 C 
BRANCH   2   3
ATOM      3  C   UNL     1       4.501  -1.046  -0.943  1.00  0.00     0.116 C 
BRANCH   3   4
ATOM      4  N   UNL     1       3.097  -0.680  -0.871  1.00  0.00    -0.352 N 
ATOM      5  O   UNL     1       1.208   0.138   0.048  1.00  0.00    -0.269 OA
ATOM      6  C   UNL     1       2.428   0.001   0.120  1.00  0.00     0.251 C 
ATOM      7  H   UNL     1       2.547  -0.959  -1.638  1.00  0.00     0.163 HD
BRANCH   6   8
ATOM      8  C   UNL     1       3.163   0.538   1.291  1.00  0.00     0.039 A 
ATOM      9  C   UNL     1       4.373   1.221   1.140  1.00  0.00     0.014 A 
ATOM     10  C   UNL     1       2.623   0.356   2.570  1.00  0.00     0.014 A 
ATOM     11  C   UNL     1       5.105   1.596   2.265  1.00  0.00     0.010 A 
ATOM     12  C   UNL     1       3.329   0.792   3.697  1.00  0.00     0.010 A 
ATOM     13  C   UNL     1       4.593   1.383   3.556  1.00  0.00    -0.014 A 
BRANCH  13  14
ATOM     14  C   UNL     1       5.391   1.804   4.737  1.00  0.00     0.031 A 
ATOM     15  C   UNL     1       5.988   0.785   5.670  1.00  0.00     0.074 A 
ATOM     16  C   UNL     1       5.620   3.116   4.938  1.00  0.00     0.049 A 
ATOM     17  N   UNL     1       6.732   0.977   6.730  1.00  0.00    -0.248 NA
ATOM     18  C   UNL     1       5.712  -0.630   5.380  1.00  0.00     0.031 C 
ATOM     19  C   UNL     1       5.095   4.201   4.104  1.00  0.00     0.029 A 
ATOM     20  N   UNL     1       6.371   3.761   5.887  1.00  0.00    -0.354 N 
ATOM     21  C   UNL     1       6.996  -0.286   7.246  1.00  0.00     0.074 A 
ATOM     22  C   UNL     1       6.322  -1.239   6.388  1.00  0.00     0.031 C 
ATOM     23  C   UNL     1       5.583   5.370   4.547  1.00  0.00     0.029 A 
ATOM     24  C   UNL     1       6.415   5.124   5.720  1.00  0.00     0.049 A 
ATOM     25  H   UNL     1       6.835   3.292   6.618  1.00  0.00     0.167 HD
ATOM     26  C   UNL     1       7.735  -0.622   8.332  1.00  0.00     0.034 A 
ATOM     27  C   UNL     1       7.048   6.075   6.434  1.00  0.00     0.034 A 
ATOM     28  C   UNL     1       8.427   0.325   9.169  1.00  0.00     0.049 A 
ATOM     29  C   UNL     1       7.857   5.677   7.634  1.00  0.00     0.074 A 
ATOM     30  C   UNL     1       9.226   0.077  10.273  1.00  0.00     0.029 A 
ATOM     31  N   UNL     1       8.403   1.701   8.998  1.00  0.00    -0.354 N 
ATOM     32  N   UNL     1       8.072   4.478   8.119  1.00  0.00    -0.248 NA
ATOM     33  C   UNL     1       8.498   6.762   8.390  1.00  0.00     0.031 C 
ATOM     34  C   UNL     1       9.655   1.305  10.790  1.00  0.00     0.029 A 
ATOM     35  C   UNL     1       9.157   2.315   9.985  1.00  0.00     0.049 A 
ATOM     36  H   UNL     1       7.921   2.172   8.280  1.00  0.00     0.167 HD
ATOM     37  C   UNL     1       8.869   4.664   9.242  1.00  0.00     0.074 A 
ATOM     38  C   UNL     1       9.109   6.088   9.356  1.00  0.00     0.031 C 
ATOM     39  C   UNL     1       9.359   3.737  10.101  1.00  0.00     0.034 A 
BRANCH  26  40
ATOM     40  C   UNL     1       7.803  -2.078   8.700  1.00  0.00     0.023 A 
ATOM     41  C   UNL     1       8.577  -2.989   7.964  1.00  0.00     0.031 A 
ATOM     42  C   UNL     1       7.093  -2.554   9.816  1.00  0.00     0.131 A 
ATOM     43  C   UNL     1       8.593  -4.343   8.331  1.00  0.00     0.055 A 
ATOM     44  C   UNL     1       7.154  -3.892  10.207  1.00  0.00     0.041 A 
ATOM     45  F   UNL     1       6.328  -1.724  10.542  1.00  0.00    -0.206 F 
ATOM     46  C   UNL     1       7.903  -4.796   9.460  1.00  0.00     0.022 A 
BRANCH  43  47
ATOM     47  S   UNL     1       9.491  -5.524   7.288  1.00  0.00     0.124 S 
ATOM     48  O   UNL     1       8.644  -5.566   6.099  1.00  0.00    -0.237 OA
ATOM     49  O   UNL     1      10.791  -4.883   7.122  1.00  0.00    -0.237 OA
ATOM     50  O   UNL     1       9.499  -6.748   8.087  1.00  0.00    -0.744 OA
ENDBRANCH  43  47
ENDBRANCH  26  40
BRANCH  27  51
ATOM     51  C   UNL     1       6.912   7.501   6.044  1.00  0.00     0.023 A 
ATOM     52  C   UNL     1       7.969   8.185   5.428  1.00  0.00     0.031 A 
ATOM     53  C   UNL     1       5.708   8.190   6.271  1.00  0.00     0.131 A 
ATOM     54  C   UNL     1       7.807   9.532   5.070  1.00  0.00     0.055 A 
ATOM     55  C   UNL     1       5.543   9.521   5.889  1.00  0.00     0.041 A 
ATOM     56  F   UNL     1       4.668   7.566   6.845  1.00  0.00    -0.206 F 
ATOM     57  C   UNL     1       6.598  10.201   5.287  1.00  0.00     0.022 A 
BRANCH  54  58
ATOM     58  S   UNL     1       9.203  10.407   4.312  1.00  0.00     0.124 S 
ATOM     59  O   UNL     1      10.164  10.439   5.409  1.00  0.00    -0.237 OA
ATOM     60  O   UNL     1       9.538   9.536   3.190  1.00  0.00    -0.237 OA
ATOM     61  O   UNL     1       8.633  11.700   3.942  1.00  0.00    -0.744 OA
ENDBRANCH  54  58
ENDBRANCH  27  51
BRANCH  39  62
ATOM     62  C   UNL     1      10.203   4.242  11.235  1.00  0.00     0.023 A 
ATOM     63  C   UNL     1       9.618   4.836  12.365  1.00  0.00     0.031 A 
ATOM     64  C   UNL     1      11.601   4.120  11.187  1.00  0.00     0.131 A 
ATOM     65  C   UNL     1      10.436   5.316  13.398  1.00  0.00     0.055 A 
ATOM     66  C   UNL     1      12.408   4.569  12.232  1.00  0.00     0.041 A 
ATOM     67  F   UNL     1      12.200   3.559  10.125  1.00  0.00    -0.206 F 
ATOM     68  C   UNL     1      11.826   5.175  13.344  1.00  0.00     0.022 A 
BRANCH  65  69
ATOM     69  S   UNL     1       9.665   6.139  14.818  1.00  0.00     0.124 S 
ATOM     70  O   UNL     1       9.228   7.402  14.232  1.00  0.00    -0.237 OA
ATOM     71  O   UNL     1       8.604   5.210  15.192  1.00  0.00    -0.237 OA
ATOM     72  O   UNL     1      10.758   6.248  15.784  1.00  0.00    -0.744 OA
ENDBRANCH  65  69
ENDBRANCH  39  62
ENDBRANCH  13  14
ENDBRANCH   6   8
ENDBRANCH   3   4
ENDBRANCH   2   3
ENDBRANCH   1   2
BRANCH   1  73
ATOM     73  C   UNL     1       4.809  -1.986  -3.938  1.00  0.00     0.002 C 
BRANCH  73  74
ATOM     74  C   UNL     1       6.309  -1.680  -4.013  1.00  0.00     0.021 C 
BRANCH  74  75
ATOM     75  C   UNL     1       7.290  -2.832  -3.817  1.00  0.00     0.116 C 
BRANCH  75  76
ATOM     76  N   UNL     1       6.971  -4.025  -4.573  1.00  0.00    -0.352 N 
ATOM     77  C   UNL     1       7.852  -4.933  -5.102  1.00  0.00     0.255 C 
ATOM     78  H   UNL     1       6.014  -4.205  -4.723  1.00  0.00     0.163 HD
ATOM     79  O   UNL     1       7.492  -6.075  -5.369  1.00  0.00    -0.269 OA
BRANCH  77  80
ATOM     80  C   UNL     1       9.257  -4.547  -5.290  1.00  0.00     0.082 A 
ATOM     81  C   UNL     1      10.082  -4.824  -4.184  1.00  0.00     0.033 A 
ATOM     82  C   UNL     1       9.792  -3.991  -6.461  1.00  0.00     0.132 A 
ATOM     83  C   UNL     1      11.438  -4.518  -4.230  1.00  0.00     0.019 A 
ATOM     84  C   UNL     1      11.166  -3.691  -6.473  1.00  0.00     0.048 A 
ATOM     85  Br  UNL     1      12.540  -4.888  -2.743  1.00  0.00    -0.051 Br
ATOM     86  C   UNL     1      11.985  -3.945  -5.370  1.00  0.00     0.019 A 
BRANCH  82  87
ATOM     87  O   UNL     1       9.218  -3.692  -7.664  1.00  0.00    -0.488 OA
BRANCH  87  88
ATOM     88  C   UNL     1       7.822  -3.841  -7.915  1.00  0.00     0.268 C 
BRANCH  88  89
ATOM     89  C   UNL     1       7.396  -5.244  -8.261  1.00  0.00     0.025 A 
ATOM     90  C   UNL     1       8.298  -6.231  -8.684  1.00  0.00     0.010 A 
ATOM     91  C   UNL     1       6.045  -5.586  -8.146  1.00  0.00     0.129 A 
ATOM     92  C   UNL     1       7.858  -7.535  -8.926  1.00  0.00     0.001 A 
ATOM     93  C   UNL     1       5.599  -6.882  -8.388  1.00  0.00     0.039 A 
ATOM     94  F   UNL     1       5.152  -4.656  -7.773  1.00  0.00    -0.207 F 
ATOM     95  C   UNL     1       6.511  -7.864  -8.769  1.00  0.00     0.003 A 
ENDBRANCH  88  89
ENDBRANCH  87  88
ENDBRANCH  82  87
ENDBRANCH  77  80
ENDBRANCH  75  76
ENDBRANCH  74  75
ENDBRANCH  73  74
ENDBRANCH   1  73
TORSDOF 19
