REMARK SMILES Cc1ccccc1C(=O)Nc1cc(NC(=O)c2ccccc2C)cc(C(=O)NCCCCCCNC(=O)c2ccc(-c3c4nc(c(-c5cc(S(=O)(=O)[O-])ccc5F)c5ccc([nH]5)c(-c5cc(S(=O)(=O)[O-])ccc5F)c5nc(c(-c6cc(S(=O)(=O)[O-])ccc6F)c6ccc3[nH]6)C=C5)C=C4)cc2)c1
REMARK SMILES IDX 32 1 31 2 30 3 29 4 28 5 26 6 27 7 25 9 11 10 12 11 101 12
REMARK SMILES IDX 13 13 24 14 10 15 8 16 9 17 7 19 1 20 2 21 3 22 4 23 6 24
REMARK SMILES IDX 5 25 14 26 15 27 16 29 17 30 18 31 22 32 19 33 21 34 23 35
REMARK SMILES IDX 20 36 33 37 34 38 35 39 36 40 37 42 38 43 39 44 100 45 40 46
REMARK SMILES IDX 99 47 41 48 42 49 43 50 93 51 44 52 98 53 92 54 94 55 45 56
REMARK SMILES IDX 97 57 91 58 90 59 46 61 78 62 58 63 77 64 59 65 62 66 76 67
REMARK SMILES IDX 95 68 60 69 61 70 75 72 96 73 63 74 47 75 48 76 56 77 49 78
REMARK SMILES IDX 55 79 57 80 54 81 50 82 51 83 52 84 53 85 79 86 80 87 88 88
REMARK SMILES IDX 81 89 87 90 89 91 86 92 82 93 83 94 84 95 85 96 64 97 65 98
REMARK SMILES IDX 73 99 66 100 72 101 74 102 71 103 67 104 68 105 69 106
REMARK SMILES IDX 70 107
REMARK H PARENT 28 8 10 18 14 28 35 41 94 60 62 71
REMARK Flexibility Score: inf
ROOT
ATOM      1  C   UNL     1       8.015  -4.828   1.857  1.00  0.00     0.002 C 
ENDROOT
BRANCH   1   2
ATOM      2  C   UNL     1       8.862  -3.816   1.074  1.00  0.00     0.002 C 
BRANCH   2   3
ATOM      3  C   UNL     1       8.183  -3.066  -0.064  1.00  0.00     0.021 C 
BRANCH   3   4
ATOM      4  C   UNL     1       6.872  -2.389   0.289  1.00  0.00     0.116 C 
BRANCH   4   5
ATOM      5  N   UNL     1       6.920  -1.350   1.302  1.00  0.00    -0.352 N 
ATOM      6  C   UNL     1       6.060  -0.289   1.529  1.00  0.00     0.251 C 
ATOM      7  O   UNL     1       6.271   0.475   2.459  1.00  0.00    -0.269 OA
ATOM      8  H   UNL     1       7.681  -1.409   1.923  1.00  0.00     0.163 HD
BRANCH   6   9
ATOM      9  C   UNL     1       4.872  -0.035   0.654  1.00  0.00     0.043 A 
ATOM     10  C   UNL     1       3.074   1.420  -0.032  1.00  0.00     0.044 A 
ATOM     11  C   UNL     1       2.661   0.491  -0.987  1.00  0.00     0.052 A 
ATOM     12  C   UNL     1       4.270   1.230   0.670  1.00  0.00     0.040 A 
ATOM     13  C   UNL     1       3.272  -0.752  -1.029  1.00  0.00     0.044 A 
ATOM     14  C   UNL     1       4.262  -1.037  -0.098  1.00  0.00     0.040 A 
BRANCH  10  15
ATOM     15  N   UNL     1       2.233   2.462   0.384  1.00  0.00    -0.322 N 
ATOM     16  C   UNL     1       0.856   2.453   0.550  1.00  0.00     0.255 C 
ATOM     17  O   UNL     1       0.292   3.512   0.834  1.00  0.00    -0.269 OA
ATOM     18  H   UNL     1       2.680   3.315   0.586  1.00  0.00     0.170 HD
BRANCH  16  19
ATOM     19  C   UNL     1       0.013   1.214   0.427  1.00  0.00     0.043 A 
ATOM     20  C   UNL     1       1.393  -0.374   1.944  1.00  0.00     0.045 C 
ATOM     21  C   UNL     1       0.299  -0.063   0.960  1.00  0.00    -0.038 A 
ATOM     22  C   UNL     1      -0.539  -1.147   0.625  1.00  0.00     0.004 A 
ATOM     23  C   UNL     1      -1.717  -0.955  -0.091  1.00  0.00     0.000 A 
ATOM     24  C   UNL     1      -1.208   1.396  -0.250  1.00  0.00     0.014 A 
ATOM     25  C   UNL     1      -2.076   0.326  -0.487  1.00  0.00     0.001 A 
ENDBRANCH  16  19
ENDBRANCH  10  15
BRANCH  13  26
ATOM     26  N   UNL     1       2.928  -1.793  -1.901  1.00  0.00    -0.322 N 
ATOM     27  C   UNL     1       2.337  -1.786  -3.139  1.00  0.00     0.255 C 
ATOM     28  H   UNL     1       3.152  -2.691  -1.565  1.00  0.00     0.170 HD
ATOM     29  O   UNL     1       1.965  -2.849  -3.633  1.00  0.00    -0.269 OA
BRANCH  27  30
ATOM     30  C   UNL     1       2.158  -0.533  -3.907  1.00  0.00     0.043 A 
ATOM     31  C   UNL     1       0.858  -0.308  -4.386  1.00  0.00     0.014 A 
ATOM     32  C   UNL     1       3.188   0.390  -4.180  1.00  0.00    -0.038 A 
ATOM     33  C   UNL     1       0.552   0.867  -5.065  1.00  0.00     0.001 A 
ATOM     34  C   UNL     1       2.847   1.588  -4.832  1.00  0.00     0.004 A 
ATOM     35  C   UNL     1       4.633   0.187  -3.811  1.00  0.00     0.045 C 
ATOM     36  C   UNL     1       1.541   1.825  -5.266  1.00  0.00     0.000 A 
ENDBRANCH  27  30
ENDBRANCH  13  26
ENDBRANCH   6   9
ENDBRANCH   4   5
ENDBRANCH   3   4
ENDBRANCH   2   3
ENDBRANCH   1   2
BRANCH   1  37
ATOM     37  C   UNL     1       7.389  -5.975   1.071  1.00  0.00     0.021 C 
BRANCH  37  38
ATOM     38  C   UNL     1       8.336  -6.827   0.233  1.00  0.00     0.116 C 
BRANCH  38  39
ATOM     39  N   UNL     1       8.891  -8.018   0.877  1.00  0.00    -0.352 N 
ATOM     40  C   UNL     1       9.572  -9.090   0.302  1.00  0.00     0.251 C 
ATOM     41  H   UNL     1       8.765  -8.070   1.853  1.00  0.00     0.163 HD
ATOM     42  O   UNL     1       9.972 -10.035   0.972  1.00  0.00    -0.269 OA
BRANCH  40  43
ATOM     43  C   UNL     1       9.975  -9.005  -1.129  1.00  0.00     0.039 A 
ATOM     44  C   UNL     1      11.347  -9.101  -1.395  1.00  0.00     0.014 A 
ATOM     45  C   UNL     1       9.125  -8.411  -2.048  1.00  0.00     0.014 A 
ATOM     46  C   UNL     1      11.901  -8.258  -2.349  1.00  0.00     0.010 A 
ATOM     47  C   UNL     1       9.670  -7.466  -2.885  1.00  0.00     0.010 A 
ATOM     48  C   UNL     1      11.057  -7.337  -2.962  1.00  0.00    -0.014 A 
BRANCH  48  49
ATOM     49  C   UNL     1      11.532  -6.193  -3.714  1.00  0.00     0.031 A 
ATOM     50  C   UNL     1      11.654  -6.364  -5.168  1.00  0.00     0.074 A 
ATOM     51  C   UNL     1      11.838  -5.036  -3.088  1.00  0.00     0.049 A 
ATOM     52  N   UNL     1      12.597  -5.861  -5.880  1.00  0.00    -0.248 NA
ATOM     53  C   UNL     1      10.746  -7.218  -5.931  1.00  0.00     0.031 C 
ATOM     54  C   UNL     1      12.152  -3.746  -3.695  1.00  0.00     0.029 A 
ATOM     55  N   UNL     1      12.062  -4.809  -1.742  1.00  0.00    -0.354 N 
ATOM     56  C   UNL     1      12.251  -6.055  -7.199  1.00  0.00     0.074 A 
ATOM     57  C   UNL     1      11.171  -7.009  -7.179  1.00  0.00     0.031 C 
ATOM     58  C   UNL     1      12.747  -2.960  -2.775  1.00  0.00     0.029 A 
ATOM     59  C   UNL     1      12.974  -3.764  -1.584  1.00  0.00     0.049 A 
ATOM     60  H   UNL     1      11.642  -5.311  -1.006  1.00  0.00     0.167 HD
ATOM     61  C   UNL     1      12.786  -5.241  -8.149  1.00  0.00     0.034 A 
ATOM     62  C   UNL     1      14.202  -3.973  -1.015  1.00  0.00     0.034 A 
ATOM     63  C   UNL     1      13.666  -4.255  -7.528  1.00  0.00     0.049 A 
ATOM     64  C   UNL     1      15.335  -3.858  -2.023  1.00  0.00     0.074 A 
ATOM     65  C   UNL     1      13.434  -2.957  -7.103  1.00  0.00     0.029 A 
ATOM     66  N   UNL     1      14.841  -4.667  -6.914  1.00  0.00    -0.354 N 
ATOM     67  N   UNL     1      15.179  -3.862  -3.320  1.00  0.00    -0.248 NA
ATOM     68  C   UNL     1      16.735  -3.747  -1.631  1.00  0.00     0.031 C 
ATOM     69  C   UNL     1      14.447  -2.617  -6.171  1.00  0.00     0.029 A 
ATOM     70  C   UNL     1      15.317  -3.689  -6.061  1.00  0.00     0.049 A 
ATOM     71  H   UNL     1      15.275  -5.538  -7.065  1.00  0.00     0.167 HD
ATOM     72  C   UNL     1      16.405  -3.809  -3.936  1.00  0.00     0.074 A 
ATOM     73  C   UNL     1      17.340  -3.684  -2.829  1.00  0.00     0.031 C 
ATOM     74  C   UNL     1      16.542  -3.899  -5.298  1.00  0.00     0.034 A 
BRANCH  61  75
ATOM     75  C   UNL     1      12.234  -5.095  -9.546  1.00  0.00     0.023 A 
ATOM     76  C   UNL     1      12.340  -3.840 -10.176  1.00  0.00     0.031 A 
ATOM     77  C   UNL     1      11.579  -6.094 -10.290  1.00  0.00     0.131 A 
ATOM     78  C   UNL     1      11.742  -3.585 -11.420  1.00  0.00     0.055 A 
ATOM     79  C   UNL     1      10.947  -5.833 -11.516  1.00  0.00     0.041 A 
ATOM     80  F   UNL     1      11.557  -7.373  -9.887  1.00  0.00    -0.206 F 
ATOM     81  C   UNL     1      11.017  -4.568 -12.084  1.00  0.00     0.022 A 
BRANCH  78  82
ATOM     82  S   UNL     1      11.931  -1.936 -12.147  1.00  0.00     0.124 S 
ATOM     83  O   UNL     1      11.283  -1.087 -11.153  1.00  0.00    -0.237 OA
ATOM     84  O   UNL     1      13.381  -1.811 -12.256  1.00  0.00    -0.237 OA
ATOM     85  O   UNL     1      11.225  -2.045 -13.422  1.00  0.00    -0.744 OA
ENDBRANCH  78  82
ENDBRANCH  61  75
BRANCH  62  86
ATOM     86  C   UNL     1      14.165  -4.990   0.080  1.00  0.00     0.023 A 
ATOM     87  C   UNL     1      13.458  -4.676   1.260  1.00  0.00     0.031 A 
ATOM     88  C   UNL     1      14.364  -6.342  -0.234  1.00  0.00     0.131 A 
ATOM     89  C   UNL     1      12.792  -5.693   1.961  1.00  0.00     0.055 A 
ATOM     90  C   UNL     1      13.691  -7.344   0.465  1.00  0.00     0.041 A 
ATOM     91  F   UNL     1      15.078  -6.700  -1.311  1.00  0.00    -0.206 F 
ATOM     92  C   UNL     1      12.840  -7.015   1.516  1.00  0.00     0.022 A 
BRANCH  89  93
ATOM     93  S   UNL     1      11.703  -5.283   3.352  1.00  0.00     0.124 S 
ATOM     94  O   UNL     1      12.606  -5.388   4.490  1.00  0.00    -0.237 OA
ATOM     95  O   UNL     1      11.252  -3.933   3.030  1.00  0.00    -0.237 OA
ATOM     96  O   UNL     1      10.668  -6.312   3.270  1.00  0.00    -0.744 OA
ENDBRANCH  89  93
ENDBRANCH  62  86
BRANCH  74  97
ATOM     97  C   UNL     1      17.851  -4.090  -6.046  1.00  0.00     0.023 A 
ATOM     98  C   UNL     1      19.056  -4.379  -5.400  1.00  0.00     0.031 A 
ATOM     99  C   UNL     1      17.934  -4.015  -7.460  1.00  0.00     0.131 A 
ATOM    100  C   UNL     1      20.274  -4.419  -6.097  1.00  0.00     0.055 A 
ATOM    101  C   UNL     1      19.131  -4.176  -8.168  1.00  0.00     0.041 A 
ATOM    102  F   UNL     1      16.860  -3.788  -8.229  1.00  0.00    -0.206 F 
ATOM    103  C   UNL     1      20.321  -4.343  -7.483  1.00  0.00     0.022 A 
BRANCH 100 104
ATOM    104  S   UNL     1      21.793  -4.441  -5.115  1.00  0.00     0.124 S 
ATOM    105  O   UNL     1      21.687  -3.186  -4.375  1.00  0.00    -0.237 OA
ATOM    106  O   UNL     1      21.635  -5.656  -4.321  1.00  0.00    -0.237 OA
ATOM    107  O   UNL     1      22.852  -4.484  -6.120  1.00  0.00    -0.744 OA
ENDBRANCH 100 104
ENDBRANCH  74  97
ENDBRANCH  48  49
ENDBRANCH  40  43
ENDBRANCH  38  39
ENDBRANCH  37  38
ENDBRANCH   1  37
TORSDOF 20
