REMARK SMILES C[C@H]1[C@@H](C(=O)NCCCCCCNC(=O)c2ccc(-c3c4nc(c(-c5cc(S(=O)(=O)[O-])ccc5F)c5ccc([nH]5)c(-c5cc(S(=O)(=O)[O-])ccc5F)c5nc(c(-c6cc(S(=O)(=O)[O-])ccc6F)c6ccc3[nH]6)C=C5)C=C4)cc2)CC[N@@H+]1Cc1cc(F)c(F)c(F)c1
REMARK SMILES IDX 10 1 9 2 8 3 7 4 6 5 4 6 5 7 3 9 1 10 2 11 81 12 79 13 80 14
REMARK SMILES IDX 82 16 83 17 84 18 91 19 85 20 89 21 86 22 87 23 90 24 88 25
REMARK SMILES IDX 11 26 12 27 13 28 14 29 15 31 16 32 17 33 78 34 18 35 77 36
REMARK SMILES IDX 19 37 20 38 21 39 71 40 22 41 76 42 70 43 72 44 23 45 75 46
REMARK SMILES IDX 69 47 68 48 24 50 56 51 36 52 55 53 37 54 40 55 54 56 73 57
REMARK SMILES IDX 38 58 39 59 53 61 74 62 41 63 25 64 26 65 34 66 27 67 33 68
REMARK SMILES IDX 35 69 32 70 28 71 29 72 30 73 31 74 57 75 58 76 66 77 59 78
REMARK SMILES IDX 65 79 67 80 64 81 60 82 61 83 62 84 63 85 42 86 43 87 51 88
REMARK SMILES IDX 44 89 50 90 52 91 49 92 45 93 46 94 47 95 48 96
REMARK H PARENT 6 8 81 15 13 30 72 49 40 60
REMARK Flexibility Score: inf
ROOT
ATOM      1  C   UNL     1       5.668   1.934  -2.782  1.00  0.00     0.002 C 
ENDROOT
BRANCH   1   2
ATOM      2  C   UNL     1       4.374   1.212  -3.158  1.00  0.00     0.002 C 
BRANCH   2   3
ATOM      3  C   UNL     1       3.584   0.675  -1.962  1.00  0.00     0.021 C 
BRANCH   3   4
ATOM      4  C   UNL     1       2.911   1.766  -1.120  1.00  0.00     0.116 C 
BRANCH   4   5
ATOM      5  N   UNL     1       1.638   2.079  -1.724  1.00  0.00    -0.356 N 
ATOM      6  C   UNL     1       0.425   1.501  -1.513  1.00  0.00     0.229 C 
ATOM      7  O   UNL     1      -0.362   1.558  -2.464  1.00  0.00    -0.275 OA
ATOM      8  H   UNL     1       1.650   2.813  -2.380  1.00  0.00     0.163 HD
BRANCH   6   9
ATOM      9  C   UNL     1      -0.003   1.008  -0.122  1.00  0.00     0.142 C 
ATOM     10  C   UNL     1       1.666  -1.077  -0.042  1.00  0.00     0.076 C 
ATOM     11  C   UNL     1       0.478  -0.320   0.522  1.00  0.00     0.193 C 
ATOM     12  N   UNL     1      -0.655  -1.262   0.470  1.00  0.00    -0.328 N 
ATOM     13  C   UNL     1      -1.533   0.822  -0.130  1.00  0.00     0.081 C 
ATOM     14  C   UNL     1      -1.699  -0.668  -0.346  1.00  0.00     0.263 C 
ATOM     15  H   UNL     1      -0.355  -2.119   0.006  1.00  0.00     0.348 HD
BRANCH  12  16
ATOM     16  C   UNL     1      -1.048  -1.879   1.738  1.00  0.00     0.299 C 
BRANCH  16  17
ATOM     17  C   UNL     1      -1.632  -0.970   2.799  1.00  0.00     0.012 A 
ATOM     18  C   UNL     1      -0.860  -0.552   3.896  1.00  0.00     0.052 A 
ATOM     19  C   UNL     1      -2.963  -0.527   2.713  1.00  0.00     0.052 A 
ATOM     20  C   UNL     1      -1.402   0.310   4.851  1.00  0.00     0.162 A 
ATOM     21  C   UNL     1      -3.479   0.354   3.661  1.00  0.00     0.162 A 
ATOM     22  F   UNL     1      -0.648   0.692   5.890  1.00  0.00    -0.204 F 
ATOM     23  C   UNL     1      -2.703   0.775   4.729  1.00  0.00     0.194 A 
ATOM     24  F   UNL     1      -4.735   0.800   3.520  1.00  0.00    -0.204 F 
ATOM     25  F   UNL     1      -3.209   1.623   5.637  1.00  0.00    -0.200 F 
ENDBRANCH  16  17
ENDBRANCH  12  16
ENDBRANCH   6   9
ENDBRANCH   4   5
ENDBRANCH   3   4
ENDBRANCH   2   3
ENDBRANCH   1   2
BRANCH   1  26
ATOM     26  C   UNL     1       6.610   1.141  -1.870  1.00  0.00     0.021 C 
BRANCH  26  27
ATOM     27  C   UNL     1       6.971  -0.252  -2.382  1.00  0.00     0.116 C 
BRANCH  27  28
ATOM     28  N   UNL     1       7.655  -0.190  -3.663  1.00  0.00    -0.352 N 
ATOM     29  C   UNL     1       8.954  -0.505  -3.964  1.00  0.00     0.251 C 
ATOM     30  H   UNL     1       7.109   0.123  -4.420  1.00  0.00     0.163 HD
ATOM     31  O   UNL     1       9.441  -0.129  -5.032  1.00  0.00    -0.269 OA
BRANCH  29  32
ATOM     32  C   UNL     1       9.766  -1.281  -3.006  1.00  0.00     0.039 A 
ATOM     33  C   UNL     1      11.077  -0.879  -2.742  1.00  0.00     0.014 A 
ATOM     34  C   UNL     1       9.239  -2.417  -2.383  1.00  0.00     0.014 A 
ATOM     35  C   UNL     1      11.844  -1.587  -1.813  1.00  0.00     0.010 A 
ATOM     36  C   UNL     1       9.980  -3.080  -1.408  1.00  0.00     0.010 A 
ATOM     37  C   UNL     1      11.293  -2.677  -1.119  1.00  0.00    -0.014 A 
BRANCH  37  38
ATOM     38  C   UNL     1      12.080  -3.415  -0.097  1.00  0.00     0.031 A 
ATOM     39  C   UNL     1      12.441  -4.858  -0.323  1.00  0.00     0.074 A 
ATOM     40  C   UNL     1      12.418  -2.802   1.054  1.00  0.00     0.049 A 
ATOM     41  N   UNL     1      13.058  -5.692   0.473  1.00  0.00    -0.248 NA
ATOM     42  C   UNL     1      12.024  -5.446  -1.605  1.00  0.00     0.031 C 
ATOM     43  C   UNL     1      12.091  -1.417   1.401  1.00  0.00     0.029 A 
ATOM     44  N   UNL     1      13.102  -3.264   2.150  1.00  0.00    -0.354 N 
ATOM     45  C   UNL     1      13.095  -6.906  -0.204  1.00  0.00     0.074 A 
ATOM     46  C   UNL     1      12.380  -6.712  -1.448  1.00  0.00     0.031 C 
ATOM     47  C   UNL     1      12.595  -1.137   2.613  1.00  0.00     0.029 A 
ATOM     48  C   UNL     1      13.241  -2.330   3.150  1.00  0.00     0.049 A 
ATOM     49  H   UNL     1      13.461  -4.179   2.213  1.00  0.00     0.167 HD
ATOM     50  C   UNL     1      13.691  -8.068   0.166  1.00  0.00     0.034 A 
ATOM     51  C   UNL     1      13.812  -2.429   4.367  1.00  0.00     0.034 A 
ATOM     52  C   UNL     1      14.408  -8.239   1.407  1.00  0.00     0.049 A 
ATOM     53  C   UNL     1      14.442  -3.738   4.770  1.00  0.00     0.074 A 
ATOM     54  C   UNL     1      15.095  -9.351   1.861  1.00  0.00     0.029 A 
ATOM     55  N   UNL     1      14.522  -7.272   2.400  1.00  0.00    -0.354 N 
ATOM     56  N   UNL     1      14.513  -4.863   4.097  1.00  0.00    -0.248 NA
ATOM     57  C   UNL     1      15.077  -3.786   6.093  1.00  0.00     0.031 C 
ATOM     58  C   UNL     1      15.565  -9.082   3.151  1.00  0.00     0.029 A 
ATOM     59  C   UNL     1      15.239  -7.775   3.475  1.00  0.00     0.049 A 
ATOM     60  H   UNL     1      14.149  -6.363   2.346  1.00  0.00     0.167 HD
ATOM     61  C   UNL     1      15.226  -5.744   4.905  1.00  0.00     0.074 A 
ATOM     62  C   UNL     1      15.576  -5.013   6.106  1.00  0.00     0.031 C 
ATOM     63  C   UNL     1      15.566  -7.039   4.674  1.00  0.00     0.034 A 
BRANCH  50  64
ATOM     64  C   UNL     1      13.565  -9.243  -0.775  1.00  0.00     0.023 A 
ATOM     65  C   UNL     1      14.093  -9.206  -2.078  1.00  0.00     0.031 A 
ATOM     66  C   UNL     1      12.879 -10.405  -0.379  1.00  0.00     0.131 A 
ATOM     67  C   UNL     1      13.855 -10.269  -2.962  1.00  0.00     0.055 A 
ATOM     68  C   UNL     1      12.720 -11.496  -1.236  1.00  0.00     0.041 A 
ATOM     69  F   UNL     1      12.334 -10.494   0.845  1.00  0.00    -0.206 F 
ATOM     70  C   UNL     1      13.195 -11.425  -2.542  1.00  0.00     0.022 A 
BRANCH  67  71
ATOM     71  S   UNL     1      14.287 -10.053  -4.711  1.00  0.00     0.124 S 
ATOM     72  O   UNL     1      13.495  -8.877  -5.066  1.00  0.00    -0.237 OA
ATOM     73  O   UNL     1      15.731  -9.859  -4.658  1.00  0.00    -0.237 OA
ATOM     74  O   UNL     1      13.846 -11.301  -5.330  1.00  0.00    -0.744 OA
ENDBRANCH  67  71
ENDBRANCH  50  64
BRANCH  51  75
ATOM     75  C   UNL     1      13.810  -1.265   5.298  1.00  0.00     0.023 A 
ATOM     76  C   UNL     1      15.010  -0.645   5.682  1.00  0.00     0.031 A 
ATOM     77  C   UNL     1      12.611  -0.777   5.846  1.00  0.00     0.131 A 
ATOM     78  C   UNL     1      14.990   0.396   6.623  1.00  0.00     0.055 A 
ATOM     79  C   UNL     1      12.591   0.294   6.742  1.00  0.00     0.041 A 
ATOM     80  F   UNL     1      11.435  -1.329   5.507  1.00  0.00    -0.206 F 
ATOM     81  C   UNL     1      13.787   0.879   7.145  1.00  0.00     0.022 A 
BRANCH  78  82
ATOM     82  S   UNL     1      16.569   1.061   7.216  1.00  0.00     0.124 S 
ATOM     83  O   UNL     1      17.205  -0.131   7.766  1.00  0.00    -0.237 OA
ATOM     84  O   UNL     1      17.153   1.593   5.990  1.00  0.00    -0.237 OA
ATOM     85  O   UNL     1      16.168   2.064   8.199  1.00  0.00    -0.744 OA
ENDBRANCH  78  82
ENDBRANCH  51  75
BRANCH  63  86
ATOM     86  C   UNL     1      16.389  -7.728   5.734  1.00  0.00     0.023 A 
ATOM     87  C   UNL     1      15.868  -8.009   7.009  1.00  0.00     0.031 A 
ATOM     88  C   UNL     1      17.720  -8.096   5.468  1.00  0.00     0.131 A 
ATOM     89  C   UNL     1      16.690  -8.588   7.988  1.00  0.00     0.055 A 
ATOM     90  C   UNL     1      18.514  -8.727   6.426  1.00  0.00     0.041 A 
ATOM     91  F   UNL     1      18.270  -7.848   4.268  1.00  0.00    -0.206 F 
ATOM     92  C   UNL     1      18.004  -8.965   7.699  1.00  0.00     0.022 A 
BRANCH  89  93
ATOM     93  S   UNL     1      16.046  -8.760   9.675  1.00  0.00     0.124 S 
ATOM     94  O   UNL     1      15.733  -7.378  10.022  1.00  0.00    -0.237 OA
ATOM     95  O   UNL     1      14.902  -9.645   9.484  1.00  0.00    -0.237 OA
ATOM     96  O   UNL     1      17.165  -9.346  10.411  1.00  0.00    -0.744 OA
ENDBRANCH  89  93
ENDBRANCH  63  86
ENDBRANCH  37  38
ENDBRANCH  29  32
ENDBRANCH  27  28
ENDBRANCH  26  27
ENDBRANCH   1  26
TORSDOF 18
