REMARK SMILES O=C(NCCCCCCNC(=O)[C@@H]1CCCC[C@@H]1C(=O)Nc1cccc(C(F)(F)F)c1)c1ccc(-c2c3nc(c(-c4cc(S(=O)(=O)[O-])ccc4F)c4ccc([nH]4)c(-c4cc(S(=O)(=O)[O-])ccc4F)c4nc(c(-c5cc(S(=O)(=O)[O-])ccc5F)c5ccc2[nH]5)C=C4)C=C3)cc1
REMARK SMILES IDX 6 1 5 2 4 3 3 4 1 5 2 6 32 8 33 9 94 10 34 11 93 12 35 13
REMARK SMILES IDX 36 14 37 15 87 16 38 17 92 18 86 19 88 20 39 21 91 22 85 23
REMARK SMILES IDX 84 24 40 26 72 27 52 28 71 29 53 30 56 31 70 32 89 33 54 34
REMARK SMILES IDX 55 35 69 37 90 38 57 39 41 40 42 41 50 42 43 43 49 44 51 45
REMARK SMILES IDX 48 46 44 47 45 48 46 49 47 50 73 51 74 52 82 53 75 54 81 55
REMARK SMILES IDX 83 56 80 57 76 58 77 59 78 60 79 61 58 62 59 63 67 64 60 65
REMARK SMILES IDX 66 66 68 67 65 68 61 69 62 70 63 71 64 72 7 73 8 74 9 75
REMARK SMILES IDX 10 76 11 77 12 79 13 80 14 81 18 82 15 83 17 84 16 85 19 86
REMARK SMILES IDX 20 87 21 88 22 90 23 91 31 92 24 93 26 94 25 95 27 96 28 97
REMARK SMILES IDX 29 98 30 99
REMARK H PARENT 3 7 88 25 56 36 10 78 21 89
REMARK Flexibility Score: inf
ROOT
ATOM      1  C   UNL     1       4.080   0.183  -3.857  1.00  0.00     0.002 C 
ENDROOT
BRANCH   1   2
ATOM      2  C   UNL     1       4.487  -0.667  -2.655  1.00  0.00     0.021 C 
BRANCH   2   3
ATOM      3  C   UNL     1       4.300  -0.015  -1.294  1.00  0.00     0.116 C 
BRANCH   3   4
ATOM      4  N   UNL     1       2.909   0.227  -0.957  1.00  0.00    -0.352 N 
ATOM      5  O   UNL     1       1.062   0.128   0.343  1.00  0.00    -0.269 OA
ATOM      6  C   UNL     1       2.270  -0.038   0.234  1.00  0.00     0.251 C 
ATOM      7  H   UNL     1       2.355   0.628  -1.665  1.00  0.00     0.163 HD
BRANCH   6   8
ATOM      8  C   UNL     1       3.064  -0.558   1.371  1.00  0.00     0.039 A 
ATOM      9  C   UNL     1       4.262   0.060   1.738  1.00  0.00     0.014 A 
ATOM     10  C   UNL     1       2.625  -1.700   2.046  1.00  0.00     0.014 A 
ATOM     11  C   UNL     1       5.086  -0.541   2.682  1.00  0.00     0.010 A 
ATOM     12  C   UNL     1       3.416  -2.253   3.059  1.00  0.00     0.010 A 
ATOM     13  C   UNL     1       4.665  -1.693   3.368  1.00  0.00    -0.014 A 
BRANCH  13  14
ATOM     14  C   UNL     1       5.525  -2.240   4.449  1.00  0.00     0.031 A 
ATOM     15  C   UNL     1       6.159  -3.600   4.338  1.00  0.00     0.074 A 
ATOM     16  C   UNL     1       5.763  -1.465   5.526  1.00  0.00     0.049 A 
ATOM     17  N   UNL     1       6.955  -4.208   5.181  1.00  0.00    -0.248 NA
ATOM     18  C   UNL     1       5.854  -4.381   3.131  1.00  0.00     0.031 C 
ATOM     19  C   UNL     1       5.186  -0.134   5.743  1.00  0.00     0.029 A 
ATOM     20  N   UNL     1       6.562  -1.661   6.622  1.00  0.00    -0.354 N 
ATOM     21  C   UNL     1       7.243  -5.445   4.614  1.00  0.00     0.074 A 
ATOM     22  C   UNL     1       6.503  -5.513   3.370  1.00  0.00     0.031 C 
ATOM     23  C   UNL     1       5.689   0.385   6.872  1.00  0.00     0.029 A 
ATOM     24  C   UNL     1       6.567  -0.598   7.495  1.00  0.00     0.049 A 
ATOM     25  H   UNL     1       7.083  -2.483   6.770  1.00  0.00     0.167 HD
ATOM     26  C   UNL     1       8.056  -6.425   5.085  1.00  0.00     0.034 A 
ATOM     27  C   UNL     1       7.192  -0.435   8.676  1.00  0.00     0.034 A 
ATOM     28  C   UNL     1       8.779  -6.341   6.334  1.00  0.00     0.049 A 
ATOM     29  C   UNL     1       8.073  -1.544   9.181  1.00  0.00     0.074 A 
ATOM     30  C   UNL     1       9.623  -7.276   6.910  1.00  0.00     0.029 A 
ATOM     31  N   UNL     1       8.743  -5.258   7.204  1.00  0.00    -0.354 N 
ATOM     32  N   UNL     1       8.332  -2.707   8.629  1.00  0.00    -0.248 NA
ATOM     33  C   UNL     1       8.752  -1.315  10.460  1.00  0.00     0.031 C 
ATOM     34  C   UNL     1      10.053  -6.783   8.148  1.00  0.00     0.029 A 
ATOM     35  C   UNL     1       9.533  -5.510   8.317  1.00  0.00     0.049 A 
ATOM     36  H   UNL     1       8.230  -4.431   7.053  1.00  0.00     0.167 HD
ATOM     37  C   UNL     1       9.212  -3.346   9.495  1.00  0.00     0.074 A 
ATOM     38  C   UNL     1       9.467  -2.423  10.583  1.00  0.00     0.031 C 
ATOM     39  C   UNL     1       9.755  -4.587   9.405  1.00  0.00     0.034 A 
BRANCH  26  40
ATOM     40  C   UNL     1       8.176  -7.686   4.261  1.00  0.00     0.023 A 
ATOM     41  C   UNL     1       8.761  -7.680   2.982  1.00  0.00     0.031 A 
ATOM     42  C   UNL     1       7.692  -8.911   4.755  1.00  0.00     0.131 A 
ATOM     43  C   UNL     1       8.794  -8.858   2.219  1.00  0.00     0.055 A 
ATOM     44  C   UNL     1       7.792 -10.095   4.021  1.00  0.00     0.041 A 
ATOM     45  F   UNL     1       7.106  -8.977   5.962  1.00  0.00    -0.206 F 
ATOM     46  C   UNL     1       8.335 -10.070   2.739  1.00  0.00     0.022 A 
BRANCH  43  47
ATOM     47  S   UNL     1       9.336  -8.760   0.491  1.00  0.00     0.124 S 
ATOM     48  O   UNL     1       8.367  -7.821  -0.070  1.00  0.00    -0.237 OA
ATOM     49  O   UNL     1      10.703  -8.267   0.616  1.00  0.00    -0.237 OA
ATOM     50  O   UNL     1       9.210 -10.135   0.012  1.00  0.00    -0.744 OA
ENDBRANCH  43  47
ENDBRANCH  26  40
BRANCH  27  51
ATOM     51  C   UNL     1       6.975   0.805   9.473  1.00  0.00     0.023 A 
ATOM     52  C   UNL     1       8.029   1.689   9.747  1.00  0.00     0.031 A 
ATOM     53  C   UNL     1       5.705   1.109   9.995  1.00  0.00     0.131 A 
ATOM     54  C   UNL     1       7.804   2.813  10.557  1.00  0.00     0.055 A 
ATOM     55  C   UNL     1       5.473   2.257  10.752  1.00  0.00     0.041 A 
ATOM     56  F   UNL     1       4.660   0.299   9.757  1.00  0.00    -0.206 F 
ATOM     57  C   UNL     1       6.530   3.110  11.050  1.00  0.00     0.022 A 
BRANCH  54  58
ATOM     58  S   UNL     1       9.222   3.836  11.036  1.00  0.00     0.124 S 
ATOM     59  O   UNL     1      10.114   2.850  11.635  1.00  0.00    -0.237 OA
ATOM     60  O   UNL     1       9.643   4.386   9.752  1.00  0.00    -0.237 OA
ATOM     61  O   UNL     1       8.645   4.803  11.967  1.00  0.00    -0.744 OA
ENDBRANCH  54  58
ENDBRANCH  27  51
BRANCH  39  62
ATOM     62  C   UNL     1      10.694  -4.989  10.515  1.00  0.00     0.023 A 
ATOM     63  C   UNL     1      10.235  -5.177  11.832  1.00  0.00     0.031 A 
ATOM     64  C   UNL     1      12.069  -5.134  10.265  1.00  0.00     0.131 A 
ATOM     65  C   UNL     1      11.153  -5.430  12.861  1.00  0.00     0.055 A 
ATOM     66  C   UNL     1      12.970  -5.445  11.284  1.00  0.00     0.041 A 
ATOM     67  F   UNL     1      12.560  -4.962   9.028  1.00  0.00    -0.206 F 
ATOM     68  C   UNL     1      12.516  -5.578  12.594  1.00  0.00     0.022 A 
BRANCH  65  69
ATOM     69  S   UNL     1      10.554  -5.451  14.573  1.00  0.00     0.124 S 
ATOM     70  O   UNL     1       9.949  -4.129  14.700  1.00  0.00    -0.237 OA
ATOM     71  O   UNL     1       9.627  -6.578  14.565  1.00  0.00    -0.237 OA
ATOM     72  O   UNL     1      11.769  -5.654  15.359  1.00  0.00    -0.744 OA
ENDBRANCH  65  69
ENDBRANCH  39  62
ENDBRANCH  13  14
ENDBRANCH   6   8
ENDBRANCH   3   4
ENDBRANCH   2   3
ENDBRANCH   1   2
BRANCH   1  73
ATOM     73  C   UNL     1       4.655   1.599  -3.904  1.00  0.00     0.002 C 
BRANCH  73  74
ATOM     74  C   UNL     1       6.163   1.728  -3.676  1.00  0.00     0.021 C 
BRANCH  74  75
ATOM     75  C   UNL     1       7.053   0.869  -4.570  1.00  0.00     0.116 C 
BRANCH  75  76
ATOM     76  N   UNL     1       6.858   1.149  -5.978  1.00  0.00    -0.356 N 
ATOM     77  C   UNL     1       7.736   1.333  -6.991  1.00  0.00     0.223 C 
ATOM     78  H   UNL     1       5.914   1.216  -6.248  1.00  0.00     0.163 HD
ATOM     79  O   UNL     1       7.257   1.425  -8.127  1.00  0.00    -0.275 OA
BRANCH  77  80
ATOM     80  C   UNL     1       9.245   1.460  -6.799  1.00  0.00     0.091 C 
ATOM     81  C   UNL     1       9.847   0.173  -6.209  1.00  0.00     0.014 C 
ATOM     82  C   UNL     1       9.751   2.815  -6.242  1.00  0.00     0.091 C 
ATOM     83  C   UNL     1      11.343   0.273  -5.958  1.00  0.00     0.001 C 
ATOM     84  C   UNL     1      11.247   2.767  -5.849  1.00  0.00     0.014 C 
ATOM     85  C   UNL     1      11.662   1.496  -5.117  1.00  0.00     0.001 C 
BRANCH  82  86
ATOM     86  C   UNL     1       8.966   3.438  -5.098  1.00  0.00     0.228 C 
ATOM     87  O   UNL     1       9.229   3.139  -3.927  1.00  0.00    -0.274 OA
ATOM     88  N   UNL     1       8.005   4.388  -5.255  1.00  0.00    -0.326 N 
ATOM     89  H   UNL     1       7.746   4.781  -4.391  1.00  0.00     0.169 HD
BRANCH  88  90
ATOM     90  C   UNL     1       7.282   4.960  -6.315  1.00  0.00     0.041 A 
ATOM     91  C   UNL     1       6.400   5.994  -5.962  1.00  0.00     0.026 A 
ATOM     92  C   UNL     1       7.316   4.556  -7.646  1.00  0.00     0.039 A 
ATOM     93  C   UNL     1       5.566   6.594  -6.907  1.00  0.00     0.003 A 
ATOM     94  C   UNL     1       6.457   5.124  -8.607  1.00  0.00     0.058 A 
ATOM     95  C   UNL     1       5.586   6.152  -8.225  1.00  0.00     0.013 A 
BRANCH  94  96
ATOM     96  C   UNL     1       6.437   4.613 -10.028  1.00  0.00     0.416 C 
ATOM     97  F   UNL     1       5.247   4.038 -10.359  1.00  0.00    -0.166 F 
ATOM     98  F   UNL     1       6.622   5.617 -10.934  1.00  0.00    -0.166 F 
ATOM     99  F   UNL     1       7.398   3.692 -10.307  1.00  0.00    -0.166 F 
ENDBRANCH  94  96
ENDBRANCH  88  90
ENDBRANCH  82  86
ENDBRANCH  77  80
ENDBRANCH  75  76
ENDBRANCH  74  75
ENDBRANCH  73  74
ENDBRANCH   1  73
TORSDOF 19
