REMARK SMILES [H]/N=C1\C=CC2=NC(C(=O)NCCCCCCNC(=O)c3ccc(-c4c5nc(c(-c6cc(S(=O)(=O)[O-])ccc6F)c6ccc([nH]6)c(-c6cc(S(=O)(=O)[O-])ccc6F)c6nc(c(-c7cc(S(=O)(=O)[O-])ccc7F)c7ccc4[nH]7)C=C6)C=C5)cc3)=C[C@@H]2C1
REMARK SMILES IDX 16 1 15 2 14 3 13 4 12 5 11 6 9 7 10 8 8 10 2 11 3 12 1 13
REMARK SMILES IDX 4 14 86 15 5 16 85 17 6 18 84 19 7 20 17 21 18 22 19 23
REMARK SMILES IDX 20 25 21 26 22 27 83 28 23 29 82 30 24 31 25 32 26 33 76 34
REMARK SMILES IDX 27 35 81 36 75 37 77 38 28 39 80 40 74 41 73 42 29 44 61 45
REMARK SMILES IDX 41 46 60 47 42 48 45 49 59 50 78 51 43 52 44 53 58 55 79 56
REMARK SMILES IDX 46 57 30 58 31 59 39 60 32 61 38 62 40 63 37 64 33 65 34 66
REMARK SMILES IDX 35 67 36 68 62 69 63 70 71 71 64 72 70 73 72 74 69 75 65 76
REMARK SMILES IDX 66 77 67 78 68 79 47 80 48 81 56 82 49 83 55 84 57 85 54 86
REMARK SMILES IDX 50 87 51 88 52 89 53 90
REMARK H PARENT 11 9 18 24 77 43 45 54
REMARK Flexibility Score: inf
ROOT
ATOM      1  C   UNL     1      -9.689   4.283  -0.794  1.00  0.00     0.021 C 
ENDROOT
BRANCH   1   2
ATOM      2  C   UNL     1      -8.931   5.598  -0.564  1.00  0.00     0.002 C 
BRANCH   2   3
ATOM      3  C   UNL     1      -8.068   5.671   0.706  1.00  0.00     0.002 C 
BRANCH   3   4
ATOM      4  C   UNL     1      -7.066   4.524   0.898  1.00  0.00     0.021 C 
BRANCH   4   5
ATOM      5  C   UNL     1      -6.054   4.377  -0.238  1.00  0.00     0.116 C 
BRANCH   5   6
ATOM      6  N   UNL     1      -5.138   5.497  -0.244  1.00  0.00    -0.351 N 
ATOM      7  C   UNL     1      -3.795   5.642  -0.131  1.00  0.00     0.269 C 
ATOM      8  O   UNL     1      -3.390   6.808  -0.052  1.00  0.00    -0.268 OA
ATOM      9  H   UNL     1      -5.600   6.359  -0.357  1.00  0.00     0.163 HD
BRANCH   7  10
ATOM     10  C   UNL     1      -2.802   4.507  -0.215  1.00  0.00     0.125 C 
ATOM     11  N   UNL     1       0.909   0.052   0.173  1.00  0.00    -0.305 NA
ATOM     12  C   UNL     1       0.373   1.223   0.064  1.00  0.00     0.032 C 
ATOM     13  H   UNL     1       1.874  -0.064   0.015  1.00  0.00     0.187 HD
ATOM     14  C   UNL     1       1.188   2.425  -0.256  1.00  0.00     0.025 C 
ATOM     15  C   UNL     1      -1.121   1.368   0.314  1.00  0.00     0.069 C 
ATOM     16  C   UNL     1       0.624   3.611  -0.496  1.00  0.00     0.026 C 
ATOM     17  C   UNL     1      -1.690   2.491  -0.519  1.00  0.00     0.069 C 
ATOM     18  C   UNL     1      -0.835   3.724  -0.468  1.00  0.00     0.049 C 
ATOM     19  C   UNL     1      -2.958   3.176  -0.117  1.00  0.00     0.017 C 
ATOM     20  N   UNL     1      -1.472   4.846  -0.414  1.00  0.00    -0.247 NA
ENDBRANCH   7  10
ENDBRANCH   5   6
ENDBRANCH   4   5
ENDBRANCH   3   4
ENDBRANCH   2   3
ENDBRANCH   1   2
BRANCH   1  21
ATOM     21  C   UNL     1     -10.690   3.942   0.302  1.00  0.00     0.116 C 
BRANCH  21  22
ATOM     22  N   UNL     1     -11.837   4.848   0.316  1.00  0.00    -0.352 N 
ATOM     23  C   UNL     1     -12.934   4.806   1.150  1.00  0.00     0.251 C 
ATOM     24  H   UNL     1     -11.825   5.574  -0.348  1.00  0.00     0.163 HD
ATOM     25  O   UNL     1     -13.998   5.325   0.795  1.00  0.00    -0.269 OA
BRANCH  23  26
ATOM     26  C   UNL     1     -12.824   4.151   2.466  1.00  0.00     0.039 A 
ATOM     27  C   UNL     1     -13.886   3.428   3.020  1.00  0.00     0.014 A 
ATOM     28  C   UNL     1     -11.622   4.280   3.163  1.00  0.00     0.014 A 
ATOM     29  C   UNL     1     -13.698   2.778   4.241  1.00  0.00     0.010 A 
ATOM     30  C   UNL     1     -11.393   3.534   4.292  1.00  0.00     0.010 A 
ATOM     31  C   UNL     1     -12.439   2.823   4.865  1.00  0.00    -0.014 A 
BRANCH  31  32
ATOM     32  C   UNL     1     -12.120   1.965   6.006  1.00  0.00     0.031 A 
ATOM     33  C   UNL     1     -12.289   0.523   5.692  1.00  0.00     0.074 A 
ATOM     34  C   UNL     1     -11.476   2.399   7.115  1.00  0.00     0.049 A 
ATOM     35  N   UNL     1     -13.253  -0.252   6.062  1.00  0.00    -0.248 NA
ATOM     36  C   UNL     1     -11.425  -0.072   4.653  1.00  0.00     0.031 C 
ATOM     37  C   UNL     1     -10.994   3.756   7.391  1.00  0.00     0.029 A 
ATOM     38  N   UNL     1     -11.009   1.701   8.191  1.00  0.00    -0.354 N 
ATOM     39  C   UNL     1     -12.908  -1.510   5.582  1.00  0.00     0.074 A 
ATOM     40  C   UNL     1     -12.000  -1.267   4.498  1.00  0.00     0.031 C 
ATOM     41  C   UNL     1     -10.120   3.731   8.423  1.00  0.00     0.029 A 
ATOM     42  C   UNL     1     -10.079   2.388   8.980  1.00  0.00     0.049 A 
ATOM     43  H   UNL     1     -11.305   0.785   8.397  1.00  0.00     0.167 HD
ATOM     44  C   UNL     1     -13.091  -2.615   6.360  1.00  0.00     0.034 A 
ATOM     45  C   UNL     1      -9.314   1.894   9.998  1.00  0.00     0.034 A 
ATOM     46  C   UNL     1     -13.991  -2.314   7.464  1.00  0.00     0.049 A 
ATOM     47  C   UNL     1      -9.995   0.666  10.477  1.00  0.00     0.074 A 
ATOM     48  C   UNL     1     -15.251  -1.751   7.565  1.00  0.00     0.029 A 
ATOM     49  N   UNL     1     -13.453  -2.219   8.731  1.00  0.00    -0.354 N 
ATOM     50  N   UNL     1     -11.165   0.681  11.053  1.00  0.00    -0.248 NA
ATOM     51  C   UNL     1      -9.628  -0.598   9.857  1.00  0.00     0.031 C 
ATOM     52  C   UNL     1     -15.187  -0.905   8.714  1.00  0.00     0.029 A 
ATOM     53  C   UNL     1     -13.943  -1.082   9.321  1.00  0.00     0.049 A 
ATOM     54  H   UNL     1     -12.825  -2.857   9.142  1.00  0.00     0.167 HD
ATOM     55  C   UNL     1     -11.858  -0.370  10.474  1.00  0.00     0.074 A 
ATOM     56  C   UNL     1     -10.829  -1.183   9.822  1.00  0.00     0.031 C 
ATOM     57  C   UNL     1     -13.215  -0.316  10.316  1.00  0.00     0.034 A 
BRANCH  44  58
ATOM     58  C   UNL     1     -12.121  -3.790   6.424  1.00  0.00     0.023 A 
ATOM     59  C   UNL     1     -12.415  -4.779   7.381  1.00  0.00     0.031 A 
ATOM     60  C   UNL     1     -10.816  -3.845   5.882  1.00  0.00     0.131 A 
ATOM     61  C   UNL     1     -11.407  -5.607   7.898  1.00  0.00     0.055 A 
ATOM     62  C   UNL     1      -9.834  -4.724   6.349  1.00  0.00     0.041 A 
ATOM     63  F   UNL     1     -10.379  -3.022   4.924  1.00  0.00    -0.206 F 
ATOM     64  C   UNL     1     -10.111  -5.579   7.398  1.00  0.00     0.022 A 
BRANCH  61  65
ATOM     65  S   UNL     1     -11.784  -6.553   9.392  1.00  0.00     0.124 S 
ATOM     66  O   UNL     1     -12.184  -5.485  10.301  1.00  0.00    -0.237 OA
ATOM     67  O   UNL     1     -12.847  -7.436   8.924  1.00  0.00    -0.237 OA
ATOM     68  O   UNL     1     -10.517  -7.209   9.703  1.00  0.00    -0.744 OA
ENDBRANCH  61  65
ENDBRANCH  44  58
BRANCH  45  69
ATOM     69  C   UNL     1      -7.905   2.244  10.376  1.00  0.00     0.023 A 
ATOM     70  C   UNL     1      -7.308   1.875  11.609  1.00  0.00     0.031 A 
ATOM     71  C   UNL     1      -7.028   2.739   9.385  1.00  0.00     0.131 A 
ATOM     72  C   UNL     1      -5.905   2.003  11.799  1.00  0.00     0.055 A 
ATOM     73  C   UNL     1      -5.648   2.860   9.577  1.00  0.00     0.041 A 
ATOM     74  F   UNL     1      -7.468   3.040   8.154  1.00  0.00    -0.206 F 
ATOM     75  C   UNL     1      -5.079   2.482  10.781  1.00  0.00     0.022 A 
BRANCH  72  76
ATOM     76  S   UNL     1      -5.100   1.465  13.351  1.00  0.00     0.124 S 
ATOM     77  O   UNL     1      -5.583   2.448  14.312  1.00  0.00    -0.237 OA
ATOM     78  O   UNL     1      -5.594   0.102  13.508  1.00  0.00    -0.237 OA
ATOM     79  O   UNL     1      -3.671   1.560  13.046  1.00  0.00    -0.744 OA
ENDBRANCH  72  76
ENDBRANCH  45  69
BRANCH  57  80
ATOM     80  C   UNL     1     -13.997   0.722  11.097  1.00  0.00     0.023 A 
ATOM     81  C   UNL     1     -13.775   2.119  11.064  1.00  0.00     0.031 A 
ATOM     82  C   UNL     1     -15.089   0.256  11.851  1.00  0.00     0.131 A 
ATOM     83  C   UNL     1     -14.624   2.984  11.787  1.00  0.00     0.055 A 
ATOM     84  C   UNL     1     -15.939   1.115  12.543  1.00  0.00     0.041 A 
ATOM     85  F   UNL     1     -15.369  -1.057  11.905  1.00  0.00    -0.206 F 
ATOM     86  C   UNL     1     -15.704   2.483  12.521  1.00  0.00     0.022 A 
BRANCH  83  87
ATOM     87  S   UNL     1     -14.323   4.782  11.819  1.00  0.00     0.124 S 
ATOM     88  O   UNL     1     -12.886   4.887  12.046  1.00  0.00    -0.237 OA
ATOM     89  O   UNL     1     -14.795   5.204  10.503  1.00  0.00    -0.237 OA
ATOM     90  O   UNL     1     -15.150   5.244  12.936  1.00  0.00    -0.744 OA
ENDBRANCH  83  87
ENDBRANCH  57  80
ENDBRANCH  31  32
ENDBRANCH  23  26
ENDBRANCH  21  22
ENDBRANCH   1  21
TORSDOF 16
