REMARK SMILES Cc1oc2c(C)c3oc(=O)c(CCC(=O)N[C@H](Cc4ccc(Cl)cc4)C(=O)NCCCCCCNC(=O)c4ccc(-c5c6nc(c(-c7cc(S(=O)(=O)[O-])ccc7F)c7ccc([nH]7)c(-c7cc(S(=O)(=O)[O-])ccc7F)c7nc(c(-c8cc(S(=O)(=O)[O-])ccc8F)c8ccc5[nH]8)C=C7)C=C6)cc4)c(C)c3cc2c1C
REMARK SMILES IDX 31 1 30 2 29 3 28 4 26 5 27 6 17 8 16 9 14 10 15 11 13 13
REMARK SMILES IDX 12 14 11 15 1 16 2 17 3 18 106 19 4 20 105 21 107 22 5 23
REMARK SMILES IDX 104 24 6 25 7 26 103 27 8 28 101 29 9 30 102 31 10 32 18 33
REMARK SMILES IDX 19 34 20 35 25 36 21 37 24 38 22 39 23 40 32 41 33 42 34 43
REMARK SMILES IDX 35 44 36 45 37 47 38 48 39 49 100 50 40 51 99 52 41 53 42 54
REMARK SMILES IDX 43 55 93 56 44 57 98 58 92 59 94 60 45 61 97 62 91 63 90 64
REMARK SMILES IDX 46 66 78 67 58 68 77 69 59 70 62 71 76 72 95 73 60 74 61 75
REMARK SMILES IDX 75 77 96 78 63 79 47 80 48 81 56 82 49 83 55 84 57 85 54 86
REMARK SMILES IDX 50 87 51 88 52 89 53 90 79 91 80 92 88 93 81 94 87 95 89 96
REMARK SMILES IDX 86 97 82 98 83 99 84 100 85 101 64 102 65 103 73 104 66 105
REMARK SMILES IDX 72 106 74 107 71 108 67 109 68 110 69 111 70 112
REMARK H PARENT 28 7 16 12 35 46 94 65 62 76
REMARK Flexibility Score: inf
ROOT
ATOM      1  C   UNL     1      -3.388   3.420  -0.485  1.00  0.00     0.002 C 
ENDROOT
BRANCH   1   2
ATOM      2  C   UNL     1      -2.203   3.990  -1.245  1.00  0.00     0.021 C 
BRANCH   2   3
ATOM      3  C   UNL     1      -1.552   2.968  -2.151  1.00  0.00     0.116 C 
BRANCH   3   4
ATOM      4  N   UNL     1      -2.125   3.023  -3.473  1.00  0.00    -0.354 N 
ATOM      5  C   UNL     1      -1.364   2.553  -4.494  1.00  0.00     0.242 C 
ATOM      6  O   UNL     1      -0.780   1.471  -4.370  1.00  0.00    -0.273 OA
ATOM      7  H   UNL     1      -3.027   3.385  -3.629  1.00  0.00     0.163 HD
BRANCH   5   8
ATOM      8  C   UNL     1      -1.184   3.426  -5.753  1.00  0.00     0.175 C 
BRANCH   8   9
ATOM      9  N   UNL     1       0.218   3.175  -6.130  1.00  0.00    -0.344 N 
ATOM     10  C   UNL     1       0.617   2.405  -7.189  1.00  0.00     0.220 C 
ATOM     11  O   UNL     1       1.609   1.687  -7.079  1.00  0.00    -0.275 OA
ATOM     12  H   UNL     1       0.919   3.592  -5.579  1.00  0.00     0.164 HD
BRANCH  10  13
ATOM     13  C   UNL     1      -0.116   2.547  -8.510  1.00  0.00     0.105 C 
BRANCH  13  14
ATOM     14  C   UNL     1      -1.025   1.365  -8.895  1.00  0.00     0.053 C 
BRANCH  14  15
ATOM     15  C   UNL     1      -2.390   1.407  -8.225  1.00  0.00     0.042 A 
ATOM     16  C   UNL     1      -7.175   2.150  -1.367  1.00  0.00     0.088 C 
ATOM     17  C   UNL     1      -6.405   1.804  -2.582  1.00  0.00     0.105 A 
ATOM     18  O   UNL     1      -6.672   2.538  -3.699  1.00  0.00    -0.461 OA
ATOM     19  C   UNL     1      -5.395   0.893  -2.833  1.00  0.00    -0.002 A 
ATOM     20  C   UNL     1      -5.829   2.109  -4.681  1.00  0.00     0.141 A 
ATOM     21  C   UNL     1      -5.052   1.063  -4.209  1.00  0.00     0.025 A 
ATOM     22  C   UNL     1      -4.733  -0.020  -1.869  1.00  0.00     0.049 C 
ATOM     23  C   UNL     1      -5.714   2.672  -5.955  1.00  0.00     0.036 A 
ATOM     24  C   UNL     1      -4.100   0.485  -5.071  1.00  0.00     0.024 A 
ATOM     25  C   UNL     1      -6.536   3.851  -6.371  1.00  0.00     0.052 C 
ATOM     26  C   UNL     1      -4.703   2.089  -6.756  1.00  0.00     0.145 A 
ATOM     27  C   UNL     1      -3.902   1.008  -6.360  1.00  0.00     0.022 A 
ATOM     28  O   UNL     1      -4.446   2.722  -7.993  1.00  0.00    -0.422 OA
ATOM     29  C   UNL     1      -2.761   0.594  -7.211  1.00  0.00    -0.030 A 
ATOM     30  C   UNL     1      -3.284   2.497  -8.707  1.00  0.00     0.339 A 
ATOM     31  C   UNL     1      -1.925  -0.599  -6.819  1.00  0.00     0.046 C 
ATOM     32  O   UNL     1      -2.994   3.187  -9.679  1.00  0.00    -0.246 OA
ENDBRANCH  14  15
ENDBRANCH  13  14
ENDBRANCH  10  13
ENDBRANCH   8   9
BRANCH   8  33
ATOM     33  C   UNL     1      -1.589   4.907  -5.841  1.00  0.00     0.070 C 
BRANCH  33  34
ATOM     34  C   UNL     1      -1.673   5.777  -4.614  1.00  0.00    -0.045 A 
ATOM     35  C   UNL     1      -2.926   6.261  -4.190  1.00  0.00     0.005 A 
ATOM     36  C   UNL     1      -0.526   6.162  -3.910  1.00  0.00     0.005 A 
ATOM     37  C   UNL     1      -3.033   7.081  -3.064  1.00  0.00     0.021 A 
ATOM     38  C   UNL     1      -0.634   6.980  -2.779  1.00  0.00     0.021 A 
ATOM     39  C   UNL     1      -1.886   7.425  -2.354  1.00  0.00     0.041 A 
ATOM     40  Cl  UNL     1      -2.026   8.342  -0.906  1.00  0.00    -0.084 Cl
ENDBRANCH  33  34
ENDBRANCH   8  33
ENDBRANCH   5   8
ENDBRANCH   3   4
ENDBRANCH   2   3
ENDBRANCH   1   2
BRANCH   1  41
ATOM     41  C   UNL     1      -2.972   2.559   0.706  1.00  0.00     0.002 C 
BRANCH  41  42
ATOM     42  C   UNL     1      -2.024   3.260   1.693  1.00  0.00     0.021 C 
BRANCH  42  43
ATOM     43  C   UNL     1      -2.491   4.651   2.133  1.00  0.00     0.116 C 
BRANCH  43  44
ATOM     44  N   UNL     1      -3.751   4.531   2.838  1.00  0.00    -0.352 N 
ATOM     45  C   UNL     1      -3.971   4.766   4.167  1.00  0.00     0.251 C 
ATOM     46  H   UNL     1      -4.530   4.250   2.305  1.00  0.00     0.163 HD
ATOM     47  O   UNL     1      -4.841   4.139   4.758  1.00  0.00    -0.269 OA
BRANCH  45  48
ATOM     48  C   UNL     1      -3.173   5.797   4.859  1.00  0.00     0.039 A 
ATOM     49  C   UNL     1      -2.744   5.536   6.159  1.00  0.00     0.014 A 
ATOM     50  C   UNL     1      -2.954   7.051   4.268  1.00  0.00     0.014 A 
ATOM     51  C   UNL     1      -2.097   6.536   6.872  1.00  0.00     0.010 A 
ATOM     52  C   UNL     1      -2.300   8.051   4.984  1.00  0.00     0.010 A 
ATOM     53  C   UNL     1      -1.877   7.797   6.291  1.00  0.00    -0.014 A 
BRANCH  53  54
ATOM     54  C   UNL     1      -1.216   8.801   7.137  1.00  0.00     0.031 A 
ATOM     55  C   UNL     1      -0.114   9.604   6.514  1.00  0.00     0.074 A 
ATOM     56  C   UNL     1      -1.960   9.394   8.091  1.00  0.00     0.049 A 
ATOM     57  N   UNL     1      -0.272  10.652   5.757  1.00  0.00    -0.248 NA
ATOM     58  C   UNL     1       1.268   9.118   6.560  1.00  0.00     0.031 C 
ATOM     59  C   UNL     1      -3.313   9.924   7.889  1.00  0.00     0.029 A 
ATOM     60  N   UNL     1      -1.603   9.820   9.344  1.00  0.00    -0.354 N 
ATOM     61  C   UNL     1       0.975  10.980   5.241  1.00  0.00     0.074 A 
ATOM     62  C   UNL     1       1.892   9.983   5.748  1.00  0.00     0.031 C 
ATOM     63  C   UNL     1      -3.607  10.748   8.913  1.00  0.00     0.029 A 
ATOM     64  C   UNL     1      -2.517  10.720   9.883  1.00  0.00     0.049 A 
ATOM     65  H   UNL     1      -0.789   9.522   9.810  1.00  0.00     0.167 HD
ATOM     66  C   UNL     1       1.213  12.064   4.454  1.00  0.00     0.034 A 
ATOM     67  C   UNL     1      -2.156  11.733  10.718  1.00  0.00     0.034 A 
ATOM     68  C   UNL     1       0.092  12.927   4.240  1.00  0.00     0.049 A 
ATOM     69  C   UNL     1      -1.675  12.748   9.702  1.00  0.00     0.074 A 
ATOM     70  C   UNL     1      -0.902  13.086   3.300  1.00  0.00     0.029 A 
ATOM     71  N   UNL     1      -0.187  13.870   5.202  1.00  0.00    -0.354 N 
ATOM     72  N   UNL     1      -2.426  13.495   8.935  1.00  0.00    -0.248 NA
ATOM     73  C   UNL     1      -0.284  12.628   9.252  1.00  0.00     0.031 C 
ATOM     74  C   UNL     1      -1.960  13.766   3.982  1.00  0.00     0.029 A 
ATOM     75  C   UNL     1      -1.553  13.930   5.306  1.00  0.00     0.049 A 
ATOM     76  H   UNL     1       0.466  14.398   5.716  1.00  0.00     0.167 HD
ATOM     77  C   UNL     1      -1.687  13.695   7.766  1.00  0.00     0.074 A 
ATOM     78  C   UNL     1      -0.366  13.167   8.043  1.00  0.00     0.031 C 
ATOM     79  C   UNL     1      -2.231  14.089   6.575  1.00  0.00     0.034 A 
BRANCH  66  80
ATOM     80  C   UNL     1       2.545  12.483   3.961  1.00  0.00     0.023 A 
ATOM     81  C   UNL     1       3.154  13.596   4.558  1.00  0.00     0.031 A 
ATOM     82  C   UNL     1       3.113  11.960   2.792  1.00  0.00     0.131 A 
ATOM     83  C   UNL     1       4.267  14.196   3.959  1.00  0.00     0.055 A 
ATOM     84  C   UNL     1       4.240  12.551   2.207  1.00  0.00     0.041 A 
ATOM     85  F   UNL     1       2.557  10.907   2.173  1.00  0.00    -0.206 F 
ATOM     86  C   UNL     1       4.813  13.686   2.781  1.00  0.00     0.022 A 
BRANCH  83  87
ATOM     87  S   UNL     1       4.920  15.711   4.708  1.00  0.00     0.124 S 
ATOM     88  O   UNL     1       3.741  16.572   4.723  1.00  0.00    -0.237 OA
ATOM     89  O   UNL     1       5.374  15.225   6.007  1.00  0.00    -0.237 OA
ATOM     90  O   UNL     1       5.978  16.117   3.787  1.00  0.00    -0.744 OA
ENDBRANCH  83  87
ENDBRANCH  66  80
BRANCH  67  91
ATOM     91  C   UNL     1      -1.369  11.297  11.921  1.00  0.00     0.023 A 
ATOM     92  C   UNL     1      -1.837  10.170  12.635  1.00  0.00     0.031 A 
ATOM     93  C   UNL     1      -0.184  11.883  12.386  1.00  0.00     0.131 A 
ATOM     94  C   UNL     1      -1.074   9.588  13.658  1.00  0.00     0.055 A 
ATOM     95  C   UNL     1       0.586  11.296  13.399  1.00  0.00     0.041 A 
ATOM     96  F   UNL     1       0.285  13.021  11.855  1.00  0.00    -0.206 F 
ATOM     97  C   UNL     1       0.156  10.128  14.023  1.00  0.00     0.022 A 
BRANCH  94  98
ATOM     98  S   UNL     1      -1.668   8.054  14.423  1.00  0.00     0.124 S 
ATOM     99  O   UNL     1      -2.761   8.534  15.261  1.00  0.00    -0.237 OA
ATOM    100  O   UNL     1      -2.053   7.253  13.265  1.00  0.00    -0.237 OA
ATOM    101  O   UNL     1      -0.496   7.561  15.145  1.00  0.00    -0.744 OA
ENDBRANCH  94  98
ENDBRANCH  67  91
BRANCH  79 102
ATOM    102  C   UNL     1      -3.678  14.462   6.590  1.00  0.00     0.023 A 
ATOM    103  C   UNL     1      -4.096  15.644   7.219  1.00  0.00     0.031 A 
ATOM    104  C   UNL     1      -4.640  13.688   5.917  1.00  0.00     0.131 A 
ATOM    105  C   UNL     1      -5.437  16.041   7.136  1.00  0.00     0.055 A 
ATOM    106  C   UNL     1      -5.968  14.103   5.809  1.00  0.00     0.041 A 
ATOM    107  F   UNL     1      -4.308  12.529   5.324  1.00  0.00    -0.206 F 
ATOM    108  C   UNL     1      -6.370  15.289   6.414  1.00  0.00     0.022 A 
BRANCH 105 109
ATOM    109  S   UNL     1      -5.947  17.586   7.933  1.00  0.00     0.124 S 
ATOM    110  O   UNL     1      -5.901  17.241   9.349  1.00  0.00    -0.237 OA
ATOM    111  O   UNL     1      -4.937  18.535   7.472  1.00  0.00    -0.237 OA
ATOM    112  O   UNL     1      -7.289  17.817   7.397  1.00  0.00    -0.744 OA
ENDBRANCH 105 109
ENDBRANCH  79 102
ENDBRANCH  53  54
ENDBRANCH  45  48
ENDBRANCH  43  44
ENDBRANCH  42  43
ENDBRANCH  41  42
ENDBRANCH   1  41
TORSDOF 22
