REMARK SMILES O=C(NCCCCCCNC(=O)c1nnn(-c2cccc(C(F)(F)F)c2)c1[C@@H]1COc2ccccc2O1)c1ccc(-c2c3nc(c(-c4cc(S(=O)(=O)[O-])ccc4F)c4ccc([nH]4)c(-c4cc(S(=O)(=O)[O-])ccc4F)c4nc(c(-c5cc(S(=O)(=O)[O-])ccc5F)c5ccc2[nH]5)C=C4)C=C3)cc1
REMARK SMILES IDX 6 1 5 2 4 3 3 4 1 5 2 6 38 8 39 9 100 10 40 11 99 12 41 13
REMARK SMILES IDX 42 14 43 15 93 16 44 17 98 18 92 19 94 20 45 21 97 22 91 23
REMARK SMILES IDX 90 24 46 26 78 27 58 28 77 29 59 30 62 31 76 32 95 33 60 34
REMARK SMILES IDX 61 35 75 37 96 38 63 39 47 40 48 41 56 42 49 43 55 44 57 45
REMARK SMILES IDX 54 46 50 47 51 48 52 49 53 50 79 51 80 52 88 53 81 54 87 55
REMARK SMILES IDX 89 56 86 57 82 58 83 59 84 60 85 61 64 62 65 63 73 64 66 65
REMARK SMILES IDX 72 66 74 67 71 68 67 69 68 70 69 71 70 72 7 73 8 74 9 75
REMARK SMILES IDX 10 76 11 77 12 79 13 80 14 81 27 82 15 83 16 84 28 85 29 86
REMARK SMILES IDX 37 87 30 88 36 89 31 90 35 91 32 92 34 93 33 94 17 95 18 96
REMARK SMILES IDX 26 97 19 98 21 99 20 100 22 101 23 102 24 103 25 104
REMARK H PARENT 3 7 94 25 62 36 10 78
REMARK Flexibility Score: inf
ROOT
ATOM      1  C   UNL     1       4.096  -2.897   2.024  1.00  0.00     0.002 C 
ENDROOT
BRANCH   1   2
ATOM      2  C   UNL     1       4.793  -1.565   1.715  1.00  0.00     0.021 C 
BRANCH   2   3
ATOM      3  C   UNL     1       4.685  -1.066   0.275  1.00  0.00     0.116 C 
BRANCH   3   4
ATOM      4  N   UNL     1       3.337  -0.931  -0.236  1.00  0.00    -0.352 N 
ATOM      5  O   UNL     1       1.335  -0.182  -0.789  1.00  0.00    -0.269 OA
ATOM      6  C   UNL     1       2.330  -0.018  -0.077  1.00  0.00     0.251 C 
ATOM      7  H   UNL     1       3.087  -1.669  -0.839  1.00  0.00     0.163 HD
BRANCH   6   8
ATOM      8  C   UNL     1       2.329   1.093   0.913  1.00  0.00     0.039 A 
ATOM      9  C   UNL     1       3.462   1.669   1.489  1.00  0.00     0.014 A 
ATOM     10  C   UNL     1       1.064   1.607   1.257  1.00  0.00     0.014 A 
ATOM     11  C   UNL     1       3.330   2.689   2.434  1.00  0.00     0.010 A 
ATOM     12  C   UNL     1       0.928   2.632   2.190  1.00  0.00     0.010 A 
ATOM     13  C   UNL     1       2.064   3.166   2.793  1.00  0.00    -0.014 A 
BRANCH  13  14
ATOM     14  C   UNL     1       1.980   4.389   3.599  1.00  0.00     0.031 A 
ATOM     15  C   UNL     1       2.498   5.602   2.904  1.00  0.00     0.074 A 
ATOM     16  C   UNL     1       1.330   4.504   4.776  1.00  0.00     0.049 A 
ATOM     17  N   UNL     1       3.484   6.364   3.247  1.00  0.00    -0.248 NA
ATOM     18  C   UNL     1       1.924   5.932   1.588  1.00  0.00     0.031 C 
ATOM     19  C   UNL     1       0.527   3.480   5.443  1.00  0.00     0.029 A 
ATOM     20  N   UNL     1       1.156   5.603   5.574  1.00  0.00    -0.354 N 
ATOM     21  C   UNL     1       3.497   7.408   2.324  1.00  0.00     0.074 A 
ATOM     22  C   UNL     1       2.665   6.981   1.233  1.00  0.00     0.031 C 
ATOM     23  C   UNL     1      -0.215   4.058   6.415  1.00  0.00     0.029 A 
ATOM     24  C   UNL     1       0.135   5.468   6.514  1.00  0.00     0.049 A 
ATOM     25  H   UNL     1       1.704   6.417   5.492  1.00  0.00     0.167 HD
ATOM     26  C   UNL     1       3.979   8.639   2.651  1.00  0.00     0.034 A 
ATOM     27  C   UNL     1      -0.437   6.443   7.275  1.00  0.00     0.034 A 
ATOM     28  C   UNL     1       4.862   8.566   3.796  1.00  0.00     0.049 A 
ATOM     29  C   UNL     1       0.521   7.571   7.346  1.00  0.00     0.074 A 
ATOM     30  C   UNL     1       5.994   7.829   4.098  1.00  0.00     0.029 A 
ATOM     31  N   UNL     1       4.433   9.073   5.002  1.00  0.00    -0.354 N 
ATOM     32  N   UNL     1       1.666   7.507   7.965  1.00  0.00    -0.248 NA
ATOM     33  C   UNL     1       0.411   8.635   6.360  1.00  0.00     0.031 C 
ATOM     34  C   UNL     1       5.865   7.506   5.481  1.00  0.00     0.029 A 
ATOM     35  C   UNL     1       4.713   8.131   5.960  1.00  0.00     0.049 A 
ATOM     36  H   UNL     1       4.004   9.947   5.150  1.00  0.00     0.167 HD
ATOM     37  C   UNL     1       2.548   8.205   7.157  1.00  0.00     0.074 A 
ATOM     38  C   UNL     1       1.700   8.969   6.246  1.00  0.00     0.031 C 
ATOM     39  C   UNL     1       3.875   7.882   7.115  1.00  0.00     0.034 A 
BRANCH  26  40
ATOM     40  C   UNL     1       3.340   9.945   2.202  1.00  0.00     0.023 A 
ATOM     41  C   UNL     1       3.895  11.132   2.716  1.00  0.00     0.031 A 
ATOM     42  C   UNL     1       2.072  10.085   1.592  1.00  0.00     0.131 A 
ATOM     43  C   UNL     1       3.146  12.320   2.767  1.00  0.00     0.055 A 
ATOM     44  C   UNL     1       1.363  11.291   1.573  1.00  0.00     0.041 A 
ATOM     45  F   UNL     1       1.401   9.062   1.052  1.00  0.00    -0.206 F 
ATOM     46  C   UNL     1       1.878  12.407   2.204  1.00  0.00     0.022 A 
BRANCH  43  47
ATOM     47  S   UNL     1       3.777  13.676   3.787  1.00  0.00     0.124 S 
ATOM     48  O   UNL     1       3.970  13.000   5.066  1.00  0.00    -0.237 OA
ATOM     49  O   UNL     1       4.988  14.051   3.066  1.00  0.00    -0.237 OA
ATOM     50  O   UNL     1       2.697  14.658   3.750  1.00  0.00    -0.744 OA
ENDBRANCH  43  47
ENDBRANCH  26  40
BRANCH  27  51
ATOM     51  C   UNL     1      -1.860   6.556   7.714  1.00  0.00     0.023 A 
ATOM     52  C   UNL     1      -2.282   7.418   8.753  1.00  0.00     0.031 A 
ATOM     53  C   UNL     1      -2.881   5.973   6.930  1.00  0.00     0.131 A 
ATOM     54  C   UNL     1      -3.663   7.655   8.969  1.00  0.00     0.055 A 
ATOM     55  C   UNL     1      -4.240   6.202   7.154  1.00  0.00     0.041 A 
ATOM     56  F   UNL     1      -2.592   5.224   5.854  1.00  0.00    -0.206 F 
ATOM     57  C   UNL     1      -4.637   7.053   8.170  1.00  0.00     0.022 A 
BRANCH  54  58
ATOM     58  S   UNL     1      -4.219   8.848  10.233  1.00  0.00     0.124 S 
ATOM     59  O   UNL     1      -3.919   8.143  11.478  1.00  0.00    -0.237 OA
ATOM     60  O   UNL     1      -3.415  10.022   9.941  1.00  0.00    -0.237 OA
ATOM     61  O   UNL     1      -5.650   9.001   9.951  1.00  0.00    -0.744 OA
ENDBRANCH  54  58
ENDBRANCH  27  51
BRANCH  39  62
ATOM     62  C   UNL     1       4.455   7.021   8.218  1.00  0.00     0.023 A 
ATOM     63  C   UNL     1       3.959   5.756   8.608  1.00  0.00     0.031 A 
ATOM     64  C   UNL     1       5.635   7.475   8.835  1.00  0.00     0.131 A 
ATOM     65  C   UNL     1       4.633   5.009   9.593  1.00  0.00     0.055 A 
ATOM     66  C   UNL     1       6.311   6.723   9.794  1.00  0.00     0.041 A 
ATOM     67  F   UNL     1       6.176   8.656   8.489  1.00  0.00    -0.206 F 
ATOM     68  C   UNL     1       5.806   5.489  10.184  1.00  0.00     0.022 A 
BRANCH  65  69
ATOM     69  S   UNL     1       3.984   3.398  10.144  1.00  0.00     0.124 S 
ATOM     70  O   UNL     1       2.559   3.645  10.328  1.00  0.00    -0.237 OA
ATOM     71  O   UNL     1       4.343   2.519   9.034  1.00  0.00    -0.237 OA
ATOM     72  O   UNL     1       4.722   3.141  11.382  1.00  0.00    -0.744 OA
ENDBRANCH  65  69
ENDBRANCH  39  62
ENDBRANCH  13  14
ENDBRANCH   6   8
ENDBRANCH   3   4
ENDBRANCH   2   3
ENDBRANCH   1   2
BRANCH   1  73
ATOM     73  C   UNL     1       4.474  -4.111   1.165  1.00  0.00     0.002 C 
BRANCH  73  74
ATOM     74  C   UNL     1       5.960  -4.435   1.049  1.00  0.00     0.021 C 
BRANCH  74  75
ATOM     75  C   UNL     1       6.705  -4.719   2.350  1.00  0.00     0.116 C 
BRANCH  75  76
ATOM     76  N   UNL     1       6.755  -6.097   2.770  1.00  0.00    -0.351 N 
ATOM     77  C   UNL     1       7.732  -6.915   3.303  1.00  0.00     0.273 C 
ATOM     78  H   UNL     1       5.896  -6.562   2.649  1.00  0.00     0.163 HD
ATOM     79  O   UNL     1       7.344  -8.077   3.477  1.00  0.00    -0.267 OA
BRANCH  77  80
ATOM     80  C   UNL     1       9.131  -6.560   3.652  1.00  0.00     0.178 A 
ATOM     81  N   UNL     1       9.996  -7.630   3.860  1.00  0.00    -0.124 NA
ATOM     82  C   UNL     1       9.893  -5.392   3.797  1.00  0.00     0.122 A 
ATOM     83  N   UNL     1      11.215  -7.181   4.097  1.00  0.00    -0.061 NA
ATOM     84  N   UNL     1      11.139  -5.846   4.210  1.00  0.00    -0.213 N 
BRANCH  82  85
ATOM     85  C   UNL     1       9.644  -3.978   3.377  1.00  0.00     0.262 C 
ATOM     86  C   UNL     1       9.958  -3.839   1.868  1.00  0.00     0.281 C 
ATOM     87  O   UNL     1      10.286  -3.002   4.203  1.00  0.00    -0.477 OA
ATOM     88  O   UNL     1      11.350  -3.624   1.631  1.00  0.00    -0.485 OA
ATOM     89  C   UNL     1      11.099  -2.138   3.515  1.00  0.00     0.162 A 
ATOM     90  C   UNL     1      11.690  -2.476   2.294  1.00  0.00     0.161 A 
ATOM     91  C   UNL     1      11.389  -0.915   4.104  1.00  0.00     0.050 A 
ATOM     92  C   UNL     1      12.642  -1.654   1.707  1.00  0.00     0.050 A 
ATOM     93  C   UNL     1      12.296  -0.052   3.485  1.00  0.00     0.004 A 
ATOM     94  C   UNL     1      12.942  -0.432   2.305  1.00  0.00     0.004 A 
ENDBRANCH  82  85
BRANCH  84  95
ATOM     95  C   UNL     1      12.243  -5.113   4.682  1.00  0.00     0.067 A 
ATOM     96  C   UNL     1      13.374  -4.969   3.875  1.00  0.00     0.028 A 
ATOM     97  C   UNL     1      12.127  -4.426   5.896  1.00  0.00     0.041 A 
ATOM     98  C   UNL     1      14.349  -4.040   4.241  1.00  0.00     0.003 A 
ATOM     99  C   UNL     1      13.122  -3.519   6.283  1.00  0.00     0.058 A 
ATOM    100  C   UNL     1      14.217  -3.310   5.428  1.00  0.00     0.013 A 
BRANCH  99 101
ATOM    101  C   UNL     1      12.989  -2.727   7.560  1.00  0.00     0.416 C 
ATOM    102  F   UNL     1      14.133  -2.745   8.301  1.00  0.00    -0.166 F 
ATOM    103  F   UNL     1      12.709  -1.415   7.335  1.00  0.00    -0.166 F 
ATOM    104  F   UNL     1      12.008  -3.190   8.383  1.00  0.00    -0.166 F 
ENDBRANCH  99 101
ENDBRANCH  84  95
ENDBRANCH  77  80
ENDBRANCH  75  76
ENDBRANCH  74  75
ENDBRANCH  73  74
ENDBRANCH   1  73
TORSDOF 19
