REMARK SMILES CC[C@@H](Sc1nnc2ccc3ccccc3n12)C(=O)Nc1cccc(C(=O)NCCCCCCNC(=O)c2ccc(-c3c4nc(c(-c5cc(S(=O)(=O)[O-])ccc5F)c5ccc([nH]5)c(-c5cc(S(=O)(=O)[O-])ccc5F)c5nc(c(-c6cc(S(=O)(=O)[O-])ccc6F)c6ccc3[nH]6)C=C5)C=C4)cc2)c1
REMARK SMILES IDX 31 1 30 2 29 3 28 4 26 5 27 6 25 8 21 9 22 10 101 11 23 12
REMARK SMILES IDX 24 13 20 14 18 15 19 16 3 18 2 19 1 20 4 21 5 22 6 23 17 24
REMARK SMILES IDX 7 25 8 26 16 27 9 28 11 29 15 30 10 31 12 32 14 33 13 34
REMARK SMILES IDX 32 35 33 36 34 37 35 38 36 39 37 41 38 42 39 43 100 44 40 45
REMARK SMILES IDX 99 46 41 47 42 48 43 49 93 50 44 51 98 52 92 53 94 54 45 55
REMARK SMILES IDX 97 56 91 57 90 58 46 60 78 61 58 62 77 63 59 64 62 65 76 66
REMARK SMILES IDX 95 67 60 68 61 69 75 71 96 72 63 73 47 74 48 75 56 76 49 77
REMARK SMILES IDX 55 78 57 79 54 80 50 81 51 82 52 83 53 84 79 85 80 86 88 87
REMARK SMILES IDX 81 88 87 89 89 90 86 91 82 92 83 93 84 94 85 95 64 96 65 97
REMARK SMILES IDX 73 98 66 99 72 100 74 101 71 102 67 103 68 104 69 105 70 106
REMARK H PARENT 28 7 20 17 35 40 94 59 62 70
REMARK Flexibility Score: inf
ROOT
ATOM      1  C   UNL     1      -4.716   5.890  -5.672  1.00  0.00     0.002 C 
ENDROOT
BRANCH   1   2
ATOM      2  C   UNL     1      -3.586   5.280  -4.856  1.00  0.00     0.021 C 
BRANCH   2   3
ATOM      3  C   UNL     1      -3.924   4.808  -3.455  1.00  0.00     0.116 C 
BRANCH   3   4
ATOM      4  N   UNL     1      -4.735   3.618  -3.380  1.00  0.00    -0.352 N 
ATOM      5  C   UNL     1      -4.878   2.684  -2.380  1.00  0.00     0.251 C 
ATOM      6  O   UNL     1      -5.690   1.777  -2.580  1.00  0.00    -0.269 OA
ATOM      7  H   UNL     1      -5.278   3.443  -4.182  1.00  0.00     0.163 HD
BRANCH   5   8
ATOM      8  C   UNL     1      -4.064   2.648  -1.114  1.00  0.00     0.041 A 
ATOM      9  C   UNL     1      -2.064   3.166   0.155  1.00  0.00     0.041 A 
ATOM     10  C   UNL     1      -2.308   2.120   1.027  1.00  0.00     0.026 A 
ATOM     11  C   UNL     1      -3.032   3.527  -0.782  1.00  0.00     0.040 A 
ATOM     12  C   UNL     1      -3.452   1.347   0.857  1.00  0.00     0.003 A 
ATOM     13  C   UNL     1      -4.281   1.565  -0.249  1.00  0.00     0.014 A 
BRANCH   9  14
ATOM     14  N   UNL     1      -0.861   3.882   0.151  1.00  0.00    -0.325 N 
ATOM     15  C   UNL     1       0.389   3.459  -0.240  1.00  0.00     0.237 C 
ATOM     16  O   UNL     1       1.268   4.332  -0.291  1.00  0.00    -0.273 OA
ATOM     17  H   UNL     1      -0.916   4.811   0.471  1.00  0.00     0.169 HD
BRANCH  15  18
ATOM     18  C   UNL     1       0.750   2.006  -0.637  1.00  0.00     0.144 C 
BRANCH  18  19
ATOM     19  C   UNL     1       0.677   1.051   0.560  1.00  0.00     0.021 C 
ATOM     20  C   UNL     1       1.729  -0.049   0.570  1.00  0.00     0.005 C 
ENDBRANCH  18  19
BRANCH  18  21
ATOM     21  S   UNL     1      -0.232   1.504  -2.109  1.00  0.00    -0.072 SA
BRANCH  21  22
ATOM     22  C   UNL     1       0.572   0.073  -2.657  1.00  0.00     0.196 A 
ATOM     23  N   UNL     1       1.700   0.113  -3.333  1.00  0.00    -0.122 NA
ATOM     24  N   UNL     1       0.172  -1.244  -2.478  1.00  0.00    -0.270 N 
ATOM     25  N   UNL     1       2.075  -1.174  -3.621  1.00  0.00    -0.129 NA
ATOM     26  C   UNL     1       1.177  -1.982  -3.103  1.00  0.00     0.161 A 
ATOM     27  C   UNL     1      -0.901  -1.868  -1.777  1.00  0.00     0.057 A 
ATOM     28  C   UNL     1       1.131  -3.397  -3.079  1.00  0.00     0.050 A 
ATOM     29  C   UNL     1      -0.863  -3.276  -1.687  1.00  0.00    -0.001 A 
ATOM     30  C   UNL     1      -1.942  -1.177  -1.166  1.00  0.00     0.027 A 
ATOM     31  C   UNL     1       0.173  -4.034  -2.394  1.00  0.00     0.014 A 
ATOM     32  C   UNL     1      -1.823  -3.957  -0.929  1.00  0.00     0.010 A 
ATOM     33  C   UNL     1      -2.901  -1.871  -0.422  1.00  0.00     0.002 A 
ATOM     34  C   UNL     1      -2.833  -3.251  -0.283  1.00  0.00     0.001 A 
ENDBRANCH  21  22
ENDBRANCH  18  21
ENDBRANCH  15  18
ENDBRANCH   9  14
ENDBRANCH   5   8
ENDBRANCH   3   4
ENDBRANCH   2   3
ENDBRANCH   1   2
BRANCH   1  35
ATOM     35  C   UNL     1      -5.488   7.039  -5.021  1.00  0.00     0.002 C 
BRANCH  35  36
ATOM     36  C   UNL     1      -4.655   8.173  -4.406  1.00  0.00     0.021 C 
BRANCH  36  37
ATOM     37  C   UNL     1      -3.517   8.700  -5.278  1.00  0.00     0.116 C 
BRANCH  37  38
ATOM     38  N   UNL     1      -3.933   9.142  -6.587  1.00  0.00    -0.352 N 
ATOM     39  C   UNL     1      -4.403  10.315  -7.102  1.00  0.00     0.251 C 
ATOM     40  H   UNL     1      -3.862   8.432  -7.266  1.00  0.00     0.163 HD
ATOM     41  O   UNL     1      -4.566  10.336  -8.324  1.00  0.00    -0.269 OA
BRANCH  39  42
ATOM     42  C   UNL     1      -4.800  11.494  -6.292  1.00  0.00     0.039 A 
ATOM     43  C   UNL     1      -4.534  11.676  -4.934  1.00  0.00     0.014 A 
ATOM     44  C   UNL     1      -5.564  12.462  -6.969  1.00  0.00     0.014 A 
ATOM     45  C   UNL     1      -5.140  12.709  -4.236  1.00  0.00     0.010 A 
ATOM     46  C   UNL     1      -6.147  13.516  -6.284  1.00  0.00     0.010 A 
ATOM     47  C   UNL     1      -5.987  13.592  -4.906  1.00  0.00    -0.014 A 
BRANCH  47  48
ATOM     48  C   UNL     1      -6.614  14.647  -4.124  1.00  0.00     0.031 A 
ATOM     49  C   UNL     1      -5.649  15.620  -3.536  1.00  0.00     0.074 A 
ATOM     50  C   UNL     1      -7.953  14.776  -4.039  1.00  0.00     0.049 A 
ATOM     51  N   UNL     1      -5.409  15.856  -2.287  1.00  0.00    -0.248 NA
ATOM     52  C   UNL     1      -4.715  16.287  -4.457  1.00  0.00     0.031 C 
ATOM     53  C   UNL     1      -8.976  14.081  -4.825  1.00  0.00     0.029 A 
ATOM     54  N   UNL     1      -8.689  15.658  -3.313  1.00  0.00    -0.354 N 
ATOM     55  C   UNL     1      -4.433  16.855  -2.265  1.00  0.00     0.074 A 
ATOM     56  C   UNL     1      -3.924  16.944  -3.609  1.00  0.00     0.031 C 
ATOM     57  C   UNL     1     -10.140  14.764  -4.739  1.00  0.00     0.029 A 
ATOM     58  C   UNL     1      -9.978  15.851  -3.788  1.00  0.00     0.049 A 
ATOM     59  H   UNL     1      -8.337  16.120  -2.518  1.00  0.00     0.167 HD
ATOM     60  C   UNL     1      -4.265  17.676  -1.188  1.00  0.00     0.034 A 
ATOM     61  C   UNL     1     -10.783  16.914  -3.521  1.00  0.00     0.034 A 
ATOM     62  C   UNL     1      -4.924  17.143  -0.028  1.00  0.00     0.049 A 
ATOM     63  C   UNL     1     -10.242  17.602  -2.318  1.00  0.00     0.074 A 
ATOM     64  C   UNL     1      -4.781  15.992   0.720  1.00  0.00     0.029 A 
ATOM     65  N   UNL     1      -6.159  17.654   0.294  1.00  0.00    -0.354 N 
ATOM     66  N   UNL     1     -10.262  17.093  -1.118  1.00  0.00    -0.248 NA
ATOM     67  C   UNL     1      -9.243  18.640  -2.545  1.00  0.00     0.031 C 
ATOM     68  C   UNL     1      -6.110  15.608   1.050  1.00  0.00     0.029 A 
ATOM     69  C   UNL     1      -6.978  16.590   0.568  1.00  0.00     0.049 A 
ATOM     70  H   UNL     1      -6.409  18.606   0.322  1.00  0.00     0.167 HD
ATOM     71  C   UNL     1      -9.011  17.393  -0.599  1.00  0.00     0.074 A 
ATOM     72  C   UNL     1      -8.455  18.409  -1.493  1.00  0.00     0.031 C 
ATOM     73  C   UNL     1      -8.403  16.585   0.318  1.00  0.00     0.034 A 
BRANCH  60  74
ATOM     74  C   UNL     1      -3.808  19.115  -1.272  1.00  0.00     0.023 A 
ATOM     75  C   UNL     1      -3.662  19.808  -2.487  1.00  0.00     0.031 A 
ATOM     76  C   UNL     1      -3.733  19.908  -0.106  1.00  0.00     0.131 A 
ATOM     77  C   UNL     1      -3.465  21.194  -2.529  1.00  0.00     0.055 A 
ATOM     78  C   UNL     1      -3.603  21.302  -0.147  1.00  0.00     0.041 A 
ATOM     79  F   UNL     1      -3.850  19.360   1.114  1.00  0.00    -0.206 F 
ATOM     80  C   UNL     1      -3.473  21.954  -1.365  1.00  0.00     0.022 A 
BRANCH  77  81
ATOM     81  S   UNL     1      -3.215  22.039  -4.114  1.00  0.00     0.124 S 
ATOM     82  O   UNL     1      -4.330  22.972  -4.140  1.00  0.00    -0.237 OA
ATOM     83  O   UNL     1      -1.892  22.628  -3.929  1.00  0.00    -0.237 OA
ATOM     84  O   UNL     1      -3.271  20.949  -5.093  1.00  0.00    -0.744 OA
ENDBRANCH  77  81
ENDBRANCH  60  74
BRANCH  61  85
ATOM     85  C   UNL     1     -11.558  17.665  -4.545  1.00  0.00     0.023 A 
ATOM     86  C   UNL     1     -11.146  17.634  -5.890  1.00  0.00     0.031 A 
ATOM     87  C   UNL     1     -12.477  18.665  -4.180  1.00  0.00     0.131 A 
ATOM     88  C   UNL     1     -11.586  18.602  -6.800  1.00  0.00     0.055 A 
ATOM     89  C   UNL     1     -12.935  19.621  -5.097  1.00  0.00     0.041 A 
ATOM     90  F   UNL     1     -12.886  18.781  -2.907  1.00  0.00    -0.206 F 
ATOM     91  C   UNL     1     -12.476  19.603  -6.412  1.00  0.00     0.022 A 
BRANCH  88  92
ATOM     92  S   UNL     1     -10.909  18.629  -8.482  1.00  0.00     0.124 S 
ATOM     93  O   UNL     1     -12.104  18.848  -9.295  1.00  0.00    -0.237 OA
ATOM     94  O   UNL     1      -9.981  19.751  -8.409  1.00  0.00    -0.237 OA
ATOM     95  O   UNL     1     -10.301  17.308  -8.625  1.00  0.00    -0.744 OA
ENDBRANCH  88  92
ENDBRANCH  61  85
BRANCH  73  96
ATOM     96  C   UNL     1      -9.175  15.450   0.949  1.00  0.00     0.023 A 
ATOM     97  C   UNL     1      -9.036  15.302   2.340  1.00  0.00     0.031 A 
ATOM     98  C   UNL     1      -9.789  14.400   0.242  1.00  0.00     0.131 A 
ATOM     99  C   UNL     1      -9.435  14.122   2.972  1.00  0.00     0.055 A 
ATOM    100  C   UNL     1     -10.262  13.253   0.891  1.00  0.00     0.041 A 
ATOM    101  F   UNL     1      -9.864  14.399  -1.095  1.00  0.00    -0.206 F 
ATOM    102  C   UNL     1     -10.065  13.100   2.259  1.00  0.00     0.022 A 
BRANCH  99 103
ATOM    103  S   UNL     1      -8.960  13.819   4.693  1.00  0.00     0.124 S 
ATOM    104  O   UNL     1     -10.249  13.854   5.377  1.00  0.00    -0.237 OA
ATOM    105  O   UNL     1      -8.327  12.503   4.615  1.00  0.00    -0.237 OA
ATOM    106  O   UNL     1      -8.053  14.918   5.010  1.00  0.00    -0.744 OA
ENDBRANCH  99 103
ENDBRANCH  73  96
ENDBRANCH  47  48
ENDBRANCH  39  42
ENDBRANCH  37  38
ENDBRANCH  36  37
ENDBRANCH  35  36
ENDBRANCH   1  35
TORSDOF 21
