REMARK SMILES Cc1cc([C@@H]([NH2+]CC[NH+](C)C)C(=O)NCCCCCCNC(=O)c2ccc(-c3c4nc(c(-c5cc(S(=O)(=O)[O-])ccc5F)c5ccc([nH]5)c(-c5cc(S(=O)(=O)[O-])ccc5F)c5nc(c(-c6cc(S(=O)(=O)[O-])ccc6F)c6ccc3[nH]6)C=C5)C=C4)cc2)ccc1Br
REMARK SMILES IDX 17 1 16 2 15 3 14 4 12 5 13 6 5 8 4 9 1 10 2 11 3 12 89 13
REMARK SMILES IDX 88 14 90 15 87 16 6 17 7 20 8 21 9 22 10 23 11 24 18 26
REMARK SMILES IDX 19 27 20 28 21 29 22 30 23 32 24 33 25 34 86 35 26 36 85 37
REMARK SMILES IDX 27 38 28 39 29 40 79 41 30 42 84 43 78 44 80 45 31 46 83 47
REMARK SMILES IDX 77 48 76 49 32 51 64 52 44 53 63 54 45 55 48 56 62 57 81 58
REMARK SMILES IDX 46 59 47 60 61 62 82 63 49 64 33 65 34 66 42 67 35 68 41 69
REMARK SMILES IDX 43 70 40 71 36 72 37 73 38 74 39 75 65 76 66 77 74 78 67 79
REMARK SMILES IDX 73 80 75 81 72 82 68 83 69 84 70 85 71 86 50 87 51 88 59 89
REMARK SMILES IDX 52 90 58 91 60 92 57 93 53 94 54 95 55 96 56 97
REMARK H PARENT 14 7 6 18 6 19 9 25 21 31 80 50 48 61
REMARK Flexibility Score: inf
ROOT
ATOM      1  C   UNL     1       3.247   4.815   2.666  1.00  0.00     0.002 C 
ENDROOT
BRANCH   1   2
ATOM      2  C   UNL     1       3.048   3.799   1.540  1.00  0.00     0.021 C 
BRANCH   2   3
ATOM      3  C   UNL     1       4.362   3.354   0.898  1.00  0.00     0.116 C 
BRANCH   3   4
ATOM      4  N   UNL     1       4.918   2.232   1.622  1.00  0.00    -0.351 N 
ATOM      5  C   UNL     1       4.903   0.905   1.305  1.00  0.00     0.283 C 
ATOM      6  O   UNL     1       5.351   0.120   2.152  1.00  0.00    -0.268 OA
ATOM      7  H   UNL     1       5.375   2.458   2.464  1.00  0.00     0.163 HD
BRANCH   5   8
ATOM      8  C   UNL     1       4.388   0.372  -0.057  1.00  0.00     0.304 C 
BRANCH   8   9
ATOM      9  C   UNL     1       2.871   0.222  -0.138  1.00  0.00     0.019 A 
ATOM     10  C   UNL     1       0.368  -2.635   0.264  1.00  0.00     0.045 C 
ATOM     11  C   UNL     1       0.907  -1.249   0.056  1.00  0.00    -0.036 A 
ATOM     12  C   UNL     1       2.295  -1.034   0.133  1.00  0.00     0.015 A 
ATOM     13  C   UNL     1       0.077  -0.157  -0.226  1.00  0.00     0.020 A 
ATOM     14  C   UNL     1       0.628   1.090  -0.513  1.00  0.00     0.016 A 
ATOM     15  Br  UNL     1      -1.815  -0.308  -0.243  1.00  0.00    -0.051 Br
ATOM     16  C   UNL     1       2.014   1.265  -0.504  1.00  0.00     0.011 A 
ENDBRANCH   8   9
BRANCH   8  17
ATOM     17  N   UNL     1       4.960   1.097  -1.212  1.00  0.00    -0.328 N 
ATOM     18  H   UNL     1       4.763   2.091  -1.096  1.00  0.00     0.347 HD
ATOM     19  H   UNL     1       4.527   0.704  -2.049  1.00  0.00     0.347 HD
BRANCH  17  20
ATOM     20  C   UNL     1       6.413   0.929  -1.368  1.00  0.00     0.323 C 
BRANCH  20  21
ATOM     21  C   UNL     1       7.018  -0.502  -1.416  1.00  0.00     0.323 C 
BRANCH  21  22
ATOM     22  N   UNL     1       6.750  -1.339  -2.606  1.00  0.00    -0.335 N 
ATOM     23  C   UNL     1       7.484  -2.603  -2.475  1.00  0.00     0.332 C 
ATOM     24  C   UNL     1       5.337  -1.632  -2.831  1.00  0.00     0.332 C 
ATOM     25  H   UNL     1       7.062  -0.796  -3.411  1.00  0.00     0.347 HD
ENDBRANCH  21  22
ENDBRANCH  20  21
ENDBRANCH  17  20
ENDBRANCH   8  17
ENDBRANCH   5   8
ENDBRANCH   3   4
ENDBRANCH   2   3
ENDBRANCH   1   2
BRANCH   1  26
ATOM     26  C   UNL     1       3.836   6.155   2.207  1.00  0.00     0.002 C 
BRANCH  26  27
ATOM     27  C   UNL     1       3.060   6.850   1.083  1.00  0.00     0.021 C 
BRANCH  27  28
ATOM     28  C   UNL     1       1.600   7.137   1.418  1.00  0.00     0.116 C 
BRANCH  28  29
ATOM     29  N   UNL     1       1.485   8.010   2.576  1.00  0.00    -0.352 N 
ATOM     30  C   UNL     1       0.967   9.279   2.655  1.00  0.00     0.251 C 
ATOM     31  H   UNL     1       1.827   7.639   3.421  1.00  0.00     0.163 HD
ATOM     32  O   UNL     1       1.210   9.981   3.630  1.00  0.00    -0.269 OA
BRANCH  30  33
ATOM     33  C   UNL     1       0.127   9.787   1.552  1.00  0.00     0.039 A 
ATOM     34  C   UNL     1       0.342  11.078   1.067  1.00  0.00     0.014 A 
ATOM     35  C   UNL     1      -0.875   8.982   1.000  1.00  0.00     0.014 A 
ATOM     36  C   UNL     1      -0.407  11.540  -0.017  1.00  0.00     0.010 A 
ATOM     37  C   UNL     1      -1.570   9.417  -0.123  1.00  0.00     0.010 A 
ATOM     38  C   UNL     1      -1.343  10.700  -0.643  1.00  0.00    -0.014 A 
BRANCH  38  39
ATOM     39  C   UNL     1      -2.091  11.140  -1.849  1.00  0.00     0.031 A 
ATOM     40  C   UNL     1      -3.587  11.275  -1.799  1.00  0.00     0.074 A 
ATOM     41  C   UNL     1      -1.427  11.345  -3.004  1.00  0.00     0.049 A 
ATOM     42  N   UNL     1      -4.426  11.550  -2.764  1.00  0.00    -0.248 NA
ATOM     43  C   UNL     1      -4.226  11.041  -0.494  1.00  0.00     0.031 C 
ATOM     44  C   UNL     1       0.021  11.211  -3.180  1.00  0.00     0.029 A 
ATOM     45  N   UNL     1      -1.879  11.696  -4.251  1.00  0.00    -0.354 N 
ATOM     46  C   UNL     1      -5.692  11.512  -2.188  1.00  0.00     0.074 A 
ATOM     47  C   UNL     1      -5.511  11.127  -0.804  1.00  0.00     0.031 C 
ATOM     48  C   UNL     1       0.338  11.498  -4.452  1.00  0.00     0.029 A 
ATOM     49  C   UNL     1      -0.884  11.782  -5.197  1.00  0.00     0.049 A 
ATOM     50  H   UNL     1      -2.828  11.871  -4.449  1.00  0.00     0.167 HD
ATOM     51  C   UNL     1      -6.890  11.793  -2.757  1.00  0.00     0.034 A 
ATOM     52  C   UNL     1      -0.951  12.039  -6.519  1.00  0.00     0.034 A 
ATOM     53  C   UNL     1      -7.048  12.180  -4.139  1.00  0.00     0.049 A 
ATOM     54  C   UNL     1      -2.299  12.303  -7.139  1.00  0.00     0.074 A 
ATOM     55  C   UNL     1      -8.206  12.540  -4.805  1.00  0.00     0.029 A 
ATOM     56  N   UNL     1      -6.019  12.245  -5.070  1.00  0.00    -0.354 N 
ATOM     57  N   UNL     1      -3.483  12.313  -6.570  1.00  0.00    -0.248 NA
ATOM     58  C   UNL     1      -2.321  12.596  -8.578  1.00  0.00     0.031 C 
ATOM     59  C   UNL     1      -7.891  12.747  -6.152  1.00  0.00     0.029 A 
ATOM     60  C   UNL     1      -6.522  12.601  -6.313  1.00  0.00     0.049 A 
ATOM     61  H   UNL     1      -5.071  12.065  -4.877  1.00  0.00     0.167 HD
ATOM     62  C   UNL     1      -4.385  12.644  -7.577  1.00  0.00     0.074 A 
ATOM     63  C   UNL     1      -3.607  12.839  -8.783  1.00  0.00     0.031 C 
ATOM     64  C   UNL     1      -5.735  12.779  -7.511  1.00  0.00     0.034 A 
BRANCH  51  65
ATOM     65  C   UNL     1      -8.121  11.662  -1.892  1.00  0.00     0.023 A 
ATOM     66  C   UNL     1      -8.310  12.459  -0.749  1.00  0.00     0.031 A 
ATOM     67  C   UNL     1      -9.112  10.713  -2.201  1.00  0.00     0.131 A 
ATOM     68  C   UNL     1      -9.419  12.242   0.083  1.00  0.00     0.055 A 
ATOM     69  C   UNL     1     -10.257  10.560  -1.415  1.00  0.00     0.041 A 
ATOM     70  F   UNL     1      -8.980   9.908  -3.267  1.00  0.00    -0.206 F 
ATOM     71  C   UNL     1     -10.408  11.316  -0.257  1.00  0.00     0.022 A 
BRANCH  68  72
ATOM     72  S   UNL     1      -9.473  13.081   1.690  1.00  0.00     0.124 S 
ATOM     73  O   UNL     1      -8.237  12.610   2.311  1.00  0.00    -0.237 OA
ATOM     74  O   UNL     1      -9.501  14.489   1.310  1.00  0.00    -0.237 OA
ATOM     75  O   UNL     1     -10.700  12.574   2.300  1.00  0.00    -0.744 OA
ENDBRANCH  68  72
ENDBRANCH  51  65
BRANCH  52  76
ATOM     76  C   UNL     1       0.287  12.040  -7.352  1.00  0.00     0.023 A 
ATOM     77  C   UNL     1       0.722  13.208  -7.998  1.00  0.00     0.031 A 
ATOM     78  C   UNL     1       1.030  10.863  -7.549  1.00  0.00     0.131 A 
ATOM     79  C   UNL     1       1.837  13.163  -8.848  1.00  0.00     0.055 A 
ATOM     80  C   UNL     1       2.174  10.837  -8.350  1.00  0.00     0.041 A 
ATOM     81  F   UNL     1       0.661   9.718  -6.953  1.00  0.00    -0.206 F 
ATOM     82  C   UNL     1       2.575  11.989  -9.017  1.00  0.00     0.022 A 
BRANCH  79  83
ATOM     83  S   UNL     1       2.257  14.645  -9.807  1.00  0.00     0.124 S 
ATOM     84  O   UNL     1       1.024  14.875 -10.551  1.00  0.00    -0.237 OA
ATOM     85  O   UNL     1       2.563  15.609  -8.756  1.00  0.00    -0.237 OA
ATOM     86  O   UNL     1       3.400  14.217 -10.610  1.00  0.00    -0.744 OA
ENDBRANCH  79  83
ENDBRANCH  52  76
BRANCH  64  87
ATOM     87  C   UNL     1      -6.446  13.199  -8.774  1.00  0.00     0.023 A 
ATOM     88  C   UNL     1      -6.510  12.364  -9.902  1.00  0.00     0.031 A 
ATOM     89  C   UNL     1      -7.070  14.458  -8.847  1.00  0.00     0.131 A 
ATOM     90  C   UNL     1      -7.139  12.816 -11.072  1.00  0.00     0.055 A 
ATOM     91  C   UNL     1      -7.748  14.877  -9.992  1.00  0.00     0.041 A 
ATOM     92  F   UNL     1      -7.037  15.299  -7.801  1.00  0.00    -0.206 F 
ATOM     93  C   UNL     1      -7.775  14.060 -11.117  1.00  0.00     0.022 A 
BRANCH  90  94
ATOM     94  S   UNL     1      -7.041  11.793 -12.566  1.00  0.00     0.124 S 
ATOM     95  O   UNL     1      -5.599  11.700 -12.776  1.00  0.00    -0.237 OA
ATOM     96  O   UNL     1      -7.705  10.563 -12.148  1.00  0.00    -0.237 OA
ATOM     97  O   UNL     1      -7.763  12.576 -13.567  1.00  0.00    -0.744 OA
ENDBRANCH  90  94
ENDBRANCH  64  87
ENDBRANCH  38  39
ENDBRANCH  30  33
ENDBRANCH  28  29
ENDBRANCH  27  28
ENDBRANCH  26  27
ENDBRANCH   1  26
TORSDOF 21
