REMARK SMILES CC(C)CCn1nc(C(=O)NCCCCCCNC(=O)c2ccc(-c3c4nc(c(-c5cc(S(=O)(=O)[O-])ccc5F)c5ccc([nH]5)c(-c5cc(S(=O)(=O)[O-])ccc5F)c5nc(c(-c6cc(S(=O)(=O)[O-])ccc6F)c6ccc3[nH]6)C=C5)C=C4)cc2)c2c1CCN(C(=O)[C@@H]1CCc3nn(C)c(=O)n3C1)C2
REMARK SMILES IDX 14 1 13 2 12 3 11 4 9 5 10 6 8 8 6 9 7 10 85 11 84 12 86 13
REMARK SMILES IDX 102 14 87 15 88 16 5 17 4 18 2 19 1 20 3 21 89 22 90 23
REMARK SMILES IDX 91 24 92 25 101 26 93 27 100 28 94 29 98 30 95 31 96 32
REMARK SMILES IDX 99 33 97 34 15 35 16 36 17 37 18 38 19 39 20 41 21 42 22 43
REMARK SMILES IDX 83 44 23 45 82 46 24 47 25 48 26 49 76 50 27 51 81 52 75 53
REMARK SMILES IDX 77 54 28 55 80 56 74 57 73 58 29 60 61 61 41 62 60 63 42 64
REMARK SMILES IDX 45 65 59 66 78 67 43 68 44 69 58 71 79 72 46 73 30 74 31 75
REMARK SMILES IDX 39 76 32 77 38 78 40 79 37 80 33 81 34 82 35 83 36 84 62 85
REMARK SMILES IDX 63 86 71 87 64 88 70 89 72 90 69 91 65 92 66 93 67 94 68 95
REMARK SMILES IDX 47 96 48 97 56 98 49 99 55 100 57 101 54 102 50 103 51 104
REMARK SMILES IDX 52 105 53 106
REMARK H PARENT 11 7 18 40 77 59 45 70
REMARK Flexibility Score: inf
ROOT
ATOM      1  C   UNL     1       1.042   7.254   7.330  1.00  0.00     0.002 C 
ENDROOT
BRANCH   1   2
ATOM      2  C   UNL     1       0.814   6.191   6.258  1.00  0.00     0.021 C 
BRANCH   2   3
ATOM      3  C   UNL     1      -0.643   6.011   5.779  1.00  0.00     0.116 C 
BRANCH   3   4
ATOM      4  N   UNL     1      -0.827   6.436   4.394  1.00  0.00    -0.351 N 
ATOM      5  C   UNL     1      -1.047   5.796   3.188  1.00  0.00     0.272 C 
ATOM      6  O   UNL     1      -1.431   6.540   2.278  1.00  0.00    -0.267 OA
ATOM      7  H   UNL     1      -0.785   7.414   4.295  1.00  0.00     0.163 HD
BRANCH   5   8
ATOM      8  C   UNL     1      -0.898   4.333   2.977  1.00  0.00     0.155 A 
ATOM      9  N   UNL     1      -1.329   2.408   2.106  1.00  0.00    -0.268 N 
ATOM     10  N   UNL     1      -1.654   3.713   2.028  1.00  0.00    -0.167 NA
ATOM     11  C   UNL     1      -0.564   2.158   3.191  1.00  0.00     0.046 A 
ATOM     12  C   UNL     1      -0.040   3.371   3.584  1.00  0.00     0.026 A 
ATOM     13  C   UNL     1      -0.322   0.884   3.899  1.00  0.00     0.078 C 
ATOM     14  C   UNL     1       1.052   3.469   4.586  1.00  0.00     0.159 C 
ATOM     15  C   UNL     1       0.190   1.300   5.293  1.00  0.00     0.126 C 
ATOM     16  N   UNL     1       1.365   2.170   5.200  1.00  0.00    -0.338 N 
BRANCH   9  17
ATOM     17  C   UNL     1      -1.795   1.454   1.117  1.00  0.00     0.145 C 
BRANCH  17  18
ATOM     18  C   UNL     1      -1.143   1.609  -0.265  1.00  0.00     0.027 C 
BRANCH  18  19
ATOM     19  C   UNL     1       0.392   1.440  -0.314  1.00  0.00    -0.016 C 
ATOM     20  C   UNL     1       0.844   0.015   0.012  1.00  0.00     0.007 C 
ATOM     21  C   UNL     1       0.910   1.825  -1.704  1.00  0.00     0.007 C 
ENDBRANCH  18  19
ENDBRANCH  17  18
ENDBRANCH   9  17
BRANCH  16  22
ATOM     22  C   UNL     1       2.461   2.155   6.051  1.00  0.00     0.227 C 
ATOM     23  O   UNL     1       2.923   3.234   6.452  1.00  0.00    -0.274 OA
BRANCH  22  24
ATOM     24  C   UNL     1       3.198   0.870   6.488  1.00  0.00     0.099 C 
ATOM     25  C   UNL     1       3.757   0.007   5.354  1.00  0.00     0.023 C 
ATOM     26  C   UNL     1       2.545   0.012   7.563  1.00  0.00     0.142 C 
ATOM     27  C   UNL     1       2.769  -0.994   4.768  1.00  0.00     0.078 C 
ATOM     28  N   UNL     1       1.693  -1.013   7.006  1.00  0.00    -0.278 N 
ATOM     29  C   UNL     1       1.686  -1.417   5.719  1.00  0.00     0.133 A 
ATOM     30  C   UNL     1       0.472  -1.363   7.534  1.00  0.00     0.345 A 
ATOM     31  N   UNL     1       0.589  -2.013   5.344  1.00  0.00    -0.155 NA
ATOM     32  N   UNL     1      -0.215  -1.973   6.470  1.00  0.00    -0.216 N 
ATOM     33  O   UNL     1       0.006  -1.020   8.610  1.00  0.00    -0.246 OA
ATOM     34  C   UNL     1      -1.654  -1.962   6.366  1.00  0.00     0.179 C 
ENDBRANCH  22  24
ENDBRANCH  16  22
ENDBRANCH   5   8
ENDBRANCH   3   4
ENDBRANCH   2   3
ENDBRANCH   1   2
BRANCH   1  35
ATOM     35  C   UNL     1       0.397   6.939   8.691  1.00  0.00     0.002 C 
BRANCH  35  36
ATOM     36  C   UNL     1       0.868   5.669   9.428  1.00  0.00     0.021 C 
BRANCH  36  37
ATOM     37  C   UNL     1       2.341   5.676   9.806  1.00  0.00     0.116 C 
BRANCH  37  38
ATOM     38  N   UNL     1       2.694   6.775  10.709  1.00  0.00    -0.352 N 
ATOM     39  C   UNL     1       3.909   7.087  11.301  1.00  0.00     0.251 C 
ATOM     40  H   UNL     1       1.954   7.387  10.929  1.00  0.00     0.163 HD
ATOM     41  O   UNL     1       3.942   7.835  12.262  1.00  0.00    -0.269 OA
BRANCH  39  42
ATOM     42  C   UNL     1       5.152   6.495  10.760  1.00  0.00     0.039 A 
ATOM     43  C   UNL     1       6.272   6.251  11.563  1.00  0.00     0.014 A 
ATOM     44  C   UNL     1       5.197   6.203   9.403  1.00  0.00     0.014 A 
ATOM     45  C   UNL     1       7.402   5.674  10.981  1.00  0.00     0.010 A 
ATOM     46  C   UNL     1       6.196   5.431   8.890  1.00  0.00     0.010 A 
ATOM     47  C   UNL     1       7.345   5.268   9.640  1.00  0.00    -0.014 A 
BRANCH  47  48
ATOM     48  C   UNL     1       8.454   4.624   8.963  1.00  0.00     0.031 A 
ATOM     49  C   UNL     1       8.847   3.323   9.539  1.00  0.00     0.074 A 
ATOM     50  C   UNL     1       8.912   5.038   7.762  1.00  0.00     0.049 A 
ATOM     51  N   UNL     1       9.888   3.084  10.259  1.00  0.00    -0.248 NA
ATOM     52  C   UNL     1       7.902   2.200   9.469  1.00  0.00     0.031 C 
ATOM     53  C   UNL     1       8.403   6.114   6.903  1.00  0.00     0.029 A 
ATOM     54  N   UNL     1       9.880   4.480   6.994  1.00  0.00    -0.354 N 
ATOM     55  C   UNL     1       9.866   1.723  10.526  1.00  0.00     0.074 A 
ATOM     56  C   UNL     1       8.526   1.293  10.225  1.00  0.00     0.031 C 
ATOM     57  C   UNL     1       8.910   5.975   5.657  1.00  0.00     0.029 A 
ATOM     58  C   UNL     1       9.894   4.906   5.670  1.00  0.00     0.049 A 
ATOM     59  H   UNL     1      10.524   3.823   7.346  1.00  0.00     0.167 HD
ATOM     60  C   UNL     1      11.024   1.040  10.745  1.00  0.00     0.034 A 
ATOM     61  C   UNL     1      10.638   4.383   4.659  1.00  0.00     0.034 A 
ATOM     62  C   UNL     1      12.137   1.960  10.882  1.00  0.00     0.049 A 
ATOM     63  C   UNL     1      11.801   3.715   5.306  1.00  0.00     0.074 A 
ATOM     64  C   UNL     1      12.425   3.005  11.741  1.00  0.00     0.029 A 
ATOM     65  N   UNL     1      12.952   2.150   9.784  1.00  0.00    -0.354 N 
ATOM     66  N   UNL     1      12.702   4.366   5.994  1.00  0.00    -0.248 NA
ATOM     67  C   UNL     1      11.684   2.301   5.641  1.00  0.00     0.031 C 
ATOM     68  C   UNL     1      12.983   4.018  10.905  1.00  0.00     0.029 A 
ATOM     69  C   UNL     1      13.102   3.506   9.610  1.00  0.00     0.049 A 
ATOM     70  H   UNL     1      13.352   1.444   9.227  1.00  0.00     0.167 HD
ATOM     71  C   UNL     1      12.927   3.592   7.124  1.00  0.00     0.074 A 
ATOM     72  C   UNL     1      12.355   2.284   6.800  1.00  0.00     0.031 C 
ATOM     73  C   UNL     1      13.280   4.155   8.320  1.00  0.00     0.034 A 
BRANCH  60  74
ATOM     74  C   UNL     1      11.252  -0.432  10.498  1.00  0.00     0.023 A 
ATOM     75  C   UNL     1      12.532  -0.932  10.808  1.00  0.00     0.031 A 
ATOM     76  C   UNL     1      10.421  -1.297   9.754  1.00  0.00     0.131 A 
ATOM     77  C   UNL     1      12.977  -2.159  10.293  1.00  0.00     0.055 A 
ATOM     78  C   UNL     1      10.844  -2.552   9.304  1.00  0.00     0.041 A 
ATOM     79  F   UNL     1       9.198  -0.953   9.340  1.00  0.00    -0.206 F 
ATOM     80  C   UNL     1      12.140  -2.975   9.540  1.00  0.00     0.022 A 
BRANCH  77  81
ATOM     81  S   UNL     1      14.730  -2.571  10.471  1.00  0.00     0.124 S 
ATOM     82  O   UNL     1      15.368  -1.392   9.894  1.00  0.00    -0.237 OA
ATOM     83  O   UNL     1      14.855  -2.731  11.915  1.00  0.00    -0.237 OA
ATOM     84  O   UNL     1      14.868  -3.799   9.692  1.00  0.00    -0.744 OA
ENDBRANCH  77  81
ENDBRANCH  60  74
BRANCH  61  85
ATOM     85  C   UNL     1      10.209   4.160   3.246  1.00  0.00     0.023 A 
ATOM     86  C   UNL     1      11.116   3.862   2.205  1.00  0.00     0.031 A 
ATOM     87  C   UNL     1       8.836   4.005   2.942  1.00  0.00     0.131 A 
ATOM     88  C   UNL     1      10.641   3.431   0.941  1.00  0.00     0.055 A 
ATOM     89  C   UNL     1       8.373   3.585   1.692  1.00  0.00     0.041 A 
ATOM     90  F   UNL     1       7.889   4.169   3.880  1.00  0.00    -0.206 F 
ATOM     91  C   UNL     1       9.275   3.285   0.688  1.00  0.00     0.022 A 
BRANCH  88  92
ATOM     92  S   UNL     1      11.804   2.941  -0.377  1.00  0.00     0.124 S 
ATOM     93  O   UNL     1      12.322   4.228  -0.826  1.00  0.00    -0.237 OA
ATOM     94  O   UNL     1      12.738   2.075   0.332  1.00  0.00    -0.237 OA
ATOM     95  O   UNL     1      10.949   2.251  -1.345  1.00  0.00    -0.744 OA
ENDBRANCH  88  92
ENDBRANCH  61  85
BRANCH  73  96
ATOM     96  C   UNL     1      13.682   5.621   8.348  1.00  0.00     0.023 A 
ATOM     97  C   UNL     1      12.874   6.693   7.900  1.00  0.00     0.031 A 
ATOM     98  C   UNL     1      14.886   5.947   8.998  1.00  0.00     0.131 A 
ATOM     99  C   UNL     1      13.290   8.026   8.103  1.00  0.00     0.055 A 
ATOM    100  C   UNL     1      15.281   7.266   9.220  1.00  0.00     0.041 A 
ATOM    101  F   UNL     1      15.688   4.979   9.471  1.00  0.00    -0.206 F 
ATOM    102  C   UNL     1      14.486   8.312   8.768  1.00  0.00     0.022 A 
BRANCH  99 103
ATOM    103  S   UNL     1      12.288   9.420   7.487  1.00  0.00     0.124 S 
ATOM    104  O   UNL     1      11.976   9.037   6.115  1.00  0.00    -0.237 OA
ATOM    105  O   UNL     1      11.164   9.439   8.418  1.00  0.00    -0.237 OA
ATOM    106  O   UNL     1      13.193  10.566   7.606  1.00  0.00    -0.744 OA
ENDBRANCH  99 103
ENDBRANCH  73  96
ENDBRANCH  47  48
ENDBRANCH  39  42
ENDBRANCH  37  38
ENDBRANCH  36  37
ENDBRANCH  35  36
ENDBRANCH   1  35
TORSDOF 21
