REMARK SMILES O=C(NCCCCCCNC(=O)c1ccc(-c2c3nc(c(-c4cc(S(=O)(=O)[O-])ccc4F)c4ccc([nH]4)c(-c4cc(S(=O)(=O)[O-])ccc4F)c4nc(c(-c5cc(S(=O)(=O)[O-])ccc5F)c5ccc2[nH]5)C=C4)C=C3)cc1)C1=Cc2ccc(Cl)c(Cl)c2O[C@@H]1C(F)(F)F
REMARK SMILES IDX 7 1 6 2 5 3 4 4 3 5 1 6 2 7 76 9 77 10 87 11 78 12 86 13
REMARK SMILES IDX 79 14 85 15 80 16 83 17 81 18 84 19 82 20 88 21 89 22 90 23
REMARK SMILES IDX 91 24 8 25 9 26 10 27 11 28 12 30 13 31 14 32 75 33 15 34
REMARK SMILES IDX 74 35 16 36 17 37 18 38 68 39 19 40 73 41 67 42 69 43 20 44
REMARK SMILES IDX 72 45 66 46 65 47 21 49 53 50 33 51 52 52 34 53 37 54 51 55
REMARK SMILES IDX 70 56 35 57 36 58 50 60 71 61 38 62 22 63 23 64 31 65 24 66
REMARK SMILES IDX 30 67 32 68 29 69 25 70 26 71 27 72 28 73 54 74 55 75 63 76
REMARK SMILES IDX 56 77 62 78 64 79 61 80 57 81 58 82 59 83 60 84 39 85 40 86
REMARK SMILES IDX 48 87 41 88 47 89 49 90 46 91 42 92 43 93 44 94 45 95
REMARK H PARENT 3 8 10 29 69 48 37 59
REMARK Flexibility Score: inf
ROOT
ATOM      1  C   UNL     1       4.443  -2.701   3.930  1.00  0.00     0.002 C 
ENDROOT
BRANCH   1   2
ATOM      2  C   UNL     1       3.829  -1.350   4.319  1.00  0.00     0.002 C 
BRANCH   2   3
ATOM      3  C   UNL     1       4.216  -0.145   3.463  1.00  0.00     0.021 C 
BRANCH   3   4
ATOM      4  C   UNL     1       3.959  -0.267   1.964  1.00  0.00     0.116 C 
BRANCH   4   5
ATOM      5  N   UNL     1       2.673   0.248   1.515  1.00  0.00    -0.352 N 
ATOM      6  O   UNL     1       1.101   0.940   0.062  1.00  0.00    -0.270 OA
ATOM      7  C   UNL     1       2.286   0.694   0.278  1.00  0.00     0.251 C 
ATOM      8  H   UNL     1       1.973   0.281   2.207  1.00  0.00     0.163 HD
BRANCH   7   9
ATOM      9  C   UNL     1       3.247   0.783  -0.863  1.00  0.00     0.067 C 
ATOM     10  C   UNL     1       4.464   1.320  -0.689  1.00  0.00     0.025 C 
ATOM     11  C   UNL     1       3.068  -0.324  -1.869  1.00  0.00     0.314 C 
ATOM     12  C   UNL     1       5.570   0.359  -0.829  1.00  0.00     0.019 A 
ATOM     13  O   UNL     1       4.087  -1.344  -1.742  1.00  0.00    -0.474 OA
ATOM     14  C   UNL     1       6.803   0.692  -0.257  1.00  0.00     0.013 A 
ATOM     15  C   UNL     1       5.304  -0.965  -1.221  1.00  0.00     0.148 A 
ATOM     16  C   UNL     1       7.735  -0.310   0.006  1.00  0.00     0.023 A 
ATOM     17  C   UNL     1       6.250  -1.970  -0.966  1.00  0.00     0.102 A 
ATOM     18  C   UNL     1       7.452  -1.640  -0.324  1.00  0.00     0.063 A 
ATOM     19  Cl  UNL     1       5.858  -3.616  -1.347  1.00  0.00    -0.079 Cl
ATOM     20  Cl  UNL     1       8.598  -2.837   0.168  1.00  0.00    -0.083 Cl
BRANCH  11  21
ATOM     21  C   UNL     1       3.002   0.238  -3.301  1.00  0.00     0.429 C 
ATOM     22  F   UNL     1       2.695  -0.727  -4.199  1.00  0.00    -0.167 F 
ATOM     23  F   UNL     1       2.052   1.198  -3.419  1.00  0.00    -0.167 F 
ATOM     24  F   UNL     1       4.174   0.794  -3.693  1.00  0.00    -0.167 F 
ENDBRANCH  11  21
ENDBRANCH   7   9
ENDBRANCH   4   5
ENDBRANCH   3   4
ENDBRANCH   2   3
ENDBRANCH   1   2
BRANCH   1  25
ATOM     25  C   UNL     1       5.956  -2.739   3.684  1.00  0.00     0.021 C 
BRANCH  25  26
ATOM     26  C   UNL     1       6.846  -2.233   4.818  1.00  0.00     0.116 C 
BRANCH  26  27
ATOM     27  N   UNL     1       6.647  -2.953   6.061  1.00  0.00    -0.352 N 
ATOM     28  C   UNL     1       7.561  -3.524   6.914  1.00  0.00     0.251 C 
ATOM     29  H   UNL     1       5.707  -3.048   6.338  1.00  0.00     0.163 HD
ATOM     30  O   UNL     1       7.154  -4.211   7.847  1.00  0.00    -0.269 OA
BRANCH  28  31
ATOM     31  C   UNL     1       9.020  -3.345   6.709  1.00  0.00     0.039 A 
ATOM     32  C   UNL     1       9.861  -4.442   6.923  1.00  0.00     0.014 A 
ATOM     33  C   UNL     1       9.572  -2.110   6.361  1.00  0.00     0.014 A 
ATOM     34  C   UNL     1      11.241  -4.315   6.739  1.00  0.00     0.010 A 
ATOM     35  C   UNL     1      10.943  -2.000   6.115  1.00  0.00     0.010 A 
ATOM     36  C   UNL     1      11.794  -3.100   6.306  1.00  0.00    -0.014 A 
BRANCH  36  37
ATOM     37  C   UNL     1      13.256  -2.965   6.063  1.00  0.00     0.031 A 
ATOM     38  C   UNL     1      14.085  -2.039   6.912  1.00  0.00     0.074 A 
ATOM     39  C   UNL     1      13.831  -3.641   5.048  1.00  0.00     0.049 A 
ATOM     40  N   UNL     1      15.355  -1.735   6.814  1.00  0.00    -0.248 NA
ATOM     41  C   UNL     1      13.383  -1.343   7.999  1.00  0.00     0.031 C 
ATOM     42  C   UNL     1      13.129  -4.541   4.131  1.00  0.00     0.029 A 
ATOM     43  N   UNL     1      15.132  -3.668   4.609  1.00  0.00    -0.354 N 
ATOM     44  C   UNL     1      15.604  -0.809   7.821  1.00  0.00     0.074 A 
ATOM     45  C   UNL     1      14.335  -0.552   8.471  1.00  0.00     0.031 C 
ATOM     46  C   UNL     1      14.008  -5.042   3.249  1.00  0.00     0.029 A 
ATOM     47  C   UNL     1      15.326  -4.469   3.507  1.00  0.00     0.049 A 
ATOM     48  H   UNL     1      15.857  -3.163   5.042  1.00  0.00     0.167 HD
ATOM     49  C   UNL     1      16.784  -0.245   8.187  1.00  0.00     0.034 A 
ATOM     50  C   UNL     1      16.434  -4.704   2.776  1.00  0.00     0.034 A 
ATOM     51  C   UNL     1      18.041  -0.511   7.528  1.00  0.00     0.049 A 
ATOM     52  C   UNL     1      17.728  -4.045   3.178  1.00  0.00     0.074 A 
ATOM     53  C   UNL     1      19.299  -0.024   7.837  1.00  0.00     0.029 A 
ATOM     54  N   UNL     1      18.199  -1.331   6.417  1.00  0.00    -0.354 N 
ATOM     55  N   UNL     1      17.955  -3.202   4.159  1.00  0.00    -0.248 NA
ATOM     56  C   UNL     1      18.917  -4.379   2.384  1.00  0.00     0.031 C 
ATOM     57  C   UNL     1      20.203  -0.493   6.877  1.00  0.00     0.029 A 
ATOM     58  C   UNL     1      19.526  -1.339   6.012  1.00  0.00     0.049 A 
ATOM     59  H   UNL     1      17.474  -1.835   5.980  1.00  0.00     0.167 HD
ATOM     60  C   UNL     1      19.319  -2.925   4.114  1.00  0.00     0.074 A 
ATOM     61  C   UNL     1      19.863  -3.704   3.020  1.00  0.00     0.031 C 
ATOM     62  C   UNL     1      20.055  -2.106   4.907  1.00  0.00     0.034 A 
BRANCH  49  63
ATOM     63  C   UNL     1      16.752   0.736   9.339  1.00  0.00     0.023 A 
ATOM     64  C   UNL     1      16.339   0.346  10.626  1.00  0.00     0.031 A 
ATOM     65  C   UNL     1      17.097   2.085   9.143  1.00  0.00     0.131 A 
ATOM     66  C   UNL     1      16.191   1.307  11.637  1.00  0.00     0.055 A 
ATOM     67  C   UNL     1      17.035   3.020  10.179  1.00  0.00     0.041 A 
ATOM     68  F   UNL     1      17.480   2.525   7.934  1.00  0.00    -0.206 F 
ATOM     69  C   UNL     1      16.561   2.637  11.431  1.00  0.00     0.022 A 
BRANCH  66  70
ATOM     70  S   UNL     1      15.347   0.826  13.169  1.00  0.00     0.124 S 
ATOM     71  O   UNL     1      14.059   0.359  12.661  1.00  0.00    -0.237 OA
ATOM     72  O   UNL     1      16.232  -0.200  13.707  1.00  0.00    -0.237 OA
ATOM     73  O   UNL     1      15.292   2.069  13.935  1.00  0.00    -0.744 OA
ENDBRANCH  66  70
ENDBRANCH  49  63
BRANCH  50  74
ATOM     74  C   UNL     1      16.366  -5.589   1.577  1.00  0.00     0.023 A 
ATOM     75  C   UNL     1      17.050  -6.813   1.536  1.00  0.00     0.031 A 
ATOM     76  C   UNL     1      15.629  -5.205   0.442  1.00  0.00     0.131 A 
ATOM     77  C   UNL     1      17.016  -7.593   0.369  1.00  0.00     0.055 A 
ATOM     78  C   UNL     1      15.555  -6.009  -0.696  1.00  0.00     0.041 A 
ATOM     79  F   UNL     1      14.953  -4.045   0.432  1.00  0.00    -0.206 F 
ATOM     80  C   UNL     1      16.262  -7.207  -0.741  1.00  0.00     0.022 A 
BRANCH  77  81
ATOM     81  S   UNL     1      18.033  -9.094   0.296  1.00  0.00     0.124 S 
ATOM     82  O   UNL     1      19.371  -8.556   0.516  1.00  0.00    -0.237 OA
ATOM     83  O   UNL     1      17.475  -9.891   1.383  1.00  0.00    -0.237 OA
ATOM     84  O   UNL     1      17.780  -9.611  -1.047  1.00  0.00    -0.744 OA
ENDBRANCH  77  81
ENDBRANCH  50  74
BRANCH  62  85
ATOM     85  C   UNL     1      21.540  -2.044   4.639  1.00  0.00     0.023 A 
ATOM     86  C   UNL     1      22.057  -1.490   3.455  1.00  0.00     0.031 A 
ATOM     87  C   UNL     1      22.450  -2.559   5.580  1.00  0.00     0.131 A 
ATOM     88  C   UNL     1      23.441  -1.513   3.217  1.00  0.00     0.055 A 
ATOM     89  C   UNL     1      23.829  -2.525   5.365  1.00  0.00     0.041 A 
ATOM     90  F   UNL     1      22.013  -3.102   6.727  1.00  0.00    -0.206 F 
ATOM     91  C   UNL     1      24.330  -2.012   4.172  1.00  0.00     0.022 A 
BRANCH  88  92
ATOM     92  S   UNL     1      24.058  -0.965   1.602  1.00  0.00     0.124 S 
ATOM     93  O   UNL     1      23.361  -1.865   0.689  1.00  0.00    -0.237 OA
ATOM     94  O   UNL     1      23.637   0.432   1.565  1.00  0.00    -0.237 OA
ATOM     95  O   UNL     1      25.502  -1.174   1.697  1.00  0.00    -0.744 OA
ENDBRANCH  88  92
ENDBRANCH  62  85
ENDBRANCH  36  37
ENDBRANCH  28  31
ENDBRANCH  26  27
ENDBRANCH  25  26
ENDBRANCH   1  25
TORSDOF 17
