REMARK SMILES Cc1ccc([C@H](Nc2ccc(Cl)c(Br)c2)C(=O)NCCCCCCNC(=O)c2ccc(-c3c4nc(c(-c5cc(S(=O)(=O)[O-])ccc5F)c5ccc([nH]5)c(-c5cc(S(=O)(=O)[O-])ccc5F)c5nc(c(-c6cc(S(=O)(=O)[O-])ccc6F)c6ccc3[nH]6)C=C5)C=C4)cc2)s1
REMARK SMILES IDX 22 1 21 2 20 3 19 4 18 5 16 6 17 7 6 9 5 10 1 11 2 12 3 13
REMARK SMILES IDX 91 14 4 15 7 16 8 18 9 19 15 20 10 21 13 22 11 23 14 24
REMARK SMILES IDX 12 25 23 26 24 27 25 28 26 29 27 31 28 32 29 33 90 34 30 35
REMARK SMILES IDX 89 36 31 37 32 38 33 39 83 40 34 41 88 42 82 43 84 44 35 45
REMARK SMILES IDX 87 46 81 47 80 48 36 50 68 51 48 52 67 53 49 54 52 55 66 56
REMARK SMILES IDX 85 57 50 58 51 59 65 61 86 62 53 63 37 64 38 65 46 66 39 67
REMARK SMILES IDX 45 68 47 69 44 70 40 71 41 72 42 73 43 74 69 75 70 76 78 77
REMARK SMILES IDX 71 78 77 79 79 80 76 81 72 82 73 83 74 84 75 85 54 86 55 87
REMARK SMILES IDX 63 88 56 89 62 90 64 91 61 92 57 93 58 94 59 95 60 96
REMARK H PARENT 18 8 7 17 25 30 84 49 52 60
REMARK Flexibility Score: inf
ROOT
ATOM      1  C   UNL     1      -0.272   5.663  -2.222  1.00  0.00     0.002 C 
ENDROOT
BRANCH   1   2
ATOM      2  C   UNL     1       0.033   4.239  -2.696  1.00  0.00     0.002 C 
BRANCH   2   3
ATOM      3  C   UNL     1       0.107   3.173  -1.596  1.00  0.00     0.021 C 
BRANCH   3   4
ATOM      4  C   UNL     1      -1.099   3.130  -0.664  1.00  0.00     0.116 C 
BRANCH   4   5
ATOM      5  N   UNL     1      -2.329   2.868  -1.386  1.00  0.00    -0.354 N 
ATOM      6  C   UNL     1      -3.281   1.919  -1.129  1.00  0.00     0.247 C 
ATOM      7  O   UNL     1      -4.295   1.925  -1.839  1.00  0.00    -0.272 OA
ATOM      8  H   UNL     1      -2.502   3.448  -2.162  1.00  0.00     0.163 HD
BRANCH   6   9
ATOM      9  C   UNL     1      -3.108   0.894   0.022  1.00  0.00     0.210 C 
BRANCH   9  10
ATOM     10  C   UNL     1      -3.289   1.644   1.348  1.00  0.00     0.037 A 
ATOM     11  C   UNL     1      -3.096   2.303   5.230  1.00  0.00     0.056 C 
ATOM     12  C   UNL     1      -3.263   2.287   3.748  1.00  0.00     0.002 A 
ATOM     13  C   UNL     1      -3.712   3.308   2.943  1.00  0.00     0.015 A 
ATOM     14  S   UNL     1      -2.901   0.881   2.842  1.00  0.00    -0.143 S 
ATOM     15  C   UNL     1      -3.755   2.931   1.573  1.00  0.00     0.018 A 
ENDBRANCH   9  10
BRANCH   9  16
ATOM     16  N   UNL     1      -1.862   0.099  -0.064  1.00  0.00    -0.369 N 
ATOM     17  H   UNL     1      -1.338   0.048   0.768  1.00  0.00     0.161 HD
BRANCH  16  18
ATOM     18  C   UNL     1      -1.327  -0.582  -1.137  1.00  0.00     0.036 A 
ATOM     19  C   UNL     1      -1.631  -0.331  -2.477  1.00  0.00     0.027 A 
ATOM     20  C   UNL     1      -0.372  -1.583  -0.885  1.00  0.00     0.043 A 
ATOM     21  C   UNL     1      -0.984  -1.006  -3.522  1.00  0.00     0.024 A 
ATOM     22  C   UNL     1       0.258  -2.292  -1.922  1.00  0.00     0.038 A 
ATOM     23  C   UNL     1      -0.039  -1.990  -3.249  1.00  0.00     0.055 A 
ATOM     24  Br  UNL     1       1.494  -3.651  -1.436  1.00  0.00    -0.049 Br
ATOM     25  Cl  UNL     1       0.707  -2.780  -4.590  1.00  0.00    -0.083 Cl
ENDBRANCH  16  18
ENDBRANCH   9  16
ENDBRANCH   6   9
ENDBRANCH   4   5
ENDBRANCH   3   4
ENDBRANCH   2   3
ENDBRANCH   1   2
BRANCH   1  26
ATOM     26  C   UNL     1       0.636   6.199  -1.116  1.00  0.00     0.021 C 
BRANCH  26  27
ATOM     27  C   UNL     1       2.128   6.133  -1.413  1.00  0.00     0.116 C 
BRANCH  27  28
ATOM     28  N   UNL     1       2.516   6.949  -2.552  1.00  0.00    -0.352 N 
ATOM     29  C   UNL     1       3.573   7.823  -2.659  1.00  0.00     0.251 C 
ATOM     30  H   UNL     1       1.948   6.865  -3.351  1.00  0.00     0.163 HD
ATOM     31  O   UNL     1       3.688   8.533  -3.653  1.00  0.00    -0.269 OA
BRANCH  29  32
ATOM     32  C   UNL     1       4.538   7.928  -1.542  1.00  0.00     0.039 A 
ATOM     33  C   UNL     1       5.067   6.777  -0.952  1.00  0.00     0.014 A 
ATOM     34  C   UNL     1       4.870   9.190  -1.045  1.00  0.00     0.014 A 
ATOM     35  C   UNL     1       5.785   6.882   0.234  1.00  0.00     0.010 A 
ATOM     36  C   UNL     1       5.663   9.296   0.101  1.00  0.00     0.010 A 
ATOM     37  C   UNL     1       6.084   8.142   0.780  1.00  0.00    -0.014 A 
BRANCH  37  38
ATOM     38  C   UNL     1       6.838   8.225   2.058  1.00  0.00     0.031 A 
ATOM     39  C   UNL     1       6.197   8.784   3.300  1.00  0.00     0.074 A 
ATOM     40  C   UNL     1       8.094   7.738   2.109  1.00  0.00     0.049 A 
ATOM     41  N   UNL     1       6.694   8.892   4.505  1.00  0.00    -0.248 NA
ATOM     42  C   UNL     1       4.820   9.289   3.175  1.00  0.00     0.031 C 
ATOM     43  C   UNL     1       8.809   7.165   0.969  1.00  0.00     0.029 A 
ATOM     44  N   UNL     1       8.978   7.621   3.151  1.00  0.00    -0.354 N 
ATOM     45  C   UNL     1       5.702   9.484   5.278  1.00  0.00     0.074 A 
ATOM     46  C   UNL     1       4.585   9.748   4.397  1.00  0.00     0.031 C 
ATOM     47  C   UNL     1       9.996   6.703   1.385  1.00  0.00     0.029 A 
ATOM     48  C   UNL     1      10.160   7.009   2.803  1.00  0.00     0.049 A 
ATOM     49  H   UNL     1       8.785   7.943   4.061  1.00  0.00     0.167 HD
ATOM     50  C   UNL     1       5.715   9.764   6.604  1.00  0.00     0.034 A 
ATOM     51  C   UNL     1      11.257   6.731   3.536  1.00  0.00     0.034 A 
ATOM     52  C   UNL     1       6.832   9.484   7.471  1.00  0.00     0.049 A 
ATOM     53  C   UNL     1      11.263   7.088   4.999  1.00  0.00     0.074 A 
ATOM     54  C   UNL     1       6.937   9.719   8.831  1.00  0.00     0.029 A 
ATOM     55  N   UNL     1       8.030   8.906   7.074  1.00  0.00    -0.354 N 
ATOM     56  N   UNL     1      10.303   7.618   5.721  1.00  0.00    -0.248 NA
ATOM     57  C   UNL     1      12.495   6.815   5.750  1.00  0.00     0.031 C 
ATOM     58  C   UNL     1       8.214   9.335   9.244  1.00  0.00     0.029 A 
ATOM     59  C   UNL     1       8.886   8.798   8.158  1.00  0.00     0.049 A 
ATOM     60  H   UNL     1       8.240   8.616   6.157  1.00  0.00     0.167 HD
ATOM     61  C   UNL     1      10.810   7.728   7.012  1.00  0.00     0.074 A 
ATOM     62  C   UNL     1      12.151   7.183   6.978  1.00  0.00     0.031 C 
ATOM     63  C   UNL     1      10.219   8.243   8.119  1.00  0.00     0.034 A 
BRANCH  50  64
ATOM     64  C   UNL     1       4.490  10.394   7.221  1.00  0.00     0.023 A 
ATOM     65  C   UNL     1       4.565  11.681   7.787  1.00  0.00     0.031 A 
ATOM     66  C   UNL     1       3.289   9.676   7.359  1.00  0.00     0.131 A 
ATOM     67  C   UNL     1       3.467  12.198   8.487  1.00  0.00     0.055 A 
ATOM     68  C   UNL     1       2.186  10.211   8.026  1.00  0.00     0.041 A 
ATOM     69  F   UNL     1       3.167   8.444   6.837  1.00  0.00    -0.206 F 
ATOM     70  C   UNL     1       2.277  11.473   8.604  1.00  0.00     0.022 A 
BRANCH  67  71
ATOM     71  S   UNL     1       3.558  13.804   9.326  1.00  0.00     0.124 S 
ATOM     72  O   UNL     1       2.499  14.552   8.653  1.00  0.00    -0.237 OA
ATOM     73  O   UNL     1       3.281  13.441  10.713  1.00  0.00    -0.237 OA
ATOM     74  O   UNL     1       4.915  14.266   9.054  1.00  0.00    -0.744 OA
ENDBRANCH  67  71
ENDBRANCH  50  64
BRANCH  51  75
ATOM     75  C   UNL     1      12.403   6.032   2.885  1.00  0.00     0.023 A 
ATOM     76  C   UNL     1      13.079   6.611   1.795  1.00  0.00     0.031 A 
ATOM     77  C   UNL     1      12.752   4.724   3.259  1.00  0.00     0.131 A 
ATOM     78  C   UNL     1      14.006   5.855   1.067  1.00  0.00     0.055 A 
ATOM     79  C   UNL     1      13.732   4.000   2.577  1.00  0.00     0.041 A 
ATOM     80  F   UNL     1      12.128   4.124   4.284  1.00  0.00    -0.206 F 
ATOM     81  C   UNL     1      14.349   4.558   1.461  1.00  0.00     0.022 A 
BRANCH  78  82
ATOM     82  S   UNL     1      14.681   6.472  -0.500  1.00  0.00     0.124 S 
ATOM     83  O   UNL     1      16.113   6.504  -0.223  1.00  0.00    -0.237 OA
ATOM     84  O   UNL     1      14.241   5.443  -1.439  1.00  0.00    -0.237 OA
ATOM     85  O   UNL     1      14.040   7.773  -0.662  1.00  0.00    -0.744 OA
ENDBRANCH  78  82
ENDBRANCH  51  75
BRANCH  63  86
ATOM     86  C   UNL     1      11.000   8.258   9.411  1.00  0.00     0.023 A 
ATOM     87  C   UNL     1      10.543   7.520  10.520  1.00  0.00     0.031 A 
ATOM     88  C   UNL     1      12.098   9.117   9.590  1.00  0.00     0.131 A 
ATOM     89  C   UNL     1      11.155   7.687  11.768  1.00  0.00     0.055 A 
ATOM     90  C   UNL     1      12.733   9.246  10.825  1.00  0.00     0.041 A 
ATOM     91  F   UNL     1      12.563   9.850   8.565  1.00  0.00    -0.206 F 
ATOM     92  C   UNL     1      12.253   8.540  11.925  1.00  0.00     0.022 A 
BRANCH  89  93
ATOM     93  S   UNL     1      10.496   6.875  13.250  1.00  0.00     0.124 S 
ATOM     94  O   UNL     1      11.626   6.050  13.670  1.00  0.00    -0.237 OA
ATOM     95  O   UNL     1      10.198   8.012  14.117  1.00  0.00    -0.237 OA
ATOM     96  O   UNL     1       9.335   6.138  12.762  1.00  0.00    -0.744 OA
ENDBRANCH  89  93
ENDBRANCH  63  86
ENDBRANCH  37  38
ENDBRANCH  29  32
ENDBRANCH  27  28
ENDBRANCH  26  27
ENDBRANCH   1  26
TORSDOF 19
