REMARK SMILES COCCNS(=O)(=O)c1c[nH]c(C(=O)NCCCCCCNC(=O)c2ccc(-c3c4nc(c(-c5cc(S(=O)(=O)[O-])ccc5F)c5ccc([nH]5)c(-c5cc(S(=O)(=O)[O-])ccc5F)c5nc(c(-c6cc(S(=O)(=O)[O-])ccc6F)c6ccc3[nH]6)C=C5)C=C4)cc2)c1
REMARK SMILES IDX 17 1 16 2 15 3 13 4 14 5 12 7 9 8 10 9 88 10 11 11 6 13 7 14
REMARK SMILES IDX 8 15 5 16 4 18 3 19 2 20 1 21 18 22 19 23 20 24 21 25 22 26
REMARK SMILES IDX 23 27 24 29 25 30 26 31 87 32 27 33 86 34 28 35 29 36 30 37
REMARK SMILES IDX 80 38 31 39 85 40 79 41 81 42 32 43 84 44 78 45 77 46 33 48
REMARK SMILES IDX 65 49 45 50 64 51 46 52 49 53 63 54 82 55 47 56 48 57 62 59
REMARK SMILES IDX 83 60 50 61 34 62 35 63 43 64 36 65 42 66 44 67 41 68 37 69
REMARK SMILES IDX 38 70 39 71 40 72 66 73 67 74 75 75 68 76 74 77 76 78 73 79
REMARK SMILES IDX 69 80 70 81 71 82 72 83 51 84 52 85 60 86 53 87 59 88 61 89
REMARK SMILES IDX 58 90 54 91 55 92 56 93 57 94
REMARK H PARENT 15 6 11 12 5 17 22 28 81 47 49 58
REMARK Flexibility Score: inf
ROOT
ATOM      1  C   UNL     1      -1.485   5.945   3.960  1.00  0.00     0.021 C 
ENDROOT
BRANCH   1   2
ATOM      2  C   UNL     1       0.029   5.748   4.021  1.00  0.00     0.116 C 
BRANCH   2   3
ATOM      3  N   UNL     1       0.528   5.936   5.369  1.00  0.00    -0.351 N 
ATOM      4  C   UNL     1       0.994   5.034   6.289  1.00  0.00     0.267 C 
ATOM      5  O   UNL     1       1.494   5.483   7.321  1.00  0.00    -0.268 OA
ATOM      6  H   UNL     1       0.534   6.871   5.676  1.00  0.00     0.163 HD
BRANCH   4   7
ATOM      7  C   UNL     1       0.984   3.615   6.015  1.00  0.00     0.105 A 
ATOM      8  C   UNL     1       0.826   1.518   5.166  1.00  0.00     0.100 A 
ATOM      9  C   UNL     1       1.813   1.514   6.126  1.00  0.00     0.104 A 
ATOM     10  C   UNL     1       0.222   2.802   5.190  1.00  0.00     0.055 A 
ATOM     11  N   UNL     1       1.850   2.765   6.680  1.00  0.00    -0.356 N 
ATOM     12  H   UNL     1       2.414   3.024   7.445  1.00  0.00     0.166 HD
BRANCH   8  13
ATOM     13  S   UNL     1       0.399   0.245   4.080  1.00  0.00     0.242 S 
ATOM     14  O   UNL     1      -1.032   0.290   3.984  1.00  0.00    -0.207 OA
ATOM     15  O   UNL     1       1.119  -0.922   4.561  1.00  0.00    -0.207 OA
BRANCH  13  16
ATOM     16  N   UNL     1       1.048   0.607   2.553  1.00  0.00    -0.209 NA
ATOM     17  H   UNL     1       2.036   0.827   2.678  1.00  0.00     0.141 HD
BRANCH  16  18
ATOM     18  C   UNL     1       0.417   1.740   1.830  1.00  0.00     0.127 C 
BRANCH  18  19
ATOM     19  C   UNL     1       1.095   1.986   0.474  1.00  0.00     0.176 C 
BRANCH  19  20
ATOM     20  O   UNL     1       0.544   1.213  -0.593  1.00  0.00    -0.383 OA
ATOM     21  C   UNL     1       0.956  -0.143  -0.614  1.00  0.00     0.194 C 
ENDBRANCH  19  20
ENDBRANCH  18  19
ENDBRANCH  16  18
ENDBRANCH  13  16
ENDBRANCH   8  13
ENDBRANCH   4   7
ENDBRANCH   2   3
ENDBRANCH   1   2
BRANCH   1  22
ATOM     22  C   UNL     1      -1.905   7.420   3.911  1.00  0.00     0.002 C 
BRANCH  22  23
ATOM     23  C   UNL     1      -1.392   8.203   2.694  1.00  0.00     0.002 C 
BRANCH  23  24
ATOM     24  C   UNL     1      -1.756   7.598   1.330  1.00  0.00     0.021 C 
BRANCH  24  25
ATOM     25  C   UNL     1      -3.244   7.710   0.991  1.00  0.00     0.116 C 
BRANCH  25  26
ATOM     26  N   UNL     1      -3.599   9.098   0.747  1.00  0.00    -0.352 N 
ATOM     27  C   UNL     1      -4.787   9.651   0.353  1.00  0.00     0.251 C 
ATOM     28  H   UNL     1      -2.869   9.743   0.888  1.00  0.00     0.163 HD
ATOM     29  O   UNL     1      -4.779  10.788  -0.117  1.00  0.00    -0.269 OA
BRANCH  27  30
ATOM     30  C   UNL     1      -6.062   8.911   0.449  1.00  0.00     0.039 A 
ATOM     31  C   UNL     1      -6.947   9.007  -0.632  1.00  0.00     0.014 A 
ATOM     32  C   UNL     1      -6.438   8.215   1.604  1.00  0.00     0.014 A 
ATOM     33  C   UNL     1      -8.175   8.354  -0.585  1.00  0.00     0.010 A 
ATOM     34  C   UNL     1      -7.671   7.557   1.652  1.00  0.00     0.010 A 
ATOM     35  C   UNL     1      -8.530   7.603   0.545  1.00  0.00    -0.014 A 
BRANCH  35  36
ATOM     36  C   UNL     1      -9.689   6.677   0.420  1.00  0.00     0.031 A 
ATOM     37  C   UNL     1      -9.296   5.408  -0.380  1.00  0.00     0.074 A 
ATOM     38  C   UNL     1     -10.896   7.072   0.937  1.00  0.00     0.049 A 
ATOM     39  N   UNL     1      -9.997   4.658  -1.175  1.00  0.00    -0.248 NA
ATOM     40  C   UNL     1      -7.867   4.976  -0.380  1.00  0.00     0.031 C 
ATOM     41  C   UNL     1     -11.121   8.313   1.715  1.00  0.00     0.029 A 
ATOM     42  N   UNL     1     -12.171   6.533   0.924  1.00  0.00    -0.354 N 
ATOM     43  C   UNL     1      -9.185   3.556  -1.553  1.00  0.00     0.074 A 
ATOM     44  C   UNL     1      -7.852   3.898  -1.168  1.00  0.00     0.031 C 
ATOM     45  C   UNL     1     -12.430   8.466   2.028  1.00  0.00     0.029 A 
ATOM     46  C   UNL     1     -13.191   7.345   1.508  1.00  0.00     0.049 A 
ATOM     47  H   UNL     1     -12.362   5.648   0.538  1.00  0.00     0.167 HD
ATOM     48  C   UNL     1      -9.687   2.365  -2.004  1.00  0.00     0.034 A 
ATOM     49  C   UNL     1     -14.551   7.146   1.546  1.00  0.00     0.034 A 
ATOM     50  C   UNL     1     -11.105   2.447  -2.079  1.00  0.00     0.049 A 
ATOM     51  C   UNL     1     -14.743   5.798   0.997  1.00  0.00     0.074 A 
ATOM     52  C   UNL     1     -11.964   3.126  -2.898  1.00  0.00     0.029 A 
ATOM     53  N   UNL     1     -11.804   1.960  -0.998  1.00  0.00    -0.354 N 
ATOM     54  N   UNL     1     -14.494   4.702   1.641  1.00  0.00    -0.248 NA
ATOM     55  C   UNL     1     -15.223   5.651  -0.384  1.00  0.00     0.031 C 
ATOM     56  C   UNL     1     -13.034   3.448  -2.040  1.00  0.00     0.029 A 
ATOM     57  C   UNL     1     -12.869   2.798  -0.808  1.00  0.00     0.049 A 
ATOM     58  H   UNL     1     -11.582   1.163  -0.465  1.00  0.00     0.167 HD
ATOM     59  C   UNL     1     -14.475   3.767   0.639  1.00  0.00     0.074 A 
ATOM     60  C   UNL     1     -15.247   4.321  -0.452  1.00  0.00     0.031 C 
ATOM     61  C   UNL     1     -13.401   2.944   0.532  1.00  0.00     0.034 A 
BRANCH  48  62
ATOM     62  C   UNL     1      -9.100   0.977  -2.164  1.00  0.00     0.023 A 
ATOM     63  C   UNL     1      -9.940   0.012  -2.785  1.00  0.00     0.031 A 
ATOM     64  C   UNL     1      -7.979   0.471  -1.495  1.00  0.00     0.131 A 
ATOM     65  C   UNL     1      -9.758  -1.363  -2.591  1.00  0.00     0.055 A 
ATOM     66  C   UNL     1      -7.752  -0.910  -1.370  1.00  0.00     0.041 A 
ATOM     67  F   UNL     1      -7.109   1.272  -0.868  1.00  0.00    -0.206 F 
ATOM     68  C   UNL     1      -8.664  -1.834  -1.878  1.00  0.00     0.022 A 
BRANCH  65  69
ATOM     69  S   UNL     1     -11.087  -2.489  -3.111  1.00  0.00     0.124 S 
ATOM     70  O   UNL     1     -12.252  -1.917  -2.447  1.00  0.00    -0.237 OA
ATOM     71  O   UNL     1     -11.049  -2.353  -4.564  1.00  0.00    -0.237 OA
ATOM     72  O   UNL     1     -10.652  -3.786  -2.598  1.00  0.00    -0.744 OA
ENDBRANCH  65  69
ENDBRANCH  48  62
BRANCH  49  73
ATOM     73  C   UNL     1     -15.846   7.858   1.938  1.00  0.00     0.023 A 
ATOM     74  C   UNL     1     -15.966   9.091   2.603  1.00  0.00     0.031 A 
ATOM     75  C   UNL     1     -17.104   7.268   1.569  1.00  0.00     0.131 A 
ATOM     76  C   UNL     1     -17.253   9.682   2.795  1.00  0.00     0.055 A 
ATOM     77  C   UNL     1     -18.347   7.887   1.687  1.00  0.00     0.041 A 
ATOM     78  F   UNL     1     -17.201   6.031   1.065  1.00  0.00    -0.206 F 
ATOM     79  C   UNL     1     -18.427   9.113   2.293  1.00  0.00     0.022 A 
BRANCH  76  80
ATOM     80  S   UNL     1     -17.470  11.243   3.703  1.00  0.00     0.124 S 
ATOM     81  O   UNL     1     -17.782  10.771   5.047  1.00  0.00    -0.237 OA
ATOM     82  O   UNL     1     -16.181  11.906   3.537  1.00  0.00    -0.237 OA
ATOM     83  O   UNL     1     -18.583  11.880   2.997  1.00  0.00    -0.744 OA
ENDBRANCH  76  80
ENDBRANCH  49  73
BRANCH  61  84
ATOM     84  C   UNL     1     -12.661   2.708   1.853  1.00  0.00     0.023 A 
ATOM     85  C   UNL     1     -13.367   2.273   2.996  1.00  0.00     0.031 A 
ATOM     86  C   UNL     1     -11.309   3.034   2.062  1.00  0.00     0.131 A 
ATOM     87  C   UNL     1     -12.748   2.227   4.263  1.00  0.00     0.055 A 
ATOM     88  C   UNL     1     -10.686   2.976   3.317  1.00  0.00     0.041 A 
ATOM     89  F   UNL     1     -10.537   3.442   1.057  1.00  0.00    -0.206 F 
ATOM     90  C   UNL     1     -11.409   2.579   4.429  1.00  0.00     0.022 A 
BRANCH  87  91
ATOM     91  S   UNL     1     -13.712   1.699   5.707  1.00  0.00     0.124 S 
ATOM     92  O   UNL     1     -14.652   2.799   5.889  1.00  0.00    -0.237 OA
ATOM     93  O   UNL     1     -14.286   0.434   5.258  1.00  0.00    -0.237 OA
ATOM     94  O   UNL     1     -12.705   1.570   6.761  1.00  0.00    -0.744 OA
ENDBRANCH  87  91
ENDBRANCH  61  84
ENDBRANCH  35  36
ENDBRANCH  27  30
ENDBRANCH  25  26
ENDBRANCH  24  25
ENDBRANCH  23  24
ENDBRANCH  22  23
ENDBRANCH   1  22
TORSDOF 21
