REMARK SMILES O=C(NCCCCCCNC(=O)[C@H]1Cc2c([nH]c3ccccc23)[C@H](c2c[nH]c3ccccc23)[NH2+]1)c1ccc(-c2c3nc(c(-c4cc(S(=O)(=O)[O-])ccc4F)c4ccc([nH]4)c(-c4cc(S(=O)(=O)[O-])ccc4F)c4nc(c(-c5cc(S(=O)(=O)[O-])ccc5F)c5ccc2[nH]5)C=C4)C=C3)cc1
REMARK SMILES IDX 5 1 4 2 3 3 1 4 2 5 35 7 36 8 97 9 37 10 96 11 38 12 39 13
REMARK SMILES IDX 40 14 90 15 41 16 95 17 89 18 91 19 42 20 94 21 88 22 87 23
REMARK SMILES IDX 43 25 75 26 55 27 74 28 56 29 59 30 73 31 92 32 57 33 58 34
REMARK SMILES IDX 72 36 93 37 60 38 44 39 45 40 53 41 46 42 52 43 54 44 51 45
REMARK SMILES IDX 47 46 48 47 49 48 50 49 76 50 77 51 85 52 78 53 84 54 86 55
REMARK SMILES IDX 83 56 79 57 80 58 81 59 82 60 61 61 62 62 70 63 63 64 69 65
REMARK SMILES IDX 71 66 68 67 64 68 65 69 66 70 67 71 6 72 7 73 8 74 9 75
REMARK SMILES IDX 10 76 11 77 12 79 13 80 14 81 34 82 15 83 24 84 16 87 23 88
REMARK SMILES IDX 17 89 18 90 22 91 19 93 21 94 20 95 25 96 26 97 33 98 27 99
REMARK SMILES IDX 28 100 32 101 29 103 31 104 30 105
REMARK H PARENT 3 6 91 24 59 35 10 78 34 85 34 86 17 92 27 102
REMARK Flexibility Score: inf
ROOT
ATOM      1  C   UNL     1       4.375  -2.465  -0.961  1.00  0.00     0.021 C 
ENDROOT
BRANCH   1   2
ATOM      2  C   UNL     1       4.272  -0.946  -1.035  1.00  0.00     0.116 C 
BRANCH   2   3
ATOM      3  N   UNL     1       2.887  -0.494  -1.038  1.00  0.00    -0.352 N 
ATOM      4  O   UNL     1       0.981   0.335  -0.164  1.00  0.00    -0.269 OA
ATOM      5  C   UNL     1       2.205   0.238  -0.097  1.00  0.00     0.251 C 
ATOM      6  H   UNL     1       2.364  -0.751  -1.831  1.00  0.00     0.163 HD
BRANCH   5   7
ATOM      7  C   UNL     1       2.945   0.898   1.000  1.00  0.00     0.039 A 
ATOM      8  C   UNL     1       4.140   1.569   0.737  1.00  0.00     0.014 A 
ATOM      9  C   UNL     1       2.442   0.847   2.303  1.00  0.00     0.014 A 
ATOM     10  C   UNL     1       4.914   2.036   1.791  1.00  0.00     0.010 A 
ATOM     11  C   UNL     1       3.174   1.415   3.352  1.00  0.00     0.010 A 
ATOM     12  C   UNL     1       4.436   1.980   3.111  1.00  0.00    -0.014 A 
BRANCH  12  13
ATOM     13  C   UNL     1       5.266   2.557   4.203  1.00  0.00     0.031 A 
ATOM     14  C   UNL     1       5.795   1.695   5.319  1.00  0.00     0.074 A 
ATOM     15  C   UNL     1       5.583   3.866   4.152  1.00  0.00     0.049 A 
ATOM     16  N   UNL     1       6.570   2.027   6.321  1.00  0.00    -0.248 NA
ATOM     17  C   UNL     1       5.394   0.281   5.316  1.00  0.00     0.031 C 
ATOM     18  C   UNL     1       5.126   4.801   3.119  1.00  0.00     0.029 A 
ATOM     19  N   UNL     1       6.380   4.635   4.961  1.00  0.00    -0.354 N 
ATOM     20  C   UNL     1       6.732   0.873   7.081  1.00  0.00     0.074 A 
ATOM     21  C   UNL     1       5.943  -0.159   6.440  1.00  0.00     0.031 C 
ATOM     22  C   UNL     1       5.702   5.994   3.318  1.00  0.00     0.029 A 
ATOM     23  C   UNL     1       6.501   5.938   4.536  1.00  0.00     0.049 A 
ATOM     24  H   UNL     1       6.823   4.287   5.768  1.00  0.00     0.167 HD
ATOM     25  C   UNL     1       7.476   0.693   8.202  1.00  0.00     0.034 A 
ATOM     26  C   UNL     1       7.165   6.979   5.073  1.00  0.00     0.034 A 
ATOM     27  C   UNL     1       8.258   1.737   8.824  1.00  0.00     0.049 A 
ATOM     28  C   UNL     1       7.942   6.761   6.343  1.00  0.00     0.074 A 
ATOM     29  C   UNL     1       9.078   1.652   9.937  1.00  0.00     0.029 A 
ATOM     30  N   UNL     1       8.309   3.059   8.400  1.00  0.00    -0.354 N 
ATOM     31  N   UNL     1       8.109   5.655   7.032  1.00  0.00    -0.248 NA
ATOM     32  C   UNL     1       8.626   7.931   6.904  1.00  0.00     0.031 C 
ATOM     33  C   UNL     1       9.553   2.934  10.234  1.00  0.00     0.029 A 
ATOM     34  C   UNL     1       9.113   3.805   9.252  1.00  0.00     0.049 A 
ATOM     35  H   UNL     1       7.843   3.416   7.609  1.00  0.00     0.167 HD
ATOM     36  C   UNL     1       8.947   5.993   8.091  1.00  0.00     0.074 A 
ATOM     37  C   UNL     1       9.264   7.398   7.934  1.00  0.00     0.031 C 
ATOM     38  C   UNL     1       9.414   5.211   9.097  1.00  0.00     0.034 A 
BRANCH  25  39
ATOM     39  C   UNL     1       7.433  -0.670   8.859  1.00  0.00     0.023 A 
ATOM     40  C   UNL     1       7.889  -1.829   8.206  1.00  0.00     0.031 A 
ATOM     41  C   UNL     1       6.909  -0.814  10.157  1.00  0.00     0.131 A 
ATOM     42  C   UNL     1       7.740  -3.084   8.818  1.00  0.00     0.055 A 
ATOM     43  C   UNL     1       6.844  -2.055  10.795  1.00  0.00     0.041 A 
ATOM     44  F   UNL     1       6.438   0.250  10.826  1.00  0.00    -0.206 F 
ATOM     45  C   UNL     1       7.247  -3.202  10.119  1.00  0.00     0.022 A 
BRANCH  42  46
ATOM     46  S   UNL     1       8.057  -4.572   7.829  1.00  0.00     0.124 S 
ATOM     47  O   UNL     1       7.146  -4.378   6.702  1.00  0.00    -0.237 OA
ATOM     48  O   UNL     1       9.478  -4.454   7.528  1.00  0.00    -0.237 OA
ATOM     49  O   UNL     1       7.697  -5.665   8.729  1.00  0.00    -0.744 OA
ENDBRANCH  42  46
ENDBRANCH  25  39
BRANCH  26  50
ATOM     50  C   UNL     1       7.108   8.323   4.429  1.00  0.00     0.023 A 
ATOM     51  C   UNL     1       8.271   8.943   3.946  1.00  0.00     0.031 A 
ATOM     52  C   UNL     1       5.894   9.025   4.323  1.00  0.00     0.131 A 
ATOM     53  C   UNL     1       8.204  10.244   3.425  1.00  0.00     0.055 A 
ATOM     54  C   UNL     1       5.822  10.293   3.745  1.00  0.00     0.041 A 
ATOM     55  F   UNL     1       4.751   8.479   4.768  1.00  0.00    -0.206 F 
ATOM     56  C   UNL     1       6.985  10.916   3.306  1.00  0.00     0.022 A 
BRANCH  53  57
ATOM     57  S   UNL     1       9.751  11.084   2.994  1.00  0.00     0.124 S 
ATOM     58  O   UNL     1      10.471  11.048   4.262  1.00  0.00    -0.237 OA
ATOM     59  O   UNL     1      10.275  10.229   1.934  1.00  0.00    -0.237 OA
ATOM     60  O   UNL     1       9.310  12.409   2.563  1.00  0.00    -0.744 OA
ENDBRANCH  53  57
ENDBRANCH  26  50
BRANCH  38  61
ATOM     61  C   UNL     1      10.370   5.856  10.075  1.00  0.00     0.023 A 
ATOM     62  C   UNL     1       9.977   6.915  10.912  1.00  0.00     0.031 A 
ATOM     63  C   UNL     1      11.707   5.425  10.141  1.00  0.00     0.131 A 
ATOM     64  C   UNL     1      10.927   7.557  11.721  1.00  0.00     0.055 A 
ATOM     65  C   UNL     1      12.630   6.017  11.004  1.00  0.00     0.041 A 
ATOM     66  F   UNL     1      12.143   4.422   9.362  1.00  0.00    -0.206 F 
ATOM     67  C   UNL     1      12.246   7.102  11.787  1.00  0.00     0.022 A 
BRANCH  64  68
ATOM     68  S   UNL     1      10.448   9.076  12.588  1.00  0.00     0.124 S 
ATOM     69  O   UNL     1       9.988   9.920  11.490  1.00  0.00    -0.237 OA
ATOM     70  O   UNL     1       9.414   8.600  13.502  1.00  0.00    -0.237 OA
ATOM     71  O   UNL     1      11.688   9.511  13.228  1.00  0.00    -0.744 OA
ENDBRANCH  64  68
ENDBRANCH  38  61
ENDBRANCH  12  13
ENDBRANCH   5   7
ENDBRANCH   2   3
ENDBRANCH   1   2
BRANCH   1  72
ATOM     72  C   UNL     1       3.798  -3.197  -2.174  1.00  0.00     0.002 C 
BRANCH  72  73
ATOM     73  C   UNL     1       4.433  -2.832  -3.522  1.00  0.00     0.002 C 
BRANCH  73  74
ATOM     74  C   UNL     1       5.960  -2.947  -3.558  1.00  0.00     0.021 C 
BRANCH  74  75
ATOM     75  C   UNL     1       6.479  -4.373  -3.351  1.00  0.00     0.116 C 
BRANCH  75  76
ATOM     76  N   UNL     1       6.479  -5.081  -4.611  1.00  0.00    -0.351 N 
ATOM     77  C   UNL     1       7.495  -5.361  -5.476  1.00  0.00     0.278 C 
ATOM     78  H   UNL     1       5.598  -5.418  -4.891  1.00  0.00     0.163 HD
ATOM     79  O   UNL     1       7.154  -5.859  -6.555  1.00  0.00    -0.268 OA
BRANCH  77  80
ATOM     80  C   UNL     1       8.981  -5.090  -5.112  1.00  0.00     0.277 C 
ATOM     81  C   UNL     1       9.759  -6.334  -5.630  1.00  0.00     0.114 C 
ATOM     82  N   UNL     1       9.427  -3.798  -5.716  1.00  0.00    -0.324 N 
ATOM     83  C   UNL     1      11.209  -6.054  -5.717  1.00  0.00    -0.006 A 
ATOM     84  C   UNL     1      10.872  -3.495  -5.634  1.00  0.00     0.264 C 
ATOM     85  H   UNL     1       8.925  -3.046  -5.245  1.00  0.00     0.347 HD
ATOM     86  H   UNL     1       9.225  -3.883  -6.712  1.00  0.00     0.347 HD
ATOM     87  C   UNL     1      11.680  -4.760  -5.742  1.00  0.00     0.083 A 
ATOM     88  C   UNL     1      12.314  -6.938  -5.833  1.00  0.00     0.003 A 
ATOM     89  N   UNL     1      13.038  -4.828  -5.911  1.00  0.00    -0.353 N 
ATOM     90  C   UNL     1      13.454  -6.141  -5.949  1.00  0.00     0.046 A 
ATOM     91  C   UNL     1      12.461  -8.338  -5.859  1.00  0.00     0.010 A 
ATOM     92  H   UNL     1      13.634  -4.048  -5.994  1.00  0.00     0.166 HD
ATOM     93  C   UNL     1      14.740  -6.678  -6.079  1.00  0.00     0.026 A 
ATOM     94  C   UNL     1      13.740  -8.891  -5.984  1.00  0.00     0.001 A 
ATOM     95  C   UNL     1      14.861  -8.071  -6.091  1.00  0.00     0.002 A 
BRANCH  84  96
ATOM     96  C   UNL     1      11.315  -2.630  -4.452  1.00  0.00     0.041 A 
ATOM     97  C   UNL     1      12.581  -2.053  -4.360  1.00  0.00     0.093 A 
ATOM     98  C   UNL     1      10.636  -2.190  -3.255  1.00  0.00     0.009 A 
ATOM     99  N   UNL     1      12.725  -1.445  -3.145  1.00  0.00    -0.361 N 
ATOM    100  C   UNL     1      11.554  -1.520  -2.443  1.00  0.00     0.046 A 
ATOM    101  C   UNL     1       9.326  -2.286  -2.756  1.00  0.00     0.011 A 
ATOM    102  H   UNL     1      13.551  -1.016  -2.822  1.00  0.00     0.166 HD
ATOM    103  C   UNL     1      11.248  -1.033  -1.163  1.00  0.00     0.026 A 
ATOM    104  C   UNL     1       8.991  -1.817  -1.480  1.00  0.00     0.001 A 
ATOM    105  C   UNL     1       9.950  -1.210  -0.687  1.00  0.00     0.002 A 
ENDBRANCH  84  96
ENDBRANCH  77  80
ENDBRANCH  75  76
ENDBRANCH  74  75
ENDBRANCH  73  74
ENDBRANCH  72  73
ENDBRANCH   1  72
TORSDOF 17
