REMARK SMILES C[C@@H]1CC[C@H](C)[N@H+]1Cc1cc2c(cc1Cl)C=C(C(=O)NCCCCCCNC(=O)c1ccc(-c3c4nc(c(-c5cc(S(=O)(=O)[O-])ccc5F)c5ccc([nH]5)c(-c5cc(S(=O)(=O)[O-])ccc5F)c5nc(c(-c6cc(S(=O)(=O)[O-])ccc6F)c6ccc3[nH]6)C=C5)C=C4)cc1)[C@@H](C(F)(F)F)O2
REMARK SMILES IDX 24 1 23 2 22 3 21 4 20 5 18 6 19 7 17 9 9 10 10 11 14 12
REMARK SMILES IDX 11 13 13 14 15 15 12 16 98 17 16 18 93 19 8 20 7 21 6 22
REMARK SMILES IDX 5 23 4 24 3 25 2 26 1 28 94 29 95 30 96 31 97 32 25 33 26 34
REMARK SMILES IDX 27 35 28 36 29 38 30 39 31 40 92 41 32 42 91 43 33 44 34 45
REMARK SMILES IDX 35 46 85 47 36 48 90 49 84 50 86 51 37 52 89 53 83 54 82 55
REMARK SMILES IDX 38 57 70 58 50 59 69 60 51 61 54 62 68 63 87 64 52 65 53 66
REMARK SMILES IDX 67 68 88 69 55 70 39 71 40 72 48 73 41 74 47 75 49 76 46 77
REMARK SMILES IDX 42 78 43 79 44 80 45 81 71 82 72 83 80 84 73 85 79 86 81 87
REMARK SMILES IDX 78 88 74 89 75 90 76 91 77 92 56 93 57 94 65 95 58 96 64 97
REMARK SMILES IDX 66 98 63 99 59 100 60 101 61 102 62 103
REMARK H PARENT 20 8 7 27 27 37 86 56 54 67
REMARK Flexibility Score: inf
ROOT
ATOM      1  C   UNL     1       9.187  -1.660 -10.464  1.00  0.00     0.002 C 
ENDROOT
BRANCH   1   2
ATOM      2  C   UNL     1       8.123  -2.586  -9.861  1.00  0.00     0.002 C 
BRANCH   2   3
ATOM      3  C   UNL     1       7.487  -2.091  -8.558  1.00  0.00     0.021 C 
BRANCH   3   4
ATOM      4  C   UNL     1       6.870  -0.700  -8.662  1.00  0.00     0.116 C 
BRANCH   4   5
ATOM      5  N   UNL     1       5.563  -0.755  -9.290  1.00  0.00    -0.352 N 
ATOM      6  C   UNL     1       4.291  -0.455  -8.953  1.00  0.00     0.251 C 
ATOM      7  O   UNL     1       3.449  -0.682  -9.829  1.00  0.00    -0.270 OA
ATOM      8  H   UNL     1       5.620  -1.103 -10.209  1.00  0.00     0.163 HD
BRANCH   6   9
ATOM      9  C   UNL     1       3.856   0.122  -7.649  1.00  0.00     0.067 C 
ATOM     10  C   UNL     1       1.121   2.107  -3.895  1.00  0.00     0.029 A 
ATOM     11  C   UNL     1       2.381   1.483  -3.974  1.00  0.00     0.058 A 
ATOM     12  C   UNL     1       0.402   2.277  -5.092  1.00  0.00     0.050 A 
ATOM     13  C   UNL     1       2.856   0.988  -5.185  1.00  0.00     0.128 A 
ATOM     14  C   UNL     1       0.839   1.685  -6.284  1.00  0.00     0.033 A 
ATOM     15  Cl  UNL     1      -0.990   3.296  -5.221  1.00  0.00    -0.084 Cl
ATOM     16  C   UNL     1       2.062   1.024  -6.327  1.00  0.00     0.019 A 
ATOM     17  O   UNL     1       4.114   0.458  -5.199  1.00  0.00    -0.475 OA
ATOM     18  C   UNL     1       2.541   0.386  -7.545  1.00  0.00     0.025 C 
ATOM     19  C   UNL     1       4.767   0.481  -6.505  1.00  0.00     0.314 C 
BRANCH  10  20
ATOM     20  C   UNL     1       0.624   2.548  -2.530  1.00  0.00     0.301 C 
BRANCH  20  21
ATOM     21  N   UNL     1      -0.204   1.589  -1.782  1.00  0.00    -0.327 N 
ATOM     22  C   UNL     1       1.101   0.311  -0.107  1.00  0.00     0.075 C 
ATOM     23  C   UNL     1       0.404   0.288  -1.461  1.00  0.00     0.181 C 
ATOM     24  C   UNL     1      -0.761  -0.702  -1.471  1.00  0.00     0.071 C 
ATOM     25  C   UNL     1      -1.683  -0.120  -2.520  1.00  0.00     0.071 C 
ATOM     26  C   UNL     1      -1.561   1.381  -2.296  1.00  0.00     0.181 C 
ATOM     27  H   UNL     1      -0.273   2.102  -0.903  1.00  0.00     0.348 HD
ATOM     28  C   UNL     1      -2.565   1.902  -1.270  1.00  0.00     0.075 C 
ENDBRANCH  20  21
ENDBRANCH  10  20
BRANCH  19  29
ATOM     29  C   UNL     1       5.472   1.834  -6.738  1.00  0.00     0.429 C 
ATOM     30  F   UNL     1       6.503   1.996  -5.876  1.00  0.00    -0.167 F 
ATOM     31  F   UNL     1       5.994   1.930  -7.986  1.00  0.00    -0.167 F 
ATOM     32  F   UNL     1       4.641   2.890  -6.585  1.00  0.00    -0.167 F 
ENDBRANCH  19  29
ENDBRANCH   6   9
ENDBRANCH   4   5
ENDBRANCH   3   4
ENDBRANCH   2   3
ENDBRANCH   1   2
BRANCH   1  33
ATOM     33  C   UNL     1      10.261  -1.171  -9.490  1.00  0.00     0.021 C 
BRANCH  33  34
ATOM     34  C   UNL     1      11.039  -2.277  -8.791  1.00  0.00     0.116 C 
BRANCH  34  35
ATOM     35  N   UNL     1      11.794  -3.100  -9.721  1.00  0.00    -0.352 N 
ATOM     36  C   UNL     1      13.119  -3.475  -9.668  1.00  0.00     0.251 C 
ATOM     37  H   UNL     1      11.289  -3.435 -10.496  1.00  0.00     0.163 HD
ATOM     38  O   UNL     1      13.637  -4.037 -10.617  1.00  0.00    -0.269 OA
BRANCH  36  39
ATOM     39  C   UNL     1      13.907  -3.150  -8.456  1.00  0.00     0.039 A 
ATOM     40  C   UNL     1      13.380  -3.384  -7.185  1.00  0.00     0.014 A 
ATOM     41  C   UNL     1      15.165  -2.560  -8.599  1.00  0.00     0.014 A 
ATOM     42  C   UNL     1      14.028  -2.870  -6.069  1.00  0.00     0.010 A 
ATOM     43  C   UNL     1      15.858  -2.127  -7.465  1.00  0.00     0.010 A 
ATOM     44  C   UNL     1      15.271  -2.228  -6.194  1.00  0.00    -0.014 A 
BRANCH  44  45
ATOM     45  C   UNL     1      15.928  -1.672  -4.980  1.00  0.00     0.031 A 
ATOM     46  C   UNL     1      16.153  -0.191  -4.831  1.00  0.00     0.074 A 
ATOM     47  C   UNL     1      16.263  -2.510  -3.979  1.00  0.00     0.049 A 
ATOM     48  N   UNL     1      16.643   0.466  -3.811  1.00  0.00    -0.248 NA
ATOM     49  C   UNL     1      15.787   0.666  -5.970  1.00  0.00     0.031 C 
ATOM     50  C   UNL     1      16.092  -3.963  -4.017  1.00  0.00     0.029 A 
ATOM     51  N   UNL     1      16.781  -2.269  -2.731  1.00  0.00    -0.354 N 
ATOM     52  C   UNL     1      16.664   1.804  -4.189  1.00  0.00     0.074 A 
ATOM     53  C   UNL     1      16.169   1.864  -5.546  1.00  0.00     0.031 C 
ATOM     54  C   UNL     1      16.431  -4.476  -2.827  1.00  0.00     0.029 A 
ATOM     55  C   UNL     1      16.913  -3.402  -1.961  1.00  0.00     0.049 A 
ATOM     56  H   UNL     1      17.034  -1.371  -2.416  1.00  0.00     0.167 HD
ATOM     57  C   UNL     1      17.046   2.883  -3.464  1.00  0.00     0.034 A 
ATOM     58  C   UNL     1      17.369  -3.565  -0.702  1.00  0.00     0.034 A 
ATOM     59  C   UNL     1      17.514   2.809  -2.102  1.00  0.00     0.049 A 
ATOM     60  C   UNL     1      17.792  -2.349   0.079  1.00  0.00     0.074 A 
ATOM     61  C   UNL     1      17.895   3.850  -1.274  1.00  0.00     0.029 A 
ATOM     62  N   UNL     1      17.657   1.641  -1.365  1.00  0.00    -0.354 N 
ATOM     63  N   UNL     1      17.757  -1.087  -0.278  1.00  0.00    -0.248 NA
ATOM     64  C   UNL     1      18.310  -2.572   1.435  1.00  0.00     0.031 C 
ATOM     65  C   UNL     1      18.329   3.309  -0.063  1.00  0.00     0.029 A 
ATOM     66  C   UNL     1      18.142   1.937  -0.101  1.00  0.00     0.049 A 
ATOM     67  H   UNL     1      17.445   0.737  -1.692  1.00  0.00     0.167 HD
ATOM     68  C   UNL     1      18.221  -0.364   0.818  1.00  0.00     0.074 A 
ATOM     69  C   UNL     1      18.505  -1.330   1.859  1.00  0.00     0.031 C 
ATOM     70  C   UNL     1      18.400   0.974   0.944  1.00  0.00     0.034 A 
BRANCH  57  71
ATOM     71  C   UNL     1      16.974   4.251  -4.098  1.00  0.00     0.023 A 
ATOM     72  C   UNL     1      18.149   5.009  -4.267  1.00  0.00     0.031 A 
ATOM     73  C   UNL     1      15.743   4.860  -4.399  1.00  0.00     0.131 A 
ATOM     74  C   UNL     1      18.065   6.344  -4.682  1.00  0.00     0.055 A 
ATOM     75  C   UNL     1      15.668   6.178  -4.856  1.00  0.00     0.041 A 
ATOM     76  F   UNL     1      14.593   4.181  -4.255  1.00  0.00    -0.206 F 
ATOM     77  C   UNL     1      16.832   6.930  -4.985  1.00  0.00     0.022 A 
BRANCH  74  78
ATOM     78  S   UNL     1      19.542   7.393  -4.776  1.00  0.00     0.124 S 
ATOM     79  O   UNL     1      19.531   7.801  -6.179  1.00  0.00    -0.237 OA
ATOM     80  O   UNL     1      19.228   8.448  -3.816  1.00  0.00    -0.237 OA
ATOM     81  O   UNL     1      20.632   6.500  -4.398  1.00  0.00    -0.744 OA
ENDBRANCH  74  78
ENDBRANCH  57  71
BRANCH  58  82
ATOM     82  C   UNL     1      17.377  -4.933  -0.103  1.00  0.00     0.023 A 
ATOM     83  C   UNL     1      18.123  -5.974  -0.685  1.00  0.00     0.031 A 
ATOM     84  C   UNL     1      16.551  -5.245   0.990  1.00  0.00     0.131 A 
ATOM     85  C   UNL     1      17.969  -7.287  -0.222  1.00  0.00     0.055 A 
ATOM     86  C   UNL     1      16.461  -6.541   1.500  1.00  0.00     0.041 A 
ATOM     87  F   UNL     1      15.807  -4.290   1.570  1.00  0.00    -0.206 F 
ATOM     88  C   UNL     1      17.157  -7.574   0.880  1.00  0.00     0.022 A 
BRANCH  85  89
ATOM     89  S   UNL     1      18.696  -8.681  -1.126  1.00  0.00     0.124 S 
ATOM     90  O   UNL     1      19.588  -9.260  -0.127  1.00  0.00    -0.237 OA
ATOM     91  O   UNL     1      17.513  -9.475  -1.451  1.00  0.00    -0.237 OA
ATOM     92  O   UNL     1      19.349  -8.049  -2.267  1.00  0.00    -0.744 OA
ENDBRANCH  85  89
ENDBRANCH  58  82
BRANCH  70  93
ATOM     93  C   UNL     1      18.910   1.517   2.259  1.00  0.00     0.023 A 
ATOM     94  C   UNL     1      18.117   2.415   2.999  1.00  0.00     0.031 A 
ATOM     95  C   UNL     1      20.221   1.270   2.700  1.00  0.00     0.131 A 
ATOM     96  C   UNL     1      18.655   3.064   4.117  1.00  0.00     0.055 A 
ATOM     97  C   UNL     1      20.736   1.880   3.845  1.00  0.00     0.041 A 
ATOM     98  F   UNL     1      21.022   0.433   2.021  1.00  0.00    -0.206 F 
ATOM     99  C   UNL     1      19.958   2.793   4.550  1.00  0.00     0.022 A 
BRANCH  96 100
ATOM    100  S   UNL     1      17.724   4.353   4.990  1.00  0.00     0.124 S 
ATOM    101  O   UNL     1      17.561   3.761   6.316  1.00  0.00    -0.237 OA
ATOM    102  O   UNL     1      18.636   5.492   4.924  1.00  0.00    -0.237 OA
ATOM    103  O   UNL     1      16.496   4.488   4.214  1.00  0.00    -0.744 OA
ENDBRANCH  96 100
ENDBRANCH  70  93
ENDBRANCH  44  45
ENDBRANCH  36  39
ENDBRANCH  34  35
ENDBRANCH  33  34
ENDBRANCH   1  33
TORSDOF 19
