REMARK SMILES CC[NH+]1CC[NH+]([C@@H]2CC(=O)N(c3ccc(C(=O)NCCCCCCNC(=O)c4ccc(-c5c6nc(c(-c7cc(S(=O)(=O)[O-])ccc7F)c7ccc([nH]7)c(-c7cc(S(=O)(=O)[O-])ccc7F)c7nc(c(-c8cc(S(=O)(=O)[O-])ccc8F)c8ccc5[nH]8)C=C7)C=C6)cc4)cc3)C2=O)CC1
REMARK SMILES IDX 21 1 20 2 19 3 18 4 16 5 17 6 15 8 12 9 13 10 92 11 14 12
REMARK SMILES IDX 91 13 11 14 7 15 8 16 93 17 9 18 94 19 10 20 6 21 3 22 4 23
REMARK SMILES IDX 96 24 5 26 95 27 2 29 1 30 22 31 23 32 24 33 25 34 26 35
REMARK SMILES IDX 27 37 28 38 29 39 90 40 30 41 89 42 31 43 32 44 33 45 83 46
REMARK SMILES IDX 34 47 88 48 82 49 84 50 35 51 87 52 81 53 80 54 36 56 68 57
REMARK SMILES IDX 48 58 67 59 49 60 52 61 66 62 85 63 50 64 51 65 65 67 86 68
REMARK SMILES IDX 53 69 37 70 38 71 46 72 39 73 45 74 47 75 44 76 40 77 41 78
REMARK SMILES IDX 42 79 43 80 69 81 70 82 78 83 71 84 77 85 79 86 76 87 72 88
REMARK SMILES IDX 73 89 74 90 75 91 54 92 55 93 63 94 56 95 62 96 64 97 61 98
REMARK SMILES IDX 57 99 58 100 59 101 60 102
REMARK H PARENT 18 7 3 25 6 28 25 36 84 55 52 66
REMARK Flexibility Score: inf
ROOT
ATOM      1  C   UNL     1      12.828   7.149  -3.554  1.00  0.00     0.002 C 
ENDROOT
BRANCH   1   2
ATOM      2  C   UNL     1      11.352   6.907  -3.221  1.00  0.00     0.021 C 
BRANCH   2   3
ATOM      3  C   UNL     1      10.948   5.439  -3.378  1.00  0.00     0.116 C 
BRANCH   3   4
ATOM      4  N   UNL     1      11.335   4.695  -2.194  1.00  0.00    -0.352 N 
ATOM      5  C   UNL     1      10.642   4.328  -1.070  1.00  0.00     0.251 C 
ATOM      6  O   UNL     1      11.251   3.706  -0.199  1.00  0.00    -0.269 OA
ATOM      7  H   UNL     1      12.273   4.397  -2.200  1.00  0.00     0.163 HD
BRANCH   5   8
ATOM      8  C   UNL     1       9.186   4.592  -0.889  1.00  0.00     0.039 A 
ATOM      9  C   UNL     1       6.407   4.859  -0.566  1.00  0.00     0.052 A 
ATOM     10  C   UNL     1       7.107   3.908   0.179  1.00  0.00     0.027 A 
ATOM     11  C   UNL     1       7.101   5.705  -1.428  1.00  0.00     0.027 A 
ATOM     12  C   UNL     1       8.484   3.752  -0.012  1.00  0.00     0.016 A 
ATOM     13  C   UNL     1       8.487   5.618  -1.526  1.00  0.00     0.016 A 
BRANCH   9  14
ATOM     14  N   UNL     1       5.018   5.008  -0.443  1.00  0.00    -0.245 N 
ATOM     15  C   UNL     1       2.878   5.208   0.490  1.00  0.00     0.285 C 
ATOM     16  C   UNL     1       2.791   5.372  -1.024  1.00  0.00     0.176 C 
ATOM     17  C   UNL     1       4.377   5.151   0.763  1.00  0.00     0.292 C 
ATOM     18  C   UNL     1       4.173   5.098  -1.516  1.00  0.00     0.240 C 
ATOM     19  O   UNL     1       4.889   5.223   1.872  1.00  0.00    -0.267 OA
ATOM     20  O   UNL     1       4.447   4.971  -2.705  1.00  0.00    -0.274 OA
BRANCH  15  21
ATOM     21  N   UNL     1       2.187   4.091   1.165  1.00  0.00    -0.315 N 
ATOM     22  N   UNL     1       0.795   1.953  -0.443  1.00  0.00    -0.326 N 
ATOM     23  C   UNL     1       0.172   3.271  -0.195  1.00  0.00     0.324 C 
ATOM     24  C   UNL     1       2.261   2.046  -0.319  1.00  0.00     0.324 C 
ATOM     25  H   UNL     1       0.597   1.666  -1.401  1.00  0.00     0.348 HD
ATOM     26  C   UNL     1       0.726   4.081   1.006  1.00  0.00     0.325 C 
ATOM     27  C   UNL     1       2.742   2.746   0.964  1.00  0.00     0.325 C 
ATOM     28  H   UNL     1       2.392   4.322   2.137  1.00  0.00     0.349 HD
BRANCH  22  29
ATOM     29  C   UNL     1       0.208   0.920   0.421  1.00  0.00     0.259 C 
ATOM     30  C   UNL     1       0.631  -0.490   0.015  1.00  0.00     0.071 C 
ENDBRANCH  22  29
ENDBRANCH  15  21
ENDBRANCH   9  14
ENDBRANCH   5   8
ENDBRANCH   3   4
ENDBRANCH   2   3
ENDBRANCH   1   2
BRANCH   1  31
ATOM     31  C   UNL     1      13.197   6.848  -5.011  1.00  0.00     0.002 C 
BRANCH  31  32
ATOM     32  C   UNL     1      12.379   7.623  -6.047  1.00  0.00     0.021 C 
BRANCH  32  33
ATOM     33  C   UNL     1      12.544   9.137  -5.955  1.00  0.00     0.116 C 
BRANCH  33  34
ATOM     34  N   UNL     1      13.920   9.531  -6.215  1.00  0.00    -0.352 N 
ATOM     35  C   UNL     1      14.421  10.307  -7.230  1.00  0.00     0.251 C 
ATOM     36  H   UNL     1      14.586   9.194  -5.573  1.00  0.00     0.163 HD
ATOM     37  O   UNL     1      15.624  10.299  -7.471  1.00  0.00    -0.269 OA
BRANCH  35  38
ATOM     38  C   UNL     1      13.499  11.137  -8.031  1.00  0.00     0.039 A 
ATOM     39  C   UNL     1      13.640  11.166  -9.420  1.00  0.00     0.014 A 
ATOM     40  C   UNL     1      12.493  11.882  -7.407  1.00  0.00     0.014 A 
ATOM     41  C   UNL     1      12.728  11.891 -10.188  1.00  0.00     0.010 A 
ATOM     42  C   UNL     1      11.542  12.541  -8.179  1.00  0.00     0.010 A 
ATOM     43  C   UNL     1      11.648  12.549  -9.578  1.00  0.00    -0.014 A 
BRANCH  43  44
ATOM     44  C   UNL     1      10.605  13.228 -10.388  1.00  0.00     0.031 A 
ATOM     45  C   UNL     1      10.394  14.710 -10.267  1.00  0.00     0.074 A 
ATOM     46  C   UNL     1       9.799  12.489 -11.175  1.00  0.00     0.049 A 
ATOM     47  N   UNL     1       9.487  15.466 -10.831  1.00  0.00    -0.248 NA
ATOM     48  C   UNL     1      11.303  15.432  -9.366  1.00  0.00     0.031 C 
ATOM     49  C   UNL     1       9.877  11.034 -11.331  1.00  0.00     0.029 A 
ATOM     50  N   UNL     1       8.746  12.851 -11.978  1.00  0.00    -0.354 N 
ATOM     51  C   UNL     1       9.708  16.750 -10.346  1.00  0.00     0.074 A 
ATOM     52  C   UNL     1      10.794  16.654  -9.393  1.00  0.00     0.031 C 
ATOM     53  C   UNL     1       8.925  10.632 -12.186  1.00  0.00     0.029 A 
ATOM     54  C   UNL     1       8.134  11.787 -12.598  1.00  0.00     0.049 A 
ATOM     55  H   UNL     1       8.457  13.784 -12.098  1.00  0.00     0.167 HD
ATOM     56  C   UNL     1       9.075  17.903 -10.681  1.00  0.00     0.034 A 
ATOM     57  C   UNL     1       7.043  11.739 -13.388  1.00  0.00     0.034 A 
ATOM     58  C   UNL     1       7.992  17.971 -11.633  1.00  0.00     0.049 A 
ATOM     59  C   UNL     1       6.334  13.024 -13.723  1.00  0.00     0.074 A 
ATOM     60  C   UNL     1       7.329  19.090 -12.105  1.00  0.00     0.029 A 
ATOM     61  N   UNL     1       7.396  16.872 -12.243  1.00  0.00    -0.354 N 
ATOM     62  N   UNL     1       6.603  14.245 -13.319  1.00  0.00    -0.248 NA
ATOM     63  C   UNL     1       5.181  12.929 -14.626  1.00  0.00     0.031 C 
ATOM     64  C   UNL     1       6.278  18.664 -12.925  1.00  0.00     0.029 A 
ATOM     65  C   UNL     1       6.340  17.284 -13.043  1.00  0.00     0.049 A 
ATOM     66  H   UNL     1       7.681  15.938 -12.123  1.00  0.00     0.167 HD
ATOM     67  C   UNL     1       5.662  15.065 -13.933  1.00  0.00     0.074 A 
ATOM     68  C   UNL     1       4.833  14.202 -14.751  1.00  0.00     0.031 C 
ATOM     69  C   UNL     1       5.500  16.410 -13.833  1.00  0.00     0.034 A 
BRANCH  56  70
ATOM     70  C   UNL     1       9.517  19.168  -9.979  1.00  0.00     0.023 A 
ATOM     71  C   UNL     1      10.835  19.649 -10.075  1.00  0.00     0.031 A 
ATOM     72  C   UNL     1       8.619  19.882  -9.165  1.00  0.00     0.131 A 
ATOM     73  C   UNL     1      11.242  20.745  -9.300  1.00  0.00     0.055 A 
ATOM     74  C   UNL     1       9.005  21.030  -8.470  1.00  0.00     0.041 A 
ATOM     75  F   UNL     1       7.352  19.464  -9.013  1.00  0.00    -0.206 F 
ATOM     76  C   UNL     1      10.329  21.456  -8.518  1.00  0.00     0.022 A 
BRANCH  73  77
ATOM     77  S   UNL     1      13.014  21.114  -9.188  1.00  0.00     0.124 S 
ATOM     78  O   UNL     1      13.553  19.838  -8.721  1.00  0.00    -0.237 OA
ATOM     79  O   UNL     1      13.346  21.485 -10.558  1.00  0.00    -0.237 OA
ATOM     80  O   UNL     1      13.077  22.201  -8.213  1.00  0.00    -0.744 OA
ENDBRANCH  73  77
ENDBRANCH  56  70
BRANCH  57  81
ATOM     81  C   UNL     1       6.538  10.425 -13.880  1.00  0.00     0.023 A 
ATOM     82  C   UNL     1       6.547  10.102 -15.246  1.00  0.00     0.031 A 
ATOM     83  C   UNL     1       6.032   9.470 -12.979  1.00  0.00     0.131 A 
ATOM     84  C   UNL     1       6.029   8.869 -15.675  1.00  0.00     0.055 A 
ATOM     85  C   UNL     1       5.568   8.224 -13.406  1.00  0.00     0.041 A 
ATOM     86  F   UNL     1       6.005   9.726 -11.662  1.00  0.00    -0.206 F 
ATOM     87  C   UNL     1       5.556   7.922 -14.763  1.00  0.00     0.022 A 
BRANCH  84  88
ATOM     88  S   UNL     1       5.920   8.543 -17.456  1.00  0.00     0.124 S 
ATOM     89  O   UNL     1       5.066   9.637 -17.906  1.00  0.00    -0.237 OA
ATOM     90  O   UNL     1       7.319   8.611 -17.863  1.00  0.00    -0.237 OA
ATOM     91  O   UNL     1       5.318   7.213 -17.522  1.00  0.00    -0.744 OA
ENDBRANCH  84  88
ENDBRANCH  57  81
BRANCH  69  92
ATOM     92  C   UNL     1       4.393  17.031 -14.651  1.00  0.00     0.023 A 
ATOM     93  C   UNL     1       3.038  16.755 -14.394  1.00  0.00     0.031 A 
ATOM     94  C   UNL     1       4.698  17.911 -15.705  1.00  0.00     0.131 A 
ATOM     95  C   UNL     1       2.043  17.309 -15.213  1.00  0.00     0.055 A 
ATOM     96  C   UNL     1       3.701  18.513 -16.474  1.00  0.00     0.041 A 
ATOM     97  F   UNL     1       5.974  18.207 -16.001  1.00  0.00    -0.206 F 
ATOM     98  C   UNL     1       2.365  18.203 -16.238  1.00  0.00     0.022 A 
BRANCH  95  99
ATOM     99  S   UNL     1       0.326  16.773 -14.983  1.00  0.00     0.124 S 
ATOM    100  O   UNL     1       0.426  15.334 -15.205  1.00  0.00    -0.237 OA
ATOM    101  O   UNL     1       0.048  17.189 -13.613  1.00  0.00    -0.237 OA
ATOM    102  O   UNL     1      -0.404  17.509 -16.014  1.00  0.00    -0.744 OA
ENDBRANCH  95  99
ENDBRANCH  69  92
ENDBRANCH  43  44
ENDBRANCH  35  38
ENDBRANCH  33  34
ENDBRANCH  32  33
ENDBRANCH  31  32
ENDBRANCH   1  31
TORSDOF 19
