REMARK SMILES CC(=O)Nc1cc(NC(C)=O)cc(C(=O)Nc2ccc(Br)cc2C(=O)NCCCCCCNC(=O)c2ccc(-c3c4nc(c(-c5cc(S(=O)(=O)[O-])ccc5F)c5ccc([nH]5)c(-c5cc(S(=O)(=O)[O-])ccc5F)c5nc(c(-c6cc(S(=O)(=O)[O-])ccc6F)c6ccc3[nH]6)C=C5)C=C4)cc2)c1
REMARK SMILES IDX 29 1 28 2 27 3 26 4 24 5 25 6 23 8 17 9 18 10 19 11 22 12
REMARK SMILES IDX 20 13 21 14 16 15 14 16 15 17 13 19 5 20 6 21 99 22 7 23
REMARK SMILES IDX 12 24 4 25 1 26 2 27 3 28 8 30 9 31 10 33 11 34 30 35 31 36
REMARK SMILES IDX 32 37 33 38 34 39 35 41 36 42 37 43 98 44 38 45 97 46 39 47
REMARK SMILES IDX 40 48 41 49 91 50 42 51 96 52 90 53 92 54 43 55 95 56 89 57
REMARK SMILES IDX 88 58 44 60 76 61 56 62 75 63 57 64 60 65 74 66 93 67 58 68
REMARK SMILES IDX 59 69 73 71 94 72 61 73 45 74 46 75 54 76 47 77 53 78 55 79
REMARK SMILES IDX 52 80 48 81 49 82 50 83 51 84 77 85 78 86 86 87 79 88 85 89
REMARK SMILES IDX 87 90 84 91 80 92 81 93 82 94 83 95 62 96 63 97 71 98 64 99
REMARK SMILES IDX 70 100 72 101 69 102 65 103 66 104 67 105 68 106
REMARK H PARENT 26 7 16 18 4 29 8 32 33 40 92 59 60 70
REMARK Flexibility Score: inf
ROOT
ATOM      1  C   UNL     1       8.095   4.117   0.123  1.00  0.00     0.002 C 
ENDROOT
BRANCH   1   2
ATOM      2  C   UNL     1       8.004   2.644  -0.291  1.00  0.00     0.021 C 
BRANCH   2   3
ATOM      3  C   UNL     1       6.636   1.991  -0.144  1.00  0.00     0.116 C 
BRANCH   3   4
ATOM      4  N   UNL     1       5.608   2.582  -0.972  1.00  0.00    -0.352 N 
ATOM      5  C   UNL     1       4.420   2.044  -1.396  1.00  0.00     0.253 C 
ATOM      6  O   UNL     1       3.704   2.715  -2.139  1.00  0.00    -0.269 OA
ATOM      7  H   UNL     1       5.787   3.501  -1.275  1.00  0.00     0.163 HD
BRANCH   5   8
ATOM      8  C   UNL     1       4.013   0.650  -1.062  1.00  0.00     0.064 A 
ATOM      9  C   UNL     1       4.115   0.011   0.192  1.00  0.00     0.054 A 
ATOM     10  C   UNL     1       3.881  -1.375   0.262  1.00  0.00     0.028 A 
ATOM     11  C   UNL     1       3.389  -2.080  -0.838  1.00  0.00     0.018 A 
ATOM     12  C   UNL     1       3.484  -0.066  -2.156  1.00  0.00     0.031 A 
ATOM     13  C   UNL     1       3.154  -1.412  -2.032  1.00  0.00     0.018 A 
ATOM     14  Br  UNL     1       2.371  -2.331  -3.485  1.00  0.00    -0.051 Br
BRANCH   9  15
ATOM     15  N   UNL     1       4.346   0.619   1.448  1.00  0.00    -0.321 N 
ATOM     16  C   UNL     1       3.987   1.856   1.948  1.00  0.00     0.255 C 
ATOM     17  O   UNL     1       4.507   2.267   2.985  1.00  0.00    -0.269 OA
ATOM     18  H   UNL     1       4.854   0.060   2.080  1.00  0.00     0.170 HD
BRANCH  16  19
ATOM     19  C   UNL     1       2.931   2.672   1.306  1.00  0.00     0.044 A 
ATOM     20  C   UNL     1       0.969   2.795  -0.091  1.00  0.00     0.044 A 
ATOM     21  C   UNL     1       1.118   4.190  -0.123  1.00  0.00     0.052 A 
ATOM     22  C   UNL     1       1.836   2.055   0.697  1.00  0.00     0.040 A 
ATOM     23  C   UNL     1       2.115   4.839   0.619  1.00  0.00     0.044 A 
ATOM     24  C   UNL     1       3.046   4.065   1.312  1.00  0.00     0.040 A 
BRANCH  20  25
ATOM     25  N   UNL     1       0.020   2.228  -0.963  1.00  0.00    -0.326 N 
ATOM     26  C   UNL     1      -0.260  -0.099  -0.091  1.00  0.00     0.114 C 
ATOM     27  C   UNL     1      -0.456   0.962  -1.136  1.00  0.00     0.221 C 
ATOM     28  O   UNL     1      -1.097   0.706  -2.159  1.00  0.00    -0.275 OA
ATOM     29  H   UNL     1      -0.385   2.884  -1.576  1.00  0.00     0.169 HD
ENDBRANCH  20  25
BRANCH  23  30
ATOM     30  N   UNL     1       2.247   6.243   0.701  1.00  0.00    -0.326 N 
ATOM     31  C   UNL     1       1.387   7.193   0.182  1.00  0.00     0.221 C 
ATOM     32  H   UNL     1       3.037   6.581   1.181  1.00  0.00     0.169 HD
ATOM     33  C   UNL     1       1.803   8.609   0.498  1.00  0.00     0.114 C 
ATOM     34  O   UNL     1       0.358   6.984  -0.454  1.00  0.00    -0.275 OA
ENDBRANCH  23  30
ENDBRANCH  16  19
ENDBRANCH   9  15
ENDBRANCH   5   8
ENDBRANCH   3   4
ENDBRANCH   2   3
ENDBRANCH   1   2
BRANCH   1  35
ATOM     35  C   UNL     1       7.485   4.515   1.471  1.00  0.00     0.002 C 
BRANCH  35  36
ATOM     36  C   UNL     1       7.908   3.715   2.706  1.00  0.00     0.021 C 
BRANCH  36  37
ATOM     37  C   UNL     1       9.405   3.519   2.921  1.00  0.00     0.116 C 
BRANCH  37  38
ATOM     38  N   UNL     1      10.153   4.760   2.919  1.00  0.00    -0.352 N 
ATOM     39  C   UNL     1      11.195   5.169   3.712  1.00  0.00     0.251 C 
ATOM     40  H   UNL     1       9.867   5.413   2.240  1.00  0.00     0.163 HD
ATOM     41  O   UNL     1      11.612   6.319   3.584  1.00  0.00    -0.269 OA
BRANCH  39  42
ATOM     42  C   UNL     1      11.796   4.273   4.732  1.00  0.00     0.039 A 
ATOM     43  C   UNL     1      12.200   4.842   5.944  1.00  0.00     0.014 A 
ATOM     44  C   UNL     1      12.008   2.909   4.509  1.00  0.00     0.014 A 
ATOM     45  C   UNL     1      12.769   4.044   6.939  1.00  0.00     0.010 A 
ATOM     46  C   UNL     1      12.511   2.099   5.531  1.00  0.00     0.010 A 
ATOM     47  C   UNL     1      12.904   2.658   6.755  1.00  0.00    -0.014 A 
BRANCH  47  48
ATOM     48  C   UNL     1      13.453   1.808   7.846  1.00  0.00     0.031 A 
ATOM     49  C   UNL     1      14.770   1.096   7.680  1.00  0.00     0.074 A 
ATOM     50  C   UNL     1      12.753   1.673   8.990  1.00  0.00     0.049 A 
ATOM     51  N   UNL     1      15.422   0.352   8.537  1.00  0.00    -0.248 NA
ATOM     52  C   UNL     1      15.427   1.216   6.371  1.00  0.00     0.031 C 
ATOM     53  C   UNL     1      11.439   2.267   9.248  1.00  0.00     0.029 A 
ATOM     54  N   UNL     1      13.047   1.005  10.152  1.00  0.00    -0.354 N 
ATOM     55  C   UNL     1      16.564  -0.086   7.874  1.00  0.00     0.074 A 
ATOM     56  C   UNL     1      16.478   0.424   6.521  1.00  0.00     0.031 C 
ATOM     57  C   UNL     1      11.061   1.974  10.502  1.00  0.00     0.029 A 
ATOM     58  C   UNL     1      12.085   1.144  11.127  1.00  0.00     0.049 A 
ATOM     59  H   UNL     1      13.868   0.477  10.277  1.00  0.00     0.167 HD
ATOM     60  C   UNL     1      17.599  -0.821   8.354  1.00  0.00     0.034 A 
ATOM     61  C   UNL     1      12.037   0.664  12.386  1.00  0.00     0.034 A 
ATOM     62  C   UNL     1      17.671  -1.317   9.709  1.00  0.00     0.049 A 
ATOM     63  C   UNL     1      13.202  -0.143  12.899  1.00  0.00     0.074 A 
ATOM     64  C   UNL     1      18.691  -2.031  10.315  1.00  0.00     0.029 A 
ATOM     65  N   UNL     1      16.679  -1.158  10.669  1.00  0.00    -0.354 N 
ATOM     66  N   UNL     1      14.304  -0.493  12.276  1.00  0.00    -0.248 NA
ATOM     67  C   UNL     1      13.123  -0.600  14.291  1.00  0.00     0.031 C 
ATOM     68  C   UNL     1      18.290  -2.358  11.616  1.00  0.00     0.029 A 
ATOM     69  C   UNL     1      17.051  -1.783  11.851  1.00  0.00     0.049 A 
ATOM     70  H   UNL     1      15.834  -0.672  10.531  1.00  0.00     0.167 HD
ATOM     71  C   UNL     1      15.061  -1.191  13.213  1.00  0.00     0.074 A 
ATOM     72  C   UNL     1      14.302  -1.182  14.447  1.00  0.00     0.031 C 
ATOM     73  C   UNL     1      16.273  -1.788  13.068  1.00  0.00     0.034 A 
BRANCH  60  74
ATOM     74  C   UNL     1      18.723  -1.148   7.397  1.00  0.00     0.023 A 
ATOM     75  C   UNL     1      19.515  -0.141   6.815  1.00  0.00     0.031 A 
ATOM     76  C   UNL     1      18.995  -2.481   7.042  1.00  0.00     0.131 A 
ATOM     77  C   UNL     1      20.484  -0.474   5.856  1.00  0.00     0.055 A 
ATOM     78  C   UNL     1      20.017  -2.813   6.149  1.00  0.00     0.041 A 
ATOM     79  F   UNL     1      18.263  -3.486   7.546  1.00  0.00    -0.206 F 
ATOM     80  C   UNL     1      20.759  -1.806   5.538  1.00  0.00     0.022 A 
BRANCH  77  81
ATOM     81  S   UNL     1      21.280   0.864   4.926  1.00  0.00     0.124 S 
ATOM     82  O   UNL     1      20.130   1.510   4.298  1.00  0.00    -0.237 OA
ATOM     83  O   UNL     1      21.947   1.625   5.976  1.00  0.00    -0.237 OA
ATOM     84  O   UNL     1      22.170   0.160   4.005  1.00  0.00    -0.744 OA
ENDBRANCH  77  81
ENDBRANCH  60  74
BRANCH  61  85
ATOM     85  C   UNL     1      10.857   0.938  13.256  1.00  0.00     0.023 A 
ATOM     86  C   UNL     1      10.982   1.700  14.429  1.00  0.00     0.031 A 
ATOM     87  C   UNL     1       9.594   0.402  12.951  1.00  0.00     0.131 A 
ATOM     88  C   UNL     1       9.878   1.862  15.280  1.00  0.00     0.055 A 
ATOM     89  C   UNL     1       8.485   0.612  13.772  1.00  0.00     0.041 A 
ATOM     90  F   UNL     1       9.417  -0.329  11.838  1.00  0.00    -0.206 F 
ATOM     91  C   UNL     1       8.627   1.334  14.953  1.00  0.00     0.022 A 
BRANCH  88  92
ATOM     92  S   UNL     1      10.122   2.701  16.870  1.00  0.00     0.124 S 
ATOM     93  O   UNL     1      11.166   1.886  17.480  1.00  0.00    -0.237 OA
ATOM     94  O   UNL     1      10.518   4.040  16.446  1.00  0.00    -0.237 OA
ATOM     95  O   UNL     1       8.809   2.614  17.505  1.00  0.00    -0.744 OA
ENDBRANCH  88  92
ENDBRANCH  61  85
BRANCH  73  96
ATOM     96  C   UNL     1      16.850  -2.454  14.296  1.00  0.00     0.023 A 
ATOM     97  C   UNL     1      16.224  -3.562  14.895  1.00  0.00     0.031 A 
ATOM     98  C   UNL     1      18.009  -1.942  14.905  1.00  0.00     0.131 A 
ATOM     99  C   UNL     1      16.710  -4.068  16.110  1.00  0.00     0.055 A 
ATOM    100  C   UNL     1      18.529  -2.496  16.076  1.00  0.00     0.041 A 
ATOM    101  F   UNL     1      18.648  -0.885  14.379  1.00  0.00    -0.206 F 
ATOM    102  C   UNL     1      17.867  -3.552  16.696  1.00  0.00     0.022 A 
BRANCH  99 103
ATOM    103  S   UNL     1      15.729  -5.321  16.982  1.00  0.00     0.124 S 
ATOM    104  O   UNL     1      14.434  -4.661  17.105  1.00  0.00    -0.237 OA
ATOM    105  O   UNL     1      15.782  -6.453  16.062  1.00  0.00    -0.237 OA
ATOM    106  O   UNL     1      16.452  -5.509  18.238  1.00  0.00    -0.744 OA
ENDBRANCH  99 103
ENDBRANCH  73  96
ENDBRANCH  47  48
ENDBRANCH  39  42
ENDBRANCH  37  38
ENDBRANCH  36  37
ENDBRANCH  35  36
ENDBRANCH   1  35
TORSDOF 20
