REMARK SMILES O=C(NCCCCCCNC(=O)c1ccc([C@H]2CCC[N@@H+](CCN3CCCC3=O)C2)cc1)c1ccc(-c2c3nc(c(-c4cc(S(=O)(=O)[O-])ccc4F)c4ccc([nH]4)c(-c4cc(S(=O)(=O)[O-])ccc4F)c4nc(c(-c5cc(S(=O)(=O)[O-])ccc5F)c5ccc2[nH]5)C=C4)C=C3)cc1
REMARK SMILES IDX 7 1 6 2 5 3 4 4 3 5 1 6 2 7 33 9 34 10 95 11 35 12 94 13
REMARK SMILES IDX 36 14 37 15 38 16 88 17 39 18 93 19 87 20 89 21 40 22 92 23
REMARK SMILES IDX 86 24 85 25 41 27 73 28 53 29 72 30 54 31 57 32 71 33 90 34
REMARK SMILES IDX 55 35 56 36 70 38 91 39 58 40 42 41 43 42 51 43 44 44 50 45
REMARK SMILES IDX 52 46 49 47 45 48 46 49 47 50 48 51 74 52 75 53 83 54 76 55
REMARK SMILES IDX 82 56 84 57 81 58 77 59 78 60 79 61 80 62 59 63 60 64 68 65
REMARK SMILES IDX 61 66 67 67 69 68 66 69 62 70 63 71 64 72 65 73 8 74 9 75
REMARK SMILES IDX 10 76 11 77 12 79 13 80 14 81 32 82 15 83 31 84 16 85 17 86
REMARK SMILES IDX 18 87 30 88 19 89 21 90 20 91 22 93 23 94 24 95 25 96 28 97
REMARK SMILES IDX 26 98 27 99 29 100
REMARK H PARENT 3 8 89 26 57 37 10 78 21 92
REMARK Flexibility Score: inf
ROOT
ATOM      1  C   UNL     1      20.025  -0.450 -10.396  1.00  0.00     0.002 C 
ENDROOT
BRANCH   1   2
ATOM      2  C   UNL     1      20.316   1.020 -10.081  1.00  0.00     0.002 C 
BRANCH   2   3
ATOM      3  C   UNL     1      21.024   1.272  -8.751  1.00  0.00     0.021 C 
BRANCH   3   4
ATOM      4  C   UNL     1      22.342   0.528  -8.578  1.00  0.00     0.116 C 
BRANCH   4   5
ATOM      5  N   UNL     1      23.363   0.960  -9.523  1.00  0.00    -0.352 N 
ATOM      6  O   UNL     1      25.312   1.891 -10.182  1.00  0.00    -0.269 OA
ATOM      7  C   UNL     1      24.633   1.426  -9.272  1.00  0.00     0.251 C 
ATOM      8  H   UNL     1      23.109   0.912 -10.473  1.00  0.00     0.163 HD
BRANCH   7   9
ATOM      9  C   UNL     1      25.163   1.382  -7.891  1.00  0.00     0.039 A 
ATOM     10  C   UNL     1      24.993   0.238  -7.109  1.00  0.00     0.014 A 
ATOM     11  C   UNL     1      25.814   2.502  -7.366  1.00  0.00     0.014 A 
ATOM     12  C   UNL     1      25.319   0.273  -5.760  1.00  0.00     0.010 A 
ATOM     13  C   UNL     1      26.239   2.494  -6.033  1.00  0.00     0.010 A 
ATOM     14  C   UNL     1      25.966   1.391  -5.208  1.00  0.00    -0.014 A 
BRANCH  14  15
ATOM     15  C   UNL     1      26.394   1.348  -3.784  1.00  0.00     0.031 A 
ATOM     16  C   UNL     1      25.836   2.307  -2.769  1.00  0.00     0.074 A 
ATOM     17  C   UNL     1      27.271   0.397  -3.407  1.00  0.00     0.049 A 
ATOM     18  N   UNL     1      26.087   2.388  -1.486  1.00  0.00    -0.248 NA
ATOM     19  C   UNL     1      24.880   3.312  -3.256  1.00  0.00     0.031 C 
ATOM     20  C   UNL     1      27.876  -0.590  -4.306  1.00  0.00     0.029 A 
ATOM     21  N   UNL     1      27.788   0.082  -2.177  1.00  0.00    -0.354 N 
ATOM     22  C   UNL     1      25.334   3.458  -1.013  1.00  0.00     0.074 A 
ATOM     23  C   UNL     1      24.649   4.019  -2.159  1.00  0.00     0.031 C 
ATOM     24  C   UNL     1      28.631  -1.435  -3.591  1.00  0.00     0.029 A 
ATOM     25  C   UNL     1      28.637  -1.001  -2.200  1.00  0.00     0.049 A 
ATOM     26  H   UNL     1      27.574   0.582  -1.357  1.00  0.00     0.167 HD
ATOM     27  C   UNL     1      25.221   3.918   0.260  1.00  0.00     0.034 A 
ATOM     28  C   UNL     1      29.361  -1.569  -1.218  1.00  0.00     0.034 A 
ATOM     29  C   UNL     1      25.923   3.346   1.387  1.00  0.00     0.049 A 
ATOM     30  C   UNL     1      29.271  -0.994   0.170  1.00  0.00     0.074 A 
ATOM     31  C   UNL     1      25.863   3.719   2.720  1.00  0.00     0.029 A 
ATOM     32  N   UNL     1      26.826   2.291   1.316  1.00  0.00    -0.354 N 
ATOM     33  N   UNL     1      28.539   0.006   0.603  1.00  0.00    -0.248 NA
ATOM     34  C   UNL     1      30.101  -1.627   1.199  1.00  0.00     0.031 C 
ATOM     35  C   UNL     1      26.787   2.950   3.436  1.00  0.00     0.029 A 
ATOM     36  C   UNL     1      27.356   2.029   2.572  1.00  0.00     0.049 A 
ATOM     37  H   UNL     1      27.055   1.801   0.494  1.00  0.00     0.167 HD
ATOM     38  C   UNL     1      28.800   0.102   1.966  1.00  0.00     0.074 A 
ATOM     39  C   UNL     1      29.739  -0.956   2.282  1.00  0.00     0.031 C 
ATOM     40  C   UNL     1      28.306   0.981   2.875  1.00  0.00     0.034 A 
BRANCH  27  41
ATOM     41  C   UNL     1      24.344   5.130   0.488  1.00  0.00     0.023 A 
ATOM     42  C   UNL     1      22.964   5.112   0.216  1.00  0.00     0.031 A 
ATOM     43  C   UNL     1      24.900   6.332   0.963  1.00  0.00     0.131 A 
ATOM     44  C   UNL     1      22.206   6.287   0.345  1.00  0.00     0.055 A 
ATOM     45  C   UNL     1      24.124   7.474   1.173  1.00  0.00     0.041 A 
ATOM     46  F   UNL     1      26.215   6.422   1.221  1.00  0.00    -0.206 F 
ATOM     47  C   UNL     1      22.771   7.461   0.847  1.00  0.00     0.022 A 
BRANCH  44  48
ATOM     48  S   UNL     1      20.511   6.299  -0.304  1.00  0.00     0.124 S 
ATOM     49  O   UNL     1      20.721   5.909  -1.696  1.00  0.00    -0.237 OA
ATOM     50  O   UNL     1      19.840   5.315   0.537  1.00  0.00    -0.237 OA
ATOM     51  O   UNL     1      20.079   7.682  -0.112  1.00  0.00    -0.744 OA
ENDBRANCH  44  48
ENDBRANCH  27  41
BRANCH  28  52
ATOM     52  C   UNL     1      30.257  -2.724  -1.515  1.00  0.00     0.023 A 
ATOM     53  C   UNL     1      30.055  -3.971  -0.905  1.00  0.00     0.031 A 
ATOM     54  C   UNL     1      31.352  -2.586  -2.388  1.00  0.00     0.131 A 
ATOM     55  C   UNL     1      30.962  -5.016  -1.137  1.00  0.00     0.055 A 
ATOM     56  C   UNL     1      32.212  -3.648  -2.667  1.00  0.00     0.041 A 
ATOM     57  F   UNL     1      31.591  -1.415  -3.000  1.00  0.00    -0.206 F 
ATOM     58  C   UNL     1      32.028  -4.869  -2.027  1.00  0.00     0.022 A 
BRANCH  55  59
ATOM     59  S   UNL     1      30.785  -6.544  -0.177  1.00  0.00     0.124 S 
ATOM     60  O   UNL     1      30.866  -6.045   1.191  1.00  0.00    -0.237 OA
ATOM     61  O   UNL     1      29.475  -7.022  -0.609  1.00  0.00    -0.237 OA
ATOM     62  O   UNL     1      31.919  -7.354  -0.616  1.00  0.00    -0.744 OA
ENDBRANCH  55  59
ENDBRANCH  28  52
BRANCH  40  63
ATOM     63  C   UNL     1      28.742   0.795   4.310  1.00  0.00     0.023 A 
ATOM     64  C   UNL     1      30.082   0.953   4.707  1.00  0.00     0.031 A 
ATOM     65  C   UNL     1      27.804   0.420   5.289  1.00  0.00     0.131 A 
ATOM     66  C   UNL     1      30.458   0.668   6.028  1.00  0.00     0.055 A 
ATOM     67  C   UNL     1      28.172   0.209   6.618  1.00  0.00     0.041 A 
ATOM     68  F   UNL     1      26.512   0.247   4.968  1.00  0.00    -0.206 F 
ATOM     69  C   UNL     1      29.509   0.316   6.991  1.00  0.00     0.022 A 
BRANCH  66  70
ATOM     70  S   UNL     1      32.224   0.646   6.445  1.00  0.00     0.124 S 
ATOM     71  O   UNL     1      32.743  -0.346   5.509  1.00  0.00    -0.237 OA
ATOM     72  O   UNL     1      32.620   2.027   6.196  1.00  0.00    -0.237 OA
ATOM     73  O   UNL     1      32.239   0.241   7.850  1.00  0.00    -0.744 OA
ENDBRANCH  66  70
ENDBRANCH  40  63
ENDBRANCH  14  15
ENDBRANCH   7   9
ENDBRANCH   4   5
ENDBRANCH   3   4
ENDBRANCH   2   3
ENDBRANCH   1   2
BRANCH   1  74
ATOM     74  C   UNL     1      19.204  -1.204  -9.342  1.00  0.00     0.021 C 
BRANCH  74  75
ATOM     75  C   UNL     1      17.827  -0.605  -9.044  1.00  0.00     0.116 C 
BRANCH  75  76
ATOM     76  N   UNL     1      16.988  -0.583 -10.234  1.00  0.00    -0.352 N 
ATOM     77  C   UNL     1      15.779  -1.192 -10.457  1.00  0.00     0.251 C 
ATOM     78  H   UNL     1      17.339  -0.055 -10.987  1.00  0.00     0.163 HD
ATOM     79  O   UNL     1      15.325  -1.278 -11.594  1.00  0.00    -0.269 OA
BRANCH  77  80
ATOM     80  C   UNL     1      15.011  -1.733  -9.320  1.00  0.00     0.039 A 
ATOM     81  C   UNL     1      14.550  -3.048  -9.354  1.00  0.00     0.014 A 
ATOM     82  C   UNL     1      14.688  -0.910  -8.245  1.00  0.00     0.014 A 
ATOM     83  C   UNL     1      13.856  -3.572  -8.256  1.00  0.00     0.005 A 
ATOM     84  C   UNL     1      13.980  -1.435  -7.164  1.00  0.00     0.005 A 
ATOM     85  C   UNL     1      13.610  -2.792  -7.111  1.00  0.00    -0.039 A 
BRANCH  85  86
ATOM     86  C   UNL     1      12.980  -3.413  -5.847  1.00  0.00     0.074 C 
ATOM     87  C   UNL     1      13.606  -4.787  -5.527  1.00  0.00     0.020 C 
ATOM     88  C   UNL     1      13.125  -2.490  -4.605  1.00  0.00     0.270 C 
ATOM     89  C   UNL     1      13.121  -5.325  -4.186  1.00  0.00     0.062 C 
ATOM     90  N   UNL     1      12.812  -3.050  -3.285  1.00  0.00    -0.333 N 
ATOM     91  C   UNL     1      13.451  -4.349  -3.063  1.00  0.00     0.262 C 
ATOM     92  H   UNL     1      11.806  -3.214  -3.267  1.00  0.00     0.348 HD
BRANCH  90  93
ATOM     93  C   UNL     1      13.138  -2.089  -2.198  1.00  0.00     0.284 C 
BRANCH  93  94
ATOM     94  C   UNL     1      14.619  -1.786  -1.816  1.00  0.00     0.180 C 
BRANCH  94  95
ATOM     95  N   UNL     1      15.391  -1.076  -2.827  1.00  0.00    -0.337 N 
ATOM     96  C   UNL     1      15.325   0.353  -2.998  1.00  0.00     0.120 C 
ATOM     97  C   UNL     1      16.338  -1.664  -3.653  1.00  0.00     0.222 C 
ATOM     98  C   UNL     1      15.926   0.576  -4.372  1.00  0.00     0.031 C 
ATOM     99  C   UNL     1      16.889  -0.591  -4.562  1.00  0.00     0.102 C 
ATOM    100  O   UNL     1      16.664  -2.837  -3.677  1.00  0.00    -0.275 OA
ENDBRANCH  94  95
ENDBRANCH  93  94
ENDBRANCH  90  93
ENDBRANCH  85  86
ENDBRANCH  77  80
ENDBRANCH  75  76
ENDBRANCH  74  75
ENDBRANCH   1  74
TORSDOF 20
