REMARK SMILES COc1cc(/C=N/NC(=O)c2cc(Cl)ccc2O)ccc1OCC(=O)NCCCCCCNC(=O)c1ccc(-c2c3nc(c(-c4cc(S(=O)(=O)[O-])ccc4F)c4ccc([nH]4)c(-c4cc(S(=O)(=O)[O-])ccc4F)c4nc(c(-c5cc(S(=O)(=O)[O-])ccc5F)c5ccc2[nH]5)C=C4)C=C3)cc1
REMARK SMILES IDX 28 1 27 2 26 3 24 4 25 5 23 7 22 8 21 9 3 10 4 11 5 12 20 13
REMARK SMILES IDX 19 14 2 15 1 16 6 17 7 18 8 19 9 20 10 22 11 23 12 24 17 25
REMARK SMILES IDX 13 26 16 27 14 28 15 29 18 30 29 32 30 33 31 34 32 35 33 36
REMARK SMILES IDX 34 37 35 39 36 40 37 41 98 42 38 43 97 44 39 45 40 46 41 47
REMARK SMILES IDX 91 48 42 49 96 50 90 51 92 52 43 53 95 54 89 55 88 56 44 58
REMARK SMILES IDX 76 59 56 60 75 61 57 62 60 63 74 64 93 65 58 66 59 67 73 69
REMARK SMILES IDX 94 70 61 71 45 72 46 73 54 74 47 75 53 76 55 77 52 78 48 79
REMARK SMILES IDX 49 80 50 81 51 82 77 83 78 84 86 85 79 86 85 87 87 88 84 89
REMARK SMILES IDX 80 90 81 91 82 92 83 93 62 94 63 95 71 96 64 97 70 98 72 99
REMARK SMILES IDX 69 100 65 101 66 102 67 103 68 104
REMARK H PARENT 26 6 8 21 18 31 33 38 92 57 60 68
REMARK Flexibility Score: inf
ROOT
ATOM      1  C   UNL     1       2.785   0.015   4.487  1.00  0.00     0.021 C 
ENDROOT
BRANCH   1   2
ATOM      2  C   UNL     1       3.355  -0.694   3.261  1.00  0.00     0.116 C 
BRANCH   2   3
ATOM      3  N   UNL     1       2.324  -1.142   2.349  1.00  0.00    -0.353 N 
ATOM      4  C   UNL     1       2.211  -0.898   1.013  1.00  0.00     0.257 C 
ATOM      5  O   UNL     1       1.407  -1.579   0.371  1.00  0.00    -0.271 OA
ATOM      6  H   UNL     1       1.613  -1.695   2.746  1.00  0.00     0.163 HD
BRANCH   4   7
ATOM      7  C   UNL     1       3.117   0.143   0.338  1.00  0.00     0.329 C 
BRANCH   7   8
ATOM      8  O   UNL     1       3.321   1.395   0.969  1.00  0.00    -0.480 OA
BRANCH   8   9
ATOM      9  C   UNL     1       2.258   2.217   1.218  1.00  0.00     0.161 A 
ATOM     10  C   UNL     1       1.035   2.276   0.539  1.00  0.00     0.161 A 
ATOM     11  C   UNL     1       0.074   3.230   0.907  1.00  0.00     0.060 A 
ATOM     12  C   UNL     1       0.327   4.104   1.970  1.00  0.00    -0.002 A 
ATOM     13  C   UNL     1       2.500   3.118   2.266  1.00  0.00     0.051 A 
ATOM     14  C   UNL     1       1.537   4.047   2.658  1.00  0.00     0.014 A 
BRANCH  10  15
ATOM     15  O   UNL     1       0.833   1.511  -0.577  1.00  0.00    -0.493 OA
ATOM     16  C   UNL     1      -0.332   0.690  -0.492  1.00  0.00     0.278 C 
ENDBRANCH  10  15
BRANCH  12  17
ATOM     17  C   UNL     1      -0.619   5.181   2.317  1.00  0.00     0.141 C 
ATOM     18  N   UNL     1      -1.410   5.687   1.420  1.00  0.00    -0.180 NA
BRANCH  18  19
ATOM     19  N   UNL     1      -2.147   6.784   1.764  1.00  0.00    -0.243 N 
ATOM     20  C   UNL     1      -1.747   7.963   2.373  1.00  0.00     0.275 C 
ATOM     21  H   UNL     1      -3.105   6.729   1.546  1.00  0.00     0.194 HD
ATOM     22  O   UNL     1      -2.578   8.831   2.639  1.00  0.00    -0.267 OA
BRANCH  20  23
ATOM     23  C   UNL     1      -0.326   8.205   2.713  1.00  0.00     0.084 A 
ATOM     24  C   UNL     1      -0.066   8.769   3.970  1.00  0.00     0.038 A 
ATOM     25  C   UNL     1       0.742   7.910   1.855  1.00  0.00     0.128 A 
ATOM     26  C   UNL     1       1.250   8.962   4.383  1.00  0.00     0.042 A 
ATOM     27  C   UNL     1       2.057   8.104   2.277  1.00  0.00     0.048 A 
ATOM     28  Cl  UNL     1       1.565   9.616   5.942  1.00  0.00    -0.084 Cl
ATOM     29  C   UNL     1       2.312   8.615   3.550  1.00  0.00     0.024 A 
BRANCH  25  30
ATOM     30  O   UNL     1       0.583   7.411   0.593  1.00  0.00    -0.507 OA
ATOM     31  H   UNL     1      -0.277   7.259   0.253  1.00  0.00     0.293 HD
ENDBRANCH  25  30
ENDBRANCH  20  23
ENDBRANCH  18  19
ENDBRANCH  12  17
ENDBRANCH   8   9
ENDBRANCH   7   8
ENDBRANCH   4   7
ENDBRANCH   2   3
ENDBRANCH   1   2
BRANCH   1  32
ATOM     32  C   UNL     1       1.796  -0.804   5.324  1.00  0.00     0.002 C 
BRANCH  32  33
ATOM     33  C   UNL     1       2.255  -2.210   5.720  1.00  0.00     0.002 C 
BRANCH  33  34
ATOM     34  C   UNL     1       3.625  -2.293   6.393  1.00  0.00     0.021 C 
BRANCH  34  35
ATOM     35  C   UNL     1       3.778  -1.440   7.645  1.00  0.00     0.116 C 
BRANCH  35  36
ATOM     36  N   UNL     1       2.903  -1.877   8.719  1.00  0.00    -0.352 N 
ATOM     37  C   UNL     1       3.227  -2.211  10.011  1.00  0.00     0.251 C 
ATOM     38  H   UNL     1       1.948  -1.944   8.489  1.00  0.00     0.163 HD
ATOM     39  O   UNL     1       2.389  -2.752  10.730  1.00  0.00    -0.269 OA
BRANCH  37  40
ATOM     40  C   UNL     1       4.591  -1.944  10.518  1.00  0.00     0.039 A 
ATOM     41  C   UNL     1       5.248  -2.933  11.253  1.00  0.00     0.014 A 
ATOM     42  C   UNL     1       5.227  -0.727  10.253  1.00  0.00     0.014 A 
ATOM     43  C   UNL     1       6.566  -2.724  11.668  1.00  0.00     0.010 A 
ATOM     44  C   UNL     1       6.565  -0.556  10.593  1.00  0.00     0.010 A 
ATOM     45  C   UNL     1       7.248  -1.549  11.311  1.00  0.00    -0.014 A 
BRANCH  45  46
ATOM     46  C   UNL     1       8.671  -1.338  11.687  1.00  0.00     0.031 A 
ATOM     47  C   UNL     1       9.052  -0.203  12.598  1.00  0.00     0.074 A 
ATOM     48  C   UNL     1       9.626  -2.133  11.166  1.00  0.00     0.049 A 
ATOM     49  N   UNL     1      10.238   0.173  13.004  1.00  0.00    -0.248 NA
ATOM     50  C   UNL     1       7.952   0.639  13.088  1.00  0.00     0.031 C 
ATOM     51  C   UNL     1       9.387  -3.248  10.248  1.00  0.00     0.029 A 
ATOM     52  N   UNL     1      10.987  -2.129  11.335  1.00  0.00    -0.354 N 
ATOM     53  C   UNL     1      10.028   1.302  13.790  1.00  0.00     0.074 A 
ATOM     54  C   UNL     1       8.610   1.591  13.730  1.00  0.00     0.031 C 
ATOM     55  C   UNL     1      10.556  -3.850   9.975  1.00  0.00     0.029 A 
ATOM     56  C   UNL     1      11.632  -3.133  10.651  1.00  0.00     0.049 A 
ATOM     57  H   UNL     1      11.458  -1.470  11.894  1.00  0.00     0.167 HD
ATOM     58  C   UNL     1      10.927   2.014  14.517  1.00  0.00     0.034 A 
ATOM     59  C   UNL     1      12.942  -3.440  10.575  1.00  0.00     0.034 A 
ATOM     60  C   UNL     1      12.338   1.713  14.557  1.00  0.00     0.049 A 
ATOM     61  C   UNL     1      13.934  -2.596  11.334  1.00  0.00     0.074 A 
ATOM     62  C   UNL     1      13.332   2.333  15.294  1.00  0.00     0.029 A 
ATOM     63  N   UNL     1      12.962   0.716  13.816  1.00  0.00    -0.354 N 
ATOM     64  N   UNL     1      13.717  -1.563  12.116  1.00  0.00    -0.248 NA
ATOM     65  C   UNL     1      15.349  -2.966  11.203  1.00  0.00     0.031 C 
ATOM     66  C   UNL     1      14.562   1.772  14.932  1.00  0.00     0.029 A 
ATOM     67  C   UNL     1      14.331   0.735  14.041  1.00  0.00     0.049 A 
ATOM     68  H   UNL     1      12.499   0.086  13.216  1.00  0.00     0.167 HD
ATOM     69  C   UNL     1      14.966  -1.184  12.600  1.00  0.00     0.074 A 
ATOM     70  C   UNL     1      15.928  -2.105  12.027  1.00  0.00     0.031 C 
ATOM     71  C   UNL     1      15.287  -0.174  13.450  1.00  0.00     0.034 A 
BRANCH  58  72
ATOM     72  C   UNL     1      10.400   3.206  15.286  1.00  0.00     0.023 A 
ATOM     73  C   UNL     1       9.394   3.070  16.260  1.00  0.00     0.031 A 
ATOM     74  C   UNL     1      10.853   4.505  14.994  1.00  0.00     0.131 A 
ATOM     75  C   UNL     1       8.793   4.210  16.814  1.00  0.00     0.055 A 
ATOM     76  C   UNL     1      10.326   5.631  15.630  1.00  0.00     0.041 A 
ATOM     77  F   UNL     1      11.797   4.708  14.061  1.00  0.00    -0.206 F 
ATOM     78  C   UNL     1       9.271   5.490  16.528  1.00  0.00     0.022 A 
BRANCH  75  79
ATOM     79  S   UNL     1       7.245   4.003  17.739  1.00  0.00     0.124 S 
ATOM     80  O   UNL     1       6.411   3.305  16.763  1.00  0.00    -0.237 OA
ATOM     81  O   UNL     1       7.670   3.221  18.893  1.00  0.00    -0.237 OA
ATOM     82  O   UNL     1       6.834   5.375  18.028  1.00  0.00    -0.744 OA
ENDBRANCH  75  79
ENDBRANCH  58  72
BRANCH  59  83
ATOM     83  C   UNL     1      13.395  -4.607   9.768  1.00  0.00     0.023 A 
ATOM     84  C   UNL     1      13.991  -5.717  10.387  1.00  0.00     0.031 A 
ATOM     85  C   UNL     1      13.261  -4.626   8.368  1.00  0.00     0.131 A 
ATOM     86  C   UNL     1      14.464  -6.784   9.608  1.00  0.00     0.055 A 
ATOM     87  C   UNL     1      13.685  -5.713   7.601  1.00  0.00     0.041 A 
ATOM     88  F   UNL     1      12.695  -3.591   7.726  1.00  0.00    -0.206 F 
ATOM     89  C   UNL     1      14.301  -6.796   8.221  1.00  0.00     0.022 A 
BRANCH  86  90
ATOM     90  S   UNL     1      15.360  -8.129  10.431  1.00  0.00     0.124 S 
ATOM     91  O   UNL     1      16.488  -7.416  11.020  1.00  0.00    -0.237 OA
ATOM     92  O   UNL     1      14.360  -8.633  11.365  1.00  0.00    -0.237 OA
ATOM     93  O   UNL     1      15.696  -9.033   9.333  1.00  0.00    -0.744 OA
ENDBRANCH  86  90
ENDBRANCH  59  83
BRANCH  71  94
ATOM     94  C   UNL     1      16.740  -0.043  13.846  1.00  0.00     0.023 A 
ATOM     95  C   UNL     1      17.740   0.284  12.913  1.00  0.00     0.031 A 
ATOM     96  C   UNL     1      17.130  -0.264  15.179  1.00  0.00     0.131 A 
ATOM     97  C   UNL     1      19.085   0.322  13.313  1.00  0.00     0.055 A 
ATOM     98  C   UNL     1      18.461  -0.156  15.585  1.00  0.00     0.041 A 
ATOM     99  F   UNL     1      16.221  -0.587  16.114  1.00  0.00    -0.206 F 
ATOM    100  C   UNL     1      19.449   0.124  14.647  1.00  0.00     0.022 A 
BRANCH  97 101
ATOM    101  S   UNL     1      20.365   0.526  12.044  1.00  0.00     0.124 S 
ATOM    102  O   UNL     1      20.105  -0.609  11.165  1.00  0.00    -0.237 OA
ATOM    103  O   UNL     1      20.054   1.842  11.495  1.00  0.00    -0.237 OA
ATOM    104  O   UNL     1      21.614   0.450  12.801  1.00  0.00    -0.744 OA
ENDBRANCH  97 101
ENDBRANCH  71  94
ENDBRANCH  45  46
ENDBRANCH  37  40
ENDBRANCH  35  36
ENDBRANCH  34  35
ENDBRANCH  33  34
ENDBRANCH  32  33
ENDBRANCH   1  32
TORSDOF 23
