REMARK SMILES CCCCCCNC(=O)Oc1cccc(-c2ccc([C@@H](C)C(=O)NCCCCCCNC(=O)c3ccc(-c4c5nc(c(-c6cc(S(=O)(=O)[O-])ccc6F)c6ccc([nH]6)c(-c6cc(S(=O)(=O)[O-])ccc6F)c6nc(c(-c7cc(S(=O)(=O)[O-])ccc7F)c7ccc4[nH]7)C=C6)C=C5)cc3)cc2F)c1
REMARK SMILES IDX 22 1 23 2 24 3 20 5 21 6 19 7 16 8 17 9 98 10 18 11 97 12
REMARK SMILES IDX 99 13 15 14 11 15 12 16 100 17 13 18 14 19 10 20 8 21 7 22
REMARK SMILES IDX 9 24 6 25 5 26 4 27 3 28 2 29 1 30 25 31 26 32 27 33 28 34
REMARK SMILES IDX 29 35 30 36 31 37 32 38 33 40 34 41 35 42 96 43 36 44 95 45
REMARK SMILES IDX 37 46 38 47 39 48 89 49 40 50 94 51 88 52 90 53 41 54 93 55
REMARK SMILES IDX 87 56 86 57 42 59 74 60 54 61 73 62 55 63 58 64 72 65 91 66
REMARK SMILES IDX 56 67 57 68 71 70 92 71 59 72 43 73 44 74 52 75 45 76 51 77
REMARK SMILES IDX 53 78 50 79 46 80 47 81 48 82 49 83 75 84 76 85 84 86 77 87
REMARK SMILES IDX 83 88 85 89 82 90 78 91 79 92 80 93 81 94 60 95 61 96 69 97
REMARK SMILES IDX 62 98 68 99 70 100 67 101 63 102 64 103 65 104 66 105
REMARK H PARENT 24 4 7 23 31 39 90 58 58 69
REMARK Flexibility Score: inf
ROOT
ATOM      1  C   UNL     1      -3.904   6.497  12.753  1.00  0.00     0.227 C 
ATOM      2  O   UNL     1      -2.954   7.255  12.518  1.00  0.00    -0.274 OA
ATOM      3  N   UNL     1      -3.791   5.713  13.859  1.00  0.00    -0.356 N 
ATOM      4  H   UNL     1      -2.984   5.889  14.396  1.00  0.00     0.163 HD
ENDROOT
BRANCH   1   5
ATOM      5  C   UNL     1      -5.131   6.502  11.829  1.00  0.00     0.105 C 
ATOM      6  C   UNL     1      -6.429   6.915  12.524  1.00  0.00     0.023 C 
BRANCH   5   7
ATOM      7  C   UNL     1      -5.232   5.283  10.926  1.00  0.00    -0.033 A 
ATOM      8  C   UNL     1      -5.295   2.983   9.215  1.00  0.00     0.018 A 
ATOM      9  C   UNL     1      -5.878   2.975  10.492  1.00  0.00     0.012 A 
ATOM     10  C   UNL     1      -4.696   4.186   8.814  1.00  0.00     0.131 A 
ATOM     11  C   UNL     1      -5.885   4.110  11.308  1.00  0.00     0.005 A 
ATOM     12  C   UNL     1      -4.642   5.306   9.654  1.00  0.00     0.044 A 
ATOM     13  F   UNL     1      -4.160   4.309   7.589  1.00  0.00    -0.206 F 
BRANCH   8  14
ATOM     14  C   UNL     1      -5.337   1.767   8.372  1.00  0.00    -0.012 A 
ATOM     15  C   UNL     1      -4.344   0.249   6.755  1.00  0.00     0.133 A 
ATOM     16  C   UNL     1      -5.436  -0.609   6.828  1.00  0.00     0.047 A 
ATOM     17  C   UNL     1      -4.285   1.424   7.509  1.00  0.00     0.056 A 
ATOM     18  C   UNL     1      -6.489  -0.289   7.674  1.00  0.00     0.004 A 
ATOM     19  C   UNL     1      -6.442   0.889   8.424  1.00  0.00     0.009 A 
BRANCH  15  20
ATOM     20  O   UNL     1      -3.377  -0.051   5.785  1.00  0.00    -0.410 OA
BRANCH  20  21
ATOM     21  C   UNL     1      -2.041  -0.077   6.148  1.00  0.00     0.412 C 
ATOM     22  N   UNL     1      -1.214  -0.300   5.082  1.00  0.00    -0.321 N 
ATOM     23  H   UNL     1      -0.250  -0.366   5.272  1.00  0.00     0.167 HD
ATOM     24  O   UNL     1      -1.591   0.068   7.277  1.00  0.00    -0.224 OA
BRANCH  22  25
ATOM     25  C   UNL     1      -1.618  -0.448   3.698  1.00  0.00     0.119 C 
BRANCH  25  26
ATOM     26  C   UNL     1      -1.027   0.651   2.816  1.00  0.00     0.021 C 
BRANCH  26  27
ATOM     27  C   UNL     1       0.503   0.628   2.711  1.00  0.00     0.002 C 
BRANCH  27  28
ATOM     28  C   UNL     1       1.104  -0.678   2.182  1.00  0.00    -0.000 C 
BRANCH  28  29
ATOM     29  C   UNL     1       0.615  -1.111   0.797  1.00  0.00    -0.003 C 
ATOM     30  C   UNL     1       0.975  -0.123  -0.301  1.00  0.00     0.004 C 
ENDBRANCH  28  29
ENDBRANCH  27  28
ENDBRANCH  26  27
ENDBRANCH  25  26
ENDBRANCH  22  25
ENDBRANCH  20  21
ENDBRANCH  15  20
ENDBRANCH   8  14
ENDBRANCH   5   7
ENDBRANCH   1   5
BRANCH   3  31
ATOM     31  C   UNL     1      -4.639   4.668  14.391  1.00  0.00     0.116 C 
BRANCH  31  32
ATOM     32  C   UNL     1      -4.097   3.276  14.057  1.00  0.00     0.021 C 
BRANCH  32  33
ATOM     33  C   UNL     1      -3.132   2.723  15.110  1.00  0.00     0.002 C 
BRANCH  33  34
ATOM     34  C   UNL     1      -3.749   2.502  16.498  1.00  0.00     0.002 C 
BRANCH  34  35
ATOM     35  C   UNL     1      -4.988   1.601  16.527  1.00  0.00     0.021 C 
BRANCH  35  36
ATOM     36  C   UNL     1      -4.750   0.180  16.022  1.00  0.00     0.116 C 
BRANCH  36  37
ATOM     37  N   UNL     1      -3.776  -0.521  16.844  1.00  0.00    -0.352 N 
ATOM     38  C   UNL     1      -3.930  -1.649  17.610  1.00  0.00     0.251 C 
ATOM     39  H   UNL     1      -2.873  -0.128  16.851  1.00  0.00     0.163 HD
ATOM     40  O   UNL     1      -3.080  -1.935  18.448  1.00  0.00    -0.269 OA
BRANCH  38  41
ATOM     41  C   UNL     1      -5.121  -2.507  17.430  1.00  0.00     0.039 A 
ATOM     42  C   UNL     1      -5.766  -3.022  18.557  1.00  0.00     0.014 A 
ATOM     43  C   UNL     1      -5.584  -2.825  16.149  1.00  0.00     0.014 A 
ATOM     44  C   UNL     1      -6.909  -3.810  18.400  1.00  0.00     0.010 A 
ATOM     45  C   UNL     1      -6.763  -3.550  15.998  1.00  0.00     0.010 A 
ATOM     46  C   UNL     1      -7.436  -4.055  17.121  1.00  0.00    -0.014 A 
BRANCH  46  47
ATOM     47  C   UNL     1      -8.678  -4.851  16.936  1.00  0.00     0.031 A 
ATOM     48  C   UNL     1      -8.628  -6.162  16.198  1.00  0.00     0.074 A 
ATOM     49  C   UNL     1      -9.854  -4.371  17.388  1.00  0.00     0.049 A 
ATOM     50  N   UNL     1      -9.608  -6.959  15.857  1.00  0.00    -0.248 NA
ATOM     51  C   UNL     1      -7.300  -6.623  15.765  1.00  0.00     0.031 C 
ATOM     52  C   UNL     1     -10.033  -3.104  18.101  1.00  0.00     0.029 A 
ATOM     53  N   UNL     1     -11.124  -4.888  17.313  1.00  0.00    -0.354 N 
ATOM     54  C   UNL     1      -9.017  -8.015  15.172  1.00  0.00     0.074 A 
ATOM     55  C   UNL     1      -7.603  -7.718  15.083  1.00  0.00     0.031 C 
ATOM     56  C   UNL     1     -11.328  -2.958  18.422  1.00  0.00     0.029 A 
ATOM     57  C   UNL     1     -12.083  -4.090  17.894  1.00  0.00     0.049 A 
ATOM     58  H   UNL     1     -11.329  -5.750  16.884  1.00  0.00     0.167 HD
ATOM     59  C   UNL     1      -9.593  -9.144  14.688  1.00  0.00     0.034 A 
ATOM     60  C   UNL     1     -13.419  -4.248  17.979  1.00  0.00     0.034 A 
ATOM     61  C   UNL     1     -11.004  -9.428  14.786  1.00  0.00     0.049 A 
ATOM     62  C   UNL     1     -14.045  -5.482  17.374  1.00  0.00     0.074 A 
ATOM     63  C   UNL     1     -11.692 -10.546  14.344  1.00  0.00     0.029 A 
ATOM     64  N   UNL     1     -11.946  -8.589  15.366  1.00  0.00    -0.354 N 
ATOM     65  N   UNL     1     -13.466  -6.483  16.751  1.00  0.00    -0.248 NA
ATOM     66  C   UNL     1     -15.503  -5.611  17.492  1.00  0.00     0.031 C 
ATOM     67  C   UNL     1     -13.053 -10.354  14.599  1.00  0.00     0.029 A 
ATOM     68  C   UNL     1     -13.209  -9.153  15.272  1.00  0.00     0.049 A 
ATOM     69  H   UNL     1     -11.746  -7.720  15.784  1.00  0.00     0.167 HD
ATOM     70  C   UNL     1     -14.487  -7.380  16.446  1.00  0.00     0.074 A 
ATOM     71  C   UNL     1     -15.712  -6.807  16.964  1.00  0.00     0.031 C 
ATOM     72  C   UNL     1     -14.421  -8.571  15.798  1.00  0.00     0.034 A 
BRANCH  59  73
ATOM     73  C   UNL     1      -8.695 -10.143  14.000  1.00  0.00     0.023 A 
ATOM     74  C   UNL     1      -7.660 -10.797  14.692  1.00  0.00     0.031 A 
ATOM     75  C   UNL     1      -8.860 -10.437  12.635  1.00  0.00     0.131 A 
ATOM     76  C   UNL     1      -6.790 -11.656  14.006  1.00  0.00     0.055 A 
ATOM     77  C   UNL     1      -8.041 -11.357  11.976  1.00  0.00     0.041 A 
ATOM     78  F   UNL     1      -9.816  -9.829  11.915  1.00  0.00    -0.206 F 
ATOM     79  C   UNL     1      -6.989 -11.962  12.658  1.00  0.00     0.022 A 
BRANCH  76  80
ATOM     80  S   UNL     1      -5.313 -12.259  14.867  1.00  0.00     0.124 S 
ATOM     81  O   UNL     1      -4.632 -11.009  15.195  1.00  0.00    -0.237 OA
ATOM     82  O   UNL     1      -5.880 -12.992  15.993  1.00  0.00    -0.237 OA
ATOM     83  O   UNL     1      -4.642 -13.081  13.862  1.00  0.00    -0.744 OA
ENDBRANCH  76  80
ENDBRANCH  59  73
BRANCH  60  84
ATOM     84  C   UNL     1     -14.271  -3.221  18.648  1.00  0.00     0.023 A 
ATOM     85  C   UNL     1     -15.044  -3.552  19.773  1.00  0.00     0.031 A 
ATOM     86  C   UNL     1     -14.392  -1.920  18.130  1.00  0.00     0.131 A 
ATOM     87  C   UNL     1     -15.954  -2.621  20.297  1.00  0.00     0.055 A 
ATOM     88  C   UNL     1     -15.248  -0.974  18.697  1.00  0.00     0.041 A 
ATOM     89  F   UNL     1     -13.676  -1.546  17.056  1.00  0.00    -0.206 F 
ATOM     90  C   UNL     1     -16.051  -1.330  19.776  1.00  0.00     0.022 A 
BRANCH  87  91
ATOM     91  S   UNL     1     -17.104  -3.169  21.590  1.00  0.00     0.124 S 
ATOM     92  O   UNL     1     -17.748  -4.309  20.947  1.00  0.00    -0.237 OA
ATOM     93  O   UNL     1     -16.196  -3.479  22.689  1.00  0.00    -0.237 OA
ATOM     94  O   UNL     1     -17.959  -2.003  21.799  1.00  0.00    -0.744 OA
ENDBRANCH  87  91
ENDBRANCH  60  84
BRANCH  72  95
ATOM     95  C   UNL     1     -15.703  -9.358  15.675  1.00  0.00     0.023 A 
ATOM     96  C   UNL     1     -16.784  -8.901  14.902  1.00  0.00     0.031 A 
ATOM     97  C   UNL     1     -15.847 -10.581  16.356  1.00  0.00     0.131 A 
ATOM     98  C   UNL     1     -17.982  -9.631  14.876  1.00  0.00     0.055 A 
ATOM     99  C   UNL     1     -17.018 -11.335  16.274  1.00  0.00     0.041 A 
ATOM    100  F   UNL     1     -14.847 -11.065  17.110  1.00  0.00    -0.206 F 
ATOM    101  C   UNL     1     -18.100 -10.854  15.543  1.00  0.00     0.022 A 
BRANCH  98 102
ATOM    102  S   UNL     1     -19.421  -8.914  14.036  1.00  0.00     0.124 S 
ATOM    103  O   UNL     1     -19.595  -7.655  14.753  1.00  0.00    -0.237 OA
ATOM    104  O   UNL     1     -18.953  -8.802  12.658  1.00  0.00    -0.237 OA
ATOM    105  O   UNL     1     -20.474  -9.903  14.254  1.00  0.00    -0.744 OA
ENDBRANCH  98 102
ENDBRANCH  72  95
ENDBRANCH  46  47
ENDBRANCH  38  41
ENDBRANCH  36  37
ENDBRANCH  35  36
ENDBRANCH  34  35
ENDBRANCH  33  34
ENDBRANCH  32  33
ENDBRANCH  31  32
ENDBRANCH   3  31
TORSDOF 25
