REMARK SMILES O=C(NCCCCCCNC(=O)[C@H]1CC2(CCN(C(=O)c3cccc(O)c3)CC2)CN1C(=O)C1CC1)c1ccc(-c2c3nc(c(-c4cc(S(=O)(=O)[O-])ccc4F)c4ccc([nH]4)c(-c4cc(S(=O)(=O)[O-])ccc4F)c4nc(c(-c5cc(S(=O)(=O)[O-])ccc5F)c5ccc2[nH]5)C=C4)C=C3)cc1
REMARK SMILES IDX 6 1 5 2 4 3 3 4 1 5 2 6 37 8 38 9 99 10 39 11 98 12 40 13
REMARK SMILES IDX 41 14 42 15 92 16 43 17 97 18 91 19 93 20 44 21 96 22 90 23
REMARK SMILES IDX 89 24 45 26 77 27 57 28 76 29 58 30 61 31 75 32 94 33 59 34
REMARK SMILES IDX 60 35 74 37 95 38 62 39 46 40 47 41 55 42 48 43 54 44 56 45
REMARK SMILES IDX 53 46 49 47 50 48 51 49 52 50 78 51 79 52 87 53 80 54 86 55
REMARK SMILES IDX 88 56 85 57 81 58 82 59 83 60 84 61 63 62 64 63 72 64 65 65
REMARK SMILES IDX 71 66 73 67 70 68 66 69 67 70 68 71 69 72 7 73 8 74 9 75
REMARK SMILES IDX 10 76 11 77 12 79 13 80 14 81 31 82 15 83 30 84 16 85 29 86
REMARK SMILES IDX 17 87 28 88 18 89 19 90 20 91 32 92 33 93 34 94 35 95 36 96
REMARK SMILES IDX 21 97 22 98 27 99 23 100 25 101 24 102 26 103
REMARK H PARENT 3 7 93 25 61 36 10 78 26 104
REMARK Flexibility Score: inf
ROOT
ATOM      1  C   UNL     1       8.659  12.325  -3.388  1.00  0.00     0.002 C 
ENDROOT
BRANCH   1   2
ATOM      2  C   UNL     1       7.991  13.235  -2.363  1.00  0.00     0.021 C 
BRANCH   2   3
ATOM      3  C   UNL     1       8.958  14.007  -1.481  1.00  0.00     0.116 C 
BRANCH   3   4
ATOM      4  N   UNL     1       9.688  15.041  -2.204  1.00  0.00    -0.352 N 
ATOM      5  O   UNL     1      10.441  17.162  -2.522  1.00  0.00    -0.269 OA
ATOM      6  C   UNL     1       9.921  16.332  -1.785  1.00  0.00     0.251 C 
ATOM      7  H   UNL     1      10.053  14.790  -3.083  1.00  0.00     0.163 HD
BRANCH   6   8
ATOM      8  C   UNL     1       9.498  16.689  -0.417  1.00  0.00     0.039 A 
ATOM      9  C   UNL     1       9.939  15.905   0.652  1.00  0.00     0.014 A 
ATOM     10  C   UNL     1       8.569  17.714  -0.221  1.00  0.00     0.014 A 
ATOM     11  C   UNL     1       9.348  16.060   1.897  1.00  0.00     0.010 A 
ATOM     12  C   UNL     1       8.046  17.927   1.057  1.00  0.00     0.010 A 
ATOM     13  C   UNL     1       8.415  17.088   2.121  1.00  0.00    -0.014 A 
BRANCH  13  14
ATOM     14  C   UNL     1       7.928  17.320   3.504  1.00  0.00     0.031 A 
ATOM     15  C   UNL     1       6.484  17.136   3.876  1.00  0.00     0.074 A 
ATOM     16  C   UNL     1       8.838  17.669   4.435  1.00  0.00     0.049 A 
ATOM     17  N   UNL     1       5.909  17.304   5.039  1.00  0.00    -0.248 NA
ATOM     18  C   UNL     1       5.565  16.719   2.807  1.00  0.00     0.031 C 
ATOM     19  C   UNL     1      10.267  17.873   4.173  1.00  0.00     0.029 A 
ATOM     20  N   UNL     1       8.716  17.891   5.780  1.00  0.00    -0.354 N 
ATOM     21  C   UNL     1       4.559  17.029   4.846  1.00  0.00     0.074 A 
ATOM     22  C   UNL     1       4.399  16.707   3.442  1.00  0.00     0.031 C 
ATOM     23  C   UNL     1      10.895  18.133   5.326  1.00  0.00     0.029 A 
ATOM     24  C   UNL     1       9.907  18.206   6.393  1.00  0.00     0.049 A 
ATOM     25  H   UNL     1       7.860  17.831   6.262  1.00  0.00     0.167 HD
ATOM     26  C   UNL     1       3.555  17.045   5.759  1.00  0.00     0.034 A 
ATOM     27  C   UNL     1      10.173  18.549   7.667  1.00  0.00     0.034 A 
ATOM     28  C   UNL     1       3.744  17.373   7.154  1.00  0.00     0.049 A 
ATOM     29  C   UNL     1       9.033  18.598   8.644  1.00  0.00     0.074 A 
ATOM     30  C   UNL     1       2.803  17.404   8.170  1.00  0.00     0.029 A 
ATOM     31  N   UNL     1       4.956  17.735   7.733  1.00  0.00    -0.354 N 
ATOM     32  N   UNL     1       7.763  18.333   8.442  1.00  0.00    -0.248 NA
ATOM     33  C   UNL     1       9.361  18.992  10.018  1.00  0.00     0.031 C 
ATOM     34  C   UNL     1       3.429  17.847   9.341  1.00  0.00     0.029 A 
ATOM     35  C   UNL     1       4.779  18.019   9.080  1.00  0.00     0.049 A 
ATOM     36  H   UNL     1       5.816  17.782   7.255  1.00  0.00     0.167 HD
ATOM     37  C   UNL     1       7.141  18.518   9.672  1.00  0.00     0.074 A 
ATOM     38  C   UNL     1       8.183  18.881  10.612  1.00  0.00     0.031 C 
ATOM     39  C   UNL     1       5.827  18.405   9.995  1.00  0.00     0.034 A 
BRANCH  26  40
ATOM     40  C   UNL     1       2.155  16.745   5.272  1.00  0.00     0.023 A 
ATOM     41  C   UNL     1       1.795  15.481   4.773  1.00  0.00     0.031 A 
ATOM     42  C   UNL     1       1.161  17.740   5.318  1.00  0.00     0.131 A 
ATOM     43  C   UNL     1       0.494  15.261   4.292  1.00  0.00     0.055 A 
ATOM     44  C   UNL     1      -0.150  17.494   4.903  1.00  0.00     0.041 A 
ATOM     45  F   UNL     1       1.448  18.973   5.765  1.00  0.00    -0.206 F 
ATOM     46  C   UNL     1      -0.487  16.251   4.376  1.00  0.00     0.022 A 
BRANCH  43  47
ATOM     47  S   UNL     1       0.132  13.697   3.447  1.00  0.00     0.124 S 
ATOM     48  O   UNL     1       1.093  13.725   2.346  1.00  0.00    -0.237 OA
ATOM     49  O   UNL     1       0.386  12.708   4.489  1.00  0.00    -0.237 OA
ATOM     50  O   UNL     1      -1.266  13.837   3.047  1.00  0.00    -0.744 OA
ENDBRANCH  43  47
ENDBRANCH  26  40
BRANCH  27  51
ATOM     51  C   UNL     1      11.559  18.918   8.071  1.00  0.00     0.023 A 
ATOM     52  C   UNL     1      12.254  18.178   9.039  1.00  0.00     0.031 A 
ATOM     53  C   UNL     1      12.200  20.041   7.513  1.00  0.00     0.131 A 
ATOM     54  C   UNL     1      13.528  18.595   9.452  1.00  0.00     0.055 A 
ATOM     55  C   UNL     1      13.492  20.412   7.880  1.00  0.00     0.041 A 
ATOM     56  F   UNL     1      11.581  20.783   6.580  1.00  0.00    -0.206 F 
ATOM     57  C   UNL     1      14.159  19.696   8.868  1.00  0.00     0.022 A 
BRANCH  54  58
ATOM     58  S   UNL     1      14.311  17.732  10.842  1.00  0.00     0.124 S 
ATOM     59  O   UNL     1      13.291  17.851  11.878  1.00  0.00    -0.237 OA
ATOM     60  O   UNL     1      14.514  16.396  10.292  1.00  0.00    -0.237 OA
ATOM     61  O   UNL     1      15.531  18.502  11.075  1.00  0.00    -0.744 OA
ENDBRANCH  54  58
ENDBRANCH  27  51
BRANCH  39  62
ATOM     62  C   UNL     1       5.471  18.656  11.440  1.00  0.00     0.023 A 
ATOM     63  C   UNL     1       5.619  19.928  12.021  1.00  0.00     0.031 A 
ATOM     64  C   UNL     1       5.030  17.601  12.256  1.00  0.00     0.131 A 
ATOM     65  C   UNL     1       5.398  20.096  13.396  1.00  0.00     0.055 A 
ATOM     66  C   UNL     1       4.747  17.790  13.609  1.00  0.00     0.041 A 
ATOM     67  F   UNL     1       4.876  16.365  11.753  1.00  0.00    -0.206 F 
ATOM     68  C   UNL     1       4.948  19.039  14.190  1.00  0.00     0.022 A 
BRANCH  65  69
ATOM     69  S   UNL     1       5.820  21.689  14.154  1.00  0.00     0.124 S 
ATOM     70  O   UNL     1       7.237  21.814  13.828  1.00  0.00    -0.237 OA
ATOM     71  O   UNL     1       4.923  22.610  13.463  1.00  0.00    -0.237 OA
ATOM     72  O   UNL     1       5.525  21.483  15.571  1.00  0.00    -0.744 OA
ENDBRANCH  65  69
ENDBRANCH  39  62
ENDBRANCH  13  14
ENDBRANCH   6   8
ENDBRANCH   3   4
ENDBRANCH   2   3
ENDBRANCH   1   2
BRANCH   1  73
ATOM     73  C   UNL     1       9.603  11.275  -2.804  1.00  0.00     0.002 C 
BRANCH  73  74
ATOM     74  C   UNL     1       8.989  10.304  -1.790  1.00  0.00     0.021 C 
BRANCH  74  75
ATOM     75  C   UNL     1       7.822   9.459  -2.300  1.00  0.00     0.116 C 
BRANCH  75  76
ATOM     76  N   UNL     1       8.035   8.878  -3.617  1.00  0.00    -0.354 N 
ATOM     77  C   UNL     1       8.400   7.607  -3.966  1.00  0.00     0.242 C 
ATOM     78  H   UNL     1       7.895   9.494  -4.372  1.00  0.00     0.163 HD
ATOM     79  O   UNL     1       8.298   7.271  -5.149  1.00  0.00    -0.273 OA
BRANCH  77  80
ATOM     80  C   UNL     1       8.755   6.601  -2.880  1.00  0.00     0.175 C 
ATOM     81  C   UNL     1       9.040   5.150  -3.264  1.00  0.00     0.044 C 
ATOM     82  N   UNL     1       9.694   6.783  -1.785  1.00  0.00    -0.330 N 
ATOM     83  C   UNL     1       9.154   4.460  -1.857  1.00  0.00    -0.006 C 
ATOM     84  C   UNL     1       9.438   5.657  -0.886  1.00  0.00     0.127 C 
ATOM     85  C   UNL     1      10.310   3.437  -1.782  1.00  0.00     0.030 C 
ATOM     86  C   UNL     1       7.829   3.755  -1.481  1.00  0.00     0.030 C 
ATOM     87  C   UNL     1      10.026   2.157  -2.563  1.00  0.00     0.120 C 
ATOM     88  C   UNL     1       7.597   2.470  -2.278  1.00  0.00     0.120 C 
ATOM     89  N   UNL     1       8.743   1.577  -2.168  1.00  0.00    -0.339 N 
ATOM     90  C   UNL     1       8.509   0.228  -1.906  1.00  0.00     0.253 C 
ATOM     91  O   UNL     1       7.388  -0.276  -1.877  1.00  0.00    -0.269 OA
BRANCH  82  92
ATOM     92  C   UNL     1      11.002   7.270  -1.777  1.00  0.00     0.226 C 
ATOM     93  O   UNL     1      11.729   7.041  -0.809  1.00  0.00    -0.275 OA
BRANCH  92  94
ATOM     94  C   UNL     1      11.655   8.088  -2.840  1.00  0.00     0.079 C 
ATOM     95  C   UNL     1      12.221   7.332  -4.033  1.00  0.00     0.014 C 
ATOM     96  C   UNL     1      11.356   8.526  -4.237  1.00  0.00     0.014 C 
ENDBRANCH  92  94
ENDBRANCH  82  92
BRANCH  90  97
ATOM     97  C   UNL     1       9.653  -0.665  -1.623  1.00  0.00     0.043 A 
ATOM     98  C   UNL     1      10.505  -0.404  -0.543  1.00  0.00     0.014 A 
ATOM     99  C   UNL     1       9.814  -1.823  -2.388  1.00  0.00     0.060 A 
ATOM    100  C   UNL     1      11.550  -1.284  -0.259  1.00  0.00     0.005 A 
ATOM    101  C   UNL     1      10.858  -2.690  -2.092  1.00  0.00     0.116 A 
ATOM    102  C   UNL     1      11.732  -2.429  -1.038  1.00  0.00     0.046 A 
BRANCH 101 103
ATOM    103  O   UNL     1      10.996  -3.807  -2.864  1.00  0.00    -0.508 OA
ATOM    104  H   UNL     1      11.690  -4.413  -2.692  1.00  0.00     0.293 HD
ENDBRANCH 101 103
ENDBRANCH  90  97
ENDBRANCH  77  80
ENDBRANCH  75  76
ENDBRANCH  74  75
ENDBRANCH  73  74
ENDBRANCH   1  73
TORSDOF 20
