REMARK SMILES CN(C)S(=O)(=O)c1cccc(-c2cc(Cl)cc(C(=O)NCCCCCCNC(=O)c3ccc(-c4c5nc(c(-c6cc(S(=O)(=O)[O-])ccc6F)c6ccc([nH]6)c(-c6cc(S(=O)(=O)[O-])ccc6F)c6nc(c(-c7cc(S(=O)(=O)[O-])ccc7F)c7ccc4[nH]7)C=C6)C=C5)cc3)c2)c1
REMARK SMILES IDX 23 1 22 2 21 3 20 4 18 5 19 6 17 8 12 9 13 10 93 11 14 12
REMARK SMILES IDX 15 13 16 14 11 15 7 16 8 17 94 18 9 19 10 20 4 21 5 22 6 23
REMARK SMILES IDX 2 24 1 25 3 26 24 27 25 28 26 29 27 30 28 31 29 33 30 34
REMARK SMILES IDX 31 35 92 36 32 37 91 38 33 39 34 40 35 41 85 42 36 43 90 44
REMARK SMILES IDX 84 45 86 46 37 47 89 48 83 49 82 50 38 52 70 53 50 54 69 55
REMARK SMILES IDX 51 56 54 57 68 58 87 59 52 60 53 61 67 63 88 64 55 65 39 66
REMARK SMILES IDX 40 67 48 68 41 69 47 70 49 71 46 72 42 73 43 74 44 75 45 76
REMARK SMILES IDX 71 77 72 78 80 79 73 80 79 81 81 82 78 83 74 84 75 85 76 86
REMARK SMILES IDX 77 87 56 88 57 89 65 90 58 91 64 92 66 93 63 94 59 95 60 96
REMARK SMILES IDX 61 97 62 98
REMARK H PARENT 20 7 27 32 86 51 54 62
REMARK Flexibility Score: inf
ROOT
ATOM      1  C   UNL     1      -6.651   3.750  -0.270  1.00  0.00     0.002 C 
ENDROOT
BRANCH   1   2
ATOM      2  C   UNL     1      -5.530   4.516  -0.971  1.00  0.00     0.021 C 
BRANCH   2   3
ATOM      3  C   UNL     1      -4.689   3.744  -1.982  1.00  0.00     0.116 C 
BRANCH   3   4
ATOM      4  N   UNL     1      -5.431   3.224  -3.121  1.00  0.00    -0.352 N 
ATOM      5  C   UNL     1      -5.083   3.109  -4.450  1.00  0.00     0.251 C 
ATOM      6  O   UNL     1      -5.905   2.650  -5.242  1.00  0.00    -0.269 OA
ATOM      7  H   UNL     1      -6.334   2.898  -2.905  1.00  0.00     0.163 HD
BRANCH   5   8
ATOM      8  C   UNL     1      -3.768   3.574  -4.970  1.00  0.00     0.041 A 
ATOM      9  C   UNL     1      -1.425   4.170  -4.614  1.00  0.00    -0.016 A 
ATOM     10  C   UNL     1      -1.393   4.732  -5.897  1.00  0.00     0.029 A 
ATOM     11  C   UNL     1      -2.597   3.506  -4.213  1.00  0.00     0.022 A 
ATOM     12  C   UNL     1      -2.525   4.686  -6.714  1.00  0.00     0.042 A 
ATOM     13  Cl  UNL     1      -2.468   5.393  -8.283  1.00  0.00    -0.084 Cl
ATOM     14  C   UNL     1      -3.718   4.135  -6.249  1.00  0.00     0.034 A 
BRANCH   9  15
ATOM     15  C   UNL     1      -0.378   4.427  -3.607  1.00  0.00    -0.017 A 
ATOM     16  C   UNL     1       0.830   3.745  -1.614  1.00  0.00     0.083 A 
ATOM     17  C   UNL     1       1.193   5.072  -1.359  1.00  0.00     0.022 A 
ATOM     18  C   UNL     1       0.087   3.414  -2.751  1.00  0.00     0.030 A 
ATOM     19  C   UNL     1       0.808   6.074  -2.241  1.00  0.00     0.002 A 
ATOM     20  C   UNL     1       0.021   5.754  -3.348  1.00  0.00     0.009 A 
BRANCH  16  21
ATOM     21  S   UNL     1       1.302   2.538  -0.399  1.00  0.00     0.242 S 
ATOM     22  O   UNL     1       0.760   2.993   0.869  1.00  0.00    -0.207 OA
ATOM     23  O   UNL     1       2.711   2.310  -0.598  1.00  0.00    -0.207 OA
BRANCH  21  24
ATOM     24  N   UNL     1       0.464   1.088  -0.796  1.00  0.00    -0.204 NA
ATOM     25  C   UNL     1       1.093  -0.094  -0.142  1.00  0.00     0.124 C 
ATOM     26  C   UNL     1      -0.994   1.104  -0.523  1.00  0.00     0.124 C 
ENDBRANCH  21  24
ENDBRANCH  16  21
ENDBRANCH   9  15
ENDBRANCH   5   8
ENDBRANCH   3   4
ENDBRANCH   2   3
ENDBRANCH   1   2
BRANCH   1  27
ATOM     27  C   UNL     1      -6.271   2.438   0.419  1.00  0.00     0.002 C 
BRANCH  27  28
ATOM     28  C   UNL     1      -5.093   2.484   1.395  1.00  0.00     0.021 C 
BRANCH  28  29
ATOM     29  C   UNL     1      -5.159   3.540   2.494  1.00  0.00     0.116 C 
BRANCH  29  30
ATOM     30  N   UNL     1      -6.304   3.381   3.372  1.00  0.00    -0.352 N 
ATOM     31  C   UNL     1      -6.362   3.346   4.745  1.00  0.00     0.251 C 
ATOM     32  H   UNL     1      -7.171   3.284   2.914  1.00  0.00     0.163 HD
ATOM     33  O   UNL     1      -7.429   3.076   5.293  1.00  0.00    -0.269 OA
BRANCH  31  34
ATOM     34  C   UNL     1      -5.150   3.592   5.563  1.00  0.00     0.039 A 
ATOM     35  C   UNL     1      -4.906   2.765   6.665  1.00  0.00     0.014 A 
ATOM     36  C   UNL     1      -4.266   4.634   5.271  1.00  0.00     0.014 A 
ATOM     37  C   UNL     1      -3.748   2.940   7.429  1.00  0.00     0.010 A 
ATOM     38  C   UNL     1      -3.078   4.766   5.992  1.00  0.00     0.010 A 
ATOM     39  C   UNL     1      -2.806   3.921   7.079  1.00  0.00    -0.014 A 
BRANCH  39  40
ATOM     40  C   UNL     1      -1.539   4.081   7.843  1.00  0.00     0.031 A 
ATOM     41  C   UNL     1      -1.279   5.343   8.621  1.00  0.00     0.074 A 
ATOM     42  C   UNL     1      -0.600   3.117   7.792  1.00  0.00     0.049 A 
ATOM     43  N   UNL     1      -0.213   5.700   9.292  1.00  0.00    -0.248 NA
ATOM     44  C   UNL     1      -2.353   6.345   8.620  1.00  0.00     0.031 C 
ATOM     45  C   UNL     1      -0.718   1.861   7.050  1.00  0.00     0.029 A 
ATOM     46  N   UNL     1       0.643   3.043   8.370  1.00  0.00    -0.354 N 
ATOM     47  C   UNL     1      -0.483   6.973   9.784  1.00  0.00     0.074 A 
ATOM     48  C   UNL     1      -1.788   7.346   9.276  1.00  0.00     0.031 C 
ATOM     49  C   UNL     1       0.394   1.132   7.239  1.00  0.00     0.029 A 
ATOM     50  C   UNL     1       1.322   1.883   8.078  1.00  0.00     0.049 A 
ATOM     51  H   UNL     1       1.014   3.755   8.941  1.00  0.00     0.167 HD
ATOM     52  C   UNL     1       0.273   7.749  10.603  1.00  0.00     0.034 A 
ATOM     53  C   UNL     1       2.555   1.475   8.437  1.00  0.00     0.034 A 
ATOM     54  C   UNL     1       1.571   7.362  11.103  1.00  0.00     0.049 A 
ATOM     55  C   UNL     1       3.398   2.371   9.308  1.00  0.00     0.074 A 
ATOM     56  C   UNL     1       2.403   8.049  11.972  1.00  0.00     0.029 A 
ATOM     57  N   UNL     1       2.234   6.187  10.770  1.00  0.00    -0.354 N 
ATOM     58  N   UNL     1       3.112   3.554   9.800  1.00  0.00    -0.248 NA
ATOM     59  C   UNL     1       4.728   1.871   9.676  1.00  0.00     0.031 C 
ATOM     60  C   UNL     1       3.591   7.320  12.114  1.00  0.00     0.029 A 
ATOM     61  C   UNL     1       3.474   6.144  11.391  1.00  0.00     0.049 A 
ATOM     62  H   UNL     1       1.876   5.486  10.179  1.00  0.00     0.167 HD
ATOM     63  C   UNL     1       4.215   3.924  10.563  1.00  0.00     0.074 A 
ATOM     64  C   UNL     1       5.166   2.834  10.473  1.00  0.00     0.031 C 
ATOM     65  C   UNL     1       4.420   5.057  11.282  1.00  0.00     0.034 A 
BRANCH  52  66
ATOM     66  C   UNL     1      -0.286   9.103  10.976  1.00  0.00     0.023 A 
ATOM     67  C   UNL     1      -1.496   9.231  11.683  1.00  0.00     0.031 A 
ATOM     68  C   UNL     1       0.365  10.283  10.574  1.00  0.00     0.131 A 
ATOM     69  C   UNL     1      -2.065  10.498  11.878  1.00  0.00     0.055 A 
ATOM     70  C   UNL     1      -0.162  11.547  10.852  1.00  0.00     0.041 A 
ATOM     71  F   UNL     1       1.513  10.229   9.881  1.00  0.00    -0.206 F 
ATOM     72  C   UNL     1      -1.394  11.659  11.490  1.00  0.00     0.022 A 
BRANCH  69  73
ATOM     73  S   UNL     1      -3.772  10.593  12.484  1.00  0.00     0.124 S 
ATOM     74  O   UNL     1      -4.486   9.809  11.479  1.00  0.00    -0.237 OA
ATOM     75  O   UNL     1      -3.670   9.993  13.809  1.00  0.00    -0.237 OA
ATOM     76  O   UNL     1      -4.063  12.025  12.467  1.00  0.00    -0.744 OA
ENDBRANCH  69  73
ENDBRANCH  52  66
BRANCH  53  77
ATOM     77  C   UNL     1       3.075   0.155   7.981  1.00  0.00     0.023 A 
ATOM     78  C   UNL     1       3.319  -0.877   8.901  1.00  0.00     0.031 A 
ATOM     79  C   UNL     1       3.369  -0.082   6.628  1.00  0.00     0.131 A 
ATOM     80  C   UNL     1       3.878  -2.087   8.463  1.00  0.00     0.055 A 
ATOM     81  C   UNL     1       3.884  -1.304   6.189  1.00  0.00     0.041 A 
ATOM     82  F   UNL     1       3.147   0.869   5.707  1.00  0.00    -0.206 F 
ATOM     83  C   UNL     1       4.152  -2.311   7.112  1.00  0.00     0.022 A 
BRANCH  80  84
ATOM     84  S   UNL     1       4.306  -3.344   9.698  1.00  0.00     0.124 S 
ATOM     85  O   UNL     1       5.261  -2.627  10.535  1.00  0.00    -0.237 OA
ATOM     86  O   UNL     1       3.008  -3.628  10.303  1.00  0.00    -0.237 OA
ATOM     87  O   UNL     1       4.868  -4.430   8.898  1.00  0.00    -0.744 OA
ENDBRANCH  80  84
ENDBRANCH  53  77
BRANCH  65  88
ATOM     88  C   UNL     1       5.708   5.145  12.065  1.00  0.00     0.023 A 
ATOM     89  C   UNL     1       6.957   5.247  11.429  1.00  0.00     0.031 A 
ATOM     90  C   UNL     1       5.682   5.102  13.470  1.00  0.00     0.131 A 
ATOM     91  C   UNL     1       8.133   5.246  12.195  1.00  0.00     0.055 A 
ATOM     92  C   UNL     1       6.851   5.159  14.229  1.00  0.00     0.041 A 
ATOM     93  F   UNL     1       4.516   5.002  14.129  1.00  0.00    -0.206 F 
ATOM     94  C   UNL     1       8.087   5.218  13.592  1.00  0.00     0.022 A 
BRANCH  91  95
ATOM     95  S   UNL     1       9.733   5.193  11.340  1.00  0.00     0.124 S 
ATOM     96  O   UNL     1       9.625   3.958  10.571  1.00  0.00    -0.237 OA
ATOM     97  O   UNL     1       9.714   6.430  10.566  1.00  0.00    -0.237 OA
ATOM     98  O   UNL     1      10.705   5.162  12.432  1.00  0.00    -0.744 OA
ENDBRANCH  91  95
ENDBRANCH  65  88
ENDBRANCH  39  40
ENDBRANCH  31  34
ENDBRANCH  29  30
ENDBRANCH  28  29
ENDBRANCH  27  28
ENDBRANCH   1  27
TORSDOF 19
