REMARK SMILES O=C(NCCCCCCNC(=O)[C@H]1CS[C@]2(c3ccccc3)CCC(=O)N12)c1ccc(-c2c3nc(c(-c4cc(S(=O)(=O)[O-])ccc4F)c4ccc([nH]4)c(-c4cc(S(=O)(=O)[O-])ccc4F)c4nc(c(-c5cc(S(=O)(=O)[O-])ccc5F)c5ccc2[nH]5)C=C4)C=C3)cc1
REMARK SMILES IDX 5 1 4 2 3 3 1 4 2 5 28 7 29 8 90 9 30 10 89 11 31 12 32 13
REMARK SMILES IDX 33 14 83 15 34 16 88 17 82 18 84 19 35 20 87 21 81 22 80 23
REMARK SMILES IDX 36 25 68 26 48 27 67 28 49 29 52 30 66 31 85 32 50 33 51 34
REMARK SMILES IDX 65 36 86 37 53 38 37 39 38 40 46 41 39 42 45 43 47 44 44 45
REMARK SMILES IDX 40 46 41 47 42 48 43 49 69 50 70 51 78 52 71 53 77 54 79 55
REMARK SMILES IDX 76 56 72 57 73 58 74 59 75 60 54 61 55 62 63 63 56 64 62 65
REMARK SMILES IDX 64 66 61 67 57 68 58 69 59 70 60 71 6 72 7 73 8 74 9 75
REMARK SMILES IDX 10 76 11 77 12 79 13 80 14 81 27 82 15 83 16 84 25 85 23 86
REMARK SMILES IDX 24 87 26 88 17 89 18 90 22 91 19 92 21 93 20 94
REMARK H PARENT 3 6 84 24 52 35 10 78
REMARK Flexibility Score: inf
ROOT
ATOM      1  C   UNL     1      11.144   6.272  -3.751  1.00  0.00     0.021 C 
ENDROOT
BRANCH   1   2
ATOM      2  C   UNL     1      12.415   6.161  -2.921  1.00  0.00     0.116 C 
BRANCH   2   3
ATOM      3  N   UNL     1      13.279   7.323  -3.046  1.00  0.00    -0.352 N 
ATOM      4  O   UNL     1      14.402   9.158  -2.381  1.00  0.00    -0.269 OA
ATOM      5  C   UNL     1      13.793   8.139  -2.065  1.00  0.00     0.251 C 
ATOM      6  H   UNL     1      13.533   7.561  -3.967  1.00  0.00     0.163 HD
BRANCH   5   7
ATOM      7  C   UNL     1      13.596   7.808  -0.633  1.00  0.00     0.039 A 
ATOM      8  C   UNL     1      13.763   6.503  -0.164  1.00  0.00     0.014 A 
ATOM      9  C   UNL     1      13.258   8.829   0.261  1.00  0.00     0.014 A 
ATOM     10  C   UNL     1      13.461   6.197   1.160  1.00  0.00     0.010 A 
ATOM     11  C   UNL     1      13.037   8.534   1.611  1.00  0.00     0.010 A 
ATOM     12  C   UNL     1      13.109   7.209   2.067  1.00  0.00    -0.014 A 
BRANCH  12  13
ATOM     13  C   UNL     1      12.880   6.856   3.494  1.00  0.00     0.031 A 
ATOM     14  C   UNL     1      11.522   6.998   4.126  1.00  0.00     0.074 A 
ATOM     15  C   UNL     1      13.909   6.356   4.207  1.00  0.00     0.049 A 
ATOM     16  N   UNL     1      11.143   6.694   5.342  1.00  0.00    -0.248 NA
ATOM     17  C   UNL     1      10.454   7.563   3.289  1.00  0.00     0.031 C 
ATOM     18  C   UNL     1      15.275   6.189   3.703  1.00  0.00     0.029 A 
ATOM     19  N   UNL     1      13.969   5.877   5.490  1.00  0.00    -0.354 N 
ATOM     20  C   UNL     1       9.795   7.029   5.420  1.00  0.00     0.074 A 
ATOM     21  C   UNL     1       9.436   7.601   4.138  1.00  0.00     0.031 C 
ATOM     22  C   UNL     1      16.025   5.605   4.649  1.00  0.00     0.029 A 
ATOM     23  C   UNL     1      15.214   5.410   5.845  1.00  0.00     0.049 A 
ATOM     24  H   UNL     1      13.196   5.868   6.100  1.00  0.00     0.167 HD
ATOM     25  C   UNL     1       8.937   6.864   6.458  1.00  0.00     0.034 A 
ATOM     26  C   UNL     1      15.660   4.895   7.007  1.00  0.00     0.034 A 
ATOM     27  C   UNL     1       9.313   6.302   7.735  1.00  0.00     0.049 A 
ATOM     28  C   UNL     1      14.692   4.742   8.149  1.00  0.00     0.074 A 
ATOM     29  C   UNL     1       8.524   6.093   8.854  1.00  0.00     0.029 A 
ATOM     30  N   UNL     1      10.589   5.862   8.066  1.00  0.00    -0.354 N 
ATOM     31  N   UNL     1      13.418   5.057   8.198  1.00  0.00    -0.248 NA
ATOM     32  C   UNL     1      15.219   4.156   9.386  1.00  0.00     0.031 C 
ATOM     33  C   UNL     1       9.332   5.578   9.875  1.00  0.00     0.029 A 
ATOM     34  C   UNL     1      10.612   5.401   9.375  1.00  0.00     0.049 A 
ATOM     35  H   UNL     1      11.364   5.875   7.460  1.00  0.00     0.167 HD
ATOM     36  C   UNL     1      12.990   4.696   9.471  1.00  0.00     0.074 A 
ATOM     37  C   UNL     1      14.133   4.110  10.142  1.00  0.00     0.031 C 
ATOM     38  C   UNL     1      11.765   4.840  10.037  1.00  0.00     0.034 A 
BRANCH  25  39
ATOM     39  C   UNL     1       7.513   7.327   6.261  1.00  0.00     0.023 A 
ATOM     40  C   UNL     1       6.661   6.710   5.327  1.00  0.00     0.031 A 
ATOM     41  C   UNL     1       7.002   8.405   7.005  1.00  0.00     0.131 A 
ATOM     42  C   UNL     1       5.368   7.213   5.117  1.00  0.00     0.055 A 
ATOM     43  C   UNL     1       5.689   8.856   6.842  1.00  0.00     0.041 A 
ATOM     44  F   UNL     1       7.773   9.046   7.897  1.00  0.00    -0.206 F 
ATOM     45  C   UNL     1       4.868   8.267   5.885  1.00  0.00     0.022 A 
BRANCH  42  46
ATOM     46  S   UNL     1       4.391   6.546   3.742  1.00  0.00     0.124 S 
ATOM     47  O   UNL     1       5.248   6.848   2.597  1.00  0.00    -0.237 OA
ATOM     48  O   UNL     1       4.271   5.136   4.093  1.00  0.00    -0.237 OA
ATOM     49  O   UNL     1       3.149   7.313   3.800  1.00  0.00    -0.744 OA
ENDBRANCH  42  46
ENDBRANCH  25  39
BRANCH  26  50
ATOM     50  C   UNL     1      17.093   4.516   7.158  1.00  0.00     0.023 A 
ATOM     51  C   UNL     1      17.476   3.185   7.382  1.00  0.00     0.031 A 
ATOM     52  C   UNL     1      18.102   5.495   7.111  1.00  0.00     0.131 A 
ATOM     53  C   UNL     1      18.828   2.874   7.594  1.00  0.00     0.055 A 
ATOM     54  C   UNL     1      19.450   5.173   7.268  1.00  0.00     0.041 A 
ATOM     55  F   UNL     1      17.790   6.783   6.894  1.00  0.00    -0.206 F 
ATOM     56  C   UNL     1      19.818   3.857   7.525  1.00  0.00     0.022 A 
BRANCH  53  57
ATOM     57  S   UNL     1      19.266   1.174   8.049  1.00  0.00     0.124 S 
ATOM     58  O   UNL     1      18.427   0.953   9.221  1.00  0.00    -0.237 OA
ATOM     59  O   UNL     1      18.896   0.435   6.846  1.00  0.00    -0.237 OA
ATOM     60  O   UNL     1      20.701   1.253   8.314  1.00  0.00    -0.744 OA
ENDBRANCH  53  57
ENDBRANCH  26  50
BRANCH  38  61
ATOM     61  C   UNL     1      11.611   4.326  11.447  1.00  0.00     0.023 A 
ATOM     62  C   UNL     1      12.277   4.933  12.526  1.00  0.00     0.031 A 
ATOM     63  C   UNL     1      10.827   3.189  11.705  1.00  0.00     0.131 A 
ATOM     64  C   UNL     1      12.200   4.361  13.805  1.00  0.00     0.055 A 
ATOM     65  C   UNL     1      10.707   2.658  12.990  1.00  0.00     0.041 A 
ATOM     66  F   UNL     1      10.172   2.569  10.710  1.00  0.00    -0.206 F 
ATOM     67  C   UNL     1      11.408   3.235  14.046  1.00  0.00     0.022 A 
BRANCH  64  68
ATOM     68  S   UNL     1      13.232   5.048  15.129  1.00  0.00     0.124 S 
ATOM     69  O   UNL     1      14.572   4.921  14.566  1.00  0.00    -0.237 OA
ATOM     70  O   UNL     1      12.717   6.408  15.251  1.00  0.00    -0.237 OA
ATOM     71  O   UNL     1      12.953   4.176  16.268  1.00  0.00    -0.744 OA
ENDBRANCH  64  68
ENDBRANCH  38  61
ENDBRANCH  12  13
ENDBRANCH   5   7
ENDBRANCH   2   3
ENDBRANCH   1   2
BRANCH   1  72
ATOM     72  C   UNL     1      11.332   6.303  -5.268  1.00  0.00     0.002 C 
BRANCH  72  73
ATOM     73  C   UNL     1      12.149   5.165  -5.886  1.00  0.00     0.002 C 
BRANCH  73  74
ATOM     74  C   UNL     1      11.783   3.740  -5.468  1.00  0.00     0.021 C 
BRANCH  74  75
ATOM     75  C   UNL     1      10.309   3.365  -5.558  1.00  0.00     0.116 C 
BRANCH  75  76
ATOM     76  N   UNL     1       9.786   3.361  -6.897  1.00  0.00    -0.354 N 
ATOM     77  C   UNL     1       9.312   2.332  -7.644  1.00  0.00     0.243 C 
ATOM     78  H   UNL     1       9.769   4.240  -7.340  1.00  0.00     0.163 HD
ATOM     79  O   UNL     1       8.938   2.622  -8.789  1.00  0.00    -0.273 OA
BRANCH  77  80
ATOM     80  C   UNL     1       9.399   0.846  -7.219  1.00  0.00     0.186 C 
ATOM     81  C   UNL     1      10.823   0.312  -7.300  1.00  0.00     0.107 C 
ATOM     82  N   UNL     1       8.732   0.291  -6.028  1.00  0.00    -0.311 N 
ATOM     83  S   UNL     1      11.264  -0.342  -5.673  1.00  0.00    -0.126 SA
ATOM     84  C   UNL     1       9.552  -0.343  -5.003  1.00  0.00     0.115 C 
ATOM     85  C   UNL     1       7.599  -0.479  -6.313  1.00  0.00     0.224 C 
ATOM     86  C   UNL     1       8.982  -1.769  -4.860  1.00  0.00     0.055 C 
ATOM     87  C   UNL     1       7.902  -1.897  -5.913  1.00  0.00     0.104 C 
ATOM     88  O   UNL     1       6.666  -0.151  -7.019  1.00  0.00    -0.275 OA
BRANCH  84  89
ATOM     89  C   UNL     1       9.519   0.311  -3.611  1.00  0.00    -0.012 A 
ATOM     90  C   UNL     1       8.754   1.450  -3.310  1.00  0.00     0.007 A 
ATOM     91  C   UNL     1      10.256  -0.271  -2.552  1.00  0.00     0.007 A 
ATOM     92  C   UNL     1       8.788   2.027  -2.033  1.00  0.00     0.000 A 
ATOM     93  C   UNL     1      10.258   0.282  -1.269  1.00  0.00     0.000 A 
ATOM     94  C   UNL     1       9.538   1.442  -1.015  1.00  0.00     0.000 A 
ENDBRANCH  84  89
ENDBRANCH  77  80
ENDBRANCH  75  76
ENDBRANCH  74  75
ENDBRANCH  73  74
ENDBRANCH  72  73
ENDBRANCH   1  72
TORSDOF 17
