REMARK SMILES CC(C)COC(=O)c1ccc(NC(=O)[C@H]2[C@@H](C(=O)NCCCCCCNC(=O)c3ccc(-c4c5nc(c(-c6cc(S(=O)(=O)[O-])ccc6F)c6ccc([nH]6)c(-c6cc(S(=O)(=O)[O-])ccc6F)c6nc(c(-c7cc(S(=O)(=O)[O-])ccc7F)c7ccc4[nH]7)C=C6)C=C5)cc3)[C@@H]3C=C[C@H]2C3)cc1
REMARK SMILES IDX 21 1 20 2 19 3 17 4 18 5 16 7 15 8 95 9 92 10 94 11 96 12
REMARK SMILES IDX 93 13 13 14 12 15 14 17 11 18 8 19 9 20 98 21 10 22 97 23
REMARK SMILES IDX 6 24 7 25 5 26 4 27 2 28 1 29 3 30 22 31 23 32 24 33 25 34
REMARK SMILES IDX 26 35 27 36 28 38 29 39 30 40 91 41 31 42 90 43 32 44 33 45
REMARK SMILES IDX 34 46 84 47 35 48 89 49 83 50 85 51 36 52 88 53 82 54 81 55
REMARK SMILES IDX 37 57 69 58 49 59 68 60 50 61 53 62 67 63 86 64 51 65 52 66
REMARK SMILES IDX 66 68 87 69 54 70 38 71 39 72 47 73 40 74 46 75 48 76 45 77
REMARK SMILES IDX 41 78 42 79 43 80 44 81 70 82 71 83 79 84 72 85 78 86 80 87
REMARK SMILES IDX 77 88 73 89 74 90 75 91 76 92 55 93 56 94 64 95 57 96 63 97
REMARK SMILES IDX 65 98 62 99 58 100 59 101 60 102 61 103
REMARK H PARENT 19 6 12 16 26 37 85 56 53 67
REMARK Flexibility Score: inf
ROOT
ATOM      1  C   UNL     1       2.631   8.537  -3.075  1.00  0.00     0.021 C 
ENDROOT
BRANCH   1   2
ATOM      2  C   UNL     1       1.694   8.075  -4.183  1.00  0.00     0.116 C 
BRANCH   2   3
ATOM      3  N   UNL     1       2.348   7.395  -5.279  1.00  0.00    -0.356 N 
ATOM      4  C   UNL     1       1.967   6.392  -6.103  1.00  0.00     0.224 C 
ATOM      5  O   UNL     1       2.669   6.262  -7.118  1.00  0.00    -0.275 OA
ATOM      6  H   UNL     1       3.255   7.730  -5.463  1.00  0.00     0.163 HD
BRANCH   4   7
ATOM      7  C   UNL     1       0.889   5.335  -5.848  1.00  0.00     0.098 C 
ATOM      8  C   UNL     1      -0.531   5.566  -5.248  1.00  0.00     0.099 C 
ATOM      9  C   UNL     1      -0.506   4.629  -3.994  1.00  0.00     0.025 C 
ATOM     10  C   UNL     1       1.465   4.200  -4.956  1.00  0.00     0.025 C 
ATOM     11  C   UNL     1      -0.573   3.210  -4.532  1.00  0.00    -0.027 C 
ATOM     12  C   UNL     1       0.966   4.606  -3.573  1.00  0.00     0.017 C 
ATOM     13  C   UNL     1       0.603   2.962  -5.131  1.00  0.00    -0.027 C 
BRANCH   8  14
ATOM     14  C   UNL     1      -1.038   6.967  -4.969  1.00  0.00     0.228 C 
ATOM     15  N   UNL     1      -1.021   7.941  -5.926  1.00  0.00    -0.326 N 
ATOM     16  H   UNL     1      -1.240   8.838  -5.585  1.00  0.00     0.169 HD
ATOM     17  O   UNL     1      -1.451   7.281  -3.849  1.00  0.00    -0.274 OA
BRANCH  15  18
ATOM     18  C   UNL     1      -0.750   7.905  -7.299  1.00  0.00     0.041 A 
ATOM     19  C   UNL     1      -0.116   7.968 -10.016  1.00  0.00     0.060 A 
ATOM     20  C   UNL     1      -0.743   6.846  -9.474  1.00  0.00     0.018 A 
ATOM     21  C   UNL     1       0.162   9.081  -9.224  1.00  0.00     0.018 A 
ATOM     22  C   UNL     1      -1.056   6.817  -8.116  1.00  0.00     0.027 A 
ATOM     23  C   UNL     1      -0.180   9.053  -7.869  1.00  0.00     0.027 A 
BRANCH  19  24
ATOM     24  C   UNL     1       0.186   7.967 -11.451  1.00  0.00     0.338 C 
ATOM     25  O   UNL     1      -0.675   8.013 -12.315  1.00  0.00    -0.246 OA
BRANCH  24  26
ATOM     26  O   UNL     1       1.516   7.771 -11.608  1.00  0.00    -0.462 OA
BRANCH  26  27
ATOM     27  C   UNL     1       1.947   7.542 -12.958  1.00  0.00     0.236 C 
BRANCH  27  28
ATOM     28  C   UNL     1       2.220   6.050 -13.212  1.00  0.00     0.021 C 
ATOM     29  C   UNL     1       1.055   5.147 -12.802  1.00  0.00     0.011 C 
ATOM     30  C   UNL     1       2.559   5.826 -14.686  1.00  0.00     0.011 C 
ENDBRANCH  27  28
ENDBRANCH  26  27
ENDBRANCH  24  26
ENDBRANCH  19  24
ENDBRANCH  15  18
ENDBRANCH   8  14
ENDBRANCH   4   7
ENDBRANCH   2   3
ENDBRANCH   1   2
BRANCH   1  31
ATOM     31  C   UNL     1       3.671   9.593  -3.450  1.00  0.00     0.002 C 
BRANCH  31  32
ATOM     32  C   UNL     1       3.172  10.843  -4.178  1.00  0.00     0.002 C 
BRANCH  32  33
ATOM     33  C   UNL     1       1.994  11.604  -3.562  1.00  0.00     0.021 C 
BRANCH  33  34
ATOM     34  C   UNL     1       2.085  11.956  -2.080  1.00  0.00     0.116 C 
BRANCH  34  35
ATOM     35  N   UNL     1       3.289  12.681  -1.732  1.00  0.00    -0.352 N 
ATOM     36  C   UNL     1       3.473  13.773  -0.920  1.00  0.00     0.251 C 
ATOM     37  H   UNL     1       4.112  12.335  -2.147  1.00  0.00     0.163 HD
ATOM     38  O   UNL     1       4.600  14.261  -0.848  1.00  0.00    -0.269 OA
BRANCH  36  39
ATOM     39  C   UNL     1       2.353  14.392  -0.164  1.00  0.00     0.039 A 
ATOM     40  C   UNL     1       2.351  15.785  -0.024  1.00  0.00     0.014 A 
ATOM     41  C   UNL     1       1.351  13.642   0.460  1.00  0.00     0.014 A 
ATOM     42  C   UNL     1       1.339  16.422   0.700  1.00  0.00     0.010 A 
ATOM     43  C   UNL     1       0.305  14.283   1.131  1.00  0.00     0.010 A 
ATOM     44  C   UNL     1       0.296  15.679   1.272  1.00  0.00    -0.014 A 
BRANCH  44  45
ATOM     45  C   UNL     1      -0.779  16.357   2.047  1.00  0.00     0.031 A 
ATOM     46  C   UNL     1      -0.895  16.141   3.533  1.00  0.00     0.074 A 
ATOM     47  C   UNL     1      -1.663  17.153   1.413  1.00  0.00     0.049 A 
ATOM     48  N   UNL     1      -1.762  16.637   4.379  1.00  0.00    -0.248 NA
ATOM     49  C   UNL     1       0.078  15.222   4.141  1.00  0.00     0.031 C 
ATOM     50  C   UNL     1      -1.685  17.410  -0.028  1.00  0.00     0.029 A 
ATOM     51  N   UNL     1      -2.712  17.892   1.898  1.00  0.00    -0.354 N 
ATOM     52  C   UNL     1      -1.448  16.083   5.617  1.00  0.00     0.074 A 
ATOM     53  C   UNL     1      -0.346  15.170   5.394  1.00  0.00     0.031 C 
ATOM     54  C   UNL     1      -2.684  18.264  -0.306  1.00  0.00     0.029 A 
ATOM     55  C   UNL     1      -3.387  18.597   0.929  1.00  0.00     0.049 A 
ATOM     56  H   UNL     1      -2.959  17.916   2.851  1.00  0.00     0.167 HD
ATOM     57  C   UNL     1      -2.009  16.328   6.829  1.00  0.00     0.034 A 
ATOM     58  C   UNL     1      -4.448  19.422   1.024  1.00  0.00     0.034 A 
ATOM     59  C   UNL     1      -3.099  17.251   7.040  1.00  0.00     0.049 A 
ATOM     60  C   UNL     1      -5.037  19.704   2.382  1.00  0.00     0.074 A 
ATOM     61  C   UNL     1      -3.721  17.599   8.227  1.00  0.00     0.029 A 
ATOM     62  N   UNL     1      -3.732  17.975   6.037  1.00  0.00    -0.354 N 
ATOM     63  N   UNL     1      -4.698  19.206   3.549  1.00  0.00    -0.248 NA
ATOM     64  C   UNL     1      -6.134  20.678   2.437  1.00  0.00     0.031 C 
ATOM     65  C   UNL     1      -4.758  18.495   7.937  1.00  0.00     0.029 A 
ATOM     66  C   UNL     1      -4.744  18.756   6.576  1.00  0.00     0.049 A 
ATOM     67  H   UNL     1      -3.496  17.939   5.082  1.00  0.00     0.167 HD
ATOM     68  C   UNL     1      -5.522  19.833   4.480  1.00  0.00     0.074 A 
ATOM     69  C   UNL     1      -6.360  20.753   3.740  1.00  0.00     0.031 C 
ATOM     70  C   UNL     1      -5.578  19.665   5.827  1.00  0.00     0.034 A 
BRANCH  57  71
ATOM     71  C   UNL     1      -1.463  15.558   8.009  1.00  0.00     0.023 A 
ATOM     72  C   UNL     1      -0.131  15.711   8.436  1.00  0.00     0.031 A 
ATOM     73  C   UNL     1      -2.268  14.628   8.689  1.00  0.00     0.131 A 
ATOM     74  C   UNL     1       0.378  14.888   9.452  1.00  0.00     0.055 A 
ATOM     75  C   UNL     1      -1.777  13.870   9.755  1.00  0.00     0.041 A 
ATOM     76  F   UNL     1      -3.541  14.423   8.316  1.00  0.00    -0.206 F 
ATOM     77  C   UNL     1      -0.442  13.985  10.131  1.00  0.00     0.022 A 
BRANCH  74  78
ATOM     78  S   UNL     1       2.164  14.909   9.768  1.00  0.00     0.124 S 
ATOM     79  O   UNL     1       2.697  14.505   8.469  1.00  0.00    -0.237 OA
ATOM     80  O   UNL     1       2.401  16.294  10.154  1.00  0.00    -0.237 OA
ATOM     81  O   UNL     1       2.334  13.925  10.836  1.00  0.00    -0.744 OA
ENDBRANCH  74  78
ENDBRANCH  57  71
BRANCH  58  82
ATOM     82  C   UNL     1      -5.020  20.057  -0.196  1.00  0.00     0.023 A 
ATOM     83  C   UNL     1      -4.929  21.442  -0.402  1.00  0.00     0.031 A 
ATOM     84  C   UNL     1      -5.698  19.288  -1.158  1.00  0.00     0.131 A 
ATOM     85  C   UNL     1      -5.547  22.025  -1.519  1.00  0.00     0.055 A 
ATOM     86  C   UNL     1      -6.273  19.866  -2.291  1.00  0.00     0.041 A 
ATOM     87  F   UNL     1      -5.802  17.957  -1.012  1.00  0.00    -0.206 F 
ATOM     88  C   UNL     1      -6.210  21.245  -2.470  1.00  0.00     0.022 A 
BRANCH  85  89
ATOM     89  S   UNL     1      -5.530  23.832  -1.677  1.00  0.00     0.124 S 
ATOM     90  O   UNL     1      -6.184  24.245  -0.441  1.00  0.00    -0.237 OA
ATOM     91  O   UNL     1      -4.102  24.113  -1.773  1.00  0.00    -0.237 OA
ATOM     92  O   UNL     1      -6.294  24.073  -2.899  1.00  0.00    -0.744 OA
ENDBRANCH  85  89
ENDBRANCH  58  82
BRANCH  70  93
ATOM     93  C   UNL     1      -6.549  20.540   6.581  1.00  0.00     0.023 A 
ATOM     94  C   UNL     1      -7.940  20.402   6.431  1.00  0.00     0.031 A 
ATOM     95  C   UNL     1      -6.071  21.549   7.434  1.00  0.00     0.131 A 
ATOM     96  C   UNL     1      -8.804  21.302   7.073  1.00  0.00     0.055 A 
ATOM     97  C   UNL     1      -6.937  22.406   8.115  1.00  0.00     0.041 A 
ATOM     98  F   UNL     1      -4.752  21.725   7.614  1.00  0.00    -0.206 F 
ATOM     99  C   UNL     1      -8.311  22.296   7.923  1.00  0.00     0.022 A 
BRANCH  96 100
ATOM    100  S   UNL     1     -10.577  21.227   6.697  1.00  0.00     0.124 S 
ATOM    101  O   UNL     1     -10.587  21.349   5.243  1.00  0.00    -0.237 OA
ATOM    102  O   UNL     1     -10.951  19.920   7.229  1.00  0.00    -0.237 OA
ATOM    103  O   UNL     1     -11.130  22.371   7.419  1.00  0.00    -0.744 OA
ENDBRANCH  96 100
ENDBRANCH  70  93
ENDBRANCH  44  45
ENDBRANCH  36  39
ENDBRANCH  34  35
ENDBRANCH  33  34
ENDBRANCH  32  33
ENDBRANCH  31  32
ENDBRANCH   1  31
TORSDOF 22
