REMARK SMILES C[C@@H]1CN(C(=O)Nc2ccc(O)c(C(=O)NCCCCCCNC(=O)c3ccc(-c4c5nc(c(-c6cc(S(=O)(=O)[O-])ccc6F)c6ccc([nH]6)c(-c6cc(S(=O)(=O)[O-])ccc6F)c6nc(c(-c7cc(S(=O)(=O)[O-])ccc7F)c7ccc4[nH]7)C=C6)C=C5)cc3)c2)C[C@H]1C
REMARK SMILES IDX 20 1 19 2 18 3 17 4 16 5 14 6 15 7 13 9 8 10 9 11 89 12
REMARK SMILES IDX 10 13 11 14 7 15 1 16 2 17 3 18 91 19 4 20 90 21 92 22 5 23
REMARK SMILES IDX 6 24 12 26 21 28 22 29 23 30 24 31 25 33 26 34 27 35 88 36
REMARK SMILES IDX 28 37 87 38 29 39 30 40 31 41 81 42 32 43 86 44 80 45 82 46
REMARK SMILES IDX 33 47 85 48 79 49 78 50 34 52 66 53 46 54 65 55 47 56 50 57
REMARK SMILES IDX 64 58 83 59 48 60 49 61 63 63 84 64 51 65 35 66 36 67 44 68
REMARK SMILES IDX 37 69 43 70 45 71 42 72 38 73 39 74 40 75 41 76 67 77 68 78
REMARK SMILES IDX 76 79 69 80 75 81 77 82 74 83 70 84 71 85 72 86 73 87 52 88
REMARK SMILES IDX 53 89 61 90 54 91 60 92 62 93 59 94 55 95 56 96 57 97 58 98
REMARK H PARENT 16 8 7 25 12 27 23 32 82 51 50 62
REMARK Flexibility Score: inf
ROOT
ATOM      1  C   UNL     1       5.552   6.711   4.555  1.00  0.00     0.002 C 
ENDROOT
BRANCH   1   2
ATOM      2  C   UNL     1       5.123   7.432   3.274  1.00  0.00     0.002 C 
BRANCH   2   3
ATOM      3  C   UNL     1       4.737   6.512   2.112  1.00  0.00     0.021 C 
BRANCH   3   4
ATOM      4  C   UNL     1       3.456   5.705   2.345  1.00  0.00     0.116 C 
BRANCH   4   5
ATOM      5  N   UNL     1       2.295   6.516   2.044  1.00  0.00    -0.352 N 
ATOM      6  C   UNL     1       1.512   6.621   0.926  1.00  0.00     0.255 C 
ATOM      7  O   UNL     1       0.602   7.456   0.965  1.00  0.00    -0.269 OA
ATOM      8  H   UNL     1       2.015   7.103   2.784  1.00  0.00     0.163 HD
BRANCH   6   9
ATOM      9  C   UNL     1       1.604   5.745  -0.278  1.00  0.00     0.083 A 
ATOM     10  C   UNL     1       0.255   4.583  -1.951  1.00  0.00     0.043 A 
ATOM     11  C   UNL     1       1.408   4.171  -2.610  1.00  0.00     0.030 A 
ATOM     12  C   UNL     1       0.353   5.424  -0.844  1.00  0.00     0.044 A 
ATOM     13  C   UNL     1       2.655   4.489  -2.081  1.00  0.00     0.049 A 
ATOM     14  C   UNL     1       2.752   5.252  -0.910  1.00  0.00     0.128 A 
BRANCH  10  15
ATOM     15  N   UNL     1      -1.016   4.182  -2.364  1.00  0.00    -0.308 N 
ATOM     16  C   UNL     1       0.739  -0.281   0.127  1.00  0.00     0.010 C 
ATOM     17  C   UNL     1       0.278   0.091  -1.273  1.00  0.00     0.010 C 
ATOM     18  C   UNL     1       0.170   1.603  -1.453  1.00  0.00     0.125 C 
ATOM     19  C   UNL     1      -1.128  -0.388  -1.642  1.00  0.00     0.010 C 
ATOM     20  N   UNL     1      -0.866   1.814  -2.460  1.00  0.00    -0.324 N 
ATOM     21  C   UNL     1      -1.491   0.545  -2.802  1.00  0.00     0.125 C 
ATOM     22  C   UNL     1      -1.183  -1.856  -2.028  1.00  0.00     0.010 C 
ATOM     23  C   UNL     1      -1.462   2.990  -2.851  1.00  0.00     0.321 C 
ATOM     24  O   UNL     1      -2.496   3.001  -3.525  1.00  0.00    -0.248 OA
ATOM     25  H   UNL     1      -1.709   4.878  -2.290  1.00  0.00     0.171 HD
ENDBRANCH  10  15
BRANCH  14  26
ATOM     26  O   UNL     1       4.010   5.513  -0.458  1.00  0.00    -0.507 OA
ATOM     27  H   UNL     1       4.752   5.164  -0.911  1.00  0.00     0.293 HD
ENDBRANCH  14  26
ENDBRANCH   6   9
ENDBRANCH   4   5
ENDBRANCH   3   4
ENDBRANCH   2   3
ENDBRANCH   1   2
BRANCH   1  28
ATOM     28  C   UNL     1       6.685   5.693   4.383  1.00  0.00     0.021 C 
BRANCH  28  29
ATOM     29  C   UNL     1       7.982   6.267   3.816  1.00  0.00     0.116 C 
BRANCH  29  30
ATOM     30  N   UNL     1       8.573   7.248   4.712  1.00  0.00    -0.352 N 
ATOM     31  C   UNL     1       9.790   7.228   5.348  1.00  0.00     0.251 C 
ATOM     32  H   UNL     1       8.019   8.042   4.888  1.00  0.00     0.163 HD
ATOM     33  O   UNL     1      10.010   8.016   6.262  1.00  0.00    -0.269 OA
BRANCH  31  34
ATOM     34  C   UNL     1      10.825   6.252   4.939  1.00  0.00     0.039 A 
ATOM     35  C   UNL     1      11.543   5.572   5.927  1.00  0.00     0.014 A 
ATOM     36  C   UNL     1      11.105   6.026   3.588  1.00  0.00     0.014 A 
ATOM     37  C   UNL     1      12.497   4.620   5.559  1.00  0.00     0.010 A 
ATOM     38  C   UNL     1      12.012   5.032   3.224  1.00  0.00     0.010 A 
ATOM     39  C   UNL     1      12.715   4.317   4.205  1.00  0.00    -0.014 A 
BRANCH  39  40
ATOM     40  C   UNL     1      13.661   3.243   3.800  1.00  0.00     0.031 A 
ATOM     41  C   UNL     1      14.897   3.579   3.010  1.00  0.00     0.074 A 
ATOM     42  C   UNL     1      13.362   1.959   4.080  1.00  0.00     0.049 A 
ATOM     43  N   UNL     1      15.794   2.776   2.498  1.00  0.00    -0.248 NA
ATOM     44  C   UNL     1      15.141   5.003   2.738  1.00  0.00     0.031 C 
ATOM     45  C   UNL     1      12.167   1.508   4.798  1.00  0.00     0.029 A 
ATOM     46  N   UNL     1      14.026   0.794   3.783  1.00  0.00    -0.354 N 
ATOM     47  C   UNL     1      16.698   3.593   1.827  1.00  0.00     0.074 A 
ATOM     48  C   UNL     1      16.213   4.951   1.961  1.00  0.00     0.031 C 
ATOM     49  C   UNL     1      12.189   0.169   4.893  1.00  0.00     0.029 A 
ATOM     50  C   UNL     1      13.372  -0.340   4.208  1.00  0.00     0.049 A 
ATOM     51  H   UNL     1      14.890   0.773   3.311  1.00  0.00     0.167 HD
ATOM     52  C   UNL     1      17.834   3.243   1.175  1.00  0.00     0.034 A 
ATOM     53  C   UNL     1      13.678  -1.643   4.046  1.00  0.00     0.034 A 
ATOM     54  C   UNL     1      18.314   1.885   1.071  1.00  0.00     0.049 A 
ATOM     55  C   UNL     1      14.945  -2.005   3.314  1.00  0.00     0.074 A 
ATOM     56  C   UNL     1      19.495   1.430   0.511  1.00  0.00     0.029 A 
ATOM     57  N   UNL     1      17.633   0.763   1.526  1.00  0.00    -0.354 N 
ATOM     58  N   UNL     1      15.829  -1.213   2.750  1.00  0.00    -0.248 NA
ATOM     59  C   UNL     1      15.263  -3.435   3.205  1.00  0.00     0.031 C 
ATOM     60  C   UNL     1      19.494   0.032   0.561  1.00  0.00     0.029 A 
ATOM     61  C   UNL     1      18.350  -0.385   1.221  1.00  0.00     0.049 A 
ATOM     62  H   UNL     1      16.768   0.780   1.995  1.00  0.00     0.167 HD
ATOM     63  C   UNL     1      16.818  -2.050   2.242  1.00  0.00     0.074 A 
ATOM     64  C   UNL     1      16.433  -3.403   2.585  1.00  0.00     0.031 C 
ATOM     65  C   UNL     1      17.944  -1.730   1.554  1.00  0.00     0.034 A 
BRANCH  52  66
ATOM     66  C   UNL     1      18.622   4.338   0.497  1.00  0.00     0.023 A 
ATOM     67  C   UNL     1      19.232   5.375   1.226  1.00  0.00     0.031 A 
ATOM     68  C   UNL     1      18.767   4.345  -0.902  1.00  0.00     0.131 A 
ATOM     69  C   UNL     1      19.902   6.406   0.550  1.00  0.00     0.055 A 
ATOM     70  C   UNL     1      19.499   5.333  -1.563  1.00  0.00     0.041 A 
ATOM     71  F   UNL     1      18.192   3.392  -1.652  1.00  0.00    -0.206 F 
ATOM     72  C   UNL     1      20.062   6.379  -0.837  1.00  0.00     0.022 A 
BRANCH  69  73
ATOM     73  S   UNL     1      20.459   7.848   1.499  1.00  0.00     0.124 S 
ATOM     74  O   UNL     1      19.200   8.339   2.055  1.00  0.00    -0.237 OA
ATOM     75  O   UNL     1      21.391   7.256   2.453  1.00  0.00    -0.237 OA
ATOM     76  O   UNL     1      21.065   8.711   0.488  1.00  0.00    -0.744 OA
ENDBRANCH  69  73
ENDBRANCH  52  66
BRANCH  53  77
ATOM     77  C   UNL     1      12.764  -2.704   4.558  1.00  0.00     0.023 A 
ATOM     78  C   UNL     1      13.174  -3.594   5.563  1.00  0.00     0.031 A 
ATOM     79  C   UNL     1      11.479  -2.875   4.011  1.00  0.00     0.131 A 
ATOM     80  C   UNL     1      12.330  -4.646   5.954  1.00  0.00     0.055 A 
ATOM     81  C   UNL     1      10.621  -3.888   4.443  1.00  0.00     0.041 A 
ATOM     82  F   UNL     1      11.033  -2.049   3.051  1.00  0.00    -0.206 F 
ATOM     83  C   UNL     1      11.052  -4.791   5.410  1.00  0.00     0.022 A 
BRANCH  80  84
ATOM     84  S   UNL     1      12.967  -5.883   7.117  1.00  0.00     0.124 S 
ATOM     85  O   UNL     1      14.165  -6.349   6.429  1.00  0.00    -0.237 OA
ATOM     86  O   UNL     1      13.186  -5.083   8.318  1.00  0.00    -0.237 OA
ATOM     87  O   UNL     1      11.880  -6.855   7.208  1.00  0.00    -0.744 OA
ENDBRANCH  80  84
ENDBRANCH  53  77
BRANCH  65  88
ATOM     88  C   UNL     1      18.849  -2.870   1.158  1.00  0.00     0.023 A 
ATOM     89  C   UNL     1      18.450  -3.834   0.215  1.00  0.00     0.031 A 
ATOM     90  C   UNL     1      20.121  -3.002   1.742  1.00  0.00     0.131 A 
ATOM     91  C   UNL     1      19.292  -4.918  -0.073  1.00  0.00     0.055 A 
ATOM     92  C   UNL     1      20.979  -4.049   1.405  1.00  0.00     0.041 A 
ATOM     93  F   UNL     1      20.552  -2.111   2.650  1.00  0.00    -0.206 F 
ATOM     94  C   UNL     1      20.561  -5.023   0.502  1.00  0.00     0.022 A 
BRANCH  91  95
ATOM     95  S   UNL     1      18.669  -6.242  -1.145  1.00  0.00     0.124 S 
ATOM     96  O   UNL     1      17.491  -6.696  -0.413  1.00  0.00    -0.237 OA
ATOM     97  O   UNL     1      18.409  -5.536  -2.396  1.00  0.00    -0.237 OA
ATOM     98  O   UNL     1      19.776  -7.196  -1.191  1.00  0.00    -0.744 OA
ENDBRANCH  91  95
ENDBRANCH  65  88
ENDBRANCH  39  40
ENDBRANCH  31  34
ENDBRANCH  29  30
ENDBRANCH  28  29
ENDBRANCH   1  28
TORSDOF 18
