REMARK SMILES CC1=C[C@@H](C)[C@H]2C(=O)N([C@H](Cc3ccccc3)C(=O)NCCCCCCNC(=O)c3ccc(-c4c5nc(c(-c6cc(S(=O)(=O)[O-])ccc6F)c6ccc([nH]6)c(-c6cc(S(=O)(=O)[O-])ccc6F)c6nc(c(-c7cc(S(=O)(=O)[O-])ccc7F)c7ccc4[nH]7)C=C6)C=C5)cc3)C(=O)[C@H]2C1
REMARK SMILES IDX 24 1 23 2 22 3 21 4 20 5 18 6 19 7 10 9 9 10 1 11 2 12 3 13
REMARK SMILES IDX 96 14 4 15 95 16 6 17 5 18 93 19 7 20 94 21 8 22 11 23 12 24
REMARK SMILES IDX 13 25 17 26 14 27 16 28 15 29 25 30 26 31 27 32 28 33 29 35
REMARK SMILES IDX 30 36 31 37 92 38 32 39 91 40 33 41 34 42 35 43 85 44 36 45
REMARK SMILES IDX 90 46 84 47 86 48 37 49 89 50 83 51 82 52 38 54 70 55 50 56
REMARK SMILES IDX 69 57 51 58 54 59 68 60 87 61 52 62 53 63 67 65 88 66 55 67
REMARK SMILES IDX 39 68 40 69 48 70 41 71 47 72 49 73 46 74 42 75 43 76 44 77
REMARK SMILES IDX 45 78 71 79 72 80 80 81 73 82 79 83 81 84 78 85 74 86 75 87
REMARK SMILES IDX 76 88 77 89 56 90 57 91 65 92 58 93 64 94 66 95 63 96 59 97
REMARK SMILES IDX 60 98 61 99 62 100
REMARK H PARENT 20 8 27 34 86 53 54 64
REMARK Flexibility Score: inf
ROOT
ATOM      1  C   UNL     1       0.234  -9.339   1.856  1.00  0.00     0.002 C 
ENDROOT
BRANCH   1   2
ATOM      2  C   UNL     1       0.605  -8.049   1.114  1.00  0.00     0.002 C 
BRANCH   2   3
ATOM      3  C   UNL     1       0.143  -6.745   1.771  1.00  0.00     0.021 C 
BRANCH   3   4
ATOM      4  C   UNL     1       0.578  -6.593   3.222  1.00  0.00     0.116 C 
BRANCH   4   5
ATOM      5  N   UNL     1       2.002  -6.366   3.392  1.00  0.00    -0.354 N 
ATOM      6  C   UNL     1       2.671  -5.624   4.327  1.00  0.00     0.243 C 
ATOM      7  O   UNL     1       3.867  -5.892   4.498  1.00  0.00    -0.273 OA
ATOM      8  H   UNL     1       2.576  -6.816   2.731  1.00  0.00     0.163 HD
BRANCH   6   9
ATOM      9  C   UNL     1       1.993  -4.535   5.191  1.00  0.00     0.186 C 
BRANCH   9  10
ATOM     10  N   UNL     1       1.344  -5.038   6.422  1.00  0.00    -0.269 N 
ATOM     11  C   UNL     1      -2.360  -3.721  10.763  1.00  0.00     0.039 C 
ATOM     12  C   UNL     1      -1.631  -4.403   9.640  1.00  0.00    -0.076 C 
ATOM     13  C   UNL     1      -2.298  -4.947   8.610  1.00  0.00    -0.024 C 
ATOM     14  C   UNL     1      -0.128  -4.436   9.758  1.00  0.00     0.044 C 
ATOM     15  C   UNL     1      -1.643  -5.623   7.441  1.00  0.00     0.022 C 
ATOM     16  C   UNL     1       0.615  -5.142   8.633  1.00  0.00     0.096 C 
ATOM     17  C   UNL     1      -0.215  -6.099   7.794  1.00  0.00     0.098 C 
ATOM     18  C   UNL     1      -1.785  -4.683   6.237  1.00  0.00     0.013 C 
ATOM     19  C   UNL     1       1.252  -4.278   7.567  1.00  0.00     0.234 C 
ATOM     20  C   UNL     1       0.664  -6.210   6.585  1.00  0.00     0.234 C 
ATOM     21  O   UNL     1       1.659  -3.139   7.721  1.00  0.00    -0.274 OA
ATOM     22  O   UNL     1       0.729  -7.231   5.917  1.00  0.00    -0.274 OA
ENDBRANCH   9  10
BRANCH   9  23
ATOM     23  C   UNL     1       1.149  -3.482   4.438  1.00  0.00     0.071 C 
BRANCH  23  24
ATOM     24  C   UNL     1       1.876  -2.685   3.374  1.00  0.00    -0.045 A 
ATOM     25  C   UNL     1       2.338  -1.390   3.645  1.00  0.00     0.004 A 
ATOM     26  C   UNL     1       2.054  -3.197   2.082  1.00  0.00     0.004 A 
ATOM     27  C   UNL     1       2.943  -0.626   2.643  1.00  0.00     0.000 A 
ATOM     28  C   UNL     1       2.664  -2.438   1.083  1.00  0.00     0.000 A 
ATOM     29  C   UNL     1       3.104  -1.148   1.361  1.00  0.00     0.000 A 
ENDBRANCH  23  24
ENDBRANCH   9  23
ENDBRANCH   6   9
ENDBRANCH   4   5
ENDBRANCH   3   4
ENDBRANCH   2   3
ENDBRANCH   1   2
BRANCH   1  30
ATOM     30  C   UNL     1      -1.244  -9.495   2.231  1.00  0.00     0.021 C 
BRANCH  30  31
ATOM     31  C   UNL     1      -2.229  -9.351   1.076  1.00  0.00     0.116 C 
BRANCH  31  32
ATOM     32  N   UNL     1      -1.978 -10.305   0.012  1.00  0.00    -0.352 N 
ATOM     33  C   UNL     1      -2.867 -11.100  -0.668  1.00  0.00     0.251 C 
ATOM     34  H   UNL     1      -1.037 -10.396  -0.261  1.00  0.00     0.163 HD
ATOM     35  O   UNL     1      -2.447 -11.965  -1.431  1.00  0.00    -0.269 OA
BRANCH  33  36
ATOM     36  C   UNL     1      -4.321 -10.931  -0.457  1.00  0.00     0.039 A 
ATOM     37  C   UNL     1      -5.108 -12.070  -0.269  1.00  0.00     0.014 A 
ATOM     38  C   UNL     1      -4.909  -9.662  -0.455  1.00  0.00     0.014 A 
ATOM     39  C   UNL     1      -6.477 -11.935  -0.028  1.00  0.00     0.010 A 
ATOM     40  C   UNL     1      -6.264  -9.526  -0.157  1.00  0.00     0.010 A 
ATOM     41  C   UNL     1      -7.061 -10.661   0.057  1.00  0.00    -0.014 A 
BRANCH  41  42
ATOM     42  C   UNL     1      -8.508 -10.499   0.353  1.00  0.00     0.031 A 
ATOM     43  C   UNL     1      -9.428  -9.922  -0.689  1.00  0.00     0.074 A 
ATOM     44  C   UNL     1      -8.981 -10.823   1.573  1.00  0.00     0.049 A 
ATOM     45  N   UNL     1     -10.697  -9.621  -0.598  1.00  0.00    -0.248 NA
ATOM     46  C   UNL     1      -8.830  -9.618  -1.998  1.00  0.00     0.031 C 
ATOM     47  C   UNL     1      -8.178 -11.362   2.674  1.00  0.00     0.029 A 
ATOM     48  N   UNL     1     -10.246 -10.737   2.098  1.00  0.00    -0.354 N 
ATOM     49  C   UNL     1     -11.051  -9.087  -1.832  1.00  0.00     0.074 A 
ATOM     50  C   UNL     1      -9.845  -9.052  -2.633  1.00  0.00     0.031 C 
ATOM     51  C   UNL     1      -8.973 -11.569   3.737  1.00  0.00     0.029 A 
ATOM     52  C   UNL     1     -10.329 -11.141   3.411  1.00  0.00     0.049 A 
ATOM     53  H   UNL     1     -11.021 -10.416   1.583  1.00  0.00     0.167 HD
ATOM     54  C   UNL     1     -12.271  -8.684  -2.264  1.00  0.00     0.034 A 
ATOM     55  C   UNL     1     -11.377 -11.151   4.259  1.00  0.00     0.034 A 
ATOM     56  C   UNL     1     -13.466  -8.736  -1.458  1.00  0.00     0.049 A 
ATOM     57  C   UNL     1     -12.722 -10.682   3.759  1.00  0.00     0.074 A 
ATOM     58  C   UNL     1     -14.759  -8.384  -1.806  1.00  0.00     0.029 A 
ATOM     59  N   UNL     1     -13.516  -9.170  -0.139  1.00  0.00    -0.354 N 
ATOM     60  N   UNL     1     -13.044 -10.211   2.576  1.00  0.00    -0.248 NA
ATOM     61  C   UNL     1     -13.845 -10.761   4.702  1.00  0.00     0.031 C 
ATOM     62  C   UNL     1     -15.578  -8.553  -0.684  1.00  0.00     0.029 A 
ATOM     63  C   UNL     1     -14.812  -9.075   0.345  1.00  0.00     0.049 A 
ATOM     64  H   UNL     1     -12.744  -9.497   0.377  1.00  0.00     0.167 HD
ATOM     65  C   UNL     1     -14.414  -9.969   2.626  1.00  0.00     0.074 A 
ATOM     66  C   UNL     1     -14.857 -10.361   3.948  1.00  0.00     0.031 C 
ATOM     67  C   UNL     1     -15.234  -9.469   1.667  1.00  0.00     0.034 A 
BRANCH  54  68
ATOM     68  C   UNL     1     -12.365  -8.136  -3.667  1.00  0.00     0.023 A 
ATOM     69  C   UNL     1     -12.103  -8.940  -4.790  1.00  0.00     0.031 A 
ATOM     70  C   UNL     1     -12.707  -6.790  -3.887  1.00  0.00     0.131 A 
ATOM     71  C   UNL     1     -12.121  -8.377  -6.075  1.00  0.00     0.055 A 
ATOM     72  C   UNL     1     -12.798  -6.254  -5.173  1.00  0.00     0.041 A 
ATOM     73  F   UNL     1     -12.948  -5.968  -2.853  1.00  0.00    -0.206 F 
ATOM     74  C   UNL     1     -12.492  -7.046  -6.276  1.00  0.00     0.022 A 
BRANCH  71  75
ATOM     75  S   UNL     1     -11.535  -9.379  -7.468  1.00  0.00     0.124 S 
ATOM     76  O   UNL     1     -10.149  -9.633  -7.084  1.00  0.00    -0.237 OA
ATOM     77  O   UNL     1     -12.430 -10.530  -7.430  1.00  0.00    -0.237 OA
ATOM     78  O   UNL     1     -11.704  -8.495  -8.620  1.00  0.00    -0.744 OA
ENDBRANCH  71  75
ENDBRANCH  54  68
BRANCH  55  79
ATOM     79  C   UNL     1     -11.208 -11.599   5.671  1.00  0.00     0.023 A 
ATOM     80  C   UNL     1     -11.877 -12.733   6.156  1.00  0.00     0.031 A 
ATOM     81  C   UNL     1     -10.420 -10.862   6.574  1.00  0.00     0.131 A 
ATOM     82  C   UNL     1     -11.795 -13.066   7.517  1.00  0.00     0.055 A 
ATOM     83  C   UNL     1     -10.296 -11.230   7.915  1.00  0.00     0.041 A 
ATOM     84  F   UNL     1      -9.754  -9.772   6.162  1.00  0.00    -0.206 F 
ATOM     85  C   UNL     1     -11.000 -12.329   8.397  1.00  0.00     0.022 A 
BRANCH  82  86
ATOM     86  S   UNL     1     -12.832 -14.416   8.144  1.00  0.00     0.124 S 
ATOM     87  O   UNL     1     -14.162 -13.989   7.727  1.00  0.00    -0.237 OA
ATOM     88  O   UNL     1     -12.279 -15.570   7.442  1.00  0.00    -0.237 OA
ATOM     89  O   UNL     1     -12.590 -14.390   9.584  1.00  0.00    -0.744 OA
ENDBRANCH  82  86
ENDBRANCH  55  79
BRANCH  67  90
ATOM     90  C   UNL     1     -16.700  -9.371   2.006  1.00  0.00     0.023 A 
ATOM     91  C   UNL     1     -17.177  -8.466   2.970  1.00  0.00     0.031 A 
ATOM     92  C   UNL     1     -17.630 -10.207   1.363  1.00  0.00     0.131 A 
ATOM     93  C   UNL     1     -18.540  -8.456   3.303  1.00  0.00     0.055 A 
ATOM     94  C   UNL     1     -18.992 -10.154   1.659  1.00  0.00     0.041 A 
ATOM     95  F   UNL     1     -17.227 -11.090   0.435  1.00  0.00    -0.206 F 
ATOM     96  C   UNL     1     -19.452  -9.284   2.644  1.00  0.00     0.022 A 
BRANCH  93  97
ATOM     97  S   UNL     1     -19.093  -7.404   4.673  1.00  0.00     0.124 S 
ATOM     98  O   UNL     1     -18.300  -7.914   5.787  1.00  0.00    -0.237 OA
ATOM     99  O   UNL     1     -18.744  -6.068   4.202  1.00  0.00    -0.237 OA
ATOM    100  O   UNL     1     -20.527  -7.675   4.757  1.00  0.00    -0.744 OA
ENDBRANCH  93  97
ENDBRANCH  67  90
ENDBRANCH  41  42
ENDBRANCH  33  36
ENDBRANCH  31  32
ENDBRANCH  30  31
ENDBRANCH   1  30
TORSDOF 19
