REMARK SMILES O=C1C[C@@H](C(=O)NCCCCCCNC(=O)c2ccc(-c3c4nc(c(-c5cc(S(=O)(=O)[O-])ccc5F)c5ccc([nH]5)c(-c5cc(S(=O)(=O)[O-])ccc5F)c5nc(c(-c6cc(S(=O)(=O)[O-])ccc6F)c6ccc3[nH]6)C=C5)C=C4)cc2)C2(CC[NH+](Cc3c[nH]nc3-c3ccc(Cl)cc3)CC2)N1
REMARK SMILES IDX 10 1 9 2 8 3 7 4 5 5 6 6 4 8 1 9 2 10 3 11 99 12 80 13 81 15
REMARK SMILES IDX 98 16 82 17 97 18 83 19 84 21 85 22 86 23 89 24 87 25 88 26
REMARK SMILES IDX 90 28 91 29 96 30 92 31 95 32 93 33 94 34 11 35 12 36 13 37
REMARK SMILES IDX 14 38 15 39 16 41 17 42 18 43 79 44 19 45 78 46 20 47 21 48
REMARK SMILES IDX 22 49 72 50 23 51 77 52 71 53 73 54 24 55 76 56 70 57 69 58
REMARK SMILES IDX 25 60 57 61 37 62 56 63 38 64 41 65 55 66 74 67 39 68 40 69
REMARK SMILES IDX 54 71 75 72 42 73 26 74 27 75 35 76 28 77 34 78 36 79 33 80
REMARK SMILES IDX 29 81 30 82 31 83 32 84 58 85 59 86 67 87 60 88 66 89 68 90
REMARK SMILES IDX 65 91 61 92 62 93 63 94 64 95 43 96 44 97 52 98 45 99 51 100
REMARK SMILES IDX 53 101 50 102 46 103 47 104 48 105 49 106
REMARK H PARENT 7 7 99 14 83 20 87 27 14 40 73 59 41 70
REMARK Flexibility Score: inf
ROOT
ATOM      1  C   UNL     1       1.254   4.558  -1.967  1.00  0.00     0.002 C 
ENDROOT
BRANCH   1   2
ATOM      2  C   UNL     1       1.742   3.526  -0.952  1.00  0.00     0.021 C 
BRANCH   2   3
ATOM      3  C   UNL     1       1.712   2.082  -1.460  1.00  0.00     0.116 C 
BRANCH   3   4
ATOM      4  N   UNL     1       2.716   1.806  -2.474  1.00  0.00    -0.356 N 
ATOM      5  C   UNL     1       3.799   0.986  -2.511  1.00  0.00     0.226 C 
ATOM      6  O   UNL     1       4.479   1.022  -3.544  1.00  0.00    -0.275 OA
ATOM      7  H   UNL     1       2.585   2.318  -3.305  1.00  0.00     0.163 HD
BRANCH   5   8
ATOM      8  C   UNL     1       4.239   0.056  -1.375  1.00  0.00     0.114 C 
ATOM      9  O   UNL     1       1.680  -1.064   0.856  1.00  0.00    -0.275 OA
ATOM     10  C   UNL     1       2.644  -0.592   0.287  1.00  0.00     0.221 C 
ATOM     11  C   UNL     1       3.182  -1.009  -1.054  1.00  0.00     0.116 C 
ATOM     12  N   UNL     1       3.419   0.442   0.764  1.00  0.00    -0.349 N 
ATOM     13  C   UNL     1       4.624   0.685  -0.016  1.00  0.00     0.063 C 
ATOM     14  H   UNL     1       3.179   0.969   1.561  1.00  0.00     0.164 HD
ATOM     15  C   UNL     1       4.941   2.185  -0.097  1.00  0.00     0.091 C 
ATOM     16  C   UNL     1       5.744  -0.128   0.699  1.00  0.00     0.091 C 
ATOM     17  C   UNL     1       6.409   2.507  -0.314  1.00  0.00     0.264 C 
ATOM     18  C   UNL     1       7.159   0.447   0.631  1.00  0.00     0.264 C 
ATOM     19  N   UNL     1       7.258   1.895   0.685  1.00  0.00    -0.331 N 
ATOM     20  H   UNL     1       8.225   2.085   0.425  1.00  0.00     0.348 HD
BRANCH  19  21
ATOM     21  C   UNL     1       7.342   2.567   1.992  1.00  0.00     0.303 C 
BRANCH  21  22
ATOM     22  C   UNL     1       6.095   2.571   2.824  1.00  0.00     0.052 A 
ATOM     23  C   UNL     1       5.612   1.527   3.594  1.00  0.00     0.115 A 
ATOM     24  C   UNL     1       5.201   3.658   3.137  1.00  0.00     0.101 A 
ATOM     25  N   UNL     1       4.447   1.950   4.150  1.00  0.00    -0.285 N 
ATOM     26  N   UNL     1       4.174   3.229   3.889  1.00  0.00    -0.175 NA
ATOM     27  H   UNL     1       3.863   1.371   4.691  1.00  0.00     0.189 HD
BRANCH  24  28
ATOM     28  C   UNL     1       5.285   5.084   2.815  1.00  0.00     0.003 A 
ATOM     29  C   UNL     1       5.280   6.012   3.869  1.00  0.00     0.012 A 
ATOM     30  C   UNL     1       5.324   5.564   1.503  1.00  0.00     0.012 A 
ATOM     31  C   UNL     1       5.358   7.384   3.618  1.00  0.00     0.021 A 
ATOM     32  C   UNL     1       5.411   6.937   1.246  1.00  0.00     0.021 A 
ATOM     33  C   UNL     1       5.437   7.841   2.305  1.00  0.00     0.041 A 
ATOM     34  Cl  UNL     1       5.561   9.526   1.988  1.00  0.00    -0.084 Cl
ENDBRANCH  24  28
ENDBRANCH  21  22
ENDBRANCH  19  21
ENDBRANCH   5   8
ENDBRANCH   3   4
ENDBRANCH   2   3
ENDBRANCH   1   2
BRANCH   1  35
ATOM     35  C   UNL     1      -0.156   4.293  -2.499  1.00  0.00     0.002 C 
BRANCH  35  36
ATOM     36  C   UNL     1      -1.218   4.085  -1.414  1.00  0.00     0.021 C 
BRANCH  36  37
ATOM     37  C   UNL     1      -1.341   5.240  -0.427  1.00  0.00     0.116 C 
BRANCH  37  38
ATOM     38  N   UNL     1      -1.695   6.477  -1.102  1.00  0.00    -0.352 N 
ATOM     39  C   UNL     1      -2.802   7.267  -0.930  1.00  0.00     0.251 C 
ATOM     40  H   UNL     1      -1.050   6.791  -1.777  1.00  0.00     0.163 HD
ATOM     41  O   UNL     1      -3.084   8.113  -1.772  1.00  0.00    -0.269 OA
BRANCH  39  42
ATOM     42  C   UNL     1      -3.650   7.080   0.265  1.00  0.00     0.039 A 
ATOM     43  C   UNL     1      -5.038   7.101   0.120  1.00  0.00     0.014 A 
ATOM     44  C   UNL     1      -3.074   6.895   1.526  1.00  0.00     0.014 A 
ATOM     45  C   UNL     1      -5.849   6.894   1.237  1.00  0.00     0.010 A 
ATOM     46  C   UNL     1      -3.882   6.606   2.621  1.00  0.00     0.010 A 
ATOM     47  C   UNL     1      -5.279   6.617   2.491  1.00  0.00    -0.014 A 
BRANCH  47  48
ATOM     48  C   UNL     1      -6.134   6.352   3.676  1.00  0.00     0.031 A 
ATOM     49  C   UNL     1      -6.086   7.273   4.864  1.00  0.00     0.074 A 
ATOM     50  C   UNL     1      -6.914   5.254   3.700  1.00  0.00     0.049 A 
ATOM     51  N   UNL     1      -6.721   7.189   6.004  1.00  0.00    -0.248 NA
ATOM     52  C   UNL     1      -5.175   8.424   4.768  1.00  0.00     0.031 C 
ATOM     53  C   UNL     1      -7.001   4.260   2.627  1.00  0.00     0.029 A 
ATOM     54  N   UNL     1      -7.773   4.782   4.660  1.00  0.00    -0.354 N 
ATOM     55  C   UNL     1      -6.276   8.263   6.767  1.00  0.00     0.074 A 
ATOM     56  C   UNL     1      -5.267   8.942   5.982  1.00  0.00     0.031 C 
ATOM     57  C   UNL     1      -7.880   3.310   2.980  1.00  0.00     0.029 A 
ATOM     58  C   UNL     1      -8.382   3.596   4.320  1.00  0.00     0.049 A 
ATOM     59  H   UNL     1      -7.938   5.248   5.511  1.00  0.00     0.167 HD
ATOM     60  C   UNL     1      -6.688   8.658   7.998  1.00  0.00     0.034 A 
ATOM     61  C   UNL     1      -9.232   2.815   5.016  1.00  0.00     0.034 A 
ATOM     62  C   UNL     1      -7.699   7.963   8.759  1.00  0.00     0.049 A 
ATOM     63  C   UNL     1      -9.666   3.260   6.388  1.00  0.00     0.074 A 
ATOM     64  C   UNL     1      -8.247   8.311   9.982  1.00  0.00     0.029 A 
ATOM     65  N   UNL     1      -8.300   6.767   8.383  1.00  0.00    -0.354 N 
ATOM     66  N   UNL     1      -9.296   4.322   7.068  1.00  0.00    -0.248 NA
ATOM     67  C   UNL     1     -10.643   2.412   7.080  1.00  0.00     0.031 C 
ATOM     68  C   UNL     1      -9.106   7.282  10.385  1.00  0.00     0.029 A 
ATOM     69  C   UNL     1      -9.175   6.339   9.371  1.00  0.00     0.049 A 
ATOM     70  H   UNL     1      -8.128   6.291   7.538  1.00  0.00     0.167 HD
ATOM     71  C   UNL     1     -10.015   4.281   8.259  1.00  0.00     0.074 A 
ATOM     72  C   UNL     1     -10.852   3.099   8.194  1.00  0.00     0.031 C 
ATOM     73  C   UNL     1      -9.989   5.145   9.308  1.00  0.00     0.034 A 
BRANCH  60  74
ATOM     74  C   UNL     1      -6.010   9.868   8.603  1.00  0.00     0.023 A 
ATOM     75  C   UNL     1      -6.040  11.129   7.979  1.00  0.00     0.031 A 
ATOM     76  C   UNL     1      -5.279   9.750   9.799  1.00  0.00     0.131 A 
ATOM     77  C   UNL     1      -5.274  12.186   8.493  1.00  0.00     0.055 A 
ATOM     78  C   UNL     1      -4.599  10.834  10.360  1.00  0.00     0.041 A 
ATOM     79  F   UNL     1      -5.192   8.571  10.434  1.00  0.00    -0.206 F 
ATOM     80  C   UNL     1      -4.576  12.056   9.695  1.00  0.00     0.022 A 
BRANCH  77  81
ATOM     81  S   UNL     1      -5.051  13.669   7.471  1.00  0.00     0.124 S 
ATOM     82  O   UNL     1      -4.508  13.100   6.239  1.00  0.00    -0.237 OA
ATOM     83  O   UNL     1      -6.406  14.200   7.387  1.00  0.00    -0.237 OA
ATOM     84  O   UNL     1      -4.108  14.478   8.241  1.00  0.00    -0.744 OA
ENDBRANCH  77  81
ENDBRANCH  60  74
BRANCH  61  85
ATOM     85  C   UNL     1      -9.701   1.524   4.435  1.00  0.00     0.023 A 
ATOM     86  C   UNL     1     -11.049   1.312   4.108  1.00  0.00     0.031 A 
ATOM     87  C   UNL     1      -8.792   0.474   4.203  1.00  0.00     0.131 A 
ATOM     88  C   UNL     1     -11.456   0.068   3.597  1.00  0.00     0.055 A 
ATOM     89  C   UNL     1      -9.193  -0.740   3.644  1.00  0.00     0.041 A 
ATOM     90  F   UNL     1      -7.491   0.626   4.495  1.00  0.00    -0.206 F 
ATOM     91  C   UNL     1     -10.534  -0.952   3.346  1.00  0.00     0.022 A 
BRANCH  88  92
ATOM     92  S   UNL     1     -13.225  -0.226   3.324  1.00  0.00     0.124 S 
ATOM     93  O   UNL     1     -13.769  -0.026   4.662  1.00  0.00    -0.237 OA
ATOM     94  O   UNL     1     -13.555   0.797   2.338  1.00  0.00    -0.237 OA
ATOM     95  O   UNL     1     -13.269  -1.601   2.831  1.00  0.00    -0.744 OA
ENDBRANCH  88  92
ENDBRANCH  61  85
BRANCH  73  96
ATOM     96  C   UNL     1     -10.928   4.860  10.457  1.00  0.00     0.023 A 
ATOM     97  C   UNL     1     -10.798   3.711  11.258  1.00  0.00     0.031 A 
ATOM     98  C   UNL     1     -11.979   5.750  10.748  1.00  0.00     0.131 A 
ATOM     99  C   UNL     1     -11.737   3.452  12.268  1.00  0.00     0.055 A 
ATOM    100  C   UNL     1     -12.865   5.524  11.802  1.00  0.00     0.041 A 
ATOM    101  F   UNL     1     -12.158   6.859  10.014  1.00  0.00    -0.206 F 
ATOM    102  C   UNL     1     -12.757   4.362  12.559  1.00  0.00     0.022 A 
BRANCH  99 103
ATOM    103  S   UNL     1     -11.677   1.855  13.125  1.00  0.00     0.124 S 
ATOM    104  O   UNL     1     -11.800   0.913  12.017  1.00  0.00    -0.237 OA
ATOM    105  O   UNL     1     -10.376   1.901  13.783  1.00  0.00    -0.237 OA
ATOM    106  O   UNL     1     -12.828   1.905  14.025  1.00  0.00    -0.744 OA
ENDBRANCH  99 103
ENDBRANCH  73  96
ENDBRANCH  47  48
ENDBRANCH  39  42
ENDBRANCH  37  38
ENDBRANCH  36  37
ENDBRANCH  35  36
ENDBRANCH   1  35
TORSDOF 19
