REMARK SMILES CCC(C)(C)n1c(SCC(=O)NCCCCCCNC(=O)c2ccc(-c3c4nc(c(-c5cc(S(=O)(=O)[O-])ccc5F)c5ccc([nH]5)c(-c5cc(S(=O)(=O)[O-])ccc5F)c5nc(c(-c6cc(S(=O)(=O)[O-])ccc6F)c6ccc3[nH]6)C=C5)C=C4)cc2)nc2cccnc21
REMARK SMILES IDX 15 1 14 2 13 3 12 4 10 5 11 6 9 8 8 9 7 10 6 11 91 12 85 13
REMARK SMILES IDX 86 14 90 15 87 16 89 17 88 18 3 19 4 20 5 21 2 22 1 23 16 24
REMARK SMILES IDX 17 25 18 26 19 27 20 28 21 30 22 31 23 32 84 33 24 34 83 35
REMARK SMILES IDX 25 36 26 37 27 38 77 39 28 40 82 41 76 42 78 43 29 44 81 45
REMARK SMILES IDX 75 46 74 47 30 49 62 50 42 51 61 52 43 53 46 54 60 55 79 56
REMARK SMILES IDX 44 57 45 58 59 60 80 61 47 62 31 63 32 64 40 65 33 66 39 67
REMARK SMILES IDX 41 68 38 69 34 70 35 71 36 72 37 73 63 74 64 75 72 76 65 77
REMARK SMILES IDX 71 78 73 79 70 80 66 81 67 82 68 83 69 84 48 85 49 86 57 87
REMARK SMILES IDX 50 88 56 89 58 90 55 91 51 92 52 93 53 94 54 95
REMARK H PARENT 12 7 19 29 78 48 46 59
REMARK Flexibility Score: inf
ROOT
ATOM      1  C   UNL     1       2.180   3.661  -0.783  1.00  0.00     0.002 C 
ENDROOT
BRANCH   1   2
ATOM      2  C   UNL     1       2.813   3.537   0.610  1.00  0.00     0.021 C 
BRANCH   2   3
ATOM      3  C   UNL     1       1.895   3.819   1.794  1.00  0.00     0.116 C 
BRANCH   3   4
ATOM      4  N   UNL     1       0.693   3.019   1.771  1.00  0.00    -0.355 N 
ATOM      5  C   UNL     1       0.164   2.246   2.747  1.00  0.00     0.230 C 
ATOM      6  O   UNL     1      -1.049   2.008   2.657  1.00  0.00    -0.274 OA
ATOM      7  H   UNL     1       0.189   3.038   0.926  1.00  0.00     0.163 HD
BRANCH   5   8
ATOM      8  C   UNL     1       0.946   1.778   3.954  1.00  0.00     0.178 C 
BRANCH   8   9
ATOM      9  S   UNL     1       2.564   1.100   3.757  1.00  0.00    -0.078 SA
BRANCH   9  10
ATOM     10  C   UNL     1       2.956  -0.336   2.884  1.00  0.00     0.171 A 
ATOM     11  N   UNL     1       2.300  -1.462   2.394  1.00  0.00    -0.298 N 
ATOM     12  C   UNL     1       3.305  -2.285   1.863  1.00  0.00     0.161 A 
ATOM     13  N   UNL     1       4.263  -0.451   2.707  1.00  0.00    -0.221 NA
ATOM     14  C   UNL     1       4.498  -1.631   2.090  1.00  0.00     0.109 A 
ATOM     15  N   UNL     1       3.155  -3.476   1.237  1.00  0.00    -0.237 NA
ATOM     16  C   UNL     1       5.689  -2.235   1.673  1.00  0.00     0.034 A 
ATOM     17  C   UNL     1       4.330  -4.025   0.846  1.00  0.00     0.113 A 
ATOM     18  C   UNL     1       5.588  -3.471   1.036  1.00  0.00     0.022 A 
BRANCH  11  19
ATOM     19  C   UNL     1       0.890  -1.869   2.245  1.00  0.00     0.043 C 
ATOM     20  C   UNL     1      -0.107  -1.027   3.026  1.00  0.00     0.035 C 
ATOM     21  C   UNL     1       0.652  -3.298   2.819  1.00  0.00     0.035 C 
BRANCH  19  22
ATOM     22  C   UNL     1       0.473  -1.847   0.734  1.00  0.00     0.025 C 
ATOM     23  C   UNL     1       0.890  -0.599  -0.046  1.00  0.00     0.006 C 
ENDBRANCH  19  22
ENDBRANCH  11  19
ENDBRANCH   9  10
ENDBRANCH   8   9
ENDBRANCH   5   8
ENDBRANCH   3   4
ENDBRANCH   2   3
ENDBRANCH   1   2
BRANCH   1  24
ATOM     24  C   UNL     1       1.289   4.883  -1.051  1.00  0.00     0.002 C 
BRANCH  24  25
ATOM     25  C   UNL     1       1.854   6.258  -0.677  1.00  0.00     0.021 C 
BRANCH  25  26
ATOM     26  C   UNL     1       3.113   6.633  -1.434  1.00  0.00     0.116 C 
BRANCH  26  27
ATOM     27  N   UNL     1       2.849   6.886  -2.846  1.00  0.00    -0.352 N 
ATOM     28  C   UNL     1       3.748   7.315  -3.788  1.00  0.00     0.251 C 
ATOM     29  H   UNL     1       1.927   6.732  -3.155  1.00  0.00     0.163 HD
ATOM     30  O   UNL     1       3.352   7.813  -4.852  1.00  0.00    -0.269 OA
BRANCH  28  31
ATOM     31  C   UNL     1       5.185   7.182  -3.514  1.00  0.00     0.039 A 
ATOM     32  C   UNL     1       6.067   8.224  -3.811  1.00  0.00     0.014 A 
ATOM     33  C   UNL     1       5.645   5.995  -2.942  1.00  0.00     0.014 A 
ATOM     34  C   UNL     1       7.412   8.080  -3.486  1.00  0.00     0.010 A 
ATOM     35  C   UNL     1       6.947   5.902  -2.511  1.00  0.00     0.010 A 
ATOM     36  C   UNL     1       7.845   6.915  -2.836  1.00  0.00    -0.014 A 
BRANCH  36  37
ATOM     37  C   UNL     1       9.249   6.749  -2.486  1.00  0.00     0.031 A 
ATOM     38  C   UNL     1       9.804   7.715  -1.500  1.00  0.00     0.074 A 
ATOM     39  C   UNL     1       9.957   5.662  -2.853  1.00  0.00     0.049 A 
ATOM     40  N   UNL     1      10.669   8.657  -1.692  1.00  0.00    -0.248 NA
ATOM     41  C   UNL     1       9.244   7.685  -0.141  1.00  0.00     0.031 C 
ATOM     42  C   UNL     1       9.466   4.430  -3.487  1.00  0.00     0.029 A 
ATOM     43  N   UNL     1      11.268   5.387  -2.626  1.00  0.00    -0.354 N 
ATOM     44  C   UNL     1      10.909   9.218  -0.436  1.00  0.00     0.074 A 
ATOM     45  C   UNL     1       9.887   8.700   0.438  1.00  0.00     0.031 C 
ATOM     46  C   UNL     1      10.406   3.466  -3.383  1.00  0.00     0.029 A 
ATOM     47  C   UNL     1      11.618   4.069  -2.865  1.00  0.00     0.049 A 
ATOM     48  H   UNL     1      11.912   6.065  -2.319  1.00  0.00     0.167 HD
ATOM     49  C   UNL     1      12.061   9.892  -0.148  1.00  0.00     0.034 A 
ATOM     50  C   UNL     1      12.821   3.503  -2.628  1.00  0.00     0.034 A 
ATOM     51  C   UNL     1      12.847  10.117  -1.328  1.00  0.00     0.049 A 
ATOM     52  C   UNL     1      13.826   4.585  -2.542  1.00  0.00     0.074 A 
ATOM     53  C   UNL     1      12.780  10.935  -2.431  1.00  0.00     0.029 A 
ATOM     54  N   UNL     1      13.750   9.123  -1.610  1.00  0.00    -0.354 N 
ATOM     55  N   UNL     1      14.163   5.352  -3.543  1.00  0.00    -0.248 NA
ATOM     56  C   UNL     1      14.245   5.056  -1.229  1.00  0.00     0.031 C 
ATOM     57  C   UNL     1      13.434  10.223  -3.477  1.00  0.00     0.029 A 
ATOM     58  C   UNL     1      13.891   9.004  -2.968  1.00  0.00     0.049 A 
ATOM     59  H   UNL     1      14.224   8.579  -0.941  1.00  0.00     0.167 HD
ATOM     60  C   UNL     1      14.452   6.574  -2.963  1.00  0.00     0.074 A 
ATOM     61  C   UNL     1      14.661   6.284  -1.551  1.00  0.00     0.031 C 
ATOM     62  C   UNL     1      14.208   7.745  -3.619  1.00  0.00     0.034 A 
BRANCH  49  63
ATOM     63  C   UNL     1      12.680  10.004   1.227  1.00  0.00     0.023 A 
ATOM     64  C   UNL     1      12.339   9.139   2.281  1.00  0.00     0.031 A 
ATOM     65  C   UNL     1      13.807  10.826   1.445  1.00  0.00     0.131 A 
ATOM     66  C   UNL     1      13.056   9.129   3.486  1.00  0.00     0.055 A 
ATOM     67  C   UNL     1      14.567  10.766   2.622  1.00  0.00     0.041 A 
ATOM     68  F   UNL     1      14.235  11.677   0.499  1.00  0.00    -0.206 F 
ATOM     69  C   UNL     1      14.190   9.916   3.654  1.00  0.00     0.022 A 
BRANCH  66  70
ATOM     70  S   UNL     1      12.519   8.068   4.855  1.00  0.00     0.124 S 
ATOM     71  O   UNL     1      13.678   7.201   5.034  1.00  0.00    -0.237 OA
ATOM     72  O   UNL     1      12.290   9.048   5.915  1.00  0.00    -0.237 OA
ATOM     73  O   UNL     1      11.315   7.429   4.335  1.00  0.00    -0.744 OA
ENDBRANCH  66  70
ENDBRANCH  49  63
BRANCH  50  74
ATOM     74  C   UNL     1      13.072   2.139  -2.121  1.00  0.00     0.023 A 
ATOM     75  C   UNL     1      12.152   1.540  -1.238  1.00  0.00     0.031 A 
ATOM     76  C   UNL     1      14.336   1.545  -2.248  1.00  0.00     0.131 A 
ATOM     77  C   UNL     1      12.529   0.430  -0.471  1.00  0.00     0.055 A 
ATOM     78  C   UNL     1      14.706   0.430  -1.491  1.00  0.00     0.041 A 
ATOM     79  F   UNL     1      15.259   2.079  -3.064  1.00  0.00    -0.206 F 
ATOM     80  C   UNL     1      13.806  -0.122  -0.583  1.00  0.00     0.022 A 
BRANCH  77  81
ATOM     81  S   UNL     1      11.380  -0.279   0.741  1.00  0.00     0.124 S 
ATOM     82  O   UNL     1      11.578  -1.716   0.559  1.00  0.00    -0.237 OA
ATOM     83  O   UNL     1      11.892   0.271   1.991  1.00  0.00    -0.237 OA
ATOM     84  O   UNL     1      10.079   0.219   0.306  1.00  0.00    -0.744 OA
ENDBRANCH  77  81
ENDBRANCH  50  74
BRANCH  62  85
ATOM     85  C   UNL     1      14.032   7.705  -5.114  1.00  0.00     0.023 A 
ATOM     86  C   UNL     1      14.896   8.506  -5.880  1.00  0.00     0.031 A 
ATOM     87  C   UNL     1      12.955   7.087  -5.773  1.00  0.00     0.131 A 
ATOM     88  C   UNL     1      14.652   8.705  -7.242  1.00  0.00     0.055 A 
ATOM     89  C   UNL     1      12.751   7.237  -7.149  1.00  0.00     0.041 A 
ATOM     90  F   UNL     1      12.033   6.390  -5.099  1.00  0.00    -0.206 F 
ATOM     91  C   UNL     1      13.593   8.061  -7.888  1.00  0.00     0.022 A 
BRANCH  88  92
ATOM     92  S   UNL     1      15.630   9.906  -8.178  1.00  0.00     0.124 S 
ATOM     93  O   UNL     1      16.178   9.089  -9.257  1.00  0.00    -0.237 OA
ATOM     94  O   UNL     1      14.616  10.878  -8.582  1.00  0.00    -0.237 OA
ATOM     95  O   UNL     1      16.608  10.398  -7.212  1.00  0.00    -0.744 OA
ENDBRANCH  88  92
ENDBRANCH  62  85
ENDBRANCH  36  37
ENDBRANCH  28  31
ENDBRANCH  26  27
ENDBRANCH  25  26
ENDBRANCH  24  25
ENDBRANCH   1  24
TORSDOF 20
