REMARK SMILES NC(=O)c1ccc(C[N@H+]2CCC[C@@H](C(=O)NCCCCCCNC(=O)c3ccc(-c4c5nc(c(-c6cc(S(=O)(=O)[O-])ccc6F)c6ccc([nH]6)c(-c6cc(S(=O)(=O)[O-])ccc6F)c6nc(c(-c7cc(S(=O)(=O)[O-])ccc7F)c7ccc4[nH]7)C=C6)C=C5)cc3)C2)cc1
REMARK SMILES IDX 19 1 18 2 17 3 16 4 14 5 15 6 13 8 9 9 10 10 89 11 11 13
REMARK SMILES IDX 12 14 8 15 7 16 4 17 5 18 91 19 6 20 90 21 2 22 1 23 3 26
REMARK SMILES IDX 20 27 21 28 22 29 23 30 24 31 25 33 26 34 27 35 88 36 28 37
REMARK SMILES IDX 87 38 29 39 30 40 31 41 81 42 32 43 86 44 80 45 82 46 33 47
REMARK SMILES IDX 85 48 79 49 78 50 34 52 66 53 46 54 65 55 47 56 50 57 64 58
REMARK SMILES IDX 83 59 48 60 49 61 63 63 84 64 51 65 35 66 36 67 44 68 37 69
REMARK SMILES IDX 43 70 45 71 42 72 38 73 39 74 40 75 41 76 67 77 68 78 76 79
REMARK SMILES IDX 69 80 75 81 77 82 74 83 70 84 71 85 72 86 73 87 52 88 53 89
REMARK SMILES IDX 61 90 54 91 60 92 62 93 59 94 55 95 56 96 57 97 58 98
REMARK H PARENT 16 7 9 12 1 24 1 25 23 32 82 51 50 62
REMARK Flexibility Score: inf
ROOT
ATOM      1  C   UNL     1      -4.487   4.292   4.157  1.00  0.00     0.002 C 
ENDROOT
BRANCH   1   2
ATOM      2  C   UNL     1      -3.160   4.980   3.810  1.00  0.00     0.021 C 
BRANCH   2   3
ATOM      3  C   UNL     1      -2.924   6.264   4.603  1.00  0.00     0.116 C 
BRANCH   3   4
ATOM      4  N   UNL     1      -2.285   6.009   5.877  1.00  0.00    -0.356 N 
ATOM      5  C   UNL     1      -1.048   6.250   6.371  1.00  0.00     0.228 C 
ATOM      6  O   UNL     1      -0.890   5.968   7.567  1.00  0.00    -0.275 OA
ATOM      7  H   UNL     1      -2.879   5.564   6.524  1.00  0.00     0.163 HD
BRANCH   5   8
ATOM      8  C   UNL     1       0.162   6.712   5.558  1.00  0.00     0.133 C 
ATOM      9  N   UNL     1       2.240   5.777   4.497  1.00  0.00    -0.331 N 
ATOM     10  C   UNL     1       2.040   6.620   3.314  1.00  0.00     0.262 C 
ATOM     11  C   UNL     1       0.981   5.467   5.196  1.00  0.00     0.276 C 
ATOM     12  H   UNL     1       2.787   6.338   5.149  1.00  0.00     0.348 HD
ATOM     13  C   UNL     1       1.301   7.911   3.682  1.00  0.00     0.062 C 
ATOM     14  C   UNL     1      -0.042   7.568   4.314  1.00  0.00     0.025 C 
BRANCH   9  15
ATOM     15  C   UNL     1       3.057   4.581   4.219  1.00  0.00     0.299 C 
BRANCH  15  16
ATOM     16  C   UNL     1       2.427   3.516   3.339  1.00  0.00     0.006 A 
ATOM     17  C   UNL     1       1.136   1.635   1.698  1.00  0.00     0.039 A 
ATOM     18  C   UNL     1       0.818   1.712   3.054  1.00  0.00     0.014 A 
ATOM     19  C   UNL     1       2.111   2.481   1.158  1.00  0.00     0.014 A 
ATOM     20  C   UNL     1       1.484   2.622   3.873  1.00  0.00     0.010 A 
ATOM     21  C   UNL     1       2.745   3.424   1.976  1.00  0.00     0.010 A 
BRANCH  17  22
ATOM     22  C   UNL     1       0.388   0.662   0.867  1.00  0.00     0.248 C 
ATOM     23  N   UNL     1       1.087   0.028  -0.119  1.00  0.00    -0.366 N 
ATOM     24  H   UNL     1       0.636  -0.628  -0.699  1.00  0.00     0.159 HD
ATOM     25  H   UNL     1       2.042   0.226  -0.251  1.00  0.00     0.159 HD
ATOM     26  O   UNL     1      -0.787   0.407   1.086  1.00  0.00    -0.270 OA
ENDBRANCH  17  22
ENDBRANCH  15  16
ENDBRANCH   9  15
ENDBRANCH   5   8
ENDBRANCH   3   4
ENDBRANCH   2   3
ENDBRANCH   1   2
BRANCH   1  27
ATOM     27  C   UNL     1      -5.737   5.168   3.978  1.00  0.00     0.002 C 
BRANCH  27  28
ATOM     28  C   UNL     1      -5.874   5.825   2.602  1.00  0.00     0.021 C 
BRANCH  28  29
ATOM     29  C   UNL     1      -6.027   4.830   1.456  1.00  0.00     0.116 C 
BRANCH  29  30
ATOM     30  N   UNL     1      -7.245   4.046   1.599  1.00  0.00    -0.352 N 
ATOM     31  C   UNL     1      -8.340   3.986   0.773  1.00  0.00     0.251 C 
ATOM     32  H   UNL     1      -7.290   3.478   2.402  1.00  0.00     0.163 HD
ATOM     33  O   UNL     1      -9.392   3.503   1.181  1.00  0.00    -0.269 OA
BRANCH  31  34
ATOM     34  C   UNL     1      -8.239   4.520  -0.600  1.00  0.00     0.039 A 
ATOM     35  C   UNL     1      -9.267   5.322  -1.100  1.00  0.00     0.014 A 
ATOM     36  C   UNL     1      -7.121   4.231  -1.387  1.00  0.00     0.014 A 
ATOM     37  C   UNL     1      -9.138   5.895  -2.367  1.00  0.00     0.010 A 
ATOM     38  C   UNL     1      -6.962   4.861  -2.617  1.00  0.00     0.010 A 
ATOM     39  C   UNL     1      -7.965   5.704  -3.117  1.00  0.00    -0.014 A 
BRANCH  39  40
ATOM     40  C   UNL     1      -7.758   6.382  -4.423  1.00  0.00     0.031 A 
ATOM     41  C   UNL     1      -7.611   5.564  -5.676  1.00  0.00     0.074 A 
ATOM     42  C   UNL     1      -7.633   7.723  -4.465  1.00  0.00     0.049 A 
ATOM     43  N   UNL     1      -7.298   5.953  -6.885  1.00  0.00    -0.248 NA
ATOM     44  C   UNL     1      -7.820   4.114  -5.545  1.00  0.00     0.031 C 
ATOM     45  C   UNL     1      -7.742   8.620  -3.312  1.00  0.00     0.029 A 
ATOM     46  N   UNL     1      -7.374   8.569  -5.516  1.00  0.00    -0.354 N 
ATOM     47  C   UNL     1      -7.277   4.799  -7.660  1.00  0.00     0.074 A 
ATOM     48  C   UNL     1      -7.538   3.689  -6.767  1.00  0.00     0.031 C 
ATOM     49  C   UNL     1      -7.571   9.887  -3.721  1.00  0.00     0.029 A 
ATOM     50  C   UNL     1      -7.279   9.893  -5.151  1.00  0.00     0.049 A 
ATOM     51  H   UNL     1      -7.267   8.257  -6.443  1.00  0.00     0.167 HD
ATOM     52  C   UNL     1      -7.087   4.679  -8.997  1.00  0.00     0.034 A 
ATOM     53  C   UNL     1      -6.964  10.982  -5.880  1.00  0.00     0.034 A 
ATOM     54  C   UNL     1      -6.824   5.795  -9.872  1.00  0.00     0.049 A 
ATOM     55  C   UNL     1      -6.664  10.809  -7.351  1.00  0.00     0.074 A 
ATOM     56  C   UNL     1      -6.631   5.788 -11.243  1.00  0.00     0.029 A 
ATOM     57  N   UNL     1      -6.709   7.117  -9.463  1.00  0.00    -0.354 N 
ATOM     58  N   UNL     1      -6.678   9.712  -8.073  1.00  0.00    -0.248 NA
ATOM     59  C   UNL     1      -6.309  12.019  -8.104  1.00  0.00     0.031 C 
ATOM     60  C   UNL     1      -6.332   7.091 -11.650  1.00  0.00     0.029 A 
ATOM     61  C   UNL     1      -6.417   7.927 -10.549  1.00  0.00     0.049 A 
ATOM     62  H   UNL     1      -6.819   7.433  -8.537  1.00  0.00     0.167 HD
ATOM     63  C   UNL     1      -6.372  10.111  -9.372  1.00  0.00     0.074 A 
ATOM     64  C   UNL     1      -6.196  11.547  -9.336  1.00  0.00     0.031 C 
ATOM     65  C   UNL     1      -6.246   9.359 -10.495  1.00  0.00     0.034 A 
BRANCH  52  66
ATOM     66  C   UNL     1      -7.146   3.292  -9.587  1.00  0.00     0.023 A 
ATOM     67  C   UNL     1      -8.327   2.530  -9.546  1.00  0.00     0.031 A 
ATOM     68  C   UNL     1      -6.014   2.719 -10.192  1.00  0.00     0.131 A 
ATOM     69  C   UNL     1      -8.332   1.217 -10.039  1.00  0.00     0.055 A 
ATOM     70  C   UNL     1      -6.049   1.441 -10.755  1.00  0.00     0.041 A 
ATOM     71  F   UNL     1      -4.852   3.389 -10.242  1.00  0.00    -0.206 F 
ATOM     72  C   UNL     1      -7.209   0.677 -10.669  1.00  0.00     0.022 A 
BRANCH  69  73
ATOM     73  S   UNL     1      -9.787   0.182  -9.725  1.00  0.00     0.124 S 
ATOM     74  O   UNL     1      -9.838   0.181  -8.265  1.00  0.00    -0.237 OA
ATOM     75  O   UNL     1     -10.850   0.917 -10.401  1.00  0.00    -0.237 OA
ATOM     76  O   UNL     1      -9.432  -1.100 -10.330  1.00  0.00    -0.744 OA
ENDBRANCH  69  73
ENDBRANCH  52  66
BRANCH  53  77
ATOM     77  C   UNL     1      -6.879  12.332  -5.247  1.00  0.00     0.023 A 
ATOM     78  C   UNL     1      -7.695  13.385  -5.689  1.00  0.00     0.031 A 
ATOM     79  C   UNL     1      -5.922  12.615  -4.255  1.00  0.00     0.131 A 
ATOM     80  C   UNL     1      -7.490  14.684  -5.199  1.00  0.00     0.055 A 
ATOM     81  C   UNL     1      -5.772  13.895  -3.717  1.00  0.00     0.041 A 
ATOM     82  F   UNL     1      -5.111  11.649  -3.796  1.00  0.00    -0.206 F 
ATOM     83  C   UNL     1      -6.546  14.943  -4.204  1.00  0.00     0.022 A 
BRANCH  80  84
ATOM     84  S   UNL     1      -8.379  16.054  -5.988  1.00  0.00     0.124 S 
ATOM     85  O   UNL     1      -7.994  15.889  -7.385  1.00  0.00    -0.237 OA
ATOM     86  O   UNL     1      -9.766  15.742  -5.662  1.00  0.00    -0.237 OA
ATOM     87  O   UNL     1      -7.835  17.237  -5.325  1.00  0.00    -0.744 OA
ENDBRANCH  80  84
ENDBRANCH  53  77
BRANCH  65  88
ATOM     88  C   UNL     1      -5.953  10.088 -11.784  1.00  0.00     0.023 A 
ATOM     89  C   UNL     1      -4.731  10.746 -12.000  1.00  0.00     0.031 A 
ATOM     90  C   UNL     1      -6.912  10.118 -12.812  1.00  0.00     0.131 A 
ATOM     91  C   UNL     1      -4.517  11.447 -13.196  1.00  0.00     0.055 A 
ATOM     92  C   UNL     1      -6.670  10.764 -14.025  1.00  0.00     0.041 A 
ATOM     93  F   UNL     1      -8.099   9.509 -12.658  1.00  0.00    -0.206 F 
ATOM     94  C   UNL     1      -5.470  11.443 -14.218  1.00  0.00     0.022 A 
BRANCH  91  95
ATOM     95  S   UNL     1      -3.004  12.433 -13.370  1.00  0.00     0.124 S 
ATOM     96  O   UNL     1      -3.130  13.379 -12.266  1.00  0.00    -0.237 OA
ATOM     97  O   UNL     1      -1.957  11.426 -13.229  1.00  0.00    -0.237 OA
ATOM     98  O   UNL     1      -3.126  13.016 -14.704  1.00  0.00    -0.744 OA
ENDBRANCH  91  95
ENDBRANCH  65  88
ENDBRANCH  39  40
ENDBRANCH  31  34
ENDBRANCH  29  30
ENDBRANCH  28  29
ENDBRANCH  27  28
ENDBRANCH   1  27
TORSDOF 19
