REMARK SMILES CC[N@@H+](C)Cc1cc2c(cc1Cl)C=C(C(=O)NCCCCCCNC(=O)c1ccc(-c3c4nc(c(-c5cc(S(=O)(=O)[O-])ccc5F)c5ccc([nH]5)c(-c5cc(S(=O)(=O)[O-])ccc5F)c5nc(c(-c6cc(S(=O)(=O)[O-])ccc6F)c6ccc3[nH]6)C=C5)C=C4)cc1)[C@@H](C(F)(F)F)O2
REMARK SMILES IDX 20 1 19 2 18 3 17 4 15 5 16 6 14 8 6 9 7 10 11 11 8 12 10 13
REMARK SMILES IDX 12 14 9 15 95 16 13 17 90 18 5 19 3 20 4 21 2 23 1 24 91 25
REMARK SMILES IDX 92 26 93 27 94 28 21 29 22 30 23 31 24 32 25 33 26 35 27 36
REMARK SMILES IDX 28 37 89 38 29 39 88 40 30 41 31 42 32 43 82 44 33 45 87 46
REMARK SMILES IDX 81 47 83 48 34 49 86 50 80 51 79 52 35 54 67 55 47 56 66 57
REMARK SMILES IDX 48 58 51 59 65 60 84 61 49 62 50 63 64 65 85 66 52 67 36 68
REMARK SMILES IDX 37 69 45 70 38 71 44 72 46 73 43 74 39 75 40 76 41 77 42 78
REMARK SMILES IDX 68 79 69 80 77 81 70 82 76 83 78 84 75 85 71 86 72 87 73 88
REMARK SMILES IDX 74 89 53 90 54 91 62 92 55 93 61 94 63 95 60 96 56 97 57 98
REMARK SMILES IDX 58 99 59 100
REMARK H PARENT 17 7 3 22 24 34 83 53 51 64
REMARK Flexibility Score: inf
ROOT
ATOM      1  C   UNL     1       1.387  12.346   0.785  1.00  0.00     0.002 C 
ENDROOT
BRANCH   1   2
ATOM      2  C   UNL     1       1.156  10.928   0.256  1.00  0.00     0.021 C 
BRANCH   2   3
ATOM      3  C   UNL     1       2.406  10.251  -0.298  1.00  0.00     0.116 C 
BRANCH   3   4
ATOM      4  N   UNL     1       3.204   9.629   0.745  1.00  0.00    -0.352 N 
ATOM      5  C   UNL     1       3.731   8.406   0.990  1.00  0.00     0.251 C 
ATOM      6  O   UNL     1       4.412   8.323   2.019  1.00  0.00    -0.270 OA
ATOM      7  H   UNL     1       3.417  10.266   1.464  1.00  0.00     0.163 HD
BRANCH   5   8
ATOM      8  C   UNL     1       3.539   7.193   0.137  1.00  0.00     0.067 C 
ATOM      9  C   UNL     1       3.009   2.386  -1.352  1.00  0.00     0.029 A 
ATOM     10  C   UNL     1       2.724   3.639  -1.912  1.00  0.00     0.058 A 
ATOM     11  C   UNL     1       3.767   2.363  -0.169  1.00  0.00     0.050 A 
ATOM     12  C   UNL     1       3.039   4.817  -1.244  1.00  0.00     0.128 A 
ATOM     13  C   UNL     1       4.106   3.555   0.490  1.00  0.00     0.033 A 
ATOM     14  Cl  UNL     1       4.333   0.895   0.546  1.00  0.00    -0.084 Cl
ATOM     15  C   UNL     1       3.704   4.787  -0.027  1.00  0.00     0.019 A 
ATOM     16  O   UNL     1       2.587   5.954  -1.831  1.00  0.00    -0.475 OA
ATOM     17  C   UNL     1       3.904   6.028   0.707  1.00  0.00     0.025 C 
ATOM     18  C   UNL     1       3.001   7.223  -1.268  1.00  0.00     0.314 C 
BRANCH   9  19
ATOM     19  C   UNL     1       2.444   1.151  -2.028  1.00  0.00     0.300 C 
BRANCH  19  20
ATOM     20  N   UNL     1       0.974   0.976  -1.968  1.00  0.00    -0.334 N 
ATOM     21  C   UNL     1       0.231   1.879  -2.845  1.00  0.00     0.333 C 
ATOM     22  H   UNL     1       0.855   0.028  -2.327  1.00  0.00     0.348 HD
BRANCH  20  23
ATOM     23  C   UNL     1       0.401   0.982  -0.617  1.00  0.00     0.258 C 
ATOM     24  C   UNL     1       0.728  -0.283   0.163  1.00  0.00     0.071 C 
ENDBRANCH  20  23
ENDBRANCH  19  20
ENDBRANCH   9  19
BRANCH  18  25
ATOM     25  C   UNL     1       3.968   7.885  -2.263  1.00  0.00     0.429 C 
ATOM     26  F   UNL     1       3.330   8.180  -3.421  1.00  0.00    -0.167 F 
ATOM     27  F   UNL     1       4.482   9.046  -1.800  1.00  0.00    -0.167 F 
ATOM     28  F   UNL     1       5.014   7.082  -2.566  1.00  0.00    -0.167 F 
ENDBRANCH  18  25
ENDBRANCH   5   8
ENDBRANCH   3   4
ENDBRANCH   2   3
ENDBRANCH   1   2
BRANCH   1  29
ATOM     29  C   UNL     1       2.021  13.331  -0.205  1.00  0.00     0.002 C 
BRANCH  29  30
ATOM     30  C   UNL     1       1.391  13.377  -1.600  1.00  0.00     0.021 C 
BRANCH  30  31
ATOM     31  C   UNL     1      -0.099  13.695  -1.629  1.00  0.00     0.116 C 
BRANCH  31  32
ATOM     32  N   UNL     1      -0.400  15.014  -1.098  1.00  0.00    -0.352 N 
ATOM     33  C   UNL     1      -1.147  16.022  -1.659  1.00  0.00     0.251 C 
ATOM     34  H   UNL     1      -0.016  15.212  -0.214  1.00  0.00     0.163 HD
ATOM     35  O   UNL     1      -1.174  17.131  -1.132  1.00  0.00    -0.269 OA
BRANCH  33  36
ATOM     36  C   UNL     1      -1.884  15.770  -2.916  1.00  0.00     0.039 A 
ATOM     37  C   UNL     1      -2.663  14.620  -3.067  1.00  0.00     0.014 A 
ATOM     38  C   UNL     1      -1.764  16.683  -3.967  1.00  0.00     0.014 A 
ATOM     39  C   UNL     1      -3.192  14.305  -4.315  1.00  0.00     0.010 A 
ATOM     40  C   UNL     1      -2.360  16.400  -5.199  1.00  0.00     0.010 A 
ATOM     41  C   UNL     1      -3.039  15.187  -5.397  1.00  0.00    -0.014 A 
BRANCH  41  42
ATOM     42  C   UNL     1      -3.592  14.828  -6.729  1.00  0.00     0.031 A 
ATOM     43  C   UNL     1      -2.676  14.577  -7.895  1.00  0.00     0.074 A 
ATOM     44  C   UNL     1      -4.925  14.697  -6.874  1.00  0.00     0.049 A 
ATOM     45  N   UNL     1      -2.982  14.267  -9.129  1.00  0.00    -0.248 NA
ATOM     46  C   UNL     1      -1.229  14.689  -7.649  1.00  0.00     0.031 C 
ATOM     47  C   UNL     1      -5.903  14.900  -5.806  1.00  0.00     0.029 A 
ATOM     48  N   UNL     1      -5.686  14.352  -7.963  1.00  0.00    -0.354 N 
ATOM     49  C   UNL     1      -1.773  14.163  -9.808  1.00  0.00     0.074 A 
ATOM     50  C   UNL     1      -0.728  14.473  -8.858  1.00  0.00     0.031 C 
ATOM     51  C   UNL     1      -7.129  14.635  -6.279  1.00  0.00     0.029 A 
ATOM     52  C   UNL     1      -7.036  14.315  -7.701  1.00  0.00     0.049 A 
ATOM     53  H   UNL     1      -5.302  14.150  -8.847  1.00  0.00     0.167 HD
ATOM     54  C   UNL     1      -1.558  13.826 -11.102  1.00  0.00     0.034 A 
ATOM     55  C   UNL     1      -8.085  14.072  -8.514  1.00  0.00     0.034 A 
ATOM     56  C   UNL     1      -2.610  13.501 -12.031  1.00  0.00     0.049 A 
ATOM     57  C   UNL     1      -7.821  13.743  -9.960  1.00  0.00     0.074 A 
ATOM     58  C   UNL     1      -2.490  13.122 -13.357  1.00  0.00     0.029 A 
ATOM     59  N   UNL     1      -3.966  13.510 -11.739  1.00  0.00    -0.354 N 
ATOM     60  N   UNL     1      -6.670  13.615 -10.577  1.00  0.00    -0.248 NA
ATOM     61  C   UNL     1      -8.990  13.528 -10.824  1.00  0.00     0.031 C 
ATOM     62  C   UNL     1      -3.773  12.957 -13.880  1.00  0.00     0.029 A 
ATOM     63  C   UNL     1      -4.694  13.168 -12.866  1.00  0.00     0.049 A 
ATOM     64  H   UNL     1      -4.354  13.727 -10.860  1.00  0.00     0.167 HD
ATOM     65  C   UNL     1      -6.975  13.290 -11.895  1.00  0.00     0.074 A 
ATOM     66  C   UNL     1      -8.419  13.215 -11.980  1.00  0.00     0.031 C 
ATOM     67  C   UNL     1      -6.134  13.080 -12.939  1.00  0.00     0.034 A 
BRANCH  54  68
ATOM     68  C   UNL     1      -0.139  13.773 -11.611  1.00  0.00     0.023 A 
ATOM     69  C   UNL     1       0.280  14.657 -12.624  1.00  0.00     0.031 A 
ATOM     70  C   UNL     1       0.753  12.769 -11.193  1.00  0.00     0.131 A 
ATOM     71  C   UNL     1       1.544  14.500 -13.206  1.00  0.00     0.055 A 
ATOM     72  C   UNL     1       2.026  12.640 -11.751  1.00  0.00     0.041 A 
ATOM     73  F   UNL     1       0.400  11.903 -10.229  1.00  0.00    -0.206 F 
ATOM     74  C   UNL     1       2.421  13.500 -12.772  1.00  0.00     0.022 A 
BRANCH  71  75
ATOM     75  S   UNL     1       2.078  15.545 -14.589  1.00  0.00     0.124 S 
ATOM     76  O   UNL     1       3.281  16.170 -14.043  1.00  0.00    -0.237 OA
ATOM     77  O   UNL     1       2.310  14.561 -15.643  1.00  0.00    -0.237 OA
ATOM     78  O   UNL     1       0.952  16.447 -14.803  1.00  0.00    -0.744 OA
ENDBRANCH  71  75
ENDBRANCH  54  68
BRANCH  55  79
ATOM     79  C   UNL     1      -9.463  14.098  -7.944  1.00  0.00     0.023 A 
ATOM     80  C   UNL     1      -9.980  15.267  -7.355  1.00  0.00     0.031 A 
ATOM     81  C   UNL     1     -10.233  12.925  -7.868  1.00  0.00     0.131 A 
ATOM     82  C   UNL     1     -11.188  15.217  -6.647  1.00  0.00     0.055 A 
ATOM     83  C   UNL     1     -11.472  12.898  -7.226  1.00  0.00     0.041 A 
ATOM     84  F   UNL     1      -9.778  11.783  -8.404  1.00  0.00    -0.206 F 
ATOM     85  C   UNL     1     -11.945  14.044  -6.593  1.00  0.00     0.022 A 
BRANCH  82  86
ATOM     86  S   UNL     1     -11.736  16.629  -5.647  1.00  0.00     0.124 S 
ATOM     87  O   UNL     1     -13.009  16.969  -6.274  1.00  0.00    -0.237 OA
ATOM     88  O   UNL     1     -11.826  16.034  -4.315  1.00  0.00    -0.237 OA
ATOM     89  O   UNL     1     -10.667  17.607  -5.816  1.00  0.00    -0.744 OA
ENDBRANCH  82  86
ENDBRANCH  55  79
BRANCH  67  90
ATOM     90  C   UNL     1      -6.723  12.743 -14.286  1.00  0.00     0.023 A 
ATOM     91  C   UNL     1      -6.451  11.495 -14.879  1.00  0.00     0.031 A 
ATOM     92  C   UNL     1      -7.402  13.709 -15.047  1.00  0.00     0.131 A 
ATOM     93  C   UNL     1      -6.812  11.265 -16.212  1.00  0.00     0.055 A 
ATOM     94  C   UNL     1      -7.800  13.458 -16.360  1.00  0.00     0.041 A 
ATOM     95  F   UNL     1      -7.675  14.917 -14.527  1.00  0.00    -0.206 F 
ATOM     96  C   UNL     1      -7.491  12.237 -16.954  1.00  0.00     0.022 A 
BRANCH  93  97
ATOM     97  S   UNL     1      -6.334   9.734 -17.060  1.00  0.00     0.124 S 
ATOM     98  O   UNL     1      -7.631   9.188 -17.453  1.00  0.00    -0.237 OA
ATOM     99  O   UNL     1      -5.509  10.235 -18.157  1.00  0.00    -0.237 OA
ATOM    100  O   UNL     1      -5.624   8.972 -16.038  1.00  0.00    -0.744 OA
ENDBRANCH  93  97
ENDBRANCH  67  90
ENDBRANCH  41  42
ENDBRANCH  33  36
ENDBRANCH  31  32
ENDBRANCH  30  31
ENDBRANCH  29  30
ENDBRANCH   1  29
TORSDOF 20
