REMARK SMILES CC(C)Cc1cc2c(cc1Cl)C=C(C(=O)NCCCCCCNC(=O)c1ccc(-c3c4nc(c(-c5cc(S(=O)(=O)[O-])ccc5F)c5ccc([nH]5)c(-c5cc(S(=O)(=O)[O-])ccc5F)c5nc(c(-c6cc(S(=O)(=O)[O-])ccc6F)c6ccc3[nH]6)C=C5)C=C4)cc1)[C@@H](C(F)(F)F)O2
REMARK SMILES IDX 20 1 19 2 18 3 17 4 16 5 14 6 15 7 13 9 5 10 6 11 10 12 7 13
REMARK SMILES IDX 9 14 11 15 8 16 94 17 12 18 89 19 4 20 2 21 1 22 3 23 90 24
REMARK SMILES IDX 91 25 92 26 93 27 21 28 22 29 23 30 24 31 25 33 26 34 27 35
REMARK SMILES IDX 88 36 28 37 87 38 29 39 30 40 31 41 81 42 32 43 86 44 80 45
REMARK SMILES IDX 82 46 33 47 85 48 79 49 78 50 34 52 66 53 46 54 65 55 47 56
REMARK SMILES IDX 50 57 64 58 83 59 48 60 49 61 63 63 84 64 51 65 35 66 36 67
REMARK SMILES IDX 44 68 37 69 43 70 45 71 42 72 38 73 39 74 40 75 41 76 67 77
REMARK SMILES IDX 68 78 76 79 69 80 75 81 77 82 74 83 70 84 71 85 72 86 73 87
REMARK SMILES IDX 52 88 53 89 61 90 54 91 60 92 62 93 59 94 55 95 56 96 57 97
REMARK SMILES IDX 58 98
REMARK H PARENT 16 8 23 32 82 51 50 62
REMARK Flexibility Score: inf
ROOT
ATOM      1  C   UNL     1      -1.874  -8.198   7.145  1.00  0.00     0.002 C 
ENDROOT
BRANCH   1   2
ATOM      2  C   UNL     1      -0.924  -7.034   7.455  1.00  0.00     0.002 C 
BRANCH   2   3
ATOM      3  C   UNL     1      -0.614  -6.095   6.285  1.00  0.00     0.021 C 
BRANCH   3   4
ATOM      4  C   UNL     1      -1.842  -5.478   5.622  1.00  0.00     0.116 C 
BRANCH   4   5
ATOM      5  N   UNL     1      -2.322  -4.304   6.332  1.00  0.00    -0.352 N 
ATOM      6  C   UNL     1      -2.592  -3.011   6.035  1.00  0.00     0.251 C 
ATOM      7  O   UNL     1      -3.041  -2.339   6.971  1.00  0.00    -0.270 OA
ATOM      8  H   UNL     1      -2.496  -4.502   7.281  1.00  0.00     0.163 HD
BRANCH   6   9
ATOM      9  C   UNL     1      -2.378  -2.363   4.704  1.00  0.00     0.067 C 
ATOM     10  C   UNL     1      -1.459   1.064   1.096  1.00  0.00    -0.025 A 
ATOM     11  C   UNL     1      -1.506  -0.336   1.148  1.00  0.00     0.052 A 
ATOM     12  C   UNL     1      -1.828   1.780   2.244  1.00  0.00     0.045 A 
ATOM     13  C   UNL     1      -1.829  -0.999   2.327  1.00  0.00     0.128 A 
ATOM     14  C   UNL     1      -2.190   1.107   3.421  1.00  0.00     0.032 A 
ATOM     15  Cl  UNL     1      -1.824   3.507   2.282  1.00  0.00    -0.084 Cl
ATOM     16  C   UNL     1      -2.163  -0.290   3.473  1.00  0.00     0.019 A 
ATOM     17  O   UNL     1      -1.718  -2.351   2.278  1.00  0.00    -0.475 OA
ATOM     18  C   UNL     1      -2.402  -1.016   4.713  1.00  0.00     0.025 C 
ATOM     19  C   UNL     1      -2.175  -3.120   3.418  1.00  0.00     0.314 C 
BRANCH  10  20
ATOM     20  C   UNL     1      -0.934   1.700  -0.172  1.00  0.00     0.040 C 
BRANCH  20  21
ATOM     21  C   UNL     1       0.607   1.825  -0.200  1.00  0.00    -0.013 C 
ATOM     22  C   UNL     1       1.325   0.469  -0.174  1.00  0.00     0.008 C 
ATOM     23  C   UNL     1       1.038   2.589  -1.454  1.00  0.00     0.008 C 
ENDBRANCH  20  21
ENDBRANCH  10  20
BRANCH  19  24
ATOM     24  C   UNL     1      -3.420  -3.905   2.978  1.00  0.00     0.429 C 
ATOM     25  F   UNL     1      -3.100  -4.801   2.013  1.00  0.00    -0.167 F 
ATOM     26  F   UNL     1      -3.980  -4.611   3.986  1.00  0.00    -0.167 F 
ATOM     27  F   UNL     1      -4.383  -3.094   2.480  1.00  0.00    -0.167 F 
ENDBRANCH  19  24
ENDBRANCH   6   9
ENDBRANCH   4   5
ENDBRANCH   3   4
ENDBRANCH   2   3
ENDBRANCH   1   2
BRANCH   1  28
ATOM     28  C   UNL     1      -1.563  -9.000   5.879  1.00  0.00     0.021 C 
BRANCH  28  29
ATOM     29  C   UNL     1      -0.165  -9.604   5.821  1.00  0.00     0.116 C 
BRANCH  29  30
ATOM     30  N   UNL     1       0.056 -10.607   6.849  1.00  0.00    -0.352 N 
ATOM     31  C   UNL     1       0.491 -11.905   6.712  1.00  0.00     0.251 C 
ATOM     32  H   UNL     1      -0.132 -10.318   7.771  1.00  0.00     0.163 HD
ATOM     33  O   UNL     1       0.483 -12.663   7.676  1.00  0.00    -0.269 OA
BRANCH  31  34
ATOM     34  C   UNL     1       0.927 -12.384   5.383  1.00  0.00     0.039 A 
ATOM     35  C   UNL     1       1.824 -11.633   4.618  1.00  0.00     0.014 A 
ATOM     36  C   UNL     1       0.394 -13.572   4.879  1.00  0.00     0.014 A 
ATOM     37  C   UNL     1       2.060 -11.985   3.293  1.00  0.00     0.010 A 
ATOM     38  C   UNL     1       0.692 -13.964   3.571  1.00  0.00     0.010 A 
ATOM     39  C   UNL     1       1.487 -13.148   2.751  1.00  0.00    -0.014 A 
BRANCH  39  40
ATOM     40  C   UNL     1       1.725 -13.492   1.325  1.00  0.00     0.031 A 
ATOM     41  C   UNL     1       0.593 -13.479   0.334  1.00  0.00     0.074 A 
ATOM     42  C   UNL     1       2.977 -13.777   0.918  1.00  0.00     0.049 A 
ATOM     43  N   UNL     1       0.618 -13.749  -0.946  1.00  0.00    -0.248 NA
ATOM     44  C   UNL     1      -0.741 -13.118   0.842  1.00  0.00     0.031 C 
ATOM     45  C   UNL     1       4.151 -13.801   1.791  1.00  0.00     0.029 A 
ATOM     46  N   UNL     1       3.477 -14.082  -0.323  1.00  0.00    -0.354 N 
ATOM     47  C   UNL     1      -0.691 -13.606  -1.393  1.00  0.00     0.074 A 
ATOM     48  C   UNL     1      -1.493 -13.256  -0.242  1.00  0.00     0.031 C 
ATOM     49  C   UNL     1       5.239 -14.060   1.053  1.00  0.00     0.029 A 
ATOM     50  C   UNL     1       4.837 -14.292  -0.332  1.00  0.00     0.049 A 
ATOM     51  H   UNL     1       2.917 -14.146  -1.130  1.00  0.00     0.167 HD
ATOM     52  C   UNL     1      -1.173 -13.742  -2.652  1.00  0.00     0.034 A 
ATOM     53  C   UNL     1       5.667 -14.648  -1.334  1.00  0.00     0.034 A 
ATOM     54  C   UNL     1      -0.356 -14.071  -3.792  1.00  0.00     0.049 A 
ATOM     55  C   UNL     1       5.098 -14.837  -2.715  1.00  0.00     0.074 A 
ATOM     56  C   UNL     1      -0.748 -14.202  -5.113  1.00  0.00     0.029 A 
ATOM     57  N   UNL     1       1.009 -14.318  -3.754  1.00  0.00    -0.354 N 
ATOM     58  N   UNL     1       3.865 -14.662  -3.127  1.00  0.00    -0.248 NA
ATOM     59  C   UNL     1       6.024 -15.275  -3.769  1.00  0.00     0.031 C 
ATOM     60  C   UNL     1       0.366 -14.580  -5.863  1.00  0.00     0.029 A 
ATOM     61  C   UNL     1       1.468 -14.625  -5.024  1.00  0.00     0.049 A 
ATOM     62  H   UNL     1       1.568 -14.280  -2.945  1.00  0.00     0.167 HD
ATOM     63  C   UNL     1       3.869 -14.954  -4.488  1.00  0.00     0.074 A 
ATOM     64  C   UNL     1       5.234 -15.292  -4.835  1.00  0.00     0.031 C 
ATOM     65  C   UNL     1       2.834 -14.949  -5.364  1.00  0.00     0.034 A 
BRANCH  52  66
ATOM     66  C   UNL     1      -2.646 -13.525  -2.891  1.00  0.00     0.023 A 
ATOM     67  C   UNL     1      -3.452 -14.589  -3.338  1.00  0.00     0.031 A 
ATOM     68  C   UNL     1      -3.220 -12.244  -2.806  1.00  0.00     0.131 A 
ATOM     69  C   UNL     1      -4.780 -14.347  -3.712  1.00  0.00     0.055 A 
ATOM     70  C   UNL     1      -4.554 -12.015  -3.148  1.00  0.00     0.041 A 
ATOM     71  F   UNL     1      -2.492 -11.197  -2.385  1.00  0.00    -0.206 F 
ATOM     72  C   UNL     1      -5.337 -13.068  -3.614  1.00  0.00     0.022 A 
BRANCH  69  73
ATOM     73  S   UNL     1      -5.820 -15.668  -4.394  1.00  0.00     0.124 S 
ATOM     74  O   UNL     1      -6.925 -15.701  -3.438  1.00  0.00    -0.237 OA
ATOM     75  O   UNL     1      -6.153 -15.143  -5.715  1.00  0.00    -0.237 OA
ATOM     76  O   UNL     1      -4.952 -16.840  -4.380  1.00  0.00    -0.744 OA
ENDBRANCH  69  73
ENDBRANCH  52  66
BRANCH  53  77
ATOM     77  C   UNL     1       7.123 -14.802  -1.046  1.00  0.00     0.023 A 
ATOM     78  C   UNL     1       7.578 -15.752  -0.112  1.00  0.00     0.031 A 
ATOM     79  C   UNL     1       8.063 -13.921  -1.603  1.00  0.00     0.131 A 
ATOM     80  C   UNL     1       8.917 -15.740   0.299  1.00  0.00     0.055 A 
ATOM     81  C   UNL     1       9.412 -13.962  -1.246  1.00  0.00     0.041 A 
ATOM     82  F   UNL     1       7.676 -12.991  -2.490  1.00  0.00    -0.206 F 
ATOM     83  C   UNL     1       9.841 -14.862  -0.274  1.00  0.00     0.022 A 
BRANCH  80  84
ATOM     84  S   UNL     1       9.467 -16.757   1.698  1.00  0.00     0.124 S 
ATOM     85  O   UNL     1      10.460 -17.623   1.072  1.00  0.00    -0.237 OA
ATOM     86  O   UNL     1       9.996 -15.746   2.612  1.00  0.00    -0.237 OA
ATOM     87  O   UNL     1       8.245 -17.416   2.146  1.00  0.00    -0.744 OA
ENDBRANCH  80  84
ENDBRANCH  53  77
BRANCH  65  88
ATOM     88  C   UNL     1       3.103 -15.319  -6.801  1.00  0.00     0.023 A 
ATOM     89  C   UNL     1       2.909 -14.368  -7.822  1.00  0.00     0.031 A 
ATOM     90  C   UNL     1       3.380 -16.647  -7.170  1.00  0.00     0.131 A 
ATOM     91  C   UNL     1       2.947 -14.769  -9.162  1.00  0.00     0.055 A 
ATOM     92  C   UNL     1       3.461 -17.032  -8.508  1.00  0.00     0.041 A 
ATOM     93  F   UNL     1       3.563 -17.590  -6.232  1.00  0.00    -0.206 F 
ATOM     94  C   UNL     1       3.228 -16.095  -9.511  1.00  0.00     0.022 A 
BRANCH  91  95
ATOM     95  S   UNL     1       2.547 -13.609 -10.498  1.00  0.00     0.124 S 
ATOM     96  O   UNL     1       3.768 -13.636 -11.299  1.00  0.00    -0.237 OA
ATOM     97  O   UNL     1       1.383 -14.239 -11.114  1.00  0.00    -0.237 OA
ATOM     98  O   UNL     1       2.287 -12.351  -9.805  1.00  0.00    -0.744 OA
ENDBRANCH  91  95
ENDBRANCH  65  88
ENDBRANCH  39  40
ENDBRANCH  31  34
ENDBRANCH  29  30
ENDBRANCH  28  29
ENDBRANCH   1  28
TORSDOF 19
