REMARK SMILES C[NH+](C)[C@@H]1CC[N@@H+](Cc2ccc(C(=O)NCCCCCCNC(=O)c3ccc(-c4c5nc(c(-c6cc(S(=O)(=O)[O-])ccc6F)c6ccc([nH]6)c(-c6cc(S(=O)(=O)[O-])ccc6F)c6nc(c(-c7cc(S(=O)(=O)[O-])ccc7F)c7ccc4[nH]7)C=C6)C=C5)cc3)cn2)C1
REMARK SMILES IDX 18 1 17 2 16 3 15 4 13 5 14 6 12 8 9 9 10 10 89 11 11 12
REMARK SMILES IDX 88 13 8 14 7 15 4 16 5 17 90 18 6 19 2 21 1 22 3 23 19 25
REMARK SMILES IDX 20 26 21 27 22 28 23 29 24 31 25 32 26 33 87 34 27 35 86 36
REMARK SMILES IDX 28 37 29 38 30 39 80 40 31 41 85 42 79 43 81 44 32 45 84 46
REMARK SMILES IDX 78 47 77 48 33 50 65 51 45 52 64 53 46 54 49 55 63 56 82 57
REMARK SMILES IDX 47 58 48 59 62 61 83 62 50 63 34 64 35 65 43 66 36 67 42 68
REMARK SMILES IDX 44 69 41 70 37 71 38 72 39 73 40 74 66 75 67 76 75 77 68 78
REMARK SMILES IDX 74 79 76 80 73 81 69 82 70 83 71 84 72 85 51 86 52 87 60 88
REMARK SMILES IDX 53 89 59 90 61 91 58 92 54 93 55 94 56 95 57 96
REMARK H PARENT 15 7 7 20 2 24 22 30 81 49 49 60
REMARK Flexibility Score: inf
ROOT
ATOM      1  C   UNL     1       6.988   2.063  -0.555  1.00  0.00     0.002 C 
ENDROOT
BRANCH   1   2
ATOM      2  C   UNL     1       6.237   0.934   0.163  1.00  0.00     0.021 C 
BRANCH   2   3
ATOM      3  C   UNL     1       5.076   0.362  -0.650  1.00  0.00     0.116 C 
BRANCH   3   4
ATOM      4  N   UNL     1       5.582  -0.473  -1.728  1.00  0.00    -0.352 N 
ATOM      5  C   UNL     1       5.608  -1.835  -1.884  1.00  0.00     0.252 C 
ATOM      6  O   UNL     1       6.071  -2.306  -2.921  1.00  0.00    -0.269 OA
ATOM      7  H   UNL     1       5.976   0.029  -2.478  1.00  0.00     0.163 HD
BRANCH   5   8
ATOM      8  C   UNL     1       5.008  -2.743  -0.888  1.00  0.00     0.058 A 
ATOM      9  C   UNL     1       3.490  -4.370   0.732  1.00  0.00     0.095 A 
ATOM     10  C   UNL     1       4.308  -3.404   1.317  1.00  0.00     0.030 A 
ATOM     11  N   UNL     1       3.516  -4.626  -0.601  1.00  0.00    -0.255 NA
ATOM     12  C   UNL     1       5.086  -2.589   0.493  1.00  0.00     0.017 A 
ATOM     13  C   UNL     1       4.274  -3.814  -1.376  1.00  0.00     0.125 A 
BRANCH   9  14
ATOM     14  C   UNL     1       2.423  -5.074   1.552  1.00  0.00     0.319 C 
BRANCH  14  15
ATOM     15  N   UNL     1       1.062  -4.496   1.538  1.00  0.00    -0.325 N 
ATOM     16  C   UNL     1       1.048  -2.151   0.935  1.00  0.00     0.245 C 
ATOM     17  C   UNL     1       0.639  -2.969  -0.295  1.00  0.00     0.132 C 
ATOM     18  C   UNL     1       0.940  -3.147   2.111  1.00  0.00     0.328 C 
ATOM     19  C   UNL     1       0.464  -4.402   0.203  1.00  0.00     0.269 C 
ATOM     20  H   UNL     1       0.572  -5.171   2.124  1.00  0.00     0.348 HD
BRANCH  16  21
ATOM     21  N   UNL     1       0.415  -0.833   1.129  1.00  0.00    -0.333 N 
ATOM     22  C   UNL     1       0.821   0.114   0.089  1.00  0.00     0.332 C 
ATOM     23  C   UNL     1      -1.044  -0.871   1.228  1.00  0.00     0.332 C 
ATOM     24  H   UNL     1       0.756  -0.514   2.036  1.00  0.00     0.348 HD
ENDBRANCH  16  21
ENDBRANCH  14  15
ENDBRANCH   9  14
ENDBRANCH   5   8
ENDBRANCH   3   4
ENDBRANCH   2   3
ENDBRANCH   1   2
BRANCH   1  25
ATOM     25  C   UNL     1       6.155   3.319  -0.832  1.00  0.00     0.002 C 
BRANCH  25  26
ATOM     26  C   UNL     1       5.489   3.940   0.399  1.00  0.00     0.021 C 
BRANCH  26  27
ATOM     27  C   UNL     1       6.459   4.367   1.497  1.00  0.00     0.116 C 
BRANCH  27  28
ATOM     28  N   UNL     1       7.356   5.418   1.045  1.00  0.00    -0.352 N 
ATOM     29  C   UNL     1       7.576   6.665   1.576  1.00  0.00     0.251 C 
ATOM     30  H   UNL     1       7.882   5.204   0.241  1.00  0.00     0.163 HD
ATOM     31  O   UNL     1       8.188   7.502   0.920  1.00  0.00    -0.269 OA
BRANCH  29  32
ATOM     32  C   UNL     1       7.062   6.998   2.924  1.00  0.00     0.039 A 
ATOM     33  C   UNL     1       6.481   8.251   3.134  1.00  0.00     0.014 A 
ATOM     34  C   UNL     1       7.174   6.091   3.982  1.00  0.00     0.014 A 
ATOM     35  C   UNL     1       5.967   8.573   4.392  1.00  0.00     0.010 A 
ATOM     36  C   UNL     1       6.595   6.386   5.214  1.00  0.00     0.010 A 
ATOM     37  C   UNL     1       5.992   7.632   5.435  1.00  0.00    -0.014 A 
BRANCH  37  38
ATOM     38  C   UNL     1       5.397   7.945   6.762  1.00  0.00     0.031 A 
ATOM     39  C   UNL     1       6.269   8.009   7.987  1.00  0.00     0.074 A 
ATOM     40  C   UNL     1       4.066   8.126   6.867  1.00  0.00     0.049 A 
ATOM     41  N   UNL     1       5.931   8.222   9.234  1.00  0.00    -0.248 NA
ATOM     42  C   UNL     1       7.706   7.773   7.787  1.00  0.00     0.031 C 
ATOM     43  C   UNL     1       3.113   8.047   5.757  1.00  0.00     0.029 A 
ATOM     44  N   UNL     1       3.280   8.410   7.956  1.00  0.00    -0.354 N 
ATOM     45  C   UNL     1       7.111   8.139   9.967  1.00  0.00     0.074 A 
ATOM     46  C   UNL     1       8.159   7.788   9.032  1.00  0.00     0.031 C 
ATOM     47  C   UNL     1       1.879   8.307   6.217  1.00  0.00     0.029 A 
ATOM     48  C   UNL     1       1.942   8.524   7.659  1.00  0.00     0.049 A 
ATOM     49  H   UNL     1       3.641   8.521   8.866  1.00  0.00     0.167 HD
ATOM     50  C   UNL     1       7.305   8.358  11.292  1.00  0.00     0.034 A 
ATOM     51  C   UNL     1       0.884   8.769   8.457  1.00  0.00     0.034 A 
ATOM     52  C   UNL     1       6.247   8.713  12.209  1.00  0.00     0.049 A 
ATOM     53  C   UNL     1       1.121   8.986   9.930  1.00  0.00     0.074 A 
ATOM     54  C   UNL     1       6.338   9.005  13.559  1.00  0.00     0.029 A 
ATOM     55  N   UNL     1       4.903   8.817  11.872  1.00  0.00    -0.354 N 
ATOM     56  N   UNL     1       2.251   8.955  10.600  1.00  0.00    -0.248 NA
ATOM     57  C   UNL     1      -0.058   9.286  10.752  1.00  0.00     0.031 C 
ATOM     58  C   UNL     1       5.045   9.212  14.052  1.00  0.00     0.029 A 
ATOM     59  C   UNL     1       4.152   9.135  12.995  1.00  0.00     0.049 A 
ATOM     60  H   UNL     1       4.536   8.683  10.969  1.00  0.00     0.167 HD
ATOM     61  C   UNL     1       1.920   9.264  11.916  1.00  0.00     0.074 A 
ATOM     62  C   UNL     1       0.490   9.497  11.939  1.00  0.00     0.031 C 
ATOM     63  C   UNL     1       2.724   9.350  13.008  1.00  0.00     0.034 A 
BRANCH  50  64
ATOM     64  C   UNL     1       8.710   8.191  11.826  1.00  0.00     0.023 A 
ATOM     65  C   UNL     1       9.772   8.996  11.377  1.00  0.00     0.031 A 
ATOM     66  C   UNL     1       8.998   7.198  12.779  1.00  0.00     0.131 A 
ATOM     67  C   UNL     1      11.080   8.742  11.818  1.00  0.00     0.055 A 
ATOM     68  C   UNL     1      10.288   7.008  13.280  1.00  0.00     0.041 A 
ATOM     69  F   UNL     1       8.032   6.383  13.232  1.00  0.00    -0.206 F 
ATOM     70  C   UNL     1      11.342   7.772  12.787  1.00  0.00     0.022 A 
BRANCH  67  71
ATOM     71  S   UNL     1      12.452   9.595  10.993  1.00  0.00     0.124 S 
ATOM     72  O   UNL     1      12.267   9.178   9.605  1.00  0.00    -0.237 OA
ATOM     73  O   UNL     1      12.172  10.997  11.283  1.00  0.00    -0.237 OA
ATOM     74  O   UNL     1      13.639   9.047  11.647  1.00  0.00    -0.744 OA
ENDBRANCH  67  71
ENDBRANCH  50  64
BRANCH  51  75
ATOM     75  C   UNL     1      -0.496   8.817   7.892  1.00  0.00     0.023 A 
ATOM     76  C   UNL     1      -1.253   9.998   7.929  1.00  0.00     0.031 A 
ATOM     77  C   UNL     1      -1.096   7.668   7.346  1.00  0.00     0.131 A 
ATOM     78  C   UNL     1      -2.582   9.993   7.478  1.00  0.00     0.055 A 
ATOM     79  C   UNL     1      -2.398   7.682   6.845  1.00  0.00     0.041 A 
ATOM     80  F   UNL     1      -0.415   6.512   7.281  1.00  0.00    -0.206 F 
ATOM     81  C   UNL     1      -3.155   8.846   6.923  1.00  0.00     0.022 A 
BRANCH  78  82
ATOM     82  S   UNL     1      -3.585  11.486   7.711  1.00  0.00     0.124 S 
ATOM     83  O   UNL     1      -3.511  11.671   9.156  1.00  0.00    -0.237 OA
ATOM     84  O   UNL     1      -2.865  12.463   6.901  1.00  0.00    -0.237 OA
ATOM     85  O   UNL     1      -4.897  11.099   7.197  1.00  0.00    -0.744 OA
ENDBRANCH  78  82
ENDBRANCH  51  75
BRANCH  63  86
ATOM     86  C   UNL     1       2.070   9.758  14.307  1.00  0.00     0.023 A 
ATOM     87  C   UNL     1       1.107   8.950  14.939  1.00  0.00     0.031 A 
ATOM     88  C   UNL     1       2.395  10.988  14.908  1.00  0.00     0.131 A 
ATOM     89  C   UNL     1       0.453   9.412  16.091  1.00  0.00     0.055 A 
ATOM     90  C   UNL     1       1.791  11.410  16.093  1.00  0.00     0.041 A 
ATOM     91  F   UNL     1       3.304  11.803  14.349  1.00  0.00    -0.206 F 
ATOM     92  C   UNL     1       0.802  10.629  16.682  1.00  0.00     0.022 A 
BRANCH  89  93
ATOM     93  S   UNL     1      -0.944   8.455  16.740  1.00  0.00     0.124 S 
ATOM     94  O   UNL     1      -1.835   8.398  15.585  1.00  0.00    -0.237 OA
ATOM     95  O   UNL     1      -0.311   7.196  17.119  1.00  0.00    -0.237 OA
ATOM     96  O   UNL     1      -1.427   9.266  17.856  1.00  0.00    -0.744 OA
ENDBRANCH  89  93
ENDBRANCH  63  86
ENDBRANCH  37  38
ENDBRANCH  29  32
ENDBRANCH  27  28
ENDBRANCH  26  27
ENDBRANCH  25  26
ENDBRANCH   1  25
TORSDOF 19
