REMARK SMILES CC1=Nn2c(nnc(CCC(=O)NCCCCCCNC(=O)c3ccc(-c4c5nc(c(-c6cc(S(=O)(=O)[O-])ccc6F)c6ccc([nH]6)c(-c6cc(S(=O)(=O)[O-])ccc6F)c6nc(c(-c7cc(S(=O)(=O)[O-])ccc7F)c7ccc4[nH]7)C=C6)C=C5)cc3)c2=O)SC1
REMARK SMILES IDX 17 1 16 2 15 3 14 4 13 5 11 6 12 7 10 9 9 10 8 11 1 12 2 13
REMARK SMILES IDX 3 14 89 15 4 16 88 17 5 18 86 19 6 20 87 21 7 22 18 23 19 24
REMARK SMILES IDX 20 25 21 26 22 28 23 29 24 30 85 31 25 32 84 33 26 34 27 35
REMARK SMILES IDX 28 36 78 37 29 38 83 39 77 40 79 41 30 42 82 43 76 44 75 45
REMARK SMILES IDX 31 47 63 48 43 49 62 50 44 51 47 52 61 53 80 54 45 55 46 56
REMARK SMILES IDX 60 58 81 59 48 60 32 61 33 62 41 63 34 64 40 65 42 66 39 67
REMARK SMILES IDX 35 68 36 69 37 70 38 71 64 72 65 73 73 74 66 75 72 76 74 77
REMARK SMILES IDX 71 78 67 79 68 80 69 81 70 82 49 83 50 84 58 85 51 86 57 87
REMARK SMILES IDX 59 88 56 89 52 90 53 91 54 92 55 93
REMARK H PARENT 13 8 20 27 79 46 47 57
REMARK Flexibility Score: inf
ROOT
ATOM      1  C   UNL     1       2.722  -0.857  -1.809  1.00  0.00     0.002 C 
ENDROOT
BRANCH   1   2
ATOM      2  C   UNL     1       1.263  -0.990  -2.262  1.00  0.00     0.002 C 
BRANCH   2   3
ATOM      3  C   UNL     1       0.857  -0.199  -3.510  1.00  0.00     0.021 C 
BRANCH   3   4
ATOM      4  C   UNL     1       1.391  -0.721  -4.844  1.00  0.00     0.116 C 
BRANCH   4   5
ATOM      5  N   UNL     1       0.539  -1.772  -5.383  1.00  0.00    -0.356 N 
ATOM      6  C   UNL     1      -0.312  -1.784  -6.447  1.00  0.00     0.220 C 
ATOM      7  O   UNL     1      -0.934  -2.821  -6.686  1.00  0.00    -0.275 OA
ATOM      8  H   UNL     1       0.586  -2.624  -4.892  1.00  0.00     0.163 HD
BRANCH   6   9
ATOM      9  C   UNL     1      -0.492  -0.562  -7.324  1.00  0.00     0.106 C 
BRANCH   9  10
ATOM     10  C   UNL     1      -1.877   0.059  -7.154  1.00  0.00     0.074 C 
BRANCH  10  11
ATOM     11  C   UNL     1      -1.851   1.148  -6.109  1.00  0.00     0.131 A 
ATOM     12  C   UNL     1      -1.588   1.367  -0.118  1.00  0.00     0.064 C 
ATOM     13  C   UNL     1      -1.553   1.976  -1.500  1.00  0.00     0.046 C 
ATOM     14  N   UNL     1      -2.142   1.323  -2.455  1.00  0.00    -0.172 NA
ATOM     15  C   UNL     1      -0.702   3.200  -1.699  1.00  0.00     0.131 C 
ATOM     16  N   UNL     1      -2.004   1.742  -3.771  1.00  0.00    -0.169 N 
ATOM     17  S   UNL     1      -1.407   4.227  -2.978  1.00  0.00    -0.078 SA
ATOM     18  C   UNL     1      -1.558   2.977  -4.183  1.00  0.00     0.214 A 
ATOM     19  C   UNL     1      -2.363   0.819  -4.733  1.00  0.00     0.296 A 
ATOM     20  N   UNL     1      -1.268   3.280  -5.406  1.00  0.00    -0.123 NA
ATOM     21  O   UNL     1      -2.988  -0.222  -4.569  1.00  0.00    -0.265 OA
ATOM     22  N   UNL     1      -1.327   2.298  -6.398  1.00  0.00    -0.147 NA
ENDBRANCH  10  11
ENDBRANCH   9  10
ENDBRANCH   6   9
ENDBRANCH   4   5
ENDBRANCH   3   4
ENDBRANCH   2   3
ENDBRANCH   1   2
BRANCH   1  23
ATOM     23  C   UNL     1       3.262   0.560  -1.571  1.00  0.00     0.021 C 
BRANCH  23  24
ATOM     24  C   UNL     1       2.523   1.429  -0.552  1.00  0.00     0.116 C 
BRANCH  24  25
ATOM     25  N   UNL     1       2.551   0.928   0.807  1.00  0.00    -0.352 N 
ATOM     26  C   UNL     1       2.606   1.636   1.989  1.00  0.00     0.251 C 
ATOM     27  H   UNL     1       2.528  -0.052   0.900  1.00  0.00     0.163 HD
ATOM     28  O   UNL     1       2.623   1.036   3.059  1.00  0.00    -0.269 OA
BRANCH  26  29
ATOM     29  C   UNL     1       2.683   3.117   1.973  1.00  0.00     0.039 A 
ATOM     30  C   UNL     1       3.769   3.736   2.593  1.00  0.00     0.014 A 
ATOM     31  C   UNL     1       1.690   3.896   1.371  1.00  0.00     0.014 A 
ATOM     32  C   UNL     1       3.899   5.128   2.544  1.00  0.00     0.010 A 
ATOM     33  C   UNL     1       1.841   5.287   1.288  1.00  0.00     0.010 A 
ATOM     34  C   UNL     1       2.958   5.918   1.859  1.00  0.00    -0.014 A 
BRANCH  34  35
ATOM     35  C   UNL     1       3.194   7.383   1.700  1.00  0.00     0.031 A 
ATOM     36  C   UNL     1       2.343   8.402   2.410  1.00  0.00     0.074 A 
ATOM     37  C   UNL     1       4.209   7.803   0.917  1.00  0.00     0.049 A 
ATOM     38  N   UNL     1       2.469   9.706   2.433  1.00  0.00    -0.248 NA
ATOM     39  C   UNL     1       1.200   7.895   3.180  1.00  0.00     0.031 C 
ATOM     40  C   UNL     1       5.095   6.928   0.145  1.00  0.00     0.029 A 
ATOM     41  N   UNL     1       4.683   9.066   0.655  1.00  0.00    -0.354 N 
ATOM     42  C   UNL     1       1.434  10.178   3.231  1.00  0.00     0.074 A 
ATOM     43  C   UNL     1       0.656   9.020   3.627  1.00  0.00     0.031 C 
ATOM     44  C   UNL     1       6.031   7.675  -0.461  1.00  0.00     0.029 A 
ATOM     45  C   UNL     1       5.800   9.083  -0.149  1.00  0.00     0.049 A 
ATOM     46  H   UNL     1       4.263   9.883   1.009  1.00  0.00     0.167 HD
ATOM     47  C   UNL     1       1.168  11.450   3.619  1.00  0.00     0.034 A 
ATOM     48  C   UNL     1       6.563  10.107  -0.580  1.00  0.00     0.034 A 
ATOM     49  C   UNL     1       1.942  12.604   3.233  1.00  0.00     0.049 A 
ATOM     50  C   UNL     1       6.228  11.514  -0.163  1.00  0.00     0.074 A 
ATOM     51  C   UNL     1       1.769  13.925   3.616  1.00  0.00     0.029 A 
ATOM     52  N   UNL     1       3.031  12.584   2.373  1.00  0.00    -0.354 N 
ATOM     53  N   UNL     1       5.258  11.932   0.613  1.00  0.00    -0.248 NA
ATOM     54  C   UNL     1       7.092  12.585  -0.680  1.00  0.00     0.031 C 
ATOM     55  C   UNL     1       2.718  14.707   2.949  1.00  0.00     0.029 A 
ATOM     56  C   UNL     1       3.520  13.869   2.193  1.00  0.00     0.049 A 
ATOM     57  H   UNL     1       3.402  11.775   1.952  1.00  0.00     0.167 HD
ATOM     58  C   UNL     1       5.406  13.314   0.690  1.00  0.00     0.074 A 
ATOM     59  C   UNL     1       6.561  13.659  -0.112  1.00  0.00     0.031 C 
ATOM     60  C   UNL     1       4.655  14.213   1.373  1.00  0.00     0.034 A 
BRANCH  47  61
ATOM     61  C   UNL     1      -0.025  11.668   4.514  1.00  0.00     0.023 A 
ATOM     62  C   UNL     1      -0.029  11.216   5.844  1.00  0.00     0.031 A 
ATOM     63  C   UNL     1      -1.155  12.357   4.043  1.00  0.00     0.131 A 
ATOM     64  C   UNL     1      -1.162  11.417   6.645  1.00  0.00     0.055 A 
ATOM     65  C   UNL     1      -2.256  12.608   4.864  1.00  0.00     0.041 A 
ATOM     66  F   UNL     1      -1.207  12.800   2.776  1.00  0.00    -0.206 F 
ATOM     67  C   UNL     1      -2.267  12.130   6.172  1.00  0.00     0.022 A 
BRANCH  64  68
ATOM     68  S   UNL     1      -1.205  10.664   8.293  1.00  0.00     0.124 S 
ATOM     69  O   UNL     1      -1.199   9.241   7.964  1.00  0.00    -0.237 OA
ATOM     70  O   UNL     1       0.010  11.181   8.912  1.00  0.00    -0.237 OA
ATOM     71  O   UNL     1      -2.455  11.161   8.865  1.00  0.00    -0.744 OA
ENDBRANCH  64  68
ENDBRANCH  47  61
BRANCH  48  72
ATOM     72  C   UNL     1       7.733   9.842  -1.461  1.00  0.00     0.023 A 
ATOM     73  C   UNL     1       9.043   9.999  -0.984  1.00  0.00     0.031 A 
ATOM     74  C   UNL     1       7.553   9.440  -2.795  1.00  0.00     0.131 A 
ATOM     75  C   UNL     1      10.128   9.779  -1.847  1.00  0.00     0.055 A 
ATOM     76  C   UNL     1       8.635   9.190  -3.639  1.00  0.00     0.041 A 
ATOM     77  F   UNL     1       6.316   9.267  -3.289  1.00  0.00    -0.206 F 
ATOM     78  C   UNL     1       9.932   9.365  -3.167  1.00  0.00     0.022 A 
BRANCH  75  79
ATOM     79  S   UNL     1      11.808  10.063  -1.225  1.00  0.00     0.124 S 
ATOM     80  O   UNL     1      11.794  11.502  -0.983  1.00  0.00    -0.237 OA
ATOM     81  O   UNL     1      11.843   9.212  -0.041  1.00  0.00    -0.237 OA
ATOM     82  O   UNL     1      12.657   9.622  -2.329  1.00  0.00    -0.744 OA
ENDBRANCH  75  79
ENDBRANCH  48  72
BRANCH  60  83
ATOM     83  C   UNL     1       5.066  15.659   1.296  1.00  0.00     0.023 A 
ATOM     84  C   UNL     1       4.864  16.419   0.132  1.00  0.00     0.031 A 
ATOM     85  C   UNL     1       5.639  16.292   2.413  1.00  0.00     0.131 A 
ATOM     86  C   UNL     1       5.260  17.765   0.100  1.00  0.00     0.055 A 
ATOM     87  C   UNL     1       5.994  17.642   2.389  1.00  0.00     0.041 A 
ATOM     88  F   UNL     1       5.851  15.609   3.550  1.00  0.00    -0.206 F 
ATOM     89  C   UNL     1       5.809  18.384   1.226  1.00  0.00     0.022 A 
BRANCH  86  90
ATOM     90  S   UNL     1       5.072  18.697  -1.445  1.00  0.00     0.124 S 
ATOM     91  O   UNL     1       6.020  18.019  -2.323  1.00  0.00    -0.237 OA
ATOM     92  O   UNL     1       3.660  18.505  -1.761  1.00  0.00    -0.237 OA
ATOM     93  O   UNL     1       5.439  20.061  -1.069  1.00  0.00    -0.744 OA
ENDBRANCH  86  90
ENDBRANCH  60  83
ENDBRANCH  34  35
ENDBRANCH  26  29
ENDBRANCH  24  25
ENDBRANCH  23  24
ENDBRANCH   1  23
TORSDOF 18
