REMARK SMILES C[N@H+]1Cc2ccccc2C[C@@H]1C(=O)NCCC(=O)NCC(=O)NCCCCCCNC(=O)c1ccc(-c2c3nc(c(-c4cc(S(=O)(=O)[O-])ccc4F)c4ccc([nH]4)c(-c4cc(S(=O)(=O)[O-])ccc4F)c4nc(c(-c5cc(S(=O)(=O)[O-])ccc5F)c5ccc2[nH]5)C=C4)C=C3)cc1
REMARK SMILES IDX 25 1 24 2 23 3 21 4 22 5 20 7 19 8 17 9 18 10 16 12 15 13
REMARK SMILES IDX 14 14 12 15 13 16 11 18 1 19 2 20 3 21 4 23 10 24 5 25 9 26
REMARK SMILES IDX 6 27 8 28 7 29 26 30 27 31 28 32 29 33 30 34 31 35 32 37
REMARK SMILES IDX 33 38 34 39 95 40 35 41 94 42 36 43 37 44 38 45 88 46 39 47
REMARK SMILES IDX 93 48 87 49 89 50 40 51 92 52 86 53 85 54 41 56 73 57 53 58
REMARK SMILES IDX 72 59 54 60 57 61 71 62 90 63 55 64 56 65 70 67 91 68 58 69
REMARK SMILES IDX 42 70 43 71 51 72 44 73 50 74 52 75 49 76 45 77 46 78 47 79
REMARK SMILES IDX 48 80 74 81 75 82 83 83 76 84 82 85 84 86 81 87 77 88 78 89
REMARK SMILES IDX 79 90 80 91 59 92 60 93 68 94 61 95 67 96 69 97 66 98 62 99
REMARK SMILES IDX 63 100 64 101 65 102
REMARK H PARENT 23 6 19 11 14 17 2 22 30 36 89 55 57 66
REMARK Flexibility Score: inf
ROOT
ATOM      1  C   UNL     1      -5.414   4.545   3.766  1.00  0.00     0.021 C 
ENDROOT
BRANCH   1   2
ATOM      2  C   UNL     1      -4.884   4.082   2.419  1.00  0.00     0.116 C 
BRANCH   2   3
ATOM      3  N   UNL     1      -5.893   3.460   1.577  1.00  0.00    -0.355 N 
ATOM      4  C   UNL     1      -6.290   3.650   0.285  1.00  0.00     0.239 C 
ATOM      5  O   UNL     1      -7.167   2.888  -0.137  1.00  0.00    -0.273 OA
ATOM      6  H   UNL     1      -6.397   2.750   2.036  1.00  0.00     0.163 HD
BRANCH   4   7
ATOM      7  C   UNL     1      -5.596   4.626  -0.694  1.00  0.00     0.216 C 
BRANCH   7   8
ATOM      8  N   UNL     1      -4.998   5.822  -0.132  1.00  0.00    -0.347 N 
ATOM      9  C   UNL     1      -3.695   6.195  -0.020  1.00  0.00     0.222 C 
ATOM     10  O   UNL     1      -3.448   7.223   0.613  1.00  0.00    -0.275 OA
ATOM     11  H   UNL     1      -5.644   6.472   0.228  1.00  0.00     0.164 HD
BRANCH   9  12
ATOM     12  C   UNL     1      -2.578   5.365  -0.619  1.00  0.00     0.121 C 
BRANCH  12  13
ATOM     13  C   UNL     1      -2.061   4.257   0.303  1.00  0.00     0.126 C 
BRANCH  13  14
ATOM     14  N   UNL     1      -2.871   3.044   0.235  1.00  0.00    -0.350 N 
ATOM     15  C   UNL     1      -2.775   1.977  -0.600  1.00  0.00     0.278 C 
ATOM     16  O   UNL     1      -3.785   1.728  -1.272  1.00  0.00    -0.268 OA
ATOM     17  H   UNL     1      -3.599   2.992   0.895  1.00  0.00     0.163 HD
BRANCH  15  18
ATOM     18  C   UNL     1      -1.583   0.999  -0.580  1.00  0.00     0.278 C 
ATOM     19  C   UNL     1      -3.201  -0.798   0.007  1.00  0.00     0.333 C 
ATOM     20  N   UNL     1      -1.875  -0.220   0.247  1.00  0.00    -0.323 N 
ATOM     21  C   UNL     1      -0.854  -1.251  -0.044  1.00  0.00     0.299 C 
ATOM     22  H   UNL     1      -1.853   0.079   1.222  1.00  0.00     0.348 HD
ATOM     23  C   UNL     1       0.571  -0.747   0.004  1.00  0.00     0.010 A 
ATOM     24  C   UNL     1      -0.280   1.618  -0.067  1.00  0.00     0.111 C 
ATOM     25  C   UNL     1       1.636  -1.658   0.014  1.00  0.00     0.010 A 
ATOM     26  C   UNL     1       0.851   0.627  -0.027  1.00  0.00    -0.033 A 
ATOM     27  C   UNL     1       2.956  -1.203   0.028  1.00  0.00     0.001 A 
ATOM     28  C   UNL     1       2.176   1.078   0.017  1.00  0.00     0.004 A 
ATOM     29  C   UNL     1       3.224   0.163   0.039  1.00  0.00     0.000 A 
ENDBRANCH  15  18
ENDBRANCH  13  14
ENDBRANCH  12  13
ENDBRANCH   9  12
ENDBRANCH   7   8
ENDBRANCH   4   7
ENDBRANCH   2   3
ENDBRANCH   1   2
BRANCH   1  30
ATOM     30  C   UNL     1      -5.602   3.423   4.788  1.00  0.00     0.002 C 
BRANCH  30  31
ATOM     31  C   UNL     1      -4.360   2.574   5.090  1.00  0.00     0.002 C 
BRANCH  31  32
ATOM     32  C   UNL     1      -3.090   3.339   5.478  1.00  0.00     0.021 C 
BRANCH  32  33
ATOM     33  C   UNL     1      -3.238   4.326   6.633  1.00  0.00     0.116 C 
BRANCH  33  34
ATOM     34  N   UNL     1      -3.781   3.708   7.828  1.00  0.00    -0.352 N 
ATOM     35  C   UNL     1      -3.363   3.782   9.130  1.00  0.00     0.251 C 
ATOM     36  H   UNL     1      -4.576   3.146   7.680  1.00  0.00     0.163 HD
ATOM     37  O   UNL     1      -3.886   3.041   9.966  1.00  0.00    -0.269 OA
BRANCH  35  38
ATOM     38  C   UNL     1      -2.285   4.710   9.537  1.00  0.00     0.039 A 
ATOM     39  C   UNL     1      -1.349   4.268  10.477  1.00  0.00     0.014 A 
ATOM     40  C   UNL     1      -2.203   6.014   9.038  1.00  0.00     0.014 A 
ATOM     41  C   UNL     1      -0.310   5.111  10.877  1.00  0.00     0.010 A 
ATOM     42  C   UNL     1      -1.123   6.829   9.383  1.00  0.00     0.010 A 
ATOM     43  C   UNL     1      -0.167   6.388  10.310  1.00  0.00    -0.014 A 
BRANCH  43  44
ATOM     44  C   UNL     1       0.983   7.255  10.683  1.00  0.00     0.031 A 
ATOM     45  C   UNL     1       0.759   8.560  11.401  1.00  0.00     0.074 A 
ATOM     46  C   UNL     1       2.234   6.869  10.359  1.00  0.00     0.049 A 
ATOM     47  N   UNL     1       1.638   9.441  11.808  1.00  0.00    -0.248 NA
ATOM     48  C   UNL     1      -0.636   8.934  11.678  1.00  0.00     0.031 C 
ATOM     49  C   UNL     1       2.574   5.644   9.630  1.00  0.00     0.029 A 
ATOM     50  N   UNL     1       3.451   7.455  10.602  1.00  0.00    -0.354 N 
ATOM     51  C   UNL     1       0.905  10.470  12.391  1.00  0.00     0.074 A 
ATOM     52  C   UNL     1      -0.492  10.133  12.222  1.00  0.00     0.031 C 
ATOM     53  C   UNL     1       3.909   5.551   9.523  1.00  0.00     0.029 A 
ATOM     54  C   UNL     1       4.521   6.729  10.130  1.00  0.00     0.049 A 
ATOM     55  H   UNL     1       3.549   8.315  11.072  1.00  0.00     0.167 HD
ATOM     56  C   UNL     1       1.357  11.577  13.032  1.00  0.00     0.034 A 
ATOM     57  C   UNL     1       5.843   6.984  10.175  1.00  0.00     0.034 A 
ATOM     58  C   UNL     1       2.755  11.899  13.193  1.00  0.00     0.049 A 
ATOM     59  C   UNL     1       6.316   8.242  10.861  1.00  0.00     0.074 A 
ATOM     60  C   UNL     1       3.321  12.976  13.855  1.00  0.00     0.029 A 
ATOM     61  N   UNL     1       3.809  11.151  12.684  1.00  0.00    -0.354 N 
ATOM     62  N   UNL     1       5.608   9.178  11.453  1.00  0.00    -0.248 NA
ATOM     63  C   UNL     1       7.765   8.469  10.898  1.00  0.00     0.031 C 
ATOM     64  C   UNL     1       4.708  12.918  13.684  1.00  0.00     0.029 A 
ATOM     65  C   UNL     1       5.018  11.760  12.989  1.00  0.00     0.049 A 
ATOM     66  H   UNL     1       3.713  10.311  12.179  1.00  0.00     0.167 HD
ATOM     67  C   UNL     1       6.534  10.086  11.962  1.00  0.00     0.074 A 
ATOM     68  C   UNL     1       7.846   9.570  11.630  1.00  0.00     0.031 C 
ATOM     69  C   UNL     1       6.321  11.242  12.642  1.00  0.00     0.034 A 
BRANCH  56  70
ATOM     70  C   UNL     1       0.325  12.532  13.587  1.00  0.00     0.023 A 
ATOM     71  C   UNL     1      -0.569  12.144  14.601  1.00  0.00     0.031 A 
ATOM     72  C   UNL     1       0.229  13.846  13.096  1.00  0.00     0.131 A 
ATOM     73  C   UNL     1      -1.558  13.035  15.045  1.00  0.00     0.055 A 
ATOM     74  C   UNL     1      -0.706  14.755  13.598  1.00  0.00     0.041 A 
ATOM     75  F   UNL     1       1.039  14.270  12.113  1.00  0.00    -0.206 F 
ATOM     76  C   UNL     1      -1.615  14.347  14.569  1.00  0.00     0.022 A 
BRANCH  73  77
ATOM     77  S   UNL     1      -2.851  12.414  16.155  1.00  0.00     0.124 S 
ATOM     78  O   UNL     1      -3.444  11.349  15.349  1.00  0.00    -0.237 OA
ATOM     79  O   UNL     1      -2.087  11.984  17.320  1.00  0.00    -0.237 OA
ATOM     80  O   UNL     1      -3.710  13.577  16.365  1.00  0.00    -0.744 OA
ENDBRANCH  73  77
ENDBRANCH  56  70
BRANCH  57  81
ATOM     81  C   UNL     1       6.824   6.045   9.554  1.00  0.00     0.023 A 
ATOM     82  C   UNL     1       7.807   5.408  10.329  1.00  0.00     0.031 A 
ATOM     83  C   UNL     1       6.838   5.825   8.165  1.00  0.00     0.131 A 
ATOM     84  C   UNL     1       8.800   4.636   9.705  1.00  0.00     0.055 A 
ATOM     85  C   UNL     1       7.788   5.003   7.557  1.00  0.00     0.041 A 
ATOM     86  F   UNL     1       5.922   6.407   7.375  1.00  0.00    -0.206 F 
ATOM     87  C   UNL     1       8.788   4.417   8.326  1.00  0.00     0.022 A 
BRANCH  84  88
ATOM     88  S   UNL     1      10.178   4.020  10.711  1.00  0.00     0.124 S 
ATOM     89  O   UNL     1      10.697   5.254  11.290  1.00  0.00    -0.237 OA
ATOM     90  O   UNL     1       9.500   3.114  11.631  1.00  0.00    -0.237 OA
ATOM     91  O   UNL     1      11.050   3.375   9.732  1.00  0.00    -0.744 OA
ENDBRANCH  84  88
ENDBRANCH  57  81
BRANCH  69  92
ATOM     92  C   UNL     1       7.545  11.996  13.107  1.00  0.00     0.023 A 
ATOM     93  C   UNL     1       8.462  12.552  12.197  1.00  0.00     0.031 A 
ATOM     94  C   UNL     1       7.817  12.129  14.480  1.00  0.00     0.131 A 
ATOM     95  C   UNL     1       9.643  13.145  12.668  1.00  0.00     0.055 A 
ATOM     96  C   UNL     1       8.957  12.785  14.945  1.00  0.00     0.041 A 
ATOM     97  F   UNL     1       6.979  11.616  15.396  1.00  0.00    -0.206 F 
ATOM     98  C   UNL     1       9.887  13.282  14.036  1.00  0.00     0.022 A 
BRANCH  95  99
ATOM     99  S   UNL     1      10.913  13.625  11.465  1.00  0.00     0.124 S 
ATOM    100  O   UNL     1      11.165  12.366  10.771  1.00  0.00    -0.237 OA
ATOM    101  O   UNL     1      10.233  14.656  10.688  1.00  0.00    -0.237 OA
ATOM    102  O   UNL     1      12.013  14.104  12.300  1.00  0.00    -0.744 OA
ENDBRANCH  95  99
ENDBRANCH  69  92
ENDBRANCH  43  44
ENDBRANCH  35  38
ENDBRANCH  33  34
ENDBRANCH  32  33
ENDBRANCH  31  32
ENDBRANCH  30  31
ENDBRANCH   1  30
TORSDOF 21
