REMARK SMILES O=C(C[N@@H+](Cc1nc(-c2ccco2)no1)CC(F)(F)F)NCCCCCCNC(=O)c1ccc(-c2c3nc(c(-c4cc(S(=O)(=O)[O-])ccc4F)c4ccc([nH]4)c(-c4cc(S(=O)(=O)[O-])ccc4F)c4nc(c(-c5cc(S(=O)(=O)[O-])ccc5F)c5ccc2[nH]5)C=C4)C=C3)cc1
REMARK SMILES IDX 24 1 23 2 22 3 21 4 1 5 2 6 3 8 4 9 5 11 6 12 7 13 15 14
REMARK SMILES IDX 8 15 14 16 9 17 10 18 13 19 11 20 12 21 16 22 17 23 18 24
REMARK SMILES IDX 19 25 20 26 25 27 26 28 27 29 28 30 29 31 30 33 31 34 32 35
REMARK SMILES IDX 93 36 33 37 92 38 34 39 35 40 36 41 86 42 37 43 91 44 85 45
REMARK SMILES IDX 87 46 38 47 90 48 84 49 83 50 39 52 71 53 51 54 70 55 52 56
REMARK SMILES IDX 55 57 69 58 88 59 53 60 54 61 68 63 89 64 56 65 40 66 41 67
REMARK SMILES IDX 49 68 42 69 48 70 50 71 47 72 43 73 44 74 45 75 46 76 72 77
REMARK SMILES IDX 73 78 81 79 74 80 80 81 82 82 79 83 75 84 76 85 77 86 78 87
REMARK SMILES IDX 57 88 58 89 66 90 59 91 65 92 67 93 64 94 60 95 61 96 62 97
REMARK SMILES IDX 63 98
REMARK H PARENT 21 7 4 10 28 32 87 51 55 62
REMARK Flexibility Score: inf
ROOT
ATOM      1  C   UNL     1       4.238  -3.313   1.525  1.00  0.00     0.002 C 
ENDROOT
BRANCH   1   2
ATOM      2  C   UNL     1       2.733  -3.127   1.299  1.00  0.00     0.021 C 
BRANCH   2   3
ATOM      3  C   UNL     1       2.211  -1.750   1.704  1.00  0.00     0.116 C 
BRANCH   3   4
ATOM      4  N   UNL     1       2.807  -0.709   0.894  1.00  0.00    -0.351 N 
ATOM      5  O   UNL     1       0.853  -0.084  -0.127  1.00  0.00    -0.269 OA
ATOM      6  C   UNL     1       2.070   0.021  -0.005  1.00  0.00     0.275 C 
ATOM      7  H   UNL     1       3.769  -0.519   0.991  1.00  0.00     0.163 HD
BRANCH   6   8
ATOM      8  C   UNL     1       2.886   0.954  -0.896  1.00  0.00     0.364 C 
BRANCH   8   9
ATOM      9  N   UNL     1       3.716   1.928  -0.150  1.00  0.00    -0.312 N 
ATOM     10  H   UNL     1       4.381   1.371   0.386  1.00  0.00     0.349 HD
BRANCH   9  11
ATOM     11  C   UNL     1       4.522   2.785  -1.065  1.00  0.00     0.364 C 
BRANCH  11  12
ATOM     12  C   UNL     1       3.814   3.778  -1.939  1.00  0.00     0.282 A 
ATOM     13  N   UNL     1       4.101   5.040  -2.185  1.00  0.00    -0.183 NA
ATOM     14  O   UNL     1       2.646   3.381  -2.517  1.00  0.00    -0.333 OA
ATOM     15  C   UNL     1       2.943   5.478  -2.798  1.00  0.00     0.238 A 
ATOM     16  N   UNL     1       2.046   4.515  -3.038  1.00  0.00    -0.053 NA
BRANCH  15  17
ATOM     17  C   UNL     1       2.656   6.908  -3.085  1.00  0.00     0.174 A 
ATOM     18  C   UNL     1       3.588   7.914  -3.251  1.00  0.00     0.054 A 
ATOM     19  O   UNL     1       1.397   7.436  -3.191  1.00  0.00    -0.461 OA
ATOM     20  C   UNL     1       2.861   9.115  -3.446  1.00  0.00     0.043 A 
ATOM     21  C   UNL     1       1.532   8.775  -3.354  1.00  0.00     0.196 A 
ENDBRANCH  15  17
ENDBRANCH  11  12
ENDBRANCH   9  11
BRANCH   9  22
ATOM     22  C   UNL     1       2.985   2.690   0.906  1.00  0.00     0.380 C 
BRANCH  22  23
ATOM     23  C   UNL     1       1.774   3.609   0.620  1.00  0.00     0.438 C 
ATOM     24  F   UNL     1       0.921   3.072  -0.271  1.00  0.00    -0.165 F 
ATOM     25  F   UNL     1       1.087   3.845   1.762  1.00  0.00    -0.165 F 
ATOM     26  F   UNL     1       2.182   4.809   0.152  1.00  0.00    -0.165 F 
ENDBRANCH  22  23
ENDBRANCH   9  22
ENDBRANCH   8   9
ENDBRANCH   6   8
ENDBRANCH   3   4
ENDBRANCH   2   3
ENDBRANCH   1   2
BRANCH   1  27
ATOM     27  C   UNL     1       4.709  -3.080   2.964  1.00  0.00     0.002 C 
BRANCH  27  28
ATOM     28  C   UNL     1       4.005  -3.935   4.020  1.00  0.00     0.021 C 
BRANCH  28  29
ATOM     29  C   UNL     1       4.131  -5.440   3.806  1.00  0.00     0.116 C 
BRANCH  29  30
ATOM     30  N   UNL     1       5.510  -5.890   3.891  1.00  0.00    -0.352 N 
ATOM     31  C   UNL     1       6.044  -6.908   4.640  1.00  0.00     0.251 C 
ATOM     32  H   UNL     1       6.152  -5.394   3.333  1.00  0.00     0.163 HD
ATOM     33  O   UNL     1       7.267  -7.008   4.742  1.00  0.00    -0.269 OA
BRANCH  31  34
ATOM     34  C   UNL     1       5.154  -7.862   5.338  1.00  0.00     0.039 A 
ATOM     35  C   UNL     1       5.470  -8.256   6.640  1.00  0.00     0.014 A 
ATOM     36  C   UNL     1       4.018  -8.380   4.708  1.00  0.00     0.014 A 
ATOM     37  C   UNL     1       4.624  -9.132   7.324  1.00  0.00     0.010 A 
ATOM     38  C   UNL     1       3.135  -9.189   5.419  1.00  0.00     0.010 A 
ATOM     39  C   UNL     1       3.435  -9.587   6.731  1.00  0.00    -0.014 A 
BRANCH  39  40
ATOM     40  C   UNL     1       2.519 -10.514   7.449  1.00  0.00     0.031 A 
ATOM     41  C   UNL     1       2.271 -11.895   6.899  1.00  0.00     0.074 A 
ATOM     42  C   UNL     1       1.887 -10.109   8.569  1.00  0.00     0.049 A 
ATOM     43  N   UNL     1       1.452 -12.823   7.325  1.00  0.00    -0.248 NA
ATOM     44  C   UNL     1       3.026 -12.272   5.693  1.00  0.00     0.031 C 
ATOM     45  C   UNL     1       2.023  -8.788   9.186  1.00  0.00     0.029 A 
ATOM     46  N   UNL     1       0.999 -10.764   9.387  1.00  0.00    -0.354 N 
ATOM     47  C   UNL     1       1.595 -13.890   6.444  1.00  0.00     0.074 A 
ATOM     48  C   UNL     1       2.519 -13.463   5.415  1.00  0.00     0.031 C 
ATOM     49  C   UNL     1       1.264  -8.738  10.293  1.00  0.00     0.029 A 
ATOM     50  C   UNL     1       0.549 -10.001  10.442  1.00  0.00     0.049 A 
ATOM     51  H   UNL     1       0.712 -11.693   9.234  1.00  0.00     0.167 HD
ATOM     52  C   UNL     1       1.037 -15.124   6.504  1.00  0.00     0.034 A 
ATOM     53  C   UNL     1      -0.351 -10.282  11.407  1.00  0.00     0.034 A 
ATOM     54  C   UNL     1       0.120 -15.540   7.536  1.00  0.00     0.049 A 
ATOM     55  C   UNL     1      -0.994 -11.650  11.425  1.00  0.00     0.074 A 
ATOM     56  C   UNL     1      -0.501 -16.767   7.694  1.00  0.00     0.029 A 
ATOM     57  N   UNL     1      -0.303 -14.743   8.592  1.00  0.00    -0.354 N 
ATOM     58  N   UNL     1      -0.827 -12.654  10.594  1.00  0.00    -0.248 NA
ATOM     59  C   UNL     1      -1.928 -11.930  12.523  1.00  0.00     0.031 C 
ATOM     60  C   UNL     1      -1.345 -16.693   8.807  1.00  0.00     0.029 A 
ATOM     61  C   UNL     1      -1.185 -15.449   9.396  1.00  0.00     0.049 A 
ATOM     62  H   UNL     1      -0.019 -13.814   8.747  1.00  0.00     0.167 HD
ATOM     63  C   UNL     1      -1.599 -13.698  11.102  1.00  0.00     0.074 A 
ATOM     64  C   UNL     1      -2.215 -13.206  12.315  1.00  0.00     0.031 C 
ATOM     65  C   UNL     1      -1.780 -14.951  10.613  1.00  0.00     0.034 A 
BRANCH  52  66
ATOM     66  C   UNL     1       1.401 -16.106   5.417  1.00  0.00     0.023 A 
ATOM     67  C   UNL     1       2.722 -16.560   5.253  1.00  0.00     0.031 A 
ATOM     68  C   UNL     1       0.424 -16.595   4.532  1.00  0.00     0.131 A 
ATOM     69  C   UNL     1       3.042 -17.421   4.193  1.00  0.00     0.055 A 
ATOM     70  C   UNL     1       0.733 -17.517   3.530  1.00  0.00     0.041 A 
ATOM     71  F   UNL     1      -0.850 -16.180   4.623  1.00  0.00    -0.206 F 
ATOM     72  C   UNL     1       2.051 -17.926   3.348  1.00  0.00     0.022 A 
BRANCH  69  73
ATOM     73  S   UNL     1       4.789 -17.771   3.859  1.00  0.00     0.124 S 
ATOM     74  O   UNL     1       5.306 -16.434   3.574  1.00  0.00    -0.237 OA
ATOM     75  O   UNL     1       5.236 -18.376   5.108  1.00  0.00    -0.237 OA
ATOM     76  O   UNL     1       4.744 -18.672   2.709  1.00  0.00    -0.744 OA
ENDBRANCH  69  73
ENDBRANCH  52  66
BRANCH  53  77
ATOM     77  C   UNL     1      -0.725  -9.259  12.429  1.00  0.00     0.023 A 
ATOM     78  C   UNL     1      -0.523  -9.493  13.799  1.00  0.00     0.031 A 
ATOM     79  C   UNL     1      -1.375  -8.068  12.057  1.00  0.00     0.131 A 
ATOM     80  C   UNL     1      -1.040  -8.596  14.748  1.00  0.00     0.055 A 
ATOM     81  C   UNL     1      -1.820  -7.142  13.002  1.00  0.00     0.041 A 
ATOM     82  F   UNL     1      -1.593  -7.788  10.762  1.00  0.00    -0.206 F 
ATOM     83  C   UNL     1      -1.673  -7.414  14.358  1.00  0.00     0.022 A 
BRANCH  80  84
ATOM     84  S   UNL     1      -1.001  -9.069  16.499  1.00  0.00     0.124 S 
ATOM     85  O   UNL     1      -1.674 -10.363  16.469  1.00  0.00    -0.237 OA
ATOM     86  O   UNL     1       0.432  -9.097  16.772  1.00  0.00    -0.237 OA
ATOM     87  O   UNL     1      -1.740  -7.994  17.157  1.00  0.00    -0.744 OA
ENDBRANCH  80  84
ENDBRANCH  53  77
BRANCH  65  88
ATOM     88  C   UNL     1      -2.613 -15.903  11.440  1.00  0.00     0.023 A 
ATOM     89  C   UNL     1      -3.981 -15.688  11.678  1.00  0.00     0.031 A 
ATOM     90  C   UNL     1      -2.014 -17.039  12.015  1.00  0.00     0.131 A 
ATOM     91  C   UNL     1      -4.688 -16.555  12.526  1.00  0.00     0.055 A 
ATOM     92  C   UNL     1      -2.739 -17.937  12.799  1.00  0.00     0.041 A 
ATOM     93  F   UNL     1      -0.709 -17.295  11.824  1.00  0.00    -0.206 F 
ATOM     94  C   UNL     1      -4.080 -17.688  13.072  1.00  0.00     0.022 A 
BRANCH  91  95
ATOM     95  S   UNL     1      -6.384 -16.119  12.999  1.00  0.00     0.124 S 
ATOM     96  O   UNL     1      -6.206 -14.792  13.579  1.00  0.00    -0.237 OA
ATOM     97  O   UNL     1      -7.085 -16.166  11.720  1.00  0.00    -0.237 OA
ATOM     98  O   UNL     1      -6.755 -17.167  13.948  1.00  0.00    -0.744 OA
ENDBRANCH  91  95
ENDBRANCH  65  88
ENDBRANCH  39  40
ENDBRANCH  31  34
ENDBRANCH  29  30
ENDBRANCH  28  29
ENDBRANCH  27  28
ENDBRANCH   1  27
TORSDOF 22
