REMARK SMILES C=CC[N@@H+](CC(=O)NCCCCCCNC(=O)c1ccc(-c2c3nc(c(-c4cc(S(=O)(=O)[O-])ccc4F)c4ccc([nH]4)c(-c4cc(S(=O)(=O)[O-])ccc4F)c4nc(c(-c5cc(S(=O)(=O)[O-])ccc5F)c5ccc2[nH]5)C=C4)C=C3)cc1)CC(=O)Nc1cc(C)on1
REMARK SMILES IDX 11 1 10 2 9 3 8 4 6 5 7 6 5 8 4 9 3 11 2 12 1 13 81 14 82 15
REMARK SMILES IDX 83 16 84 17 85 19 86 20 90 21 87 22 89 23 88 24 12 25 13 26
REMARK SMILES IDX 14 27 15 28 16 29 17 31 18 32 19 33 80 34 20 35 79 36 21 37
REMARK SMILES IDX 22 38 23 39 73 40 24 41 78 42 72 43 74 44 25 45 77 46 71 47
REMARK SMILES IDX 70 48 26 50 58 51 38 52 57 53 39 54 42 55 56 56 75 57 40 58
REMARK SMILES IDX 41 59 55 61 76 62 43 63 27 64 28 65 36 66 29 67 35 68 37 69
REMARK SMILES IDX 34 70 30 71 31 72 32 73 33 74 59 75 60 76 68 77 61 78 67 79
REMARK SMILES IDX 69 80 66 81 62 82 63 83 64 84 65 85 44 86 45 87 53 88 46 89
REMARK SMILES IDX 52 90 54 91 51 92 47 93 48 94 49 95 50 96
REMARK H PARENT 8 7 4 10 84 18 15 30 74 49 42 60
REMARK Flexibility Score: inf
ROOT
ATOM      1  C   UNL     1      -2.082  -1.966  -2.615  1.00  0.00     0.002 C 
ENDROOT
BRANCH   1   2
ATOM      2  C   UNL     1      -1.466  -0.713  -1.986  1.00  0.00     0.021 C 
BRANCH   2   3
ATOM      3  C   UNL     1      -2.399   0.496  -1.875  1.00  0.00     0.116 C 
BRANCH   3   4
ATOM      4  N   UNL     1      -3.485   0.177  -0.992  1.00  0.00    -0.351 N 
ATOM      5  C   UNL     1      -3.505   0.262   0.362  1.00  0.00     0.275 C 
ATOM      6  O   UNL     1      -4.201  -0.599   0.904  1.00  0.00    -0.269 OA
ATOM      7  H   UNL     1      -4.312  -0.142  -1.419  1.00  0.00     0.163 HD
BRANCH   5   8
ATOM      8  C   UNL     1      -2.833   1.441   1.113  1.00  0.00     0.364 C 
BRANCH   8   9
ATOM      9  N   UNL     1      -1.536   1.212   1.794  1.00  0.00    -0.316 N 
ATOM     10  H   UNL     1      -1.297   2.124   2.184  1.00  0.00     0.349 HD
BRANCH   9  11
ATOM     11  C   UNL     1      -0.487   0.879   0.856  1.00  0.00     0.291 C 
BRANCH  11  12
ATOM     12  C   UNL     1       0.944   1.002   1.270  1.00  0.00     0.025 C 
ATOM     13  C   UNL     1       1.866   0.134   0.824  1.00  0.00     0.010 C 
ENDBRANCH  11  12
ENDBRANCH   9  11
BRANCH   9  14
ATOM     14  C   UNL     1      -1.548   0.436   3.057  1.00  0.00     0.364 C 
BRANCH  14  15
ATOM     15  C   UNL     1      -2.231  -0.937   2.983  1.00  0.00     0.280 C 
ATOM     16  O   UNL     1      -1.661  -1.898   2.452  1.00  0.00    -0.268 OA
ATOM     17  N   UNL     1      -3.541  -1.086   3.384  1.00  0.00    -0.303 N 
ATOM     18  H   UNL     1      -3.938  -1.984   3.318  1.00  0.00     0.171 HD
BRANCH  17  19
ATOM     19  C   UNL     1      -4.336  -0.069   3.870  1.00  0.00     0.176 A 
ATOM     20  C   UNL     1      -5.530   0.378   3.248  1.00  0.00     0.095 A 
ATOM     21  N   UNL     1      -4.021   0.715   4.905  1.00  0.00    -0.062 NA
ATOM     22  C   UNL     1      -5.702   1.640   3.762  1.00  0.00     0.135 A 
ATOM     23  O   UNL     1      -4.875   1.799   4.828  1.00  0.00    -0.360 OA
ATOM     24  C   UNL     1      -6.428   2.838   3.306  1.00  0.00     0.091 C 
ENDBRANCH  17  19
ENDBRANCH  14  15
ENDBRANCH   9  14
ENDBRANCH   8   9
ENDBRANCH   5   8
ENDBRANCH   3   4
ENDBRANCH   2   3
ENDBRANCH   1   2
BRANCH   1  25
ATOM     25  C   UNL     1      -2.729  -1.755  -3.977  1.00  0.00     0.002 C 
BRANCH  25  26
ATOM     26  C   UNL     1      -1.880  -0.950  -4.956  1.00  0.00     0.021 C 
BRANCH  26  27
ATOM     27  C   UNL     1      -0.454  -1.454  -5.100  1.00  0.00     0.116 C 
BRANCH  27  28
ATOM     28  N   UNL     1      -0.412  -2.764  -5.717  1.00  0.00    -0.352 N 
ATOM     29  C   UNL     1       0.165  -3.100  -6.918  1.00  0.00     0.251 C 
ATOM     30  H   UNL     1      -0.846  -3.495  -5.220  1.00  0.00     0.163 HD
ATOM     31  O   UNL     1      -0.080  -4.168  -7.454  1.00  0.00    -0.269 OA
BRANCH  29  32
ATOM     32  C   UNL     1       1.065  -2.110  -7.544  1.00  0.00     0.039 A 
ATOM     33  C   UNL     1       0.839  -1.720  -8.863  1.00  0.00     0.014 A 
ATOM     34  C   UNL     1       2.077  -1.514  -6.783  1.00  0.00     0.014 A 
ATOM     35  C   UNL     1       1.612  -0.697  -9.413  1.00  0.00     0.010 A 
ATOM     36  C   UNL     1       2.779  -0.435  -7.302  1.00  0.00     0.010 A 
ATOM     37  C   UNL     1       2.570  -0.031  -8.630  1.00  0.00    -0.014 A 
BRANCH  37  38
ATOM     38  C   UNL     1       3.421   1.048  -9.193  1.00  0.00     0.031 A 
ATOM     39  C   UNL     1       4.911   0.846  -9.254  1.00  0.00     0.074 A 
ATOM     40  C   UNL     1       2.872   2.213  -9.588  1.00  0.00     0.049 A 
ATOM     41  N   UNL     1       5.850   1.691  -9.591  1.00  0.00    -0.248 NA
ATOM     42  C   UNL     1       5.412  -0.475  -8.842  1.00  0.00     0.031 C 
ATOM     43  C   UNL     1       1.443   2.531  -9.556  1.00  0.00     0.029 A 
ATOM     44  N   UNL     1       3.453   3.353 -10.085  1.00  0.00    -0.354 N 
ATOM     45  C   UNL     1       7.050   1.010  -9.413  1.00  0.00     0.074 A 
ATOM     46  C   UNL     1       6.721  -0.289  -8.868  1.00  0.00     0.031 C 
ATOM     47  C   UNL     1       1.258   3.772 -10.036  1.00  0.00     0.029 A 
ATOM     48  C   UNL     1       2.555   4.360 -10.357  1.00  0.00     0.049 A 
ATOM     49  H   UNL     1       4.423   3.443 -10.232  1.00  0.00     0.167 HD
ATOM     50  C   UNL     1       8.309   1.421  -9.703  1.00  0.00     0.034 A 
ATOM     51  C   UNL     1       2.759   5.618 -10.799  1.00  0.00     0.034 A 
ATOM     52  C   UNL     1       8.613   2.713 -10.262  1.00  0.00     0.049 A 
ATOM     53  C   UNL     1       4.173   6.069 -11.076  1.00  0.00     0.074 A 
ATOM     54  C   UNL     1       9.844   3.222 -10.636  1.00  0.00     0.029 A 
ATOM     55  N   UNL     1       7.677   3.707 -10.524  1.00  0.00    -0.354 N 
ATOM     56  N   UNL     1       5.297   5.404 -10.933  1.00  0.00    -0.248 NA
ATOM     57  C   UNL     1       4.346   7.436 -11.584  1.00  0.00     0.031 C 
ATOM     58  C   UNL     1       9.664   4.545 -11.050  1.00  0.00     0.029 A 
ATOM     59  C   UNL     1       8.308   4.834 -11.025  1.00  0.00     0.049 A 
ATOM     60  H   UNL     1       6.708   3.622 -10.375  1.00  0.00     0.167 HD
ATOM     61  C   UNL     1       6.304   6.258 -11.376  1.00  0.00     0.074 A 
ATOM     62  C   UNL     1       5.654   7.483 -11.793  1.00  0.00     0.031 C 
ATOM     63  C   UNL     1       7.643   6.047 -11.441  1.00  0.00     0.034 A 
BRANCH  50  64
ATOM     64  C   UNL     1       9.440   0.469  -9.392  1.00  0.00     0.023 A 
ATOM     65  C   UNL     1       9.534  -0.794 -10.002  1.00  0.00     0.031 A 
ATOM     66  C   UNL     1      10.421   0.814  -8.445  1.00  0.00     0.131 A 
ATOM     67  C   UNL     1      10.529  -1.696  -9.599  1.00  0.00     0.055 A 
ATOM     68  C   UNL     1      11.464  -0.054  -8.116  1.00  0.00     0.041 A 
ATOM     69  F   UNL     1      10.373   1.995  -7.809  1.00  0.00    -0.206 F 
ATOM     70  C   UNL     1      11.513  -1.324  -8.681  1.00  0.00     0.022 A 
BRANCH  67  71
ATOM     71  S   UNL     1      10.422  -3.414 -10.171  1.00  0.00     0.124 S 
ATOM     72  O   UNL     1       9.109  -3.810  -9.667  1.00  0.00    -0.237 OA
ATOM     73  O   UNL     1      10.534  -3.273 -11.618  1.00  0.00    -0.237 OA
ATOM     74  O   UNL     1      11.555  -4.065  -9.517  1.00  0.00    -0.744 OA
ENDBRANCH  67  71
ENDBRANCH  50  64
BRANCH  51  75
ATOM     75  C   UNL     1       1.609   6.548 -10.996  1.00  0.00     0.023 A 
ATOM     76  C   UNL     1       1.300   7.057 -12.268  1.00  0.00     0.031 A 
ATOM     77  C   UNL     1       0.832   6.984  -9.907  1.00  0.00     0.131 A 
ATOM     78  C   UNL     1       0.280   8.010 -12.412  1.00  0.00     0.055 A 
ATOM     79  C   UNL     1      -0.222   7.886 -10.066  1.00  0.00     0.041 A 
ATOM     80  F   UNL     1       1.081   6.529  -8.669  1.00  0.00    -0.206 F 
ATOM     81  C   UNL     1      -0.493   8.417 -11.323  1.00  0.00     0.022 A 
BRANCH  78  82
ATOM     82  S   UNL     1       0.044   8.788 -14.034  1.00  0.00     0.124 S 
ATOM     83  O   UNL     1       1.360   9.367 -14.278  1.00  0.00    -0.237 OA
ATOM     84  O   UNL     1      -0.322   7.648 -14.866  1.00  0.00    -0.237 OA
ATOM     85  O   UNL     1      -1.028   9.752 -13.794  1.00  0.00    -0.744 OA
ENDBRANCH  78  82
ENDBRANCH  51  75
BRANCH  63  86
ATOM     86  C   UNL     1       8.489   7.138 -12.051  1.00  0.00     0.023 A 
ATOM     87  C   UNL     1       8.653   8.391 -11.436  1.00  0.00     0.031 A 
ATOM     88  C   UNL     1       9.156   6.906 -13.268  1.00  0.00     0.131 A 
ATOM     89  C   UNL     1       9.424   9.380 -12.064  1.00  0.00     0.055 A 
ATOM     90  C   UNL     1       9.975   7.871 -13.855  1.00  0.00     0.041 A 
ATOM     91  F   UNL     1       9.033   5.728 -13.902  1.00  0.00    -0.206 F 
ATOM     92  C   UNL     1      10.103   9.121 -13.258  1.00  0.00     0.022 A 
BRANCH  89  93
ATOM     93  S   UNL     1       9.463  11.044 -11.344  1.00  0.00     0.124 S 
ATOM     94  O   UNL     1       8.050  11.410 -11.350  1.00  0.00    -0.237 OA
ATOM     95  O   UNL     1      10.053  10.803 -10.031  1.00  0.00    -0.237 OA
ATOM     96  O   UNL     1      10.303  11.801 -12.271  1.00  0.00    -0.744 OA
ENDBRANCH  89  93
ENDBRANCH  63  86
ENDBRANCH  37  38
ENDBRANCH  29  32
ENDBRANCH  27  28
ENDBRANCH  26  27
ENDBRANCH  25  26
ENDBRANCH   1  25
TORSDOF 22
