REMARK SMILES COc1c(C(=O)NCCCCCCNC(=O)c2ccc(-c3c4nc(c(-c5cc(S(=O)(=O)[O-])ccc5F)c5ccc([nH]5)c(-c5cc(S(=O)(=O)[O-])ccc5F)c5nc(c(-c6cc(S(=O)(=O)[O-])ccc6F)c6ccc3[nH]6)C=C5)C=C4)cc2)cccc1-c1cc(C)ccc1C
REMARK SMILES IDX 11 1 10 2 9 3 8 4 7 5 5 6 6 7 4 9 3 10 83 11 80 12 82 13
REMARK SMILES IDX 81 14 2 15 1 16 84 17 85 18 90 19 86 20 89 21 91 22 87 23
REMARK SMILES IDX 88 24 12 25 13 26 14 27 15 28 16 30 17 31 18 32 79 33 19 34
REMARK SMILES IDX 78 35 20 36 21 37 22 38 72 39 23 40 77 41 71 42 73 43 24 44
REMARK SMILES IDX 76 45 70 46 69 47 25 49 57 50 37 51 56 52 38 53 41 54 55 55
REMARK SMILES IDX 74 56 39 57 40 58 54 60 75 61 42 62 26 63 27 64 35 65 28 66
REMARK SMILES IDX 34 67 36 68 33 69 29 70 30 71 31 72 32 73 58 74 59 75 67 76
REMARK SMILES IDX 60 77 66 78 68 79 65 80 61 81 62 82 63 83 64 84 43 85 44 86
REMARK SMILES IDX 52 87 45 88 51 89 53 90 50 91 46 92 47 93 48 94 49 95
REMARK H PARENT 7 8 14 29 73 48 41 59
REMARK Flexibility Score: inf
ROOT
ATOM      1  C   UNL     1      -3.415  -1.736   1.135  1.00  0.00     0.002 C 
ENDROOT
BRANCH   1   2
ATOM      2  C   UNL     1      -3.709  -0.255   0.885  1.00  0.00     0.002 C 
BRANCH   2   3
ATOM      3  C   UNL     1      -2.546   0.662   0.518  1.00  0.00     0.021 C 
BRANCH   3   4
ATOM      4  C   UNL     1      -1.585   0.190  -0.559  1.00  0.00     0.116 C 
BRANCH   4   5
ATOM      5  N   UNL     1      -2.064   0.109  -1.905  1.00  0.00    -0.352 N 
ATOM      6  C   UNL     1      -1.330   0.147  -3.071  1.00  0.00     0.255 C 
ATOM      7  O   UNL     1      -1.963  -0.031  -4.119  1.00  0.00    -0.269 OA
ATOM      8  H   UNL     1      -3.038   0.013  -2.012  1.00  0.00     0.163 HD
BRANCH   6   9
ATOM      9  C   UNL     1       0.141   0.474  -3.178  1.00  0.00     0.082 A 
ATOM     10  C   UNL     1       1.206   0.112  -2.316  1.00  0.00     0.139 A 
ATOM     11  C   UNL     1       2.559   0.409  -2.672  1.00  0.00     0.025 A 
ATOM     12  C   UNL     1       0.460   1.183  -4.359  1.00  0.00     0.018 A 
ATOM     13  C   UNL     1       2.811   1.115  -3.863  1.00  0.00     0.012 A 
ATOM     14  C   UNL     1       1.772   1.508  -4.696  1.00  0.00     0.002 A 
BRANCH  10  15
ATOM     15  O   UNL     1       0.951  -0.637  -1.188  1.00  0.00    -0.495 OA
ATOM     16  C   UNL     1       1.417  -0.041   0.037  1.00  0.00     0.278 C 
ENDBRANCH  10  15
BRANCH  11  17
ATOM     17  C   UNL     1       3.721   0.028  -1.833  1.00  0.00    -0.011 A 
ATOM     18  C   UNL     1       4.473   1.064  -1.234  1.00  0.00     0.012 A 
ATOM     19  C   UNL     1       4.046  -1.310  -1.511  1.00  0.00    -0.043 A 
ATOM     20  C   UNL     1       5.463   0.805  -0.279  1.00  0.00    -0.050 A 
ATOM     21  C   UNL     1       5.031  -1.561  -0.538  1.00  0.00     0.004 A 
ATOM     22  C   UNL     1       3.297  -2.494  -2.063  1.00  0.00     0.045 C 
ATOM     23  C   UNL     1       6.181   1.942   0.383  1.00  0.00     0.044 C 
ATOM     24  C   UNL     1       5.722  -0.517   0.079  1.00  0.00     0.004 A 
ENDBRANCH  11  17
ENDBRANCH   6   9
ENDBRANCH   4   5
ENDBRANCH   3   4
ENDBRANCH   2   3
ENDBRANCH   1   2
BRANCH   1  25
ATOM     25  C   UNL     1      -2.286  -2.105   2.101  1.00  0.00     0.021 C 
BRANCH  25  26
ATOM     26  C   UNL     1      -2.271  -1.417   3.462  1.00  0.00     0.116 C 
BRANCH  26  27
ATOM     27  N   UNL     1      -3.517  -1.557   4.192  1.00  0.00    -0.352 N 
ATOM     28  C   UNL     1      -3.756  -1.992   5.473  1.00  0.00     0.251 C 
ATOM     29  H   UNL     1      -4.321  -1.298   3.687  1.00  0.00     0.163 HD
ATOM     30  O   UNL     1      -4.917  -2.140   5.843  1.00  0.00    -0.269 OA
BRANCH  28  31
ATOM     31  C   UNL     1      -2.640  -2.315   6.395  1.00  0.00     0.039 A 
ATOM     32  C   UNL     1      -2.752  -3.453   7.200  1.00  0.00     0.014 A 
ATOM     33  C   UNL     1      -1.510  -1.500   6.505  1.00  0.00     0.014 A 
ATOM     34  C   UNL     1      -1.712  -3.806   8.065  1.00  0.00     0.010 A 
ATOM     35  C   UNL     1      -0.443  -1.890   7.317  1.00  0.00     0.010 A 
ATOM     36  C   UNL     1      -0.532  -3.046   8.107  1.00  0.00    -0.014 A 
BRANCH  36  37
ATOM     37  C   UNL     1       0.610  -3.452   8.972  1.00  0.00     0.031 A 
ATOM     38  C   UNL     1       1.048  -2.580  10.117  1.00  0.00     0.074 A 
ATOM     39  C   UNL     1       1.284  -4.585   8.693  1.00  0.00     0.049 A 
ATOM     40  N   UNL     1       2.041  -2.746  10.954  1.00  0.00    -0.248 NA
ATOM     41  C   UNL     1       0.284  -1.343  10.330  1.00  0.00     0.031 C 
ATOM     42  C   UNL     1       0.978  -5.500   7.591  1.00  0.00     0.029 A 
ATOM     43  N   UNL     1       2.365  -5.163   9.311  1.00  0.00    -0.354 N 
ATOM     44  C   UNL     1       2.033  -1.627  11.782  1.00  0.00     0.074 A 
ATOM     45  C   UNL     1       0.972  -0.765  11.303  1.00  0.00     0.031 C 
ATOM     46  C   UNL     1       1.825  -6.540   7.635  1.00  0.00     0.029 A 
ATOM     47  C   UNL     1       2.765  -6.347   8.735  1.00  0.00     0.049 A 
ATOM     48  H   UNL     1       2.813  -4.767  10.094  1.00  0.00     0.167 HD
ATOM     49  C   UNL     1       2.822  -1.355  12.853  1.00  0.00     0.034 A 
ATOM     50  C   UNL     1       3.775  -7.180   9.053  1.00  0.00     0.034 A 
ATOM     51  C   UNL     1       3.868  -2.233  13.323  1.00  0.00     0.049 A 
ATOM     52  C   UNL     1       4.662  -6.840  10.223  1.00  0.00     0.074 A 
ATOM     53  C   UNL     1       4.678  -2.092  14.437  1.00  0.00     0.029 A 
ATOM     54  N   UNL     1       4.263  -3.410  12.697  1.00  0.00    -0.354 N 
ATOM     55  N   UNL     1       4.603  -5.809  11.034  1.00  0.00    -0.248 NA
ATOM     56  C   UNL     1       5.747  -7.782  10.523  1.00  0.00     0.031 C 
ATOM     57  C   UNL     1       5.610  -3.137  14.440  1.00  0.00     0.029 A 
ATOM     58  C   UNL     1       5.332  -3.979  13.376  1.00  0.00     0.049 A 
ATOM     59  H   UNL     1       3.845  -3.786  11.888  1.00  0.00     0.167 HD
ATOM     60  C   UNL     1       5.623  -5.998  11.962  1.00  0.00     0.074 A 
ATOM     61  C   UNL     1       6.271  -7.247  11.616  1.00  0.00     0.031 C 
ATOM     62  C   UNL     1       5.986  -5.215  13.011  1.00  0.00     0.034 A 
BRANCH  49  63
ATOM     63  C   UNL     1       2.604  -0.034  13.558  1.00  0.00     0.023 A 
ATOM     64  C   UNL     1       1.377   0.292  14.162  1.00  0.00     0.031 A 
ATOM     65  C   UNL     1       3.625   0.933  13.588  1.00  0.00     0.131 A 
ATOM     66  C   UNL     1       1.169   1.579  14.681  1.00  0.00     0.055 A 
ATOM     67  C   UNL     1       3.442   2.181  14.190  1.00  0.00     0.041 A 
ATOM     68  F   UNL     1       4.814   0.692  13.014  1.00  0.00    -0.206 F 
ATOM     69  C   UNL     1       2.202   2.518  14.723  1.00  0.00     0.022 A 
BRANCH  66  70
ATOM     70  S   UNL     1      -0.519   2.067  15.134  1.00  0.00     0.124 S 
ATOM     71  O   UNL     1      -1.241   1.824  13.887  1.00  0.00    -0.237 OA
ATOM     72  O   UNL     1      -0.823   1.162  16.236  1.00  0.00    -0.237 OA
ATOM     73  O   UNL     1      -0.383   3.475  15.500  1.00  0.00    -0.744 OA
ENDBRANCH  66  70
ENDBRANCH  49  63
BRANCH  50  74
ATOM     74  C   UNL     1       4.005  -8.423   8.262  1.00  0.00     0.023 A 
ATOM     75  C   UNL     1       3.843  -9.688   8.851  1.00  0.00     0.031 A 
ATOM     76  C   UNL     1       4.420  -8.369   6.920  1.00  0.00     0.131 A 
ATOM     77  C   UNL     1       4.134 -10.845   8.114  1.00  0.00     0.055 A 
ATOM     78  C   UNL     1       4.659  -9.525   6.175  1.00  0.00     0.041 A 
ATOM     79  F   UNL     1       4.585  -7.185   6.308  1.00  0.00    -0.206 F 
ATOM     80  C   UNL     1       4.527 -10.773   6.776  1.00  0.00     0.022 A 
BRANCH  77  81
ATOM     81  S   UNL     1       4.061 -12.451   8.955  1.00  0.00     0.124 S 
ATOM     82  O   UNL     1       5.044 -12.275  10.017  1.00  0.00    -0.237 OA
ATOM     83  O   UNL     1       2.665 -12.509   9.375  1.00  0.00    -0.237 OA
ATOM     84  O   UNL     1       4.434 -13.400   7.908  1.00  0.00    -0.744 OA
ENDBRANCH  77  81
ENDBRANCH  50  74
BRANCH  62  85
ATOM     85  C   UNL     1       7.114  -5.717  13.881  1.00  0.00     0.023 A 
ATOM     86  C   UNL     1       8.428  -5.843  13.394  1.00  0.00     0.031 A 
ATOM     87  C   UNL     1       6.865  -6.100  15.211  1.00  0.00     0.131 A 
ATOM     88  C   UNL     1       9.427  -6.396  14.209  1.00  0.00     0.055 A 
ATOM     89  C   UNL     1       7.878  -6.588  16.039  1.00  0.00     0.041 A 
ATOM     90  F   UNL     1       5.630  -6.006  15.730  1.00  0.00    -0.206 F 
ATOM     91  C   UNL     1       9.164  -6.753  15.534  1.00  0.00     0.022 A 
BRANCH  88  92
ATOM     92  S   UNL     1      11.052  -6.743  13.482  1.00  0.00     0.124 S 
ATOM     93  O   UNL     1      10.708  -7.638  12.382  1.00  0.00    -0.237 OA
ATOM     94  O   UNL     1      11.514  -5.412  13.100  1.00  0.00    -0.237 OA
ATOM     95  O   UNL     1      11.794  -7.364  14.578  1.00  0.00    -0.744 OA
ENDBRANCH  88  92
ENDBRANCH  62  85
ENDBRANCH  36  37
ENDBRANCH  28  31
ENDBRANCH  26  27
ENDBRANCH  25  26
ENDBRANCH   1  25
TORSDOF 18
