REMARK SMILES COc1cc(F)ccc1-c1ccc(=O)n(CC(=O)NCc2ccc(C(=O)NCCCCCCNC(=O)c3ccc(-c4c5nc(c(-c6cc(S(=O)(=O)[O-])ccc6F)c6ccc([nH]6)c(-c6cc(S(=O)(=O)[O-])ccc6F)c6nc(c(-c7cc(S(=O)(=O)[O-])ccc7F)c7ccc4[nH]7)C=C6)C=C5)cc3)cc2)n1
REMARK SMILES IDX 29 1 28 2 27 3 25 4 26 5 24 7 21 8 22 9 101 10 23 11 100 12
REMARK SMILES IDX 20 13 19 14 17 15 18 16 16 18 15 19 10 20 11 21 102 22 12 23
REMARK SMILES IDX 13 24 14 25 9 26 3 27 4 28 5 29 8 30 6 31 7 32 2 33 1 34
REMARK SMILES IDX 30 35 31 36 32 37 33 38 34 39 35 40 36 42 37 43 38 44 99 45
REMARK SMILES IDX 39 46 98 47 40 48 41 49 42 50 92 51 43 52 97 53 91 54 93 55
REMARK SMILES IDX 44 56 96 57 90 58 89 59 45 61 77 62 57 63 76 64 58 65 61 66
REMARK SMILES IDX 75 67 94 68 59 69 60 70 74 72 95 73 62 74 46 75 47 76 55 77
REMARK SMILES IDX 48 78 54 79 56 80 53 81 49 82 50 83 51 84 52 85 78 86 79 87
REMARK SMILES IDX 87 88 80 89 86 90 88 91 85 92 81 93 82 94 83 95 84 96 63 97
REMARK SMILES IDX 64 98 72 99 65 100 71 101 73 102 70 103 66 104 67 105 68 106
REMARK SMILES IDX 69 107
REMARK H PARENT 27 6 19 17 34 41 93 60 61 71
REMARK Flexibility Score: inf
ROOT
ATOM      1  C   UNL     1      -2.512  -9.560   6.298  1.00  0.00     0.021 C 
ENDROOT
BRANCH   1   2
ATOM      2  C   UNL     1      -3.505  -8.447   5.987  1.00  0.00     0.116 C 
BRANCH   2   3
ATOM      3  N   UNL     1      -3.438  -7.327   6.901  1.00  0.00    -0.352 N 
ATOM      4  C   UNL     1      -3.673  -5.996   6.666  1.00  0.00     0.251 C 
ATOM      5  O   UNL     1      -3.517  -5.193   7.585  1.00  0.00    -0.269 OA
ATOM      6  H   UNL     1      -3.188  -7.554   7.826  1.00  0.00     0.163 HD
BRANCH   4   7
ATOM      7  C   UNL     1      -4.011  -5.497   5.308  1.00  0.00     0.039 A 
ATOM      8  C   UNL     1      -4.367  -4.521   2.687  1.00  0.00    -0.029 A 
ATOM      9  C   UNL     1      -3.619  -3.811   3.630  1.00  0.00     0.006 A 
ATOM     10  C   UNL     1      -5.026  -5.681   3.106  1.00  0.00     0.006 A 
ATOM     11  C   UNL     1      -3.427  -4.292   4.922  1.00  0.00     0.014 A 
ATOM     12  C   UNL     1      -4.867  -6.154   4.417  1.00  0.00     0.014 A 
BRANCH   8  13
ATOM     13  C   UNL     1      -4.459  -4.018   1.270  1.00  0.00     0.151 C 
BRANCH  13  14
ATOM     14  N   UNL     1      -5.535  -3.070   1.109  1.00  0.00    -0.350 N 
ATOM     15  C   UNL     1      -5.504  -1.785   0.657  1.00  0.00     0.242 C 
ATOM     16  O   UNL     1      -6.584  -1.268   0.351  1.00  0.00    -0.273 OA
ATOM     17  H   UNL     1      -6.426  -3.402   1.364  1.00  0.00     0.163 HD
BRANCH  15  18
ATOM     18  C   UNL     1      -4.185  -1.054   0.382  1.00  0.00     0.248 C 
BRANCH  18  19
ATOM     19  N   UNL     1      -3.312  -0.905   1.542  1.00  0.00    -0.220 N 
ATOM     20  C   UNL     1      -1.256  -1.309   2.466  1.00  0.00     0.095 A 
ATOM     21  C   UNL     1      -1.563  -0.517   3.672  1.00  0.00     0.037 A 
ATOM     22  N   UNL     1      -2.062  -1.499   1.468  1.00  0.00    -0.169 NA
ATOM     23  C   UNL     1      -2.756   0.077   3.700  1.00  0.00     0.075 A 
ATOM     24  C   UNL     1      -3.700  -0.051   2.568  1.00  0.00     0.267 A 
ATOM     25  O   UNL     1      -4.753   0.579   2.604  1.00  0.00    -0.268 OA
BRANCH  20  26
ATOM     26  C   UNL     1       0.063  -1.964   2.466  1.00  0.00     0.044 A 
ATOM     27  C   UNL     1       1.157  -1.349   1.849  1.00  0.00     0.131 A 
ATOM     28  C   UNL     1       2.396  -1.988   1.845  1.00  0.00     0.086 A 
ATOM     29  C   UNL     1       2.517  -3.246   2.430  1.00  0.00     0.126 A 
ATOM     30  C   UNL     1       0.191  -3.231   3.050  1.00  0.00     0.017 A 
ATOM     31  F   UNL     1       3.707  -3.862   2.421  1.00  0.00    -0.207 F 
ATOM     32  C   UNL     1       1.429  -3.873   3.030  1.00  0.00     0.040 A 
BRANCH  27  33
ATOM     33  O   UNL     1       1.015  -0.089   1.332  1.00  0.00    -0.496 OA
ATOM     34  C   UNL     1       1.213  -0.083  -0.082  1.00  0.00     0.278 C 
ENDBRANCH  27  33
ENDBRANCH  20  26
ENDBRANCH  18  19
ENDBRANCH  15  18
ENDBRANCH  13  14
ENDBRANCH   8  13
ENDBRANCH   4   7
ENDBRANCH   2   3
ENDBRANCH   1   2
BRANCH   1  35
ATOM     35  C   UNL     1      -2.565 -10.175   7.699  1.00  0.00     0.002 C 
BRANCH  35  36
ATOM     36  C   UNL     1      -3.936 -10.574   8.247  1.00  0.00     0.002 C 
BRANCH  36  37
ATOM     37  C   UNL     1      -4.824 -11.432   7.349  1.00  0.00     0.021 C 
BRANCH  37  38
ATOM     38  C   UNL     1      -4.176 -12.661   6.730  1.00  0.00     0.116 C 
BRANCH  38  39
ATOM     39  N   UNL     1      -3.769 -13.664   7.699  1.00  0.00    -0.352 N 
ATOM     40  C   UNL     1      -3.993 -15.024   7.666  1.00  0.00     0.251 C 
ATOM     41  H   UNL     1      -3.270 -13.330   8.479  1.00  0.00     0.163 HD
ATOM     42  O   UNL     1      -3.642 -15.738   8.598  1.00  0.00    -0.269 OA
BRANCH  40  43
ATOM     43  C   UNL     1      -4.712 -15.603   6.508  1.00  0.00     0.039 A 
ATOM     44  C   UNL     1      -4.310 -15.308   5.204  1.00  0.00     0.014 A 
ATOM     45  C   UNL     1      -5.854 -16.374   6.737  1.00  0.00     0.014 A 
ATOM     46  C   UNL     1      -5.146 -15.630   4.139  1.00  0.00     0.010 A 
ATOM     47  C   UNL     1      -6.652 -16.765   5.657  1.00  0.00     0.010 A 
ATOM     48  C   UNL     1      -6.335 -16.347   4.354  1.00  0.00    -0.014 A 
BRANCH  48  49
ATOM     49  C   UNL     1      -7.248 -16.616   3.211  1.00  0.00     0.031 A 
ATOM     50  C   UNL     1      -8.623 -15.999   3.164  1.00  0.00     0.074 A 
ATOM     51  C   UNL     1      -6.817 -17.373   2.183  1.00  0.00     0.049 A 
ATOM     52  N   UNL     1      -9.558 -16.137   2.258  1.00  0.00    -0.248 NA
ATOM     53  C   UNL     1      -9.001 -15.116   4.279  1.00  0.00     0.031 C 
ATOM     54  C   UNL     1      -5.500 -18.009   2.101  1.00  0.00     0.029 A 
ATOM     55  N   UNL     1      -7.425 -17.718   1.003  1.00  0.00    -0.354 N 
ATOM     56  C   UNL     1     -10.639 -15.384   2.703  1.00  0.00     0.074 A 
ATOM     57  C   UNL     1     -10.252 -14.803   3.970  1.00  0.00     0.031 C 
ATOM     58  C   UNL     1      -5.383 -18.627   0.916  1.00  0.00     0.029 A 
ATOM     59  C   UNL     1      -6.636 -18.488   0.181  1.00  0.00     0.049 A 
ATOM     60  H   UNL     1      -8.340 -17.441   0.767  1.00  0.00     0.167 HD
ATOM     61  C   UNL     1     -11.842 -15.193   2.107  1.00  0.00     0.034 A 
ATOM     62  C   UNL     1      -6.894 -19.041  -1.019  1.00  0.00     0.034 A 
ATOM     63  C   UNL     1     -12.210 -15.748   0.830  1.00  0.00     0.049 A 
ATOM     64  C   UNL     1      -8.245 -18.835  -1.646  1.00  0.00     0.074 A 
ATOM     65  C   UNL     1     -13.394 -15.585   0.130  1.00  0.00     0.029 A 
ATOM     66  N   UNL     1     -11.402 -16.569   0.056  1.00  0.00    -0.354 N 
ATOM     67  N   UNL     1      -9.266 -18.149  -1.189  1.00  0.00    -0.248 NA
ATOM     68  C   UNL     1      -8.482 -19.484  -2.942  1.00  0.00     0.031 C 
ATOM     69  C   UNL     1     -13.322 -16.347  -1.040  1.00  0.00     0.029 A 
ATOM     70  C   UNL     1     -12.070 -16.938  -1.100  1.00  0.00     0.049 A 
ATOM     71  H   UNL     1     -10.489 -16.848   0.294  1.00  0.00     0.167 HD
ATOM     72  C   UNL     1     -10.267 -18.283  -2.145  1.00  0.00     0.074 A 
ATOM     73  C   UNL     1      -9.723 -19.101  -3.210  1.00  0.00     0.031 C 
ATOM     74  C   UNL     1     -11.524 -17.773  -2.140  1.00  0.00     0.034 A 
BRANCH  61  75
ATOM     75  C   UNL     1     -12.869 -14.374   2.845  1.00  0.00     0.023 A 
ATOM     76  C   UNL     1     -12.740 -12.984   2.990  1.00  0.00     0.031 A 
ATOM     77  C   UNL     1     -14.012 -14.996   3.378  1.00  0.00     0.131 A 
ATOM     78  C   UNL     1     -13.724 -12.262   3.684  1.00  0.00     0.055 A 
ATOM     79  C   UNL     1     -15.015 -14.265   4.018  1.00  0.00     0.041 A 
ATOM     80  F   UNL     1     -14.175 -16.325   3.278  1.00  0.00    -0.206 F 
ATOM     81  C   UNL     1     -14.871 -12.890   4.179  1.00  0.00     0.022 A 
BRANCH  78  82
ATOM     82  S   UNL     1     -13.456 -10.495   3.988  1.00  0.00     0.124 S 
ATOM     83  O   UNL     1     -12.310 -10.524   4.894  1.00  0.00    -0.237 OA
ATOM     84  O   UNL     1     -13.196  -9.977   2.650  1.00  0.00    -0.237 OA
ATOM     85  O   UNL     1     -14.713 -10.057   4.593  1.00  0.00    -0.744 OA
ENDBRANCH  78  82
ENDBRANCH  61  75
BRANCH  62  86
ATOM     86  C   UNL     1      -5.861 -19.882  -1.681  1.00  0.00     0.023 A 
ATOM     87  C   UNL     1      -5.207 -19.448  -2.843  1.00  0.00     0.031 A 
ATOM     88  C   UNL     1      -5.506 -21.132  -1.143  1.00  0.00     0.131 A 
ATOM     89  C   UNL     1      -4.239 -20.269  -3.442  1.00  0.00     0.055 A 
ATOM     90  C   UNL     1      -4.516 -21.927  -1.720  1.00  0.00     0.041 A 
ATOM     91  F   UNL     1      -6.099 -21.582  -0.026  1.00  0.00    -0.206 F 
ATOM     92  C   UNL     1      -3.880 -21.498  -2.881  1.00  0.00     0.022 A 
BRANCH  89  93
ATOM     93  S   UNL     1      -3.459 -19.715  -4.982  1.00  0.00     0.124 S 
ATOM     94  O   UNL     1      -4.590 -19.713  -5.903  1.00  0.00    -0.237 OA
ATOM     95  O   UNL     1      -2.935 -18.406  -4.607  1.00  0.00    -0.237 OA
ATOM     96  O   UNL     1      -2.446 -20.737  -5.237  1.00  0.00    -0.744 OA
ENDBRANCH  89  93
ENDBRANCH  62  86
BRANCH  74  97
ATOM     97  C   UNL     1     -12.390 -18.072  -3.332  1.00  0.00     0.023 A 
ATOM     98  C   UNL     1     -12.943 -19.348  -3.531  1.00  0.00     0.031 A 
ATOM     99  C   UNL     1     -12.687 -17.061  -4.262  1.00  0.00     0.131 A 
ATOM    100  C   UNL     1     -13.745 -19.590  -4.657  1.00  0.00     0.055 A 
ATOM    101  C   UNL     1     -13.519 -17.296  -5.357  1.00  0.00     0.041 A 
ATOM    102  F   UNL     1     -12.182 -15.826  -4.112  1.00  0.00    -0.206 F 
ATOM    103  C   UNL     1     -14.049 -18.568  -5.561  1.00  0.00     0.022 A 
BRANCH 100 104
ATOM    104  S   UNL     1     -14.364 -21.269  -4.943  1.00  0.00     0.124 S 
ATOM    105  O   UNL     1     -13.130 -22.005  -5.202  1.00  0.00    -0.237 OA
ATOM    106  O   UNL     1     -15.038 -21.577  -3.686  1.00  0.00    -0.237 OA
ATOM    107  O   UNL     1     -15.249 -21.116  -6.096  1.00  0.00    -0.744 OA
ENDBRANCH 100 104
ENDBRANCH  74  97
ENDBRANCH  48  49
ENDBRANCH  40  43
ENDBRANCH  38  39
ENDBRANCH  37  38
ENDBRANCH  36  37
ENDBRANCH  35  36
ENDBRANCH   1  35
TORSDOF 22
