REMARK SMILES C[C@](Nc1ccc(C(N)=O)nn1)(C(=O)NCCCCCCNC(=O)c1ccc(-c2c3nc(c(-c4cc(S(=O)(=O)[O-])ccc4F)c4ccc([nH]4)c(-c4cc(S(=O)(=O)[O-])ccc4F)c4nc(c(-c5cc(S(=O)(=O)[O-])ccc5F)c5ccc2[nH]5)C=C4)C=C3)cc1)c1ccccc1
REMARK SMILES IDX 18 1 17 2 16 3 15 4 13 5 14 6 2 8 1 9 88 10 89 11 93 12
REMARK SMILES IDX 90 13 92 14 91 15 3 16 4 18 5 19 12 20 6 21 11 22 7 23 8 24
REMARK SMILES IDX 9 25 10 26 19 29 20 30 21 31 22 32 23 33 24 35 25 36 26 37
REMARK SMILES IDX 87 38 27 39 86 40 28 41 29 42 30 43 80 44 31 45 85 46 79 47
REMARK SMILES IDX 81 48 32 49 84 50 78 51 77 52 33 54 65 55 45 56 64 57 46 58
REMARK SMILES IDX 49 59 63 60 82 61 47 62 48 63 62 65 83 66 50 67 34 68 35 69
REMARK SMILES IDX 43 70 36 71 42 72 44 73 41 74 37 75 38 76 39 77 40 78 66 79
REMARK SMILES IDX 67 80 75 81 68 82 74 83 76 84 73 85 69 86 70 87 71 88 72 89
REMARK SMILES IDX 51 90 52 91 60 92 53 93 59 94 61 95 58 96 54 97 55 98 56 99
REMARK SMILES IDX 57 100
REMARK H PARENT 15 7 3 17 9 27 9 28 22 34 81 53 49 64
REMARK Flexibility Score: inf
ROOT
ATOM      1  C   UNL     1      -2.977   2.224   1.661  1.00  0.00     0.002 C 
ENDROOT
BRANCH   1   2
ATOM      2  C   UNL     1      -1.470   2.078   1.415  1.00  0.00     0.021 C 
BRANCH   2   3
ATOM      3  C   UNL     1      -0.859   0.795   1.972  1.00  0.00     0.116 C 
BRANCH   3   4
ATOM      4  N   UNL     1      -1.404  -0.373   1.307  1.00  0.00    -0.354 N 
ATOM      5  C   UNL     1      -0.800  -1.326   0.535  1.00  0.00     0.250 C 
ATOM      6  O   UNL     1      -1.578  -1.992  -0.160  1.00  0.00    -0.272 OA
ATOM      7  H   UNL     1      -2.372  -0.500   1.432  1.00  0.00     0.163 HD
BRANCH   5   8
ATOM      8  C   UNL     1       0.773  -1.532   0.537  1.00  0.00     0.140 C 
ATOM      9  C   UNL     1       1.289  -1.707   1.989  1.00  0.00     0.051 C 
BRANCH   8  10
ATOM     10  C   UNL     1       1.234  -2.843  -0.176  1.00  0.00    -0.013 A 
ATOM     11  C   UNL     1       0.423  -3.996  -0.172  1.00  0.00     0.007 A 
ATOM     12  C   UNL     1       2.501  -2.972  -0.780  1.00  0.00     0.007 A 
ATOM     13  C   UNL     1       0.789  -5.155  -0.864  1.00  0.00     0.000 A 
ATOM     14  C   UNL     1       2.854  -4.114  -1.504  1.00  0.00     0.000 A 
ATOM     15  C   UNL     1       1.990  -5.200  -1.560  1.00  0.00     0.000 A 
ENDBRANCH   8  10
BRANCH   8  16
ATOM     16  N   UNL     1       1.374  -0.287  -0.012  1.00  0.00    -0.351 N 
ATOM     17  H   UNL     1       1.482   0.468   0.610  1.00  0.00     0.163 HD
BRANCH  16  18
ATOM     18  C   UNL     1       1.792  -0.092  -1.305  1.00  0.00     0.149 A 
ATOM     19  C   UNL     1       1.151  -0.599  -2.425  1.00  0.00     0.051 A 
ATOM     20  N   UNL     1       3.022   0.463  -1.414  1.00  0.00    -0.132 NA
ATOM     21  C   UNL     1       1.869  -0.717  -3.615  1.00  0.00     0.040 A 
ATOM     22  N   UNL     1       3.744   0.336  -2.563  1.00  0.00    -0.143 NA
ATOM     23  C   UNL     1       3.186  -0.296  -3.620  1.00  0.00     0.150 A 
BRANCH  23  24
ATOM     24  C   UNL     1       4.116  -0.660  -4.726  1.00  0.00     0.269 C 
ATOM     25  N   UNL     1       5.441  -0.383  -4.507  1.00  0.00    -0.364 N 
ATOM     26  O   UNL     1       3.739  -1.222  -5.748  1.00  0.00    -0.268 OA
ATOM     27  H   UNL     1       5.719   0.069  -3.678  1.00  0.00     0.160 HD
ATOM     28  H   UNL     1       6.114  -0.638  -5.178  1.00  0.00     0.160 HD
ENDBRANCH  23  24
ENDBRANCH  16  18
ENDBRANCH   8  16
ENDBRANCH   5   8
ENDBRANCH   3   4
ENDBRANCH   2   3
ENDBRANCH   1   2
BRANCH   1  29
ATOM     29  C   UNL     1      -3.412   2.121   3.127  1.00  0.00     0.002 C 
BRANCH  29  30
ATOM     30  C   UNL     1      -2.696   3.078   4.083  1.00  0.00     0.021 C 
BRANCH  30  31
ATOM     31  C   UNL     1      -2.813   4.552   3.713  1.00  0.00     0.116 C 
BRANCH  31  32
ATOM     32  N   UNL     1      -4.189   5.016   3.748  1.00  0.00    -0.352 N 
ATOM     33  C   UNL     1      -4.715   6.113   4.385  1.00  0.00     0.251 C 
ATOM     34  H   UNL     1      -4.834   4.468   3.245  1.00  0.00     0.163 HD
ATOM     35  O   UNL     1      -5.933   6.235   4.477  1.00  0.00    -0.269 OA
BRANCH  33  36
ATOM     36  C   UNL     1      -3.812   7.126   4.976  1.00  0.00     0.039 A 
ATOM     37  C   UNL     1      -4.114   7.649   6.235  1.00  0.00     0.014 A 
ATOM     38  C   UNL     1      -2.678   7.569   4.288  1.00  0.00     0.014 A 
ATOM     39  C   UNL     1      -3.255   8.581   6.822  1.00  0.00     0.010 A 
ATOM     40  C   UNL     1      -1.782   8.436   4.908  1.00  0.00     0.010 A 
ATOM     41  C   UNL     1      -2.067   8.964   6.177  1.00  0.00    -0.014 A 
BRANCH  41  42
ATOM     42  C   UNL     1      -1.137   9.949   6.792  1.00  0.00     0.031 A 
ATOM     43  C   UNL     1      -0.884  11.266   6.105  1.00  0.00     0.074 A 
ATOM     44  C   UNL     1      -0.497   9.649   7.940  1.00  0.00     0.049 A 
ATOM     45  N   UNL     1      -0.050  12.221   6.427  1.00  0.00    -0.248 NA
ATOM     46  C   UNL     1      -1.652  11.530   4.877  1.00  0.00     0.031 C 
ATOM     47  C   UNL     1      -0.639   8.396   8.685  1.00  0.00     0.029 A 
ATOM     48  N   UNL     1       0.407  10.371   8.679  1.00  0.00    -0.354 N 
ATOM     49  C   UNL     1      -0.194  13.197   5.447  1.00  0.00     0.074 A 
ATOM     50  C   UNL     1      -1.137  12.683   4.477  1.00  0.00     0.031 C 
ATOM     51  C   UNL     1       0.132   8.447   9.784  1.00  0.00     0.029 A 
ATOM     52  C   UNL     1       0.863   9.710   9.799  1.00  0.00     0.049 A 
ATOM     53  H   UNL     1       0.703  11.277   8.432  1.00  0.00     0.167 HD
ATOM     54  C   UNL     1       0.380  14.424   5.377  1.00  0.00     0.034 A 
ATOM     55  C   UNL     1       1.778  10.074  10.720  1.00  0.00     0.034 A 
ATOM     56  C   UNL     1       1.313  14.929   6.353  1.00  0.00     0.049 A 
ATOM     57  C   UNL     1       2.438  11.428  10.594  1.00  0.00     0.074 A 
ATOM     58  C   UNL     1       1.948  16.159   6.383  1.00  0.00     0.029 A 
ATOM     59  N   UNL     1       1.743  14.235   7.476  1.00  0.00    -0.354 N 
ATOM     60  N   UNL     1       2.271  12.347   9.670  1.00  0.00    -0.248 NA
ATOM     61  C   UNL     1       3.394  11.803  11.644  1.00  0.00     0.031 C 
ATOM     62  C   UNL     1       2.806  16.184   7.486  1.00  0.00     0.029 A 
ATOM     63  C   UNL     1       2.643  15.005   8.195  1.00  0.00     0.049 A 
ATOM     64  H   UNL     1       1.451  13.328   7.725  1.00  0.00     0.167 HD
ATOM     65  C   UNL     1       3.064  13.425  10.059  1.00  0.00     0.074 A 
ATOM     66  C   UNL     1       3.695  13.046  11.306  1.00  0.00     0.031 C 
ATOM     67  C   UNL     1       3.253  14.621   9.446  1.00  0.00     0.034 A 
BRANCH  54  68
ATOM     68  C   UNL     1       0.016  15.298   4.201  1.00  0.00     0.023 A 
ATOM     69  C   UNL     1      -1.299  15.756   4.008  1.00  0.00     0.031 A 
ATOM     70  C   UNL     1       0.990  15.681   3.262  1.00  0.00     0.131 A 
ATOM     71  C   UNL     1      -1.618  16.516   2.874  1.00  0.00     0.055 A 
ATOM     72  C   UNL     1       0.683  16.506   2.179  1.00  0.00     0.041 A 
ATOM     73  F   UNL     1       2.258  15.256   3.381  1.00  0.00    -0.206 F 
ATOM     74  C   UNL     1      -0.630  16.919   1.973  1.00  0.00     0.022 A 
BRANCH  71  75
ATOM     75  S   UNL     1      -3.363  16.865   2.528  1.00  0.00     0.124 S 
ATOM     76  O   UNL     1      -3.908  15.517   2.379  1.00  0.00    -0.237 OA
ATOM     77  O   UNL     1      -3.782  17.595   3.718  1.00  0.00    -0.237 OA
ATOM     78  O   UNL     1      -3.318  17.651   1.296  1.00  0.00    -0.744 OA
ENDBRANCH  71  75
ENDBRANCH  54  68
BRANCH  55  79
ATOM     79  C   UNL     1       2.154   9.152  11.834  1.00  0.00     0.023 A 
ATOM     80  C   UNL     1       1.976   9.525  13.176  1.00  0.00     0.031 A 
ATOM     81  C   UNL     1       2.784   7.921  11.575  1.00  0.00     0.131 A 
ATOM     82  C   UNL     1       2.495   8.720  14.203  1.00  0.00     0.055 A 
ATOM     83  C   UNL     1       3.231   7.088  12.602  1.00  0.00     0.041 A 
ATOM     84  F   UNL     1       2.980   7.510  10.312  1.00  0.00    -0.206 F 
ATOM     85  C   UNL     1       3.108   7.496  13.925  1.00  0.00     0.022 A 
BRANCH  82  86
ATOM     86  S   UNL     1       2.489   9.367  15.898  1.00  0.00     0.124 S 
ATOM     87  O   UNL     1       3.179  10.641  15.729  1.00  0.00    -0.237 OA
ATOM     88  O   UNL     1       1.061   9.443  16.187  1.00  0.00    -0.237 OA
ATOM     89  O   UNL     1       3.225   8.353  16.650  1.00  0.00    -0.744 OA
ENDBRANCH  82  86
ENDBRANCH  55  79
BRANCH  67  90
ATOM     90  C   UNL     1       4.114  15.636  10.159  1.00  0.00     0.023 A 
ATOM     91  C   UNL     1       5.485  15.426  10.385  1.00  0.00     0.031 A 
ATOM     92  C   UNL     1       3.542  16.832  10.631  1.00  0.00     0.131 A 
ATOM     93  C   UNL     1       6.223  16.365  11.123  1.00  0.00     0.055 A 
ATOM     94  C   UNL     1       4.297  17.794  11.302  1.00  0.00     0.041 A 
ATOM     95  F   UNL     1       2.237  17.086  10.445  1.00  0.00    -0.206 F 
ATOM     96  C   UNL     1       5.642  17.556  11.565  1.00  0.00     0.022 A 
BRANCH  93  97
ATOM     97  S   UNL     1       7.927  15.958  11.591  1.00  0.00     0.124 S 
ATOM     98  O   UNL     1       7.752  14.704  12.316  1.00  0.00    -0.237 OA
ATOM     99  O   UNL     1       8.591  15.858  10.296  1.00  0.00    -0.237 OA
ATOM    100  O   UNL     1       8.339  17.097  12.411  1.00  0.00    -0.744 OA
ENDBRANCH  93  97
ENDBRANCH  67  90
ENDBRANCH  41  42
ENDBRANCH  33  36
ENDBRANCH  31  32
ENDBRANCH  30  31
ENDBRANCH  29  30
ENDBRANCH   1  29
TORSDOF 20
