REMARK SMILES C=CCN(CC(=O)NCCCCCCNC(=O)c1ccc(-c2c3nc(c(-c4cc(S(=O)(=O)[O-])ccc4F)c4ccc([nH]4)c(-c4cc(S(=O)(=O)[O-])ccc4F)c4nc(c(-c5cc(S(=O)(=O)[O-])ccc5F)c5ccc2[nH]5)C=C4)C=C3)cc1)C(=O)NC(C)(C)CC
REMARK SMILES IDX 11 1 10 2 9 3 8 4 6 5 7 6 5 8 4 9 3 10 2 11 1 12 81 13 82 14
REMARK SMILES IDX 83 15 84 17 85 18 86 19 87 20 88 21 12 22 13 23 14 24 15 25
REMARK SMILES IDX 16 26 17 28 18 29 19 30 80 31 20 32 79 33 21 34 22 35 23 36
REMARK SMILES IDX 73 37 24 38 78 39 72 40 74 41 25 42 77 43 71 44 70 45 26 47
REMARK SMILES IDX 58 48 38 49 57 50 39 51 42 52 56 53 75 54 40 55 41 56 55 58
REMARK SMILES IDX 76 59 43 60 27 61 28 62 36 63 29 64 35 65 37 66 34 67 30 68
REMARK SMILES IDX 31 69 32 70 33 71 59 72 60 73 68 74 61 75 67 76 69 77 66 78
REMARK SMILES IDX 62 79 63 80 64 81 65 82 44 83 45 84 53 85 46 86 52 87 54 88
REMARK SMILES IDX 51 89 47 90 48 91 49 92 50 93
REMARK H PARENT 8 7 83 16 15 27 74 46 42 57
REMARK Flexibility Score: inf
ROOT
ATOM      1  C   UNL     1      -6.021   1.546   0.722  1.00  0.00     0.002 C 
ENDROOT
BRANCH   1   2
ATOM      2  C   UNL     1      -4.634   0.932   0.497  1.00  0.00     0.021 C 
BRANCH   2   3
ATOM      3  C   UNL     1      -4.613  -0.241  -0.473  1.00  0.00     0.116 C 
BRANCH   3   4
ATOM      4  N   UNL     1      -4.952   0.141  -1.821  1.00  0.00    -0.355 N 
ATOM      5  C   UNL     1      -4.221  -0.049  -2.955  1.00  0.00     0.239 C 
ATOM      6  O   UNL     1      -4.839  -0.072  -4.024  1.00  0.00    -0.273 OA
ATOM      7  H   UNL     1      -5.818   0.594  -1.937  1.00  0.00     0.163 HD
BRANCH   5   8
ATOM      8  C   UNL     1      -2.728  -0.404  -2.884  1.00  0.00     0.221 C 
BRANCH   8   9
ATOM      9  N   UNL     1      -1.897   0.441  -2.028  1.00  0.00    -0.312 N 
BRANCH   9  10
ATOM     10  C   UNL     1      -1.218  -0.240  -0.918  1.00  0.00     0.149 C 
BRANCH  10  11
ATOM     11  C   UNL     1       0.259  -0.325  -1.177  1.00  0.00    -0.013 C 
ATOM     12  C   UNL     1       1.182   0.031  -0.273  1.00  0.00     0.006 C 
ENDBRANCH  10  11
ENDBRANCH   9  10
BRANCH   9  13
ATOM     13  C   UNL     1      -1.652   1.771  -2.142  1.00  0.00     0.318 C 
ATOM     14  O   UNL     1      -1.159   2.403  -1.196  1.00  0.00    -0.249 OA
ATOM     15  N   UNL     1      -1.843   2.536  -3.216  1.00  0.00    -0.333 N 
ATOM     16  H   UNL     1      -1.447   3.412  -3.002  1.00  0.00     0.165 HD
BRANCH  15  17
ATOM     17  C   UNL     1      -2.387   2.654  -4.593  1.00  0.00     0.036 C 
ATOM     18  C   UNL     1      -3.860   3.089  -4.496  1.00  0.00     0.034 C 
ATOM     19  C   UNL     1      -1.620   3.828  -5.263  1.00  0.00     0.034 C 
BRANCH  17  20
ATOM     20  C   UNL     1      -2.233   1.444  -5.537  1.00  0.00     0.024 C 
ATOM     21  C   UNL     1      -0.837   0.837  -5.606  1.00  0.00     0.006 C 
ENDBRANCH  17  20
ENDBRANCH  15  17
ENDBRANCH   9  13
ENDBRANCH   8   9
ENDBRANCH   5   8
ENDBRANCH   3   4
ENDBRANCH   2   3
ENDBRANCH   1   2
BRANCH   1  22
ATOM     22  C   UNL     1      -7.150   0.549   1.006  1.00  0.00     0.002 C 
BRANCH  22  23
ATOM     23  C   UNL     1      -6.877  -0.473   2.114  1.00  0.00     0.021 C 
BRANCH  23  24
ATOM     24  C   UNL     1      -6.484   0.124   3.457  1.00  0.00     0.116 C 
BRANCH  24  25
ATOM     25  N   UNL     1      -7.537   0.956   4.005  1.00  0.00    -0.352 N 
ATOM     26  C   UNL     1      -8.137   0.889   5.233  1.00  0.00     0.251 C 
ATOM     27  H   UNL     1      -7.865   1.669   3.411  1.00  0.00     0.163 HD
ATOM     28  O   UNL     1      -9.170   1.531   5.436  1.00  0.00    -0.269 OA
BRANCH  26  29
ATOM     29  C   UNL     1      -7.565   0.040   6.300  1.00  0.00     0.039 A 
ATOM     30  C   UNL     1      -8.433  -0.700   7.105  1.00  0.00     0.014 A 
ATOM     31  C   UNL     1      -6.184  -0.012   6.526  1.00  0.00     0.014 A 
ATOM     32  C   UNL     1      -7.917  -1.512   8.115  1.00  0.00     0.010 A 
ATOM     33  C   UNL     1      -5.667  -0.882   7.483  1.00  0.00     0.010 A 
ATOM     34  C   UNL     1      -6.529  -1.624   8.302  1.00  0.00    -0.014 A 
BRANCH  34  35
ATOM     35  C   UNL     1      -5.987  -2.504   9.367  1.00  0.00     0.031 A 
ATOM     36  C   UNL     1      -5.241  -1.919  10.535  1.00  0.00     0.074 A 
ATOM     37  C   UNL     1      -6.149  -3.837   9.265  1.00  0.00     0.049 A 
ATOM     38  N   UNL     1      -4.747  -2.519  11.588  1.00  0.00    -0.248 NA
ATOM     39  C   UNL     1      -4.984  -0.472  10.495  1.00  0.00     0.031 C 
ATOM     40  C   UNL     1      -6.778  -4.524   8.134  1.00  0.00     0.029 A 
ATOM     41  N   UNL     1      -5.802  -4.851  10.119  1.00  0.00    -0.354 N 
ATOM     42  C   UNL     1      -4.116  -1.527  12.331  1.00  0.00     0.074 A 
ATOM     43  C   UNL     1      -4.226  -0.303  11.566  1.00  0.00     0.031 C 
ATOM     44  C   UNL     1      -6.797  -5.844   8.379  1.00  0.00     0.029 A 
ATOM     45  C   UNL     1      -6.165  -6.098   9.669  1.00  0.00     0.049 A 
ATOM     46  H   UNL     1      -5.337  -4.701  10.974  1.00  0.00     0.167 HD
ATOM     47  C   UNL     1      -3.524  -1.623  13.548  1.00  0.00     0.034 A 
ATOM     48  C   UNL     1      -6.015  -7.310  10.237  1.00  0.00     0.034 A 
ATOM     49  C   UNL     1      -3.431  -2.858  14.293  1.00  0.00     0.049 A 
ATOM     50  C   UNL     1      -5.404  -7.393  11.610  1.00  0.00     0.074 A 
ATOM     51  C   UNL     1      -2.925  -3.067  15.563  1.00  0.00     0.029 A 
ATOM     52  N   UNL     1      -3.844  -4.101  13.824  1.00  0.00    -0.354 N 
ATOM     53  N   UNL     1      -4.900  -6.431  12.350  1.00  0.00    -0.248 NA
ATOM     54  C   UNL     1      -5.371  -8.719  12.235  1.00  0.00     0.031 C 
ATOM     55  C   UNL     1      -2.967  -4.440  15.834  1.00  0.00     0.029 A 
ATOM     56  C   UNL     1      -3.573  -5.084  14.766  1.00  0.00     0.049 A 
ATOM     57  H   UNL     1      -4.266  -4.261  12.950  1.00  0.00     0.167 HD
ATOM     58  C   UNL     1      -4.502  -7.037  13.538  1.00  0.00     0.074 A 
ATOM     59  C   UNL     1      -4.856  -8.438  13.423  1.00  0.00     0.031 C 
ATOM     60  C   UNL     1      -3.899  -6.486  14.624  1.00  0.00     0.034 A 
BRANCH  47  61
ATOM     61  C   UNL     1      -2.910  -0.363  14.121  1.00  0.00     0.023 A 
ATOM     62  C   UNL     1      -3.680   0.787  14.374  1.00  0.00     0.031 A 
ATOM     63  C   UNL     1      -1.527  -0.289  14.363  1.00  0.00     0.131 A 
ATOM     64  C   UNL     1      -3.053   1.985  14.753  1.00  0.00     0.055 A 
ATOM     65  C   UNL     1      -0.921   0.881  14.829  1.00  0.00     0.041 A 
ATOM     66  F   UNL     1      -0.733  -1.344  14.124  1.00  0.00    -0.206 F 
ATOM     67  C   UNL     1      -1.681   2.033  15.007  1.00  0.00     0.022 A 
BRANCH  64  68
ATOM     68  S   UNL     1      -4.027   3.516  14.732  1.00  0.00     0.124 S 
ATOM     69  O   UNL     1      -4.521   3.534  13.357  1.00  0.00    -0.237 OA
ATOM     70  O   UNL     1      -5.024   3.269  15.767  1.00  0.00    -0.237 OA
ATOM     71  O   UNL     1      -3.044   4.552  15.045  1.00  0.00    -0.744 OA
ENDBRANCH  64  68
ENDBRANCH  47  61
BRANCH  48  72
ATOM     72  C   UNL     1      -6.462  -8.531   9.511  1.00  0.00     0.023 A 
ATOM     73  C   UNL     1      -7.557  -9.289   9.956  1.00  0.00     0.031 A 
ATOM     74  C   UNL     1      -5.795  -8.953   8.347  1.00  0.00     0.131 A 
ATOM     75  C   UNL     1      -7.933 -10.447   9.258  1.00  0.00     0.055 A 
ATOM     76  C   UNL     1      -6.199 -10.081   7.633  1.00  0.00     0.041 A 
ATOM     77  F   UNL     1      -4.752  -8.253   7.872  1.00  0.00    -0.206 F 
ATOM     78  C   UNL     1      -7.270 -10.841   8.093  1.00  0.00     0.022 A 
BRANCH  75  79
ATOM     79  S   UNL     1      -9.282 -11.463   9.920  1.00  0.00     0.124 S 
ATOM     80  O   UNL     1      -8.760 -11.838  11.229  1.00  0.00    -0.237 OA
ATOM     81  O   UNL     1     -10.398 -10.523   9.919  1.00  0.00    -0.237 OA
ATOM     82  O   UNL     1      -9.391 -12.555   8.954  1.00  0.00    -0.744 OA
ENDBRANCH  75  79
ENDBRANCH  48  72
BRANCH  60  83
ATOM     83  C   UNL     1      -3.602  -7.417  15.776  1.00  0.00     0.023 A 
ATOM     84  C   UNL     1      -2.697  -8.486  15.645  1.00  0.00     0.031 A 
ATOM     85  C   UNL     1      -4.269  -7.264  17.005  1.00  0.00     0.131 A 
ATOM     86  C   UNL     1      -2.544  -9.406  16.692  1.00  0.00     0.055 A 
ATOM     87  C   UNL     1      -4.059  -8.143  18.069  1.00  0.00     0.041 A 
ATOM     88  F   UNL     1      -5.146  -6.264  17.188  1.00  0.00    -0.206 F 
ATOM     89  C   UNL     1      -3.207  -9.232  17.910  1.00  0.00     0.022 A 
BRANCH  86  90
ATOM     90  S   UNL     1      -1.574 -10.909  16.393  1.00  0.00     0.124 S 
ATOM     91  O   UNL     1      -2.226 -11.460  15.209  1.00  0.00    -0.237 OA
ATOM     92  O   UNL     1      -0.230 -10.377  16.192  1.00  0.00    -0.237 OA
ATOM     93  O   UNL     1      -1.757 -11.685  17.618  1.00  0.00    -0.744 OA
ENDBRANCH  86  90
ENDBRANCH  60  83
ENDBRANCH  34  35
ENDBRANCH  26  29
ENDBRANCH  24  25
ENDBRANCH  23  24
ENDBRANCH  22  23
ENDBRANCH   1  22
TORSDOF 22
